MODEL 1
REMARK VINA RESULT:    -5.460      0.000      0.000
REMARK INTER + INTRA:         -19.186
REMARK INTER:                 -14.398
REMARK INTRA:                  -4.788
REMARK UNBOUND:                -4.788
REMARK SMILES CCCCCCCCCCCCCCCCCCCCCCCCCCCCCC(=O)[O-]
REMARK SMILES IDX 16 1 17 2 18 3 19 4 20 5 21 6 22 7 23 8 24 9 25 10 26 11
REMARK SMILES IDX 27 12 28 13 29 14 30 15 31 16 32 17 15 18 14 19 13 20 12 21
REMARK SMILES IDX 11 22 10 23 9 24 8 25 7 26 6 27 5 28 4 29 3 30 2 31 1 32
REMARK H PARENT
REMARK Flexibility Score: inf
ROOT
ATOM      1  C   UNL     1      22.741  -6.285  32.033  1.00  0.00     0.000 C 
ENDROOT
BRANCH   1   2
ATOM      2  C   UNL     1      22.208  -5.874  30.647  1.00  0.00     0.000 C 
BRANCH   2   3
ATOM      3  C   UNL     1      20.843  -6.499  30.315  1.00  0.00     0.000 C 
BRANCH   3   4
ATOM      4  C   UNL     1      19.663  -5.567  30.648  1.00  0.00     0.000 C 
BRANCH   4   5
ATOM      5  C   UNL     1      18.600  -6.163  31.588  1.00  0.00     0.000 C 
BRANCH   5   6
ATOM      6  C   UNL     1      19.142  -7.324  32.440  1.00  0.00     0.000 C 
BRANCH   6   7
ATOM      7  C   UNL     1      18.042  -8.304  32.883  1.00  0.00     0.000 C 
BRANCH   7   8
ATOM      8  C   UNL     1      16.749  -7.648  33.407  1.00  0.00     0.000 C 
BRANCH   8   9
ATOM      9  C   UNL     1      16.866  -7.095  34.843  1.00  0.00     0.000 C 
BRANCH   9  10
ATOM     10  C   UNL     1      16.261  -5.687  34.982  1.00  0.00     0.000 C 
BRANCH  10  11
ATOM     11  C   UNL     1      17.240  -4.590  34.504  1.00  0.00     0.000 C 
BRANCH  11  12
ATOM     12  C   UNL     1      16.675  -3.731  33.357  1.00  0.00     0.000 C 
BRANCH  12  13
ATOM     13  C   UNL     1      16.973  -2.222  33.499  1.00  0.00     0.006 C 
BRANCH  13  14
ATOM     14  C   UNL     1      15.819  -1.419  34.119  1.00  0.00     0.053 C 
BRANCH  14  15
ATOM     15  C   UNL     1      15.835   0.018  33.706  1.00  0.00     0.041 C 
ATOM     16  O   UNL     1      15.795   0.929  34.574  1.00  0.00    -0.550 OA
ATOM     17  O   UNL     1      15.884   0.354  32.359  1.00  0.00    -0.550 OA
ENDBRANCH  14  15
ENDBRANCH  13  14
ENDBRANCH  12  13
ENDBRANCH  11  12
ENDBRANCH  10  11
ENDBRANCH   9  10
ENDBRANCH   8   9
ENDBRANCH   7   8
ENDBRANCH   6   7
ENDBRANCH   5   6
ENDBRANCH   4   5
ENDBRANCH   3   4
ENDBRANCH   2   3
ENDBRANCH   1   2
BRANCH   1  18
ATOM     18  C   UNL     1      22.518  -5.257  33.158  1.00  0.00     0.000 C 
BRANCH  18  19
ATOM     19  C   UNL     1      21.471  -5.650  34.218  1.00  0.00     0.000 C 
BRANCH  19  20
ATOM     20  C   UNL     1      20.465  -4.530  34.559  1.00  0.00     0.000 C 
BRANCH  20  21
ATOM     21  C   UNL     1      20.528  -3.352  33.570  1.00  0.00     0.000 C 
BRANCH  21  22
ATOM     22  C   UNL     1      20.567  -1.988  34.281  1.00  0.00     0.000 C 
BRANCH  22  23
ATOM     23  C   UNL     1      21.175  -2.075  35.688  1.00  0.00     0.000 C 
BRANCH  23  24
ATOM     24  C   UNL     1      22.667  -1.707  35.670  1.00  0.00    -0.000 C 
BRANCH  24  25
ATOM     25  C   UNL     1      23.577  -2.923  35.906  1.00  0.00    -0.000 C 
BRANCH  25  26
ATOM     26  C   UNL     1      23.206  -3.701  37.181  1.00  0.00    -0.000 C 
BRANCH  26  27
ATOM     27  C   UNL     1      23.500  -5.205  37.060  1.00  0.00    -0.000 C 
BRANCH  27  28
ATOM     28  C   UNL     1      22.473  -6.074  37.805  1.00  0.00    -0.000 C 
BRANCH  28  29
ATOM     29  C   UNL     1      22.883  -6.357  39.260  1.00  0.00    -0.000 C 
BRANCH  29  30
ATOM     30  C   UNL     1      24.012  -7.396  39.363  1.00  0.00    -0.000 C 
BRANCH  30  31
ATOM     31  C   UNL     1      25.367  -6.760  39.712  1.00  0.00    -0.003 C 
ATOM     32  C   UNL     1      25.224  -5.487  40.545  1.00  0.00     0.004 C 
ENDBRANCH  30  31
ENDBRANCH  29  30
ENDBRANCH  28  29
ENDBRANCH  27  28
ENDBRANCH  26  27
ENDBRANCH  25  26
ENDBRANCH  24  25
ENDBRANCH  23  24
ENDBRANCH  22  23
ENDBRANCH  21  22
ENDBRANCH  20  21
ENDBRANCH  19  20
ENDBRANCH  18  19
ENDBRANCH   1  18
TORSDOF 28
ENDMDL
MODEL 2
REMARK VINA RESULT:    -5.453      3.707      7.224
REMARK INTER + INTRA:         -19.166
REMARK INTER:                 -13.827
REMARK INTRA:                  -5.339
REMARK UNBOUND:                -4.788
REMARK SMILES CCCCCCCCCCCCCCCCCCCCCCCCCCCCCC(=O)[O-]
REMARK SMILES IDX 16 1 17 2 18 3 19 4 20 5 21 6 22 7 23 8 24 9 25 10 26 11
REMARK SMILES IDX 27 12 28 13 29 14 30 15 31 16 32 17 15 18 14 19 13 20 12 21
REMARK SMILES IDX 11 22 10 23 9 24 8 25 7 26 6 27 5 28 4 29 3 30 2 31 1 32
REMARK H PARENT
REMARK Flexibility Score: inf
ROOT
ATOM      1  C   UNL     1      22.157  -5.465  30.664  1.00  0.00     0.000 C 
ENDROOT
BRANCH   1   2
ATOM      2  C   UNL     1      20.876  -6.186  30.204  1.00  0.00     0.000 C 
BRANCH   2   3
ATOM      3  C   UNL     1      19.607  -5.338  30.390  1.00  0.00     0.000 C 
BRANCH   3   4
ATOM      4  C   UNL     1      19.914  -3.884  30.794  1.00  0.00     0.000 C 
BRANCH   4   5
ATOM      5  C   UNL     1      19.300  -3.431  32.131  1.00  0.00     0.000 C 
BRANCH   5   6
ATOM      6  C   UNL     1      20.351  -3.260  33.242  1.00  0.00     0.000 C 
BRANCH   6   7
ATOM      7  C   UNL     1      20.130  -1.990  34.082  1.00  0.00     0.000 C 
BRANCH   7   8
ATOM      8  C   UNL     1      20.773  -2.008  35.483  1.00  0.00     0.000 C 
BRANCH   8   9
ATOM      9  C   UNL     1      22.244  -1.540  35.504  1.00  0.00     0.000 C 
BRANCH   9  10
ATOM     10  C   UNL     1      23.235  -2.716  35.526  1.00  0.00     0.000 C 
BRANCH  10  11
ATOM     11  C   UNL     1      22.712  -3.895  36.378  1.00  0.00     0.000 C 
BRANCH  11  12
ATOM     12  C   UNL     1      22.915  -3.687  37.891  1.00  0.00     0.000 C 
BRANCH  12  13
ATOM     13  C   UNL     1      23.361  -4.959  38.644  1.00  0.00     0.006 C 
BRANCH  13  14
ATOM     14  C   UNL     1      24.830  -5.340  38.397  1.00  0.00     0.053 C 
BRANCH  14  15
ATOM     15  C   UNL     1      25.503  -5.851  39.631  1.00  0.00     0.041 C 
ATOM     16  O   UNL     1      25.212  -5.371  40.757  1.00  0.00    -0.550 OA
ATOM     17  O   UNL     1      26.462  -6.852  39.537  1.00  0.00    -0.550 OA
ENDBRANCH  14  15
ENDBRANCH  13  14
ENDBRANCH  12  13
ENDBRANCH  11  12
ENDBRANCH  10  11
ENDBRANCH   9  10
ENDBRANCH   8   9
ENDBRANCH   7   8
ENDBRANCH   6   7
ENDBRANCH   5   6
ENDBRANCH   4   5
ENDBRANCH   3   4
ENDBRANCH   2   3
ENDBRANCH   1   2
BRANCH   1  18
ATOM     18  C   UNL     1      22.643  -5.819  32.083  1.00  0.00     0.000 C 
BRANCH  18  19
ATOM     19  C   UNL     1      21.962  -7.039  32.732  1.00  0.00     0.000 C 
BRANCH  19  20
ATOM     20  C   UNL     1      21.305  -6.745  34.097  1.00  0.00     0.000 C 
BRANCH  20  21
ATOM     21  C   UNL     1      19.771  -6.632  34.007  1.00  0.00     0.000 C 
BRANCH  21  22
ATOM     22  C   UNL     1      19.157  -7.683  33.068  1.00  0.00     0.000 C 
BRANCH  22  23
ATOM     23  C   UNL     1      17.629  -7.560  32.968  1.00  0.00     0.000 C 
BRANCH  23  24
ATOM     24  C   UNL     1      16.932  -8.544  33.921  1.00  0.00    -0.000 C 
BRANCH  24  25
ATOM     25  C   UNL     1      15.871  -7.861  34.800  1.00  0.00    -0.000 C 
BRANCH  25  26
ATOM     26  C   UNL     1      16.489  -6.933  35.860  1.00  0.00    -0.000 C 
BRANCH  26  27
ATOM     27  C   UNL     1      16.083  -5.462  35.664  1.00  0.00    -0.000 C 
BRANCH  27  28
ATOM     28  C   UNL     1      17.293  -4.533  35.466  1.00  0.00    -0.000 C 
BRANCH  28  29
ATOM     29  C   UNL     1      17.983  -4.171  36.792  1.00  0.00    -0.000 C 
BRANCH  29  30
ATOM     30  C   UNL     1      19.267  -4.985  37.029  1.00  0.00    -0.000 C 
BRANCH  30  31
ATOM     31  C   UNL     1      19.338  -5.570  38.449  1.00  0.00    -0.003 C 
ATOM     32  C   UNL     1      17.984  -5.570  39.156  1.00  0.00     0.004 C 
ENDBRANCH  30  31
ENDBRANCH  29  30
ENDBRANCH  28  29
ENDBRANCH  27  28
ENDBRANCH  26  27
ENDBRANCH  25  26
ENDBRANCH  24  25
ENDBRANCH  23  24
ENDBRANCH  22  23
ENDBRANCH  21  22
ENDBRANCH  20  21
ENDBRANCH  19  20
ENDBRANCH  18  19
ENDBRANCH   1  18
TORSDOF 28
ENDMDL
MODEL 3
REMARK VINA RESULT:    -5.431      1.538      2.924
REMARK INTER + INTRA:         -19.108
REMARK INTER:                 -13.245
REMARK INTRA:                  -5.862
REMARK UNBOUND:                -4.788
REMARK SMILES CCCCCCCCCCCCCCCCCCCCCCCCCCCCCC(=O)[O-]
REMARK SMILES IDX 16 1 17 2 18 3 19 4 20 5 21 6 22 7 23 8 24 9 25 10 26 11
REMARK SMILES IDX 27 12 28 13 29 14 30 15 31 16 32 17 15 18 14 19 13 20 12 21
REMARK SMILES IDX 11 22 10 23 9 24 8 25 7 26 6 27 5 28 4 29 3 30 2 31 1 32
REMARK H PARENT
REMARK Flexibility Score: inf
ROOT
ATOM      1  C   UNL     1      22.588  -5.463  31.793  1.00  0.00     0.000 C 
ENDROOT
BRANCH   1   2
ATOM      2  C   UNL     1      22.244  -5.789  33.259  1.00  0.00     0.000 C 
BRANCH   2   3
ATOM      3  C   UNL     1      21.521  -7.136  33.424  1.00  0.00     0.000 C 
BRANCH   3   4
ATOM      4  C   UNL     1      20.018  -6.975  33.720  1.00  0.00     0.000 C 
BRANCH   4   5
ATOM      5  C   UNL     1      19.075  -7.710  32.750  1.00  0.00     0.000 C 
BRANCH   5   6
ATOM      6  C   UNL     1      17.598  -7.332  32.954  1.00  0.00     0.000 C 
BRANCH   6   7
ATOM      7  C   UNL     1      17.413  -6.153  33.925  1.00  0.00     0.000 C 
BRANCH   7   8
ATOM      8  C   UNL     1      16.150  -6.217  34.805  1.00  0.00     0.000 C 
BRANCH   8   9
ATOM      9  C   UNL     1      16.427  -6.042  36.313  1.00  0.00     0.000 C 
BRANCH   9  10
ATOM     10  C   UNL     1      15.994  -4.662  36.835  1.00  0.00     0.000 C 
BRANCH  10  11
ATOM     11  C   UNL     1      17.208  -3.772  37.186  1.00  0.00     0.000 C 
BRANCH  11  12
ATOM     12  C   UNL     1      17.327  -2.525  36.289  1.00  0.00     0.000 C 
BRANCH  12  13
ATOM     13  C   UNL     1      16.295  -2.479  35.141  1.00  0.00     0.006 C 
BRANCH  13  14
ATOM     14  C   UNL     1      16.698  -1.550  33.984  1.00  0.00     0.053 C 
BRANCH  14  15
ATOM     15  C   UNL     1      15.552  -0.732  33.481  1.00  0.00     0.041 C 
ATOM     16  O   UNL     1      14.404  -0.876  33.978  1.00  0.00    -0.550 OA
ATOM     17  O   UNL     1      15.748   0.184  32.455  1.00  0.00    -0.550 OA
ENDBRANCH  14  15
ENDBRANCH  13  14
ENDBRANCH  12  13
ENDBRANCH  11  12
ENDBRANCH  10  11
ENDBRANCH   9  10
ENDBRANCH   8   9
ENDBRANCH   7   8
ENDBRANCH   6   7
ENDBRANCH   5   6
ENDBRANCH   4   5
ENDBRANCH   3   4
ENDBRANCH   2   3
ENDBRANCH   1   2
BRANCH   1  18
ATOM     18  C   UNL     1      22.141  -6.514  30.759  1.00  0.00     0.000 C 
BRANCH  18  19
ATOM     19  C   UNL     1      20.832  -6.194  30.012  1.00  0.00     0.000 C 
BRANCH  19  20
ATOM     20  C   UNL     1      20.416  -4.709  30.071  1.00  0.00     0.000 C 
BRANCH  20  21
ATOM     21  C   UNL     1      19.178  -4.473  30.956  1.00  0.00     0.000 C 
BRANCH  21  22
ATOM     22  C   UNL     1      19.290  -3.189  31.795  1.00  0.00     0.000 C 
BRANCH  22  23
ATOM     23  C   UNL     1      19.665  -3.474  33.257  1.00  0.00     0.000 C 
BRANCH  23  24
ATOM     24  C   UNL     1      20.429  -2.291  33.872  1.00  0.00    -0.000 C 
BRANCH  24  25
ATOM     25  C   UNL     1      20.881  -2.566  35.314  1.00  0.00    -0.000 C 
BRANCH  25  26
ATOM     26  C   UNL     1      22.132  -1.761  35.708  1.00  0.00    -0.000 C 
BRANCH  26  27
ATOM     27  C   UNL     1      23.397  -2.634  35.775  1.00  0.00    -0.000 C 
BRANCH  27  28
ATOM     28  C   UNL     1      23.411  -3.567  36.997  1.00  0.00    -0.000 C 
BRANCH  28  29
ATOM     29  C   UNL     1      23.393  -5.054  36.606  1.00  0.00    -0.000 C 
BRANCH  29  30
ATOM     30  C   UNL     1      22.476  -5.891  37.515  1.00  0.00    -0.000 C 
BRANCH  30  31
ATOM     31  C   UNL     1      20.996  -5.787  37.113  1.00  0.00    -0.003 C 
ATOM     32  C   UNL     1      20.092  -5.399  38.282  1.00  0.00     0.004 C 
ENDBRANCH  30  31
ENDBRANCH  29  30
ENDBRANCH  28  29
ENDBRANCH  27  28
ENDBRANCH  26  27
ENDBRANCH  25  26
ENDBRANCH  24  25
ENDBRANCH  23  24
ENDBRANCH  22  23
ENDBRANCH  21  22
ENDBRANCH  20  21
ENDBRANCH  19  20
ENDBRANCH  18  19
ENDBRANCH   1  18
TORSDOF 28
ENDMDL
MODEL 4
REMARK VINA RESULT:    -5.372      3.800      7.112
REMARK INTER + INTRA:         -18.953
REMARK INTER:                 -13.745
REMARK INTRA:                  -5.208
REMARK UNBOUND:                -4.788
REMARK SMILES CCCCCCCCCCCCCCCCCCCCCCCCCCCCCC(=O)[O-]
REMARK SMILES IDX 16 1 17 2 18 3 19 4 20 5 21 6 22 7 23 8 24 9 25 10 26 11
REMARK SMILES IDX 27 12 28 13 29 14 30 15 31 16 32 17 15 18 14 19 13 20 12 21
REMARK SMILES IDX 11 22 10 23 9 24 8 25 7 26 6 27 5 28 4 29 3 30 2 31 1 32
REMARK H PARENT
REMARK Flexibility Score: inf
ROOT
ATOM      1  C   UNL     1      22.554  -6.130  32.478  1.00  0.00     0.000 C 
ENDROOT
BRANCH   1   2
ATOM      2  C   UNL     1      21.515  -6.858  33.353  1.00  0.00     0.000 C 
BRANCH   2   3
ATOM      3  C   UNL     1      21.172  -6.096  34.644  1.00  0.00     0.000 C 
BRANCH   3   4
ATOM      4  C   UNL     1      20.953  -4.590  34.408  1.00  0.00     0.000 C 
BRANCH   4   5
ATOM      5  C   UNL     1      19.771  -3.970  35.175  1.00  0.00     0.000 C 
BRANCH   5   6
ATOM      6  C   UNL     1      19.591  -2.471  34.880  1.00  0.00     0.000 C 
BRANCH   6   7
ATOM      7  C   UNL     1      20.897  -1.788  34.440  1.00  0.00     0.000 C 
BRANCH   7   8
ATOM      8  C   UNL     1      21.423  -0.697  35.393  1.00  0.00     0.000 C 
BRANCH   8   9
ATOM      9  C   UNL     1      22.889  -0.901  35.831  1.00  0.00     0.000 C 
BRANCH   9  10
ATOM     10  C   UNL     1      23.281  -2.387  35.902  1.00  0.00     0.000 C 
BRANCH  10  11
ATOM     11  C   UNL     1      22.777  -3.054  37.202  1.00  0.00     0.000 C 
BRANCH  11  12
ATOM     12  C   UNL     1      23.412  -4.433  37.461  1.00  0.00     0.000 C 
BRANCH  12  13
ATOM     13  C   UNL     1      22.972  -5.086  38.790  1.00  0.00     0.006 C 
BRANCH  13  14
ATOM     14  C   UNL     1      21.712  -5.957  38.663  1.00  0.00     0.053 C 
BRANCH  14  15
ATOM     15  C   UNL     1      21.760  -7.165  39.543  1.00  0.00     0.041 C 
ATOM     16  O   UNL     1      20.694  -7.711  39.930  1.00  0.00    -0.550 OA
ATOM     17  O   UNL     1      22.984  -7.684  39.946  1.00  0.00    -0.550 OA
ENDBRANCH  14  15
ENDBRANCH  13  14
ENDBRANCH  12  13
ENDBRANCH  11  12
ENDBRANCH  10  11
ENDBRANCH   9  10
ENDBRANCH   8   9
ENDBRANCH   7   8
ENDBRANCH   6   7
ENDBRANCH   5   6
ENDBRANCH   4   5
ENDBRANCH   3   4
ENDBRANCH   2   3
ENDBRANCH   1   2
BRANCH   1  18
ATOM     18  C   UNL     1      22.118  -5.851  31.027  1.00  0.00     0.000 C 
BRANCH  18  19
ATOM     19  C   UNL     1      20.597  -5.812  30.787  1.00  0.00     0.000 C 
BRANCH  19  20
ATOM     20  C   UNL     1      19.992  -4.393  30.789  1.00  0.00     0.000 C 
BRANCH  20  21
ATOM     21  C   UNL     1      18.657  -4.316  31.553  1.00  0.00     0.000 C 
BRANCH  21  22
ATOM     22  C   UNL     1      18.197  -5.687  32.075  1.00  0.00     0.000 C 
BRANCH  22  23
ATOM     23  C   UNL     1      17.339  -5.575  33.345  1.00  0.00     0.000 C 
BRANCH  23  24
ATOM     24  C   UNL     1      17.349  -6.892  34.137  1.00  0.00    -0.000 C 
BRANCH  24  25
ATOM     25  C   UNL     1      16.624  -6.773  35.487  1.00  0.00    -0.000 C 
BRANCH  25  26
ATOM     26  C   UNL     1      16.176  -5.334  35.794  1.00  0.00    -0.000 C 
BRANCH  26  27
ATOM     27  C   UNL     1      16.692  -4.834  37.153  1.00  0.00    -0.000 C 
BRANCH  27  28
ATOM     28  C   UNL     1      17.780  -5.744  37.748  1.00  0.00    -0.000 C 
BRANCH  28  29
ATOM     29  C   UNL     1      17.886  -5.618  39.277  1.00  0.00    -0.000 C 
BRANCH  29  30
ATOM     30  C   UNL     1      17.149  -6.749  40.014  1.00  0.00    -0.000 C 
BRANCH  30  31
ATOM     31  C   UNL     1      16.004  -6.227  40.897  1.00  0.00    -0.003 C 
ATOM     32  C   UNL     1      16.198  -6.562  42.375  1.00  0.00     0.004 C 
ENDBRANCH  30  31
ENDBRANCH  29  30
ENDBRANCH  28  29
ENDBRANCH  27  28
ENDBRANCH  26  27
ENDBRANCH  25  26
ENDBRANCH  24  25
ENDBRANCH  23  24
ENDBRANCH  22  23
ENDBRANCH  21  22
ENDBRANCH  20  21
ENDBRANCH  19  20
ENDBRANCH  18  19
ENDBRANCH   1  18
TORSDOF 28
ENDMDL
MODEL 5
REMARK VINA RESULT:    -5.320      1.621      4.679
REMARK INTER + INTRA:         -18.817
REMARK INTER:                 -13.291
REMARK INTRA:                  -5.526
REMARK UNBOUND:                -4.788
REMARK SMILES CCCCCCCCCCCCCCCCCCCCCCCCCCCCCC(=O)[O-]
REMARK SMILES IDX 16 1 17 2 18 3 19 4 20 5 21 6 22 7 23 8 24 9 25 10 26 11
REMARK SMILES IDX 27 12 28 13 29 14 30 15 31 16 32 17 15 18 14 19 13 20 12 21
REMARK SMILES IDX 11 22 10 23 9 24 8 25 7 26 6 27 5 28 4 29 3 30 2 31 1 32
REMARK H PARENT
REMARK Flexibility Score: inf
ROOT
ATOM      1  C   UNL     1      17.609  -6.133  34.448  1.00  0.00     0.000 C 
ENDROOT
BRANCH   1   2
ATOM      2  C   UNL     1      18.043  -7.356  33.619  1.00  0.00     0.000 C 
BRANCH   2   3
ATOM      3  C   UNL     1      18.525  -6.988  32.206  1.00  0.00     0.000 C 
BRANCH   3   4
ATOM      4  C   UNL     1      18.160  -5.546  31.808  1.00  0.00     0.000 C 
BRANCH   4   5
ATOM      5  C   UNL     1      19.159  -4.851  30.865  1.00  0.00     0.000 C 
BRANCH   5   6
ATOM      6  C   UNL     1      19.889  -5.840  29.939  1.00  0.00     0.000 C 
BRANCH   6   7
ATOM      7  C   UNL     1      21.407  -5.596  29.883  1.00  0.00     0.000 C 
BRANCH   7   8
ATOM      8  C   UNL     1      22.248  -6.456  30.845  1.00  0.00     0.000 C 
BRANCH   8   9
ATOM      9  C   UNL     1      22.541  -5.776  32.200  1.00  0.00     0.000 C 
BRANCH   9  10
ATOM     10  C   UNL     1      21.846  -6.483  33.376  1.00  0.00     0.000 C 
BRANCH  10  11
ATOM     11  C   UNL     1      21.288  -5.476  34.406  1.00  0.00     0.000 C 
BRANCH  11  12
ATOM     12  C   UNL     1      21.038  -4.077  33.813  1.00  0.00     0.000 C 
BRANCH  12  13
ATOM     13  C   UNL     1      19.958  -3.263  34.560  1.00  0.00     0.006 C 
BRANCH  13  14
ATOM     14  C   UNL     1      19.058  -2.432  33.632  1.00  0.00     0.053 C 
BRANCH  14  15
ATOM     15  C   UNL     1      17.641  -2.379  34.108  1.00  0.00     0.041 C 
ATOM     16  O   UNL     1      17.380  -2.017  35.284  1.00  0.00    -0.550 OA
ATOM     17  O   UNL     1      16.606  -2.740  33.254  1.00  0.00    -0.550 OA
ENDBRANCH  14  15
ENDBRANCH  13  14
ENDBRANCH  12  13
ENDBRANCH  11  12
ENDBRANCH  10  11
ENDBRANCH   9  10
ENDBRANCH   8   9
ENDBRANCH   7   8
ENDBRANCH   6   7
ENDBRANCH   5   6
ENDBRANCH   4   5
ENDBRANCH   3   4
ENDBRANCH   2   3
ENDBRANCH   1   2
BRANCH   1  18
ATOM     18  C   UNL     1      16.539  -6.407  35.522  1.00  0.00     0.000 C 
BRANCH  18  19
ATOM     19  C   UNL     1      16.951  -6.078  36.969  1.00  0.00     0.000 C 
BRANCH  19  20
ATOM     20  C   UNL     1      18.320  -5.376  37.093  1.00  0.00     0.000 C 
BRANCH  20  21
ATOM     21  C   UNL     1      19.020  -5.668  38.433  1.00  0.00     0.000 C 
BRANCH  21  22
ATOM     22  C   UNL     1      20.551  -5.722  38.300  1.00  0.00     0.000 C 
BRANCH  22  23
ATOM     23  C   UNL     1      21.185  -6.775  39.221  1.00  0.00     0.000 C 
BRANCH  23  24
ATOM     24  C   UNL     1      22.035  -7.772  38.418  1.00  0.00    -0.000 C 
BRANCH  24  25
ATOM     25  C   UNL     1      23.262  -8.265  39.202  1.00  0.00    -0.000 C 
BRANCH  25  26
ATOM     26  C   UNL     1      23.959  -7.137  39.982  1.00  0.00    -0.000 C 
BRANCH  26  27
ATOM     27  C   UNL     1      25.346  -6.796  39.412  1.00  0.00    -0.000 C 
BRANCH  27  28
ATOM     28  C   UNL     1      25.492  -5.308  39.051  1.00  0.00    -0.000 C 
BRANCH  28  29
ATOM     29  C   UNL     1      24.136  -4.622  38.813  1.00  0.00    -0.000 C 
BRANCH  29  30
ATOM     30  C   UNL     1      23.799  -4.487  37.318  1.00  0.00    -0.000 C 
BRANCH  30  31
ATOM     31  C   UNL     1      22.866  -3.299  37.031  1.00  0.00    -0.003 C 
ATOM     32  C   UNL     1      23.367  -2.418  35.889  1.00  0.00     0.004 C 
ENDBRANCH  30  31
ENDBRANCH  29  30
ENDBRANCH  28  29
ENDBRANCH  27  28
ENDBRANCH  26  27
ENDBRANCH  25  26
ENDBRANCH  24  25
ENDBRANCH  23  24
ENDBRANCH  22  23
ENDBRANCH  21  22
ENDBRANCH  20  21
ENDBRANCH  19  20
ENDBRANCH  18  19
ENDBRANCH   1  18
TORSDOF 28
ENDMDL
MODEL 6
REMARK VINA RESULT:    -5.314     12.970     16.446
REMARK INTER + INTRA:         -18.799
REMARK INTER:                 -12.777
REMARK INTRA:                  -6.022
REMARK UNBOUND:                -4.788
REMARK SMILES CCCCCCCCCCCCCCCCCCCCCCCCCCCCCC(=O)[O-]
REMARK SMILES IDX 16 1 17 2 18 3 19 4 20 5 21 6 22 7 23 8 24 9 25 10 26 11
REMARK SMILES IDX 27 12 28 13 29 14 30 15 31 16 32 17 15 18 14 19 13 20 12 21
REMARK SMILES IDX 11 22 10 23 9 24 8 25 7 26 6 27 5 28 4 29 3 30 2 31 1 32
REMARK H PARENT
REMARK Flexibility Score: inf
ROOT
ATOM      1  C   UNL     1      23.572   6.089  45.060  1.00  0.00     0.000 C 
ENDROOT
BRANCH   1   2
ATOM      2  C   UNL     1      22.564   6.873  44.198  1.00  0.00     0.000 C 
BRANCH   2   3
ATOM      3  C   UNL     1      21.270   7.224  44.951  1.00  0.00     0.000 C 
BRANCH   3   4
ATOM      4  C   UNL     1      21.098   8.739  45.169  1.00  0.00     0.000 C 
BRANCH   4   5
ATOM      5  C   UNL     1      21.215   9.209  46.631  1.00  0.00     0.000 C 
BRANCH   5   6
ATOM      6  C   UNL     1      22.532   9.953  46.913  1.00  0.00     0.000 C 
BRANCH   6   7
ATOM      7  C   UNL     1      23.008  10.796  45.718  1.00  0.00     0.000 C 
BRANCH   7   8
ATOM      8  C   UNL     1      24.464  10.549  45.276  1.00  0.00     0.000 C 
BRANCH   8   9
ATOM      9  C   UNL     1      24.614  10.201  43.780  1.00  0.00     0.000 C 
BRANCH   9  10
ATOM     10  C   UNL     1      23.381  10.607  42.955  1.00  0.00     0.000 C 
BRANCH  10  11
ATOM     11  C   UNL     1      23.048   9.564  41.863  1.00  0.00     0.000 C 
BRANCH  11  12
ATOM     12  C   UNL     1      24.260   8.708  41.452  1.00  0.00     0.000 C 
BRANCH  12  13
ATOM     13  C   UNL     1      23.884   7.367  40.786  1.00  0.00     0.006 C 
BRANCH  13  14
ATOM     14  C   UNL     1      22.509   7.383  40.098  1.00  0.00     0.053 C 
BRANCH  14  15
ATOM     15  C   UNL     1      21.679   6.190  40.451  1.00  0.00     0.041 C 
ATOM     16  O   UNL     1      20.423   6.252  40.395  1.00  0.00    -0.550 OA
ATOM     17  O   UNL     1      22.292   5.009  40.852  1.00  0.00    -0.550 OA
ENDBRANCH  14  15
ENDBRANCH  13  14
ENDBRANCH  12  13
ENDBRANCH  11  12
ENDBRANCH  10  11
ENDBRANCH   9  10
ENDBRANCH   8   9
ENDBRANCH   7   8
ENDBRANCH   6   7
ENDBRANCH   5   6
ENDBRANCH   4   5
ENDBRANCH   3   4
ENDBRANCH   2   3
ENDBRANCH   1   2
BRANCH   1  18
ATOM     18  C   UNL     1      24.473   6.947  45.969  1.00  0.00     0.000 C 
BRANCH  18  19
ATOM     19  C   UNL     1      25.946   7.054  45.532  1.00  0.00     0.000 C 
BRANCH  19  20
ATOM     20  C   UNL     1      26.173   6.858  44.018  1.00  0.00     0.000 C 
BRANCH  20  21
ATOM     21  C   UNL     1      27.258   7.793  43.453  1.00  0.00     0.000 C 
BRANCH  21  22
ATOM     22  C   UNL     1      28.633   7.562  44.104  1.00  0.00     0.000 C 
BRANCH  22  23
ATOM     23  C   UNL     1      29.772   7.521  43.074  1.00  0.00     0.000 C 
BRANCH  23  24
ATOM     24  C   UNL     1      29.386   6.663  41.858  1.00  0.00    -0.000 C 
BRANCH  24  25
ATOM     25  C   UNL     1      29.638   5.165  42.091  1.00  0.00    -0.000 C 
BRANCH  25  26
ATOM     26  C   UNL     1      28.339   4.339  42.092  1.00  0.00    -0.000 C 
BRANCH  26  27
ATOM     27  C   UNL     1      27.944   3.866  43.501  1.00  0.00    -0.000 C 
BRANCH  27  28
ATOM     28  C   UNL     1      29.092   3.995  44.516  1.00  0.00    -0.000 C 
BRANCH  28  29
ATOM     29  C   UNL     1      28.607   3.909  45.972  1.00  0.00    -0.000 C 
BRANCH  29  30
ATOM     30  C   UNL     1      27.435   2.928  46.145  1.00  0.00    -0.000 C 
BRANCH  30  31
ATOM     31  C   UNL     1      26.188   3.601  46.742  1.00  0.00    -0.003 C 
ATOM     32  C   UNL     1      26.449   4.210  48.119  1.00  0.00     0.004 C 
ENDBRANCH  30  31
ENDBRANCH  29  30
ENDBRANCH  28  29
ENDBRANCH  27  28
ENDBRANCH  26  27
ENDBRANCH  25  26
ENDBRANCH  24  25
ENDBRANCH  23  24
ENDBRANCH  22  23
ENDBRANCH  21  22
ENDBRANCH  20  21
ENDBRANCH  19  20
ENDBRANCH  18  19
ENDBRANCH   1  18
TORSDOF 28
ENDMDL
MODEL 7
REMARK VINA RESULT:    -5.303      3.671      7.668
REMARK INTER + INTRA:         -18.771
REMARK INTER:                 -13.366
REMARK INTRA:                  -5.405
REMARK UNBOUND:                -4.788
REMARK SMILES CCCCCCCCCCCCCCCCCCCCCCCCCCCCCC(=O)[O-]
REMARK SMILES IDX 16 1 17 2 18 3 19 4 20 5 21 6 22 7 23 8 24 9 25 10 26 11
REMARK SMILES IDX 27 12 28 13 29 14 30 15 31 16 32 17 15 18 14 19 13 20 12 21
REMARK SMILES IDX 11 22 10 23 9 24 8 25 7 26 6 27 5 28 4 29 3 30 2 31 1 32
REMARK H PARENT
REMARK Flexibility Score: inf
ROOT
ATOM      1  C   UNL     1      22.120  -5.472  30.927  1.00  0.00     0.000 C 
ENDROOT
BRANCH   1   2
ATOM      2  C   UNL     1      20.969  -6.288  30.309  1.00  0.00     0.000 C 
BRANCH   2   3
ATOM      3  C   UNL     1      19.625  -5.538  30.317  1.00  0.00     0.000 C 
BRANCH   3   4
ATOM      4  C   UNL     1      19.770  -4.058  30.715  1.00  0.00     0.000 C 
BRANCH   4   5
ATOM      5  C   UNL     1      19.123  -3.673  32.058  1.00  0.00     0.000 C 
BRANCH   5   6
ATOM      6  C   UNL     1      20.029  -2.776  32.920  1.00  0.00     0.000 C 
BRANCH   6   7
ATOM      7  C   UNL     1      20.302  -3.366  34.313  1.00  0.00     0.000 C 
BRANCH   7   8
ATOM      8  C   UNL     1      21.638  -2.946  34.956  1.00  0.00     0.000 C 
BRANCH   8   9
ATOM      9  C   UNL     1      22.338  -4.075  35.742  1.00  0.00     0.000 C 
BRANCH   9  10
ATOM     10  C   UNL     1      21.932  -4.099  37.225  1.00  0.00     0.000 C 
BRANCH  10  11
ATOM     11  C   UNL     1      20.869  -5.184  37.515  1.00  0.00     0.000 C 
BRANCH  11  12
ATOM     12  C   UNL     1      21.336  -6.232  38.542  1.00  0.00     0.000 C 
BRANCH  12  13
ATOM     13  C   UNL     1      22.810  -6.662  38.373  1.00  0.00     0.006 C 
BRANCH  13  14
ATOM     14  C   UNL     1      23.279  -7.686  39.419  1.00  0.00     0.053 C 
BRANCH  14  15
ATOM     15  C   UNL     1      24.644  -7.380  39.947  1.00  0.00     0.041 C 
ATOM     16  O   UNL     1      24.914  -6.228  40.377  1.00  0.00    -0.550 OA
ATOM     17  O   UNL     1      25.624  -8.364  39.957  1.00  0.00    -0.550 OA
ENDBRANCH  14  15
ENDBRANCH  13  14
ENDBRANCH  12  13
ENDBRANCH  11  12
ENDBRANCH  10  11
ENDBRANCH   9  10
ENDBRANCH   8   9
ENDBRANCH   7   8
ENDBRANCH   6   7
ENDBRANCH   5   6
ENDBRANCH   4   5
ENDBRANCH   3   4
ENDBRANCH   2   3
ENDBRANCH   1   2
BRANCH   1  18
ATOM     18  C   UNL     1      22.478  -5.829  32.382  1.00  0.00     0.000 C 
BRANCH  18  19
ATOM     19  C   UNL     1      21.964  -7.195  32.875  1.00  0.00     0.000 C 
BRANCH  19  20
ATOM     20  C   UNL     1      21.177  -7.134  34.201  1.00  0.00     0.000 C 
BRANCH  20  21
ATOM     21  C   UNL     1      19.728  -6.650  34.011  1.00  0.00     0.000 C 
BRANCH  21  22
ATOM     22  C   UNL     1      18.884  -7.629  33.177  1.00  0.00     0.000 C 
BRANCH  22  23
ATOM     23  C   UNL     1      17.400  -7.234  33.130  1.00  0.00     0.000 C 
BRANCH  23  24
ATOM     24  C   UNL     1      16.512  -8.354  33.695  1.00  0.00    -0.000 C 
BRANCH  24  25
ATOM     25  C   UNL     1      15.940  -8.011  35.079  1.00  0.00    -0.000 C 
BRANCH  25  26
ATOM     26  C   UNL     1      15.971  -6.501  35.376  1.00  0.00    -0.000 C 
BRANCH  26  27
ATOM     27  C   UNL     1      17.042  -6.127  36.413  1.00  0.00    -0.000 C 
BRANCH  27  28
ATOM     28  C   UNL     1      17.079  -4.618  36.713  1.00  0.00    -0.000 C 
BRANCH  28  29
ATOM     29  C   UNL     1      16.865  -3.760  35.455  1.00  0.00    -0.000 C 
BRANCH  29  30
ATOM     30  C   UNL     1      16.724  -2.263  35.780  1.00  0.00    -0.000 C 
BRANCH  30  31
ATOM     31  C   UNL     1      17.043  -1.367  34.573  1.00  0.00    -0.003 C 
ATOM     32  C   UNL     1      16.223  -1.731  33.335  1.00  0.00     0.004 C 
ENDBRANCH  30  31
ENDBRANCH  29  30
ENDBRANCH  28  29
ENDBRANCH  27  28
ENDBRANCH  26  27
ENDBRANCH  25  26
ENDBRANCH  24  25
ENDBRANCH  23  24
ENDBRANCH  22  23
ENDBRANCH  21  22
ENDBRANCH  20  21
ENDBRANCH  19  20
ENDBRANCH  18  19
ENDBRANCH   1  18
TORSDOF 28
ENDMDL
MODEL 8
REMARK VINA RESULT:    -5.302      3.769      7.758
REMARK INTER + INTRA:         -18.770
REMARK INTER:                 -13.170
REMARK INTRA:                  -5.599
REMARK UNBOUND:                -4.788
REMARK SMILES CCCCCCCCCCCCCCCCCCCCCCCCCCCCCC(=O)[O-]
REMARK SMILES IDX 16 1 17 2 18 3 19 4 20 5 21 6 22 7 23 8 24 9 25 10 26 11
REMARK SMILES IDX 27 12 28 13 29 14 30 15 31 16 32 17 15 18 14 19 13 20 12 21
REMARK SMILES IDX 11 22 10 23 9 24 8 25 7 26 6 27 5 28 4 29 3 30 2 31 1 32
REMARK H PARENT
REMARK Flexibility Score: inf
ROOT
ATOM      1  C   UNL     1      20.388  -4.938  30.437  1.00  0.00     0.000 C 
ENDROOT
BRANCH   1   2
ATOM      2  C   UNL     1      19.354  -4.442  31.466  1.00  0.00     0.000 C 
BRANCH   2   3
ATOM      3  C   UNL     1      19.717  -3.078  32.077  1.00  0.00     0.000 C 
BRANCH   3   4
ATOM      4  C   UNL     1      18.645  -2.556  33.051  1.00  0.00     0.000 C 
BRANCH   4   5
ATOM      5  C   UNL     1      19.188  -1.850  34.307  1.00  0.00     0.000 C 
BRANCH   5   6
ATOM      6  C   UNL     1      20.725  -1.785  34.336  1.00  0.00     0.000 C 
BRANCH   6   7
ATOM      7  C   UNL     1      21.263  -0.911  35.482  1.00  0.00     0.000 C 
BRANCH   7   8
ATOM      8  C   UNL     1      22.598  -1.378  36.095  1.00  0.00     0.000 C 
BRANCH   8   9
ATOM      9  C   UNL     1      23.076  -2.753  35.581  1.00  0.00     0.000 C 
BRANCH   9  10
ATOM     10  C   UNL     1      23.657  -3.630  36.703  1.00  0.00     0.000 C 
BRANCH  10  11
ATOM     11  C   UNL     1      22.771  -3.610  37.969  1.00  0.00     0.000 C 
BRANCH  11  12
ATOM     12  C   UNL     1      22.587  -5.001  38.602  1.00  0.00     0.000 C 
BRANCH  12  13
ATOM     13  C   UNL     1      23.898  -5.805  38.743  1.00  0.00     0.006 C 
BRANCH  13  14
ATOM     14  C   UNL     1      24.713  -5.445  39.996  1.00  0.00     0.053 C 
BRANCH  14  15
ATOM     15  C   UNL     1      26.131  -5.910  39.908  1.00  0.00     0.041 C 
ATOM     16  O   UNL     1      26.467  -7.017  40.405  1.00  0.00    -0.550 OA
ATOM     17  O   UNL     1      27.088  -5.117  39.287  1.00  0.00    -0.550 OA
ENDBRANCH  14  15
ENDBRANCH  13  14
ENDBRANCH  12  13
ENDBRANCH  11  12
ENDBRANCH  10  11
ENDBRANCH   9  10
ENDBRANCH   8   9
ENDBRANCH   7   8
ENDBRANCH   6   7
ENDBRANCH   5   6
ENDBRANCH   4   5
ENDBRANCH   3   4
ENDBRANCH   2   3
ENDBRANCH   1   2
BRANCH   1  18
ATOM     18  C   UNL     1      21.393  -5.981  30.959  1.00  0.00     0.000 C 
BRANCH  18  19
ATOM     19  C   UNL     1      21.944  -5.722  32.375  1.00  0.00     0.000 C 
BRANCH  19  20
ATOM     20  C   UNL     1      21.510  -6.767  33.424  1.00  0.00     0.000 C 
BRANCH  20  21
ATOM     21  C   UNL     1      21.597  -6.235  34.866  1.00  0.00     0.000 C 
BRANCH  21  22
ATOM     22  C   UNL     1      20.532  -5.167  35.166  1.00  0.00     0.000 C 
BRANCH  22  23
ATOM     23  C   UNL     1      19.809  -5.416  36.499  1.00  0.00     0.000 C 
BRANCH  23  24
ATOM     24  C   UNL     1      19.153  -4.128  37.021  1.00  0.00    -0.000 C 
BRANCH  24  25
ATOM     25  C   UNL     1      17.731  -4.364  37.551  1.00  0.00    -0.000 C 
BRANCH  25  26
ATOM     26  C   UNL     1      16.928  -5.346  36.679  1.00  0.00    -0.000 C 
BRANCH  26  27
ATOM     27  C   UNL     1      16.382  -4.687  35.401  1.00  0.00    -0.000 C 
BRANCH  27  28
ATOM     28  C   UNL     1      16.908  -5.351  34.118  1.00  0.00    -0.000 C 
BRANCH  28  29
ATOM     29  C   UNL     1      16.714  -6.877  34.119  1.00  0.00    -0.000 C 
BRANCH  29  30
ATOM     30  C   UNL     1      18.049  -7.641  34.099  1.00  0.00    -0.000 C 
BRANCH  30  31
ATOM     31  C   UNL     1      18.171  -8.578  32.886  1.00  0.00    -0.003 C 
ATOM     32  C   UNL     1      18.257  -7.821  31.562  1.00  0.00     0.004 C 
ENDBRANCH  30  31
ENDBRANCH  29  30
ENDBRANCH  28  29
ENDBRANCH  27  28
ENDBRANCH  26  27
ENDBRANCH  25  26
ENDBRANCH  24  25
ENDBRANCH  23  24
ENDBRANCH  22  23
ENDBRANCH  21  22
ENDBRANCH  20  21
ENDBRANCH  19  20
ENDBRANCH  18  19
ENDBRANCH   1  18
TORSDOF 28
ENDMDL
MODEL 9
REMARK VINA RESULT:    -5.299      2.515      4.793
REMARK INTER + INTRA:         -18.760
REMARK INTER:                 -13.957
REMARK INTRA:                  -4.803
REMARK UNBOUND:                -4.788
REMARK SMILES CCCCCCCCCCCCCCCCCCCCCCCCCCCCCC(=O)[O-]
REMARK SMILES IDX 16 1 17 2 18 3 19 4 20 5 21 6 22 7 23 8 24 9 25 10 26 11
REMARK SMILES IDX 27 12 28 13 29 14 30 15 31 16 32 17 15 18 14 19 13 20 12 21
REMARK SMILES IDX 11 22 10 23 9 24 8 25 7 26 6 27 5 28 4 29 3 30 2 31 1 32
REMARK H PARENT
REMARK Flexibility Score: inf
ROOT
ATOM      1  C   UNL     1      19.362  -6.850  31.696  1.00  0.00     0.000 C 
ENDROOT
BRANCH   1   2
ATOM      2  C   UNL     1      20.615  -6.489  30.875  1.00  0.00     0.000 C 
BRANCH   2   3
ATOM      3  C   UNL     1      20.713  -4.988  30.553  1.00  0.00     0.000 C 
BRANCH   3   4
ATOM      4  C   UNL     1      19.465  -4.200  30.995  1.00  0.00     0.000 C 
BRANCH   4   5
ATOM      5  C   UNL     1      19.721  -3.098  32.039  1.00  0.00     0.000 C 
BRANCH   5   6
ATOM      6  C   UNL     1      18.806  -3.220  33.269  1.00  0.00     0.000 C 
BRANCH   6   7
ATOM      7  C   UNL     1      17.461  -3.894  32.948  1.00  0.00     0.000 C 
BRANCH   7   8
ATOM      8  C   UNL     1      16.987  -4.939  33.977  1.00  0.00     0.000 C 
BRANCH   8   9
ATOM      9  C   UNL     1      17.772  -4.911  35.306  1.00  0.00     0.000 C 
BRANCH   9  10
ATOM     10  C   UNL     1      16.904  -5.314  36.510  1.00  0.00     0.000 C 
BRANCH  10  11
ATOM     11  C   UNL     1      16.531  -4.096  37.385  1.00  0.00     0.000 C 
BRANCH  11  12
ATOM     12  C   UNL     1      17.113  -2.771  36.860  1.00  0.00     0.000 C 
BRANCH  12  13
ATOM     13  C   UNL     1      16.085  -1.882  36.127  1.00  0.00     0.006 C 
BRANCH  13  14
ATOM     14  C   UNL     1      16.723  -0.822  35.214  1.00  0.00     0.053 C 
BRANCH  14  15
ATOM     15  C   UNL     1      15.820  -0.413  34.094  1.00  0.00     0.041 C 
ATOM     16  O   UNL     1      15.026  -1.246  33.584  1.00  0.00    -0.550 OA
ATOM     17  O   UNL     1      15.863   0.886  33.605  1.00  0.00    -0.550 OA
ENDBRANCH  14  15
ENDBRANCH  13  14
ENDBRANCH  12  13
ENDBRANCH  11  12
ENDBRANCH  10  11
ENDBRANCH   9  10
ENDBRANCH   8   9
ENDBRANCH   7   8
ENDBRANCH   6   7
ENDBRANCH   5   6
ENDBRANCH   4   5
ENDBRANCH   3   4
ENDBRANCH   2   3
ENDBRANCH   1   2
BRANCH   1  18
ATOM     18  C   UNL     1      19.634  -7.457  33.085  1.00  0.00     0.000 C 
BRANCH  18  19
ATOM     19  C   UNL     1      21.046  -7.212  33.651  1.00  0.00     0.000 C 
BRANCH  19  20
ATOM     20  C   UNL     1      21.154  -5.979  34.573  1.00  0.00     0.000 C 
BRANCH  20  21
ATOM     21  C   UNL     1      22.247  -4.993  34.121  1.00  0.00     0.000 C 
BRANCH  21  22
ATOM     22  C   UNL     1      22.156  -3.639  34.846  1.00  0.00     0.000 C 
BRANCH  22  23
ATOM     23  C   UNL     1      22.764  -3.686  36.256  1.00  0.00     0.000 C 
BRANCH  23  24
ATOM     24  C   UNL     1      23.066  -2.271  36.775  1.00  0.00    -0.000 C 
BRANCH  24  25
ATOM     25  C   UNL     1      23.019  -1.213  35.661  1.00  0.00    -0.000 C 
BRANCH  25  26
ATOM     26  C   UNL     1      21.945  -0.139  35.909  1.00  0.00    -0.000 C 
BRANCH  26  27
ATOM     27  C   UNL     1      21.773   0.809  34.711  1.00  0.00    -0.000 C 
BRANCH  27  28
ATOM     28  C   UNL     1      21.651   2.284  35.132  1.00  0.00    -0.000 C 
BRANCH  28  29
ATOM     29  C   UNL     1      20.473   2.530  36.089  1.00  0.00    -0.000 C 
BRANCH  29  30
ATOM     30  C   UNL     1      20.781   3.615  37.135  1.00  0.00    -0.000 C 
BRANCH  30  31
ATOM     31  C   UNL     1      20.415   3.176  38.563  1.00  0.00    -0.003 C 
ATOM     32  C   UNL     1      20.680   1.692  38.810  1.00  0.00     0.004 C 
ENDBRANCH  30  31
ENDBRANCH  29  30
ENDBRANCH  28  29
ENDBRANCH  27  28
ENDBRANCH  26  27
ENDBRANCH  25  26
ENDBRANCH  24  25
ENDBRANCH  23  24
ENDBRANCH  22  23
ENDBRANCH  21  22
ENDBRANCH  20  21
ENDBRANCH  19  20
ENDBRANCH  18  19
ENDBRANCH   1  18
TORSDOF 28
ENDMDL
