MODEL 1
REMARK VINA RESULT:    18.770      0.000      0.000
REMARK INTER + INTRA:          21.227
REMARK INTER:                  21.513
REMARK INTRA:                  -0.287
REMARK UNBOUND:                -0.287
REMARK SMILES O=C1C[C@@H](c2ccc(O)cc2)Oc2cc(O)cc(O)c21
REMARK SMILES IDX 3 1 4 2 12 3 13 4 14 5 15 6 17 7 18 8 20 9 2 10 1 11 5 12
REMARK SMILES IDX 6 13 11 14 7 15 10 16 8 17 9 18 19 20 16 22
REMARK H PARENT 9 19 19 21 16 23
REMARK Flexibility Score: inf
ROOT
ATOM      1  C   UNL     1      -6.482   4.437  16.570  1.00  0.00     0.131 C 
ATOM      2  C   UNL     1      -6.868   4.611  15.094  1.00  0.00     0.211 C 
ATOM      3  O   UNL     1      -5.754   4.319  14.245  1.00  0.00    -0.484 OA
ATOM      4  C   UNL     1      -4.861   3.270  14.502  1.00  0.00     0.138 A 
ATOM      5  C   UNL     1      -3.975   2.873  13.498  1.00  0.00     0.093 A 
ATOM      6  C   UNL     1      -3.082   1.821  13.720  1.00  0.00     0.123 A 
ATOM      7  C   UNL     1      -3.057   1.183  14.962  1.00  0.00     0.093 A 
ATOM      8  C   UNL     1      -3.909   1.591  15.997  1.00  0.00     0.133 A 
ATOM      9  C   UNL     1      -4.850   2.627  15.760  1.00  0.00     0.102 A 
ATOM     10  C   UNL     1      -5.846   3.092  16.757  1.00  0.00     0.174 C 
ATOM     11  O   UNL     1      -6.208   2.366  17.720  1.00  0.00    -0.294 OA
ENDROOT
BRANCH   2  12
ATOM     12  C   UNL     1      -7.366   6.010  14.833  1.00  0.00    -0.007 A 
ATOM     13  C   UNL     1      -8.594   6.223  14.182  1.00  0.00     0.011 A 
ATOM     14  C   UNL     1      -6.580   7.119  15.189  1.00  0.00     0.011 A 
ATOM     15  C   UNL     1      -9.037   7.522  13.915  1.00  0.00     0.046 A 
ATOM     16  C   UNL     1      -7.026   8.417  14.923  1.00  0.00     0.046 A 
ATOM     17  C   UNL     1      -8.258   8.622  14.285  1.00  0.00     0.115 A 
BRANCH  17  18
ATOM     18  O   UNL     1      -8.712   9.910  14.014  1.00  0.00    -0.508 OA
ATOM     19  H   UNL     1      -9.527  10.073  13.434  1.00  0.00     0.293 HD
ENDBRANCH  17  18
ENDBRANCH   2  12
BRANCH   8  20
ATOM     20  O   UNL     1      -3.758   0.966  17.237  1.00  0.00    -0.507 OA
ATOM     21  H   UNL     1      -3.139   0.188  17.405  1.00  0.00     0.293 HD
ENDBRANCH   8  20
BRANCH   6  22
ATOM     22  O   UNL     1      -2.211   1.406  12.717  1.00  0.00    -0.508 OA
ATOM     23  H   UNL     1      -2.146   0.433  12.439  1.00  0.00     0.293 HD
ENDBRANCH   6  22
TORSDOF 4
ENDMDL
MODEL 2
REMARK VINA RESULT:    19.448      1.639      6.929
REMARK INTER + INTRA:          22.003
REMARK INTER:                  22.288
REMARK INTRA:                  -0.285
REMARK UNBOUND:                -0.287
REMARK SMILES O=C1C[C@@H](c2ccc(O)cc2)Oc2cc(O)cc(O)c21
REMARK SMILES IDX 3 1 4 2 12 3 13 4 14 5 15 6 17 7 18 8 20 9 2 10 1 11 5 12
REMARK SMILES IDX 6 13 11 14 7 15 10 16 8 17 9 18 19 20 16 22
REMARK H PARENT 9 19 19 21 16 23
REMARK Flexibility Score: inf
ROOT
ATOM      1  C   UNL     1      -6.869   3.793  14.252  1.00  0.00     0.131 C 
ATOM      2  C   UNL     1      -6.202   3.795  15.635  1.00  0.00     0.211 C 
ATOM      3  O   UNL     1      -5.707   5.099  15.953  1.00  0.00    -0.484 OA
ATOM      4  C   UNL     1      -6.405   6.272  15.632  1.00  0.00     0.138 A 
ATOM      5  C   UNL     1      -6.004   7.479  16.211  1.00  0.00     0.093 A 
ATOM      6  C   UNL     1      -6.690   8.662  15.921  1.00  0.00     0.123 A 
ATOM      7  C   UNL     1      -7.760   8.642  15.025  1.00  0.00     0.093 A 
ATOM      8  C   UNL     1      -8.153   7.450  14.401  1.00  0.00     0.133 A 
ATOM      9  C   UNL     1      -7.491   6.238  14.730  1.00  0.00     0.102 A 
ATOM     10  C   UNL     1      -7.867   4.909  14.186  1.00  0.00     0.174 C 
ATOM     11  O   UNL     1      -9.017   4.684  13.723  1.00  0.00    -0.294 OA
ENDROOT
BRANCH   2  12
ATOM     12  C   UNL     1      -5.080   2.789  15.688  1.00  0.00    -0.007 A 
ATOM     13  C   UNL     1      -4.986   1.879  16.757  1.00  0.00     0.011 A 
ATOM     14  C   UNL     1      -4.083   2.786  14.698  1.00  0.00     0.011 A 
ATOM     15  C   UNL     1      -3.927   0.967  16.818  1.00  0.00     0.046 A 
ATOM     16  C   UNL     1      -3.026   1.872  14.761  1.00  0.00     0.046 A 
ATOM     17  C   UNL     1      -2.947   0.959  15.822  1.00  0.00     0.115 A 
BRANCH  17  18
ATOM     18  O   UNL     1      -1.898   0.045  15.895  1.00  0.00    -0.508 OA
ATOM     19  H   UNL     1      -1.030   0.272  16.366  1.00  0.00     0.293 HD
ENDBRANCH  17  18
ENDBRANCH   2  12
BRANCH   8  20
ATOM     20  O   UNL     1      -9.171   7.530  13.448  1.00  0.00    -0.507 OA
ATOM     21  H   UNL     1      -9.780   6.761  13.207  1.00  0.00     0.293 HD
ENDBRANCH   8  20
BRANCH   6  22
ATOM     22  O   UNL     1      -6.310   9.864  16.511  1.00  0.00    -0.508 OA
ATOM     23  H   UNL     1      -6.989  10.484  16.938  1.00  0.00     0.293 HD
ENDBRANCH   6  22
TORSDOF 4
ENDMDL
