MODEL 1
REMARK VINA RESULT:    -4.406      0.000      0.000
REMARK INTER + INTRA:          -4.792
REMARK INTER:                  -4.792
REMARK INTRA:                   0.000
REMARK UNBOUND:                 0.000
REMARK SMILES Oc1cccc(O)c1O
REMARK SMILES IDX 4 1 5 2 6 3 8 4 2 5 3 6 7 7 1 9 9 11
REMARK H PARENT 7 8 1 10 9 12
REMARK Flexibility Score: inf
ROOT
ATOM      1  C   UNL     1      12.964  -4.075  30.656  1.00  0.00     0.008 A 
ATOM      2  C   UNL     1      13.454  -4.843  31.712  1.00  0.00     0.050 A 
ATOM      3  C   UNL     1      12.573  -5.438  32.620  1.00  0.00     0.161 A 
ATOM      4  C   UNL     1      11.182  -5.267  32.472  1.00  0.00     0.200 A 
ATOM      5  C   UNL     1      10.689  -4.487  31.397  1.00  0.00     0.161 A 
ATOM      6  C   UNL     1      11.589  -3.899  30.499  1.00  0.00     0.050 A 
ENDROOT
BRANCH   3   7
ATOM      7  O   UNL     1      13.099  -6.200  33.663  1.00  0.00    -0.504 OA
ATOM      8  H   UNL     1      13.218  -7.203  33.595  1.00  0.00     0.293 HD
ENDBRANCH   3   7
BRANCH   5   9
ATOM      9  O   UNL     1       9.325  -4.270  31.184  1.00  0.00    -0.504 OA
ATOM     10  H   UNL     1       8.953  -3.653  30.478  1.00  0.00     0.293 HD
ENDBRANCH   5   9
BRANCH   4  11
ATOM     11  O   UNL     1      10.334  -5.879  33.400  1.00  0.00    -0.502 OA
ATOM     12  H   UNL     1      10.470  -5.846  34.399  1.00  0.00     0.293 HD
ENDBRANCH   4  11
TORSDOF 3
ENDMDL
MODEL 2
REMARK VINA RESULT:    -4.386      8.520      9.934
REMARK INTER + INTRA:          -4.771
REMARK INTER:                  -4.771
REMARK INTRA:                   0.000
REMARK UNBOUND:                 0.000
REMARK SMILES Oc1cccc(O)c1O
REMARK SMILES IDX 4 1 5 2 6 3 8 4 2 5 3 6 7 7 1 9 9 11
REMARK H PARENT 7 8 1 10 9 12
REMARK Flexibility Score: inf
ROOT
ATOM      1  C   UNL     1       7.072   3.906  28.544  1.00  0.00     0.008 A 
ATOM      2  C   UNL     1       6.171   3.343  27.640  1.00  0.00     0.050 A 
ATOM      3  C   UNL     1       6.501   2.172  26.952  1.00  0.00     0.161 A 
ATOM      4  C   UNL     1       7.747   1.551  27.169  1.00  0.00     0.200 A 
ATOM      5  C   UNL     1       8.659   2.126  28.089  1.00  0.00     0.161 A 
ATOM      6  C   UNL     1       8.308   3.300  28.767  1.00  0.00     0.050 A 
ENDROOT
BRANCH   3   7
ATOM      7  O   UNL     1       5.575   1.637  26.056  1.00  0.00    -0.504 OA
ATOM      8  H   UNL     1       4.942   0.889  26.314  1.00  0.00     0.293 HD
ENDBRANCH   3   7
BRANCH   5   9
ATOM      9  O   UNL     1       9.912   1.571  28.358  1.00  0.00    -0.504 OA
ATOM     10  H   UNL     1      10.503   1.142  27.662  1.00  0.00     0.293 HD
ENDBRANCH   5   9
BRANCH   4  11
ATOM     11  O   UNL     1       8.039   0.380  26.463  1.00  0.00    -0.502 OA
ATOM     12  H   UNL     1       8.180   0.341  25.465  1.00  0.00     0.293 HD
ENDBRANCH   4  11
TORSDOF 3
ENDMDL
MODEL 3
REMARK VINA RESULT:    -4.384      0.087      2.826
REMARK INTER + INTRA:          -4.769
REMARK INTER:                  -4.769
REMARK INTRA:                   0.000
REMARK UNBOUND:                 0.000
REMARK SMILES Oc1cccc(O)c1O
REMARK SMILES IDX 4 1 5 2 6 3 8 4 2 5 3 6 7 7 1 9 9 11
REMARK H PARENT 7 8 1 10 9 12
REMARK Flexibility Score: inf
ROOT
ATOM      1  C   UNL     1      13.014  -4.118  30.714  1.00  0.00     0.008 A 
ATOM      2  C   UNL     1      11.640  -3.939  30.556  1.00  0.00     0.050 A 
ATOM      3  C   UNL     1      10.744  -4.529  31.451  1.00  0.00     0.161 A 
ATOM      4  C   UNL     1      11.223  -5.310  32.521  1.00  0.00     0.200 A 
ATOM      5  C   UNL     1      12.620  -5.490  32.678  1.00  0.00     0.161 A 
ATOM      6  C   UNL     1      13.501  -4.889  31.769  1.00  0.00     0.050 A 
ENDROOT
BRANCH   3   7
ATOM      7  O   UNL     1       9.376  -4.327  31.262  1.00  0.00    -0.504 OA
ATOM      8  H   UNL     1       8.826  -4.900  30.632  1.00  0.00     0.293 HD
ENDBRANCH   3   7
BRANCH   5   9
ATOM      9  O   UNL     1      13.173  -6.249  33.712  1.00  0.00    -0.504 OA
ATOM     10  H   UNL     1      14.147  -6.507  33.768  1.00  0.00     0.293 HD
ENDBRANCH   5   9
BRANCH   4  11
ATOM     11  O   UNL     1      10.295  -5.883  33.395  1.00  0.00    -0.502 OA
ATOM     12  H   UNL     1      10.456  -6.020  34.382  1.00  0.00     0.293 HD
ENDBRANCH   4  11
TORSDOF 3
ENDMDL
MODEL 4
REMARK VINA RESULT:    -4.384      8.562      9.569
REMARK INTER + INTRA:          -4.768
REMARK INTER:                  -4.768
REMARK INTRA:                   0.000
REMARK UNBOUND:                 0.000
REMARK SMILES Oc1cccc(O)c1O
REMARK SMILES IDX 4 1 5 2 6 3 8 4 2 5 3 6 7 7 1 9 9 11
REMARK H PARENT 7 8 1 10 9 12
REMARK Flexibility Score: inf
ROOT
ATOM      1  C   UNL     1       7.108   3.919  28.489  1.00  0.00     0.008 A 
ATOM      2  C   UNL     1       8.353   3.319  28.685  1.00  0.00     0.050 A 
ATOM      3  C   UNL     1       8.681   2.139  28.012  1.00  0.00     0.161 A 
ATOM      4  C   UNL     1       7.756   1.547  27.129  1.00  0.00     0.200 A 
ATOM      5  C   UNL     1       6.494   2.160  26.932  1.00  0.00     0.161 A 
ATOM      6  C   UNL     1       6.185   3.342  27.617  1.00  0.00     0.050 A 
ENDROOT
BRANCH   3   7
ATOM      7  O   UNL     1       9.935   1.568  28.233  1.00  0.00    -0.504 OA
ATOM      8  H   UNL     1      10.280   0.792  27.682  1.00  0.00     0.293 HD
ENDBRANCH   3   7
BRANCH   5   9
ATOM      9  O   UNL     1       5.524   1.635  26.074  1.00  0.00    -0.504 OA
ATOM     10  H   UNL     1       4.693   2.129  25.789  1.00  0.00     0.293 HD
ENDBRANCH   5   9
BRANCH   4  11
ATOM     11  O   UNL     1       8.123   0.368  26.474  1.00  0.00    -0.502 OA
ATOM     12  H   UNL     1       8.747   0.331  25.682  1.00  0.00     0.293 HD
ENDBRANCH   4  11
TORSDOF 3
ENDMDL
MODEL 5
REMARK VINA RESULT:    -4.265      3.065      4.461
REMARK INTER + INTRA:          -4.639
REMARK INTER:                  -4.639
REMARK INTRA:                   0.000
REMARK UNBOUND:                 0.000
REMARK SMILES Oc1cccc(O)c1O
REMARK SMILES IDX 4 1 5 2 6 3 8 4 2 5 3 6 7 7 1 9 9 11
REMARK H PARENT 7 8 1 10 9 12
REMARK Flexibility Score: inf
ROOT
ATOM      1  C   UNL     1      11.196  -5.262  28.967  1.00  0.00     0.008 A 
ATOM      2  C   UNL     1      10.719  -4.561  30.074  1.00  0.00     0.050 A 
ATOM      3  C   UNL     1       9.592  -3.742  29.959  1.00  0.00     0.161 A 
ATOM      4  C   UNL     1       8.930  -3.620  28.721  1.00  0.00     0.200 A 
ATOM      5  C   UNL     1       9.418  -4.335  27.599  1.00  0.00     0.161 A 
ATOM      6  C   UNL     1      10.548  -5.150  27.737  1.00  0.00     0.050 A 
ENDROOT
BRANCH   3   7
ATOM      7  O   UNL     1       9.143  -3.056  31.088  1.00  0.00    -0.504 OA
ATOM      8  H   UNL     1       9.350  -3.368  32.029  1.00  0.00     0.293 HD
ENDBRANCH   3   7
BRANCH   5   9
ATOM      9  O   UNL     1       8.817  -4.266  26.340  1.00  0.00    -0.504 OA
ATOM     10  H   UNL     1       9.002  -3.541  25.662  1.00  0.00     0.293 HD
ENDBRANCH   5   9
BRANCH   4  11
ATOM     11  O   UNL     1       7.806  -2.791  28.647  1.00  0.00    -0.502 OA
ATOM     12  H   UNL     1       7.044  -2.928  28.000  1.00  0.00     0.293 HD
ENDBRANCH   4  11
TORSDOF 3
ENDMDL
MODEL 6
REMARK VINA RESULT:    -4.190      2.971      4.811
REMARK INTER + INTRA:          -4.558
REMARK INTER:                  -4.558
REMARK INTRA:                   0.000
REMARK UNBOUND:                 0.000
REMARK SMILES Oc1cccc(O)c1O
REMARK SMILES IDX 4 1 5 2 6 3 8 4 2 5 3 6 7 7 1 9 9 11
REMARK H PARENT 7 8 1 10 9 12
REMARK Flexibility Score: inf
ROOT
ATOM      1  C   UNL     1      11.263  -5.327  28.892  1.00  0.00     0.008 A 
ATOM      2  C   UNL     1      10.576  -5.181  27.687  1.00  0.00     0.050 A 
ATOM      3  C   UNL     1       9.443  -4.366  27.614  1.00  0.00     0.161 A 
ATOM      4  C   UNL     1       8.987  -3.685  28.760  1.00  0.00     0.200 A 
ATOM      5  C   UNL     1       9.688  -3.835  29.983  1.00  0.00     0.161 A 
ATOM      6  C   UNL     1      10.821  -4.657  30.033  1.00  0.00     0.050 A 
ENDROOT
BRANCH   3   7
ATOM      7  O   UNL     1       8.782  -4.244  26.392  1.00  0.00    -0.504 OA
ATOM      8  H   UNL     1       8.430  -5.047  25.884  1.00  0.00     0.293 HD
ENDBRANCH   3   7
BRANCH   5   9
ATOM      9  O   UNL     1       9.299  -3.194  31.161  1.00  0.00    -0.504 OA
ATOM     10  H   UNL     1       8.960  -2.244  31.204  1.00  0.00     0.293 HD
ENDBRANCH   5   9
BRANCH   4  11
ATOM     11  O   UNL     1       7.850  -2.879  28.647  1.00  0.00    -0.502 OA
ATOM     12  H   UNL     1       7.802  -2.045  28.081  1.00  0.00     0.293 HD
ENDBRANCH   4  11
TORSDOF 3
ENDMDL
MODEL 7
REMARK VINA RESULT:    -4.184      4.639      5.545
REMARK INTER + INTRA:          -4.551
REMARK INTER:                  -4.551
REMARK INTRA:                   0.000
REMARK UNBOUND:                 0.000
REMARK SMILES Oc1cccc(O)c1O
REMARK SMILES IDX 4 1 5 2 6 3 8 4 2 5 3 6 7 7 1 9 9 11
REMARK H PARENT 7 8 1 10 9 12
REMARK Flexibility Score: inf
ROOT
ATOM      1  C   UNL     1       9.921  -3.752  29.195  1.00  0.00     0.008 A 
ATOM      2  C   UNL     1      11.244  -3.401  28.929  1.00  0.00     0.050 A 
ATOM      3  C   UNL     1      11.735  -3.437  27.621  1.00  0.00     0.161 A 
ATOM      4  C   UNL     1      10.895  -3.829  26.560  1.00  0.00     0.200 A 
ATOM      5  C   UNL     1       9.550  -4.184  26.834  1.00  0.00     0.161 A 
ATOM      6  C   UNL     1       9.079  -4.141  28.152  1.00  0.00     0.050 A 
ENDROOT
BRANCH   3   7
ATOM      7  O   UNL     1      13.064  -3.078  27.393  1.00  0.00    -0.504 OA
ATOM      8  H   UNL     1      13.777  -3.760  27.161  1.00  0.00     0.293 HD
ENDBRANCH   3   7
BRANCH   5   9
ATOM      9  O   UNL     1       8.656  -4.583  25.838  1.00  0.00    -0.504 OA
ATOM     10  H   UNL     1       7.888  -5.221  25.987  1.00  0.00     0.293 HD
ENDBRANCH   5   9
BRANCH   4  11
ATOM     11  O   UNL     1      11.423  -3.851  25.266  1.00  0.00    -0.502 OA
ATOM     12  H   UNL     1      12.370  -3.590  25.036  1.00  0.00     0.293 HD
ENDBRANCH   4  11
TORSDOF 3
ENDMDL
MODEL 8
REMARK VINA RESULT:    -4.136      4.714      6.172
REMARK INTER + INTRA:          -4.499
REMARK INTER:                  -4.499
REMARK INTRA:                   0.000
REMARK UNBOUND:                 0.000
REMARK SMILES Oc1cccc(O)c1O
REMARK SMILES IDX 4 1 5 2 6 3 8 4 2 5 3 6 7 7 1 9 9 11
REMARK H PARENT 7 8 1 10 9 12
REMARK Flexibility Score: inf
ROOT
ATOM      1  C   UNL     1       9.798  -3.673  29.004  1.00  0.00     0.008 A 
ATOM      2  C   UNL     1       9.020  -4.066  27.914  1.00  0.00     0.050 A 
ATOM      3  C   UNL     1       9.581  -4.137  26.636  1.00  0.00     0.161 A 
ATOM      4  C   UNL     1      10.938  -3.813  26.439  1.00  0.00     0.200 A 
ATOM      5  C   UNL     1      11.725  -3.415  27.549  1.00  0.00     0.161 A 
ATOM      6  C   UNL     1      11.143  -3.350  28.821  1.00  0.00     0.050 A 
ENDROOT
BRANCH   3   7
ATOM      7  O   UNL     1       8.773  -4.535  25.571  1.00  0.00    -0.504 OA
ATOM      8  H   UNL     1       8.056  -3.934  25.181  1.00  0.00     0.293 HD
ENDBRANCH   3   7
BRANCH   5   9
ATOM      9  O   UNL     1      13.076  -3.078  27.435  1.00  0.00    -0.504 OA
ATOM     10  H   UNL     1      13.709  -3.493  26.768  1.00  0.00     0.293 HD
ENDBRANCH   5   9
BRANCH   4  11
ATOM     11  O   UNL     1      11.462  -3.898  25.146  1.00  0.00    -0.502 OA
ATOM     12  H   UNL     1      12.448  -3.895  24.934  1.00  0.00     0.293 HD
ENDBRANCH   4  11
TORSDOF 3
ENDMDL
MODEL 9
REMARK VINA RESULT:    -4.127      3.844      5.418
REMARK INTER + INTRA:          -4.489
REMARK INTER:                  -4.489
REMARK INTRA:                   0.000
REMARK UNBOUND:                 0.000
REMARK SMILES Oc1cccc(O)c1O
REMARK SMILES IDX 4 1 5 2 6 3 8 4 2 5 3 6 7 7 1 9 9 11
REMARK H PARENT 7 8 1 10 9 12
REMARK Flexibility Score: inf
ROOT
ATOM      1  C   UNL     1      11.155  -5.369  28.838  1.00  0.00     0.008 A 
ATOM      2  C   UNL     1      11.038  -5.171  27.462  1.00  0.00     0.050 A 
ATOM      3  C   UNL     1      11.567  -4.022  26.867  1.00  0.00     0.161 A 
ATOM      4  C   UNL     1      12.223  -3.055  27.655  1.00  0.00     0.200 A 
ATOM      5  C   UNL     1      12.340  -3.261  29.052  1.00  0.00     0.161 A 
ATOM      6  C   UNL     1      11.802  -4.419  29.627  1.00  0.00     0.050 A 
ENDROOT
BRANCH   3   7
ATOM      7  O   UNL     1      11.432  -3.858  25.488  1.00  0.00    -0.504 OA
ATOM      8  H   UNL     1      10.695  -4.309  24.959  1.00  0.00     0.293 HD
ENDBRANCH   3   7
BRANCH   5   9
ATOM      9  O   UNL     1      12.974  -2.350  29.900  1.00  0.00    -0.504 OA
ATOM     10  H   UNL     1      12.763  -1.364  29.932  1.00  0.00     0.293 HD
ENDBRANCH   5   9
BRANCH   4  11
ATOM     11  O   UNL     1      12.739  -1.920  27.023  1.00  0.00    -0.502 OA
ATOM     12  H   UNL     1      13.550  -1.413  27.343  1.00  0.00     0.293 HD
ENDBRANCH   4  11
TORSDOF 3
ENDMDL
