MODEL 1
REMARK VINA RESULT:    -4.638      0.000      0.000
REMARK INTER + INTRA:          -5.654
REMARK INTER:                  -5.451
REMARK INTRA:                  -0.204
REMARK UNBOUND:                -0.204
REMARK SMILES O=c1c(O)c(-c2ccc(O)cc2)oc2cc(O)cc(O)c12
REMARK SMILES IDX 5 1 3 2 2 3 1 4 21 5 19 6 18 7 16 8 15 9 14 10 13 11 6 12
REMARK SMILES IDX 7 13 8 14 9 15 12 16 11 17 10 18 4 20 20 22 17 24
REMARK H PARENT 10 19 4 21 20 23 17 25
REMARK Flexibility Score: inf
ROOT
ATOM      1  C   UNL     1      12.227   5.770  -1.951  1.00  0.00     0.180 A 
ATOM      2  C   UNL     1      10.913   5.859  -1.459  1.00  0.00     0.208 A 
ATOM      3  C   UNL     1      10.294   7.117  -1.398  1.00  0.00     0.238 A 
ATOM      4  O   UNL     1       9.137   7.198  -0.907  1.00  0.00    -0.285 OA
ATOM      5  C   UNL     1      10.989   8.268  -1.843  1.00  0.00     0.111 A 
ATOM      6  C   UNL     1      10.443   9.586  -1.863  1.00  0.00     0.134 A 
ATOM      7  C   UNL     1      11.266  10.669  -2.201  1.00  0.00     0.093 A 
ATOM      8  C   UNL     1      12.595  10.472  -2.582  1.00  0.00     0.123 A 
ATOM      9  C   UNL     1      13.119   9.181  -2.622  1.00  0.00     0.094 A 
ATOM     10  C   UNL     1      12.334   8.086  -2.256  1.00  0.00     0.146 A 
ATOM     11  O   UNL     1      12.876   6.874  -2.298  1.00  0.00    -0.452 OA
ENDROOT
BRANCH   1  12
ATOM     12  C   UNL     1      12.938   4.476  -2.069  1.00  0.00     0.021 A 
ATOM     13  C   UNL     1      14.061   4.226  -1.263  1.00  0.00     0.016 A 
ATOM     14  C   UNL     1      14.760   3.021  -1.375  1.00  0.00     0.047 A 
ATOM     15  C   UNL     1      14.356   2.056  -2.302  1.00  0.00     0.115 A 
ATOM     16  C   UNL     1      12.548   3.509  -3.014  1.00  0.00     0.016 A 
ATOM     17  C   UNL     1      13.249   2.304  -3.125  1.00  0.00     0.047 A 
BRANCH  15  18
ATOM     18  O   UNL     1      15.061   0.859  -2.403  1.00  0.00    -0.508 OA
ATOM     19  H   UNL     1      14.965   0.254  -3.210  1.00  0.00     0.293 HD
ENDBRANCH  15  18
ENDBRANCH   1  12
BRANCH   2  20
ATOM     20  O   UNL     1      10.254   4.713  -1.004  1.00  0.00    -0.502 OA
ATOM     21  H   UNL     1       9.526   4.749  -0.300  1.00  0.00     0.293 HD
ENDBRANCH   2  20
BRANCH   6  22
ATOM     22  O   UNL     1       9.104   9.882  -1.590  1.00  0.00    -0.507 OA
ATOM     23  H   UNL     1       8.325   9.590  -2.158  1.00  0.00     0.293 HD
ENDBRANCH   6  22
BRANCH   8  24
ATOM     24  O   UNL     1      13.402  11.552  -2.931  1.00  0.00    -0.508 OA
ATOM     25  H   UNL     1      14.393  11.563  -2.720  1.00  0.00     0.293 HD
ENDBRANCH   8  24
TORSDOF 5
ENDMDL
MODEL 2
REMARK VINA RESULT:    -4.498      1.604      2.125
REMARK INTER + INTRA:          -5.490
REMARK INTER:                  -5.561
REMARK INTRA:                   0.070
REMARK UNBOUND:                -0.204
REMARK SMILES O=c1c(O)c(-c2ccc(O)cc2)oc2cc(O)cc(O)c12
REMARK SMILES IDX 5 1 3 2 2 3 1 4 21 5 19 6 18 7 16 8 15 9 14 10 13 11 6 12
REMARK SMILES IDX 7 13 8 14 9 15 12 16 11 17 10 18 4 20 20 22 17 24
REMARK H PARENT 10 19 4 21 20 23 17 25
REMARK Flexibility Score: inf
ROOT
ATOM      1  C   UNL     1      11.890   4.706  -2.243  1.00  0.00     0.180 A 
ATOM      2  C   UNL     1      10.609   4.223  -2.563  1.00  0.00     0.208 A 
ATOM      3  C   UNL     1       9.544   5.132  -2.658  1.00  0.00     0.238 A 
ATOM      4  O   UNL     1       8.389   4.687  -2.892  1.00  0.00    -0.285 OA
ATOM      5  C   UNL     1       9.774   6.513  -2.447  1.00  0.00     0.111 A 
ATOM      6  C   UNL     1       8.776   7.526  -2.557  1.00  0.00     0.134 A 
ATOM      7  C   UNL     1       9.087   8.845  -2.199  1.00  0.00     0.093 A 
ATOM      8  C   UNL     1      10.379   9.196  -1.797  1.00  0.00     0.123 A 
ATOM      9  C   UNL     1      11.375   8.223  -1.744  1.00  0.00     0.094 A 
ATOM     10  C   UNL     1      11.085   6.894  -2.061  1.00  0.00     0.146 A 
ATOM     11  O   UNL     1      12.061   5.996  -1.986  1.00  0.00    -0.452 OA
ENDROOT
BRANCH   1  12
ATOM     12  C   UNL     1      13.068   3.813  -2.149  1.00  0.00     0.021 A 
ATOM     13  C   UNL     1      13.984   3.983  -1.097  1.00  0.00     0.016 A 
ATOM     14  C   UNL     1      15.114   3.166  -1.003  1.00  0.00     0.047 A 
ATOM     15  C   UNL     1      15.353   2.180  -1.965  1.00  0.00     0.115 A 
ATOM     16  C   UNL     1      13.324   2.832  -3.125  1.00  0.00     0.016 A 
ATOM     17  C   UNL     1      14.456   2.017  -3.029  1.00  0.00     0.047 A 
BRANCH  15  18
ATOM     18  O   UNL     1      16.483   1.373  -1.858  1.00  0.00    -0.508 OA
ATOM     19  H   UNL     1      17.113   1.239  -2.640  1.00  0.00     0.293 HD
ENDBRANCH  15  18
ENDBRANCH   1  12
BRANCH   2  20
ATOM     20  O   UNL     1      10.400   2.853  -2.746  1.00  0.00    -0.502 OA
ATOM     21  H   UNL     1       9.717   2.490  -3.400  1.00  0.00     0.293 HD
ENDBRANCH   2  20
BRANCH   6  22
ATOM     22  O   UNL     1       7.482   7.300  -3.036  1.00  0.00    -0.507 OA
ATOM     23  H   UNL     1       6.705   7.931  -2.909  1.00  0.00     0.293 HD
ENDBRANCH   6  22
BRANCH   8  24
ATOM     24  O   UNL     1      10.684  10.511  -1.457  1.00  0.00    -0.508 OA
ATOM     25  H   UNL     1      11.038  11.168  -2.143  1.00  0.00     0.293 HD
ENDBRANCH   8  24
TORSDOF 5
ENDMDL
MODEL 3
REMARK VINA RESULT:    -4.108      2.056      6.997
REMARK INTER + INTRA:          -5.032
REMARK INTER:                  -4.744
REMARK INTRA:                  -0.288
REMARK UNBOUND:                -0.204
REMARK SMILES O=c1c(O)c(-c2ccc(O)cc2)oc2cc(O)cc(O)c12
REMARK SMILES IDX 5 1 3 2 2 3 1 4 21 5 19 6 18 7 16 8 15 9 14 10 13 11 6 12
REMARK SMILES IDX 7 13 8 14 9 15 12 16 11 17 10 18 4 20 20 22 17 24
REMARK H PARENT 10 19 4 21 20 23 17 25
REMARK Flexibility Score: inf
ROOT
ATOM      1  C   UNL     1      10.756   9.591  -1.905  1.00  0.00     0.180 A 
ATOM      2  C   UNL     1       9.458   9.067  -1.776  1.00  0.00     0.208 A 
ATOM      3  C   UNL     1       9.282   7.674  -1.799  1.00  0.00     0.238 A 
ATOM      4  O   UNL     1       8.112   7.212  -1.737  1.00  0.00    -0.285 OA
ATOM      5  C   UNL     1      10.406   6.823  -1.933  1.00  0.00     0.111 A 
ATOM      6  C   UNL     1      10.347   5.397  -1.928  1.00  0.00     0.134 A 
ATOM      7  C   UNL     1      11.505   4.657  -2.199  1.00  0.00     0.093 A 
ATOM      8  C   UNL     1      12.732   5.292  -2.411  1.00  0.00     0.123 A 
ATOM      9  C   UNL     1      12.809   6.682  -2.359  1.00  0.00     0.094 A 
ATOM     10  C   UNL     1      11.665   7.448  -2.126  1.00  0.00     0.146 A 
ATOM     11  O   UNL     1      11.781   8.770  -2.095  1.00  0.00    -0.452 OA
ENDROOT
BRANCH   1  12
ATOM     12  C   UNL     1      11.025  11.047  -1.865  1.00  0.00     0.021 A 
ATOM     13  C   UNL     1      11.217  11.748  -3.067  1.00  0.00     0.016 A 
ATOM     14  C   UNL     1      11.494  13.118  -3.052  1.00  0.00     0.047 A 
ATOM     15  C   UNL     1      11.598  13.802  -1.837  1.00  0.00     0.115 A 
ATOM     16  C   UNL     1      11.150  11.736  -0.645  1.00  0.00     0.016 A 
ATOM     17  C   UNL     1      11.428  13.107  -0.632  1.00  0.00     0.047 A 
BRANCH  15  18
ATOM     18  O   UNL     1      11.875  15.167  -1.836  1.00  0.00    -0.508 OA
ATOM     19  H   UNL     1      11.614  15.761  -2.615  1.00  0.00     0.293 HD
ENDBRANCH  15  18
ENDBRANCH   1  12
BRANCH   2  20
ATOM     20  O   UNL     1       8.361   9.925  -1.666  1.00  0.00    -0.502 OA
ATOM     21  H   UNL     1       8.351  10.716  -1.034  1.00  0.00     0.293 HD
ENDBRANCH   2  20
BRANCH   6  22
ATOM     22  O   UNL     1       9.193   4.664  -1.636  1.00  0.00    -0.507 OA
ATOM     23  H   UNL     1       8.260   5.045  -1.617  1.00  0.00     0.293 HD
ENDBRANCH   6  22
BRANCH   8  24
ATOM     24  O   UNL     1      13.882   4.549  -2.666  1.00  0.00    -0.508 OA
ATOM     25  H   UNL     1      14.106   4.222  -3.598  1.00  0.00     0.293 HD
ENDBRANCH   8  24
TORSDOF 5
ENDMDL
MODEL 4
REMARK VINA RESULT:    -4.008      2.169      3.205
REMARK INTER + INTRA:          -4.915
REMARK INTER:                  -4.654
REMARK INTRA:                  -0.261
REMARK UNBOUND:                -0.204
REMARK SMILES O=c1c(O)c(-c2ccc(O)cc2)oc2cc(O)cc(O)c12
REMARK SMILES IDX 5 1 3 2 2 3 1 4 21 5 19 6 18 7 16 8 15 9 14 10 13 11 6 12
REMARK SMILES IDX 7 13 8 14 9 15 12 16 11 17 10 18 4 20 20 22 17 24
REMARK H PARENT 10 19 4 21 20 23 17 25
REMARK Flexibility Score: inf
ROOT
ATOM      1  C   UNL     1      10.390   8.116  -1.830  1.00  0.00     0.180 A 
ATOM      2  C   UNL     1       9.011   8.057  -2.100  1.00  0.00     0.208 A 
ATOM      3  C   UNL     1       8.276   9.252  -2.148  1.00  0.00     0.238 A 
ATOM      4  O   UNL     1       7.033   9.190  -2.337  1.00  0.00    -0.285 OA
ATOM      5  C   UNL     1       8.930  10.491  -1.941  1.00  0.00     0.111 A 
ATOM      6  C   UNL     1       8.290  11.765  -2.006  1.00  0.00     0.134 A 
ATOM      7  C   UNL     1       9.007  12.917  -1.656  1.00  0.00     0.093 A 
ATOM      8  C   UNL     1      10.358  12.845  -1.306  1.00  0.00     0.123 A 
ATOM      9  C   UNL     1      11.006  11.612  -1.297  1.00  0.00     0.094 A 
ATOM     10  C   UNL     1      10.308  10.442  -1.607  1.00  0.00     0.146 A 
ATOM     11  O   UNL     1      10.961   9.286  -1.575  1.00  0.00    -0.452 OA
ENDROOT
BRANCH   1  12
ATOM     12  C   UNL     1      11.237   6.902  -1.788  1.00  0.00     0.021 A 
ATOM     13  C   UNL     1      11.265   6.117  -0.623  1.00  0.00     0.016 A 
ATOM     14  C   UNL     1      12.075   4.980  -0.554  1.00  0.00     0.047 A 
ATOM     15  C   UNL     1      12.877   4.620  -1.641  1.00  0.00     0.115 A 
ATOM     16  C   UNL     1      12.061   6.546  -2.871  1.00  0.00     0.016 A 
ATOM     17  C   UNL     1      12.871   5.408  -2.800  1.00  0.00     0.047 A 
BRANCH  15  18
ATOM     18  O   UNL     1      13.679   3.484  -1.559  1.00  0.00    -0.508 OA
ATOM     19  H   UNL     1      14.325   3.346  -0.791  1.00  0.00     0.293 HD
ENDBRANCH  15  18
ENDBRANCH   1  12
BRANCH   2  20
ATOM     20  O   UNL     1       8.382   6.822  -2.279  1.00  0.00    -0.502 OA
ATOM     21  H   UNL     1       8.886   5.945  -2.237  1.00  0.00     0.293 HD
ENDBRANCH   2  20
BRANCH   6  22
ATOM     22  O   UNL     1       6.973  11.957  -2.433  1.00  0.00    -0.507 OA
ATOM     23  H   UNL     1       6.491  12.844  -2.426  1.00  0.00     0.293 HD
ENDBRANCH   6  22
BRANCH   8  24
ATOM     24  O   UNL     1      11.068  13.996  -0.972  1.00  0.00    -0.508 OA
ATOM     25  H   UNL     1      12.048  13.960  -0.719  1.00  0.00     0.293 HD
ENDBRANCH   8  24
TORSDOF 5
ENDMDL
MODEL 5
REMARK VINA RESULT:    -3.922      2.748      4.985
REMARK INTER + INTRA:          -4.813
REMARK INTER:                  -4.528
REMARK INTRA:                  -0.285
REMARK UNBOUND:                -0.204
REMARK SMILES O=c1c(O)c(-c2ccc(O)cc2)oc2cc(O)cc(O)c12
REMARK SMILES IDX 5 1 3 2 2 3 1 4 21 5 19 6 18 7 16 8 15 9 14 10 13 11 6 12
REMARK SMILES IDX 7 13 8 14 9 15 12 16 11 17 10 18 4 20 20 22 17 24
REMARK H PARENT 10 19 4 21 20 23 17 25
REMARK Flexibility Score: inf
ROOT
ATOM      1  C   UNL     1      11.317   9.381  -2.003  1.00  0.00     0.180 A 
ATOM      2  C   UNL     1      12.565   9.864  -2.435  1.00  0.00     0.208 A 
ATOM      3  C   UNL     1      12.828  11.239  -2.347  1.00  0.00     0.238 A 
ATOM      4  O   UNL     1      13.926  11.674  -2.786  1.00  0.00    -0.285 OA
ATOM      5  C   UNL     1      11.850  12.113  -1.814  1.00  0.00     0.111 A 
ATOM      6  C   UNL     1      12.026  13.518  -1.642  1.00  0.00     0.134 A 
ATOM      7  C   UNL     1      10.944  14.305  -1.226  1.00  0.00     0.093 A 
ATOM      8  C   UNL     1       9.711  13.726  -0.914  1.00  0.00     0.123 A 
ATOM      9  C   UNL     1       9.548  12.346  -1.023  1.00  0.00     0.094 A 
ATOM     10  C   UNL     1      10.598  11.541  -1.469  1.00  0.00     0.146 A 
ATOM     11  O   UNL     1      10.396  10.232  -1.569  1.00  0.00    -0.452 OA
ENDROOT
BRANCH   1  12
ATOM     12  C   UNL     1      10.974   7.941  -2.041  1.00  0.00     0.021 A 
ATOM     13  C   UNL     1      10.167   7.448  -3.080  1.00  0.00     0.016 A 
ATOM     14  C   UNL     1       9.813   6.096  -3.123  1.00  0.00     0.047 A 
ATOM     15  C   UNL     1      10.246   5.223  -2.121  1.00  0.00     0.115 A 
ATOM     16  C   UNL     1      11.390   7.061  -1.024  1.00  0.00     0.016 A 
ATOM     17  C   UNL     1      11.034   5.709  -1.068  1.00  0.00     0.047 A 
BRANCH  15  18
ATOM     18  O   UNL     1       9.885   3.879  -2.175  1.00  0.00    -0.508 OA
ATOM     19  H   UNL     1       9.616   3.369  -1.343  1.00  0.00     0.293 HD
ENDBRANCH  15  18
ENDBRANCH   1  12
BRANCH   2  20
ATOM     20  O   UNL     1      13.508   8.987  -2.979  1.00  0.00    -0.502 OA
ATOM     21  H   UNL     1      13.445   7.983  -2.865  1.00  0.00     0.293 HD
ENDBRANCH   2  20
BRANCH   6  22
ATOM     22  O   UNL     1      13.241  14.183  -1.835  1.00  0.00    -0.507 OA
ATOM     23  H   UNL     1      13.329  15.143  -2.134  1.00  0.00     0.293 HD
ENDBRANCH   6  22
BRANCH   8  24
ATOM     24  O   UNL     1       8.644  14.512  -0.488  1.00  0.00    -0.508 OA
ATOM     25  H   UNL     1       7.694  14.325  -0.788  1.00  0.00     0.293 HD
ENDBRANCH   8  24
TORSDOF 5
ENDMDL
MODEL 6
REMARK VINA RESULT:    -3.665      4.034      8.908
REMARK INTER + INTRA:          -4.511
REMARK INTER:                  -4.548
REMARK INTRA:                   0.037
REMARK UNBOUND:                -0.204
REMARK SMILES O=c1c(O)c(-c2ccc(O)cc2)oc2cc(O)cc(O)c12
REMARK SMILES IDX 5 1 3 2 2 3 1 4 21 5 19 6 18 7 16 8 15 9 14 10 13 11 6 12
REMARK SMILES IDX 7 13 8 14 9 15 12 16 11 17 10 18 4 20 20 22 17 24
REMARK H PARENT 10 19 4 21 20 23 17 25
REMARK Flexibility Score: inf
ROOT
ATOM      1  C   UNL     1      11.860  13.631  -1.346  1.00  0.00     0.180 A 
ATOM      2  C   UNL     1      10.460  13.754  -1.347  1.00  0.00     0.208 A 
ATOM      3  C   UNL     1       9.676  12.599  -1.502  1.00  0.00     0.238 A 
ATOM      4  O   UNL     1       8.424  12.721  -1.556  1.00  0.00    -0.285 OA
ATOM      5  C   UNL     1      10.301  11.336  -1.636  1.00  0.00     0.111 A 
ATOM      6  C   UNL     1       9.604  10.096  -1.758  1.00  0.00     0.134 A 
ATOM      7  C   UNL     1      10.323   8.922  -2.017  1.00  0.00     0.093 A 
ATOM      8  C   UNL     1      11.718   8.934  -2.093  1.00  0.00     0.123 A 
ATOM      9  C   UNL     1      12.410  10.130  -1.916  1.00  0.00     0.094 A 
ATOM     10  C   UNL     1      11.719  11.323  -1.692  1.00  0.00     0.146 A 
ATOM     11  O   UNL     1      12.417  12.442  -1.540  1.00  0.00    -0.452 OA
ENDROOT
BRANCH   1  12
ATOM     12  C   UNL     1      12.753  14.798  -1.164  1.00  0.00     0.021 A 
ATOM     13  C   UNL     1      13.871  14.953  -2.001  1.00  0.00     0.016 A 
ATOM     14  C   UNL     1      14.739  16.035  -1.831  1.00  0.00     0.047 A 
ATOM     15  C   UNL     1      14.511  16.968  -0.815  1.00  0.00     0.115 A 
ATOM     16  C   UNL     1      12.540  15.730  -0.131  1.00  0.00     0.016 A 
ATOM     17  C   UNL     1      13.410  16.812   0.038  1.00  0.00     0.047 A 
BRANCH  15  18
ATOM     18  O   UNL     1      15.384  18.042  -0.658  1.00  0.00    -0.508 OA
ATOM     19  H   UNL     1      16.376  17.901  -0.511  1.00  0.00     0.293 HD
ENDBRANCH  15  18
ENDBRANCH   1  12
BRANCH   2  20
ATOM     20  O   UNL     1       9.864  15.013  -1.235  1.00  0.00    -0.502 OA
ATOM     21  H   UNL     1       8.881  15.132  -1.023  1.00  0.00     0.293 HD
ENDBRANCH   2  20
BRANCH   6  22
ATOM     22  O   UNL     1       8.221   9.959  -1.606  1.00  0.00    -0.507 OA
ATOM     23  H   UNL     1       7.655  10.510  -0.978  1.00  0.00     0.293 HD
ENDBRANCH   6  22
BRANCH   8  24
ATOM     24  O   UNL     1      12.426   7.760  -2.336  1.00  0.00    -0.508 OA
ATOM     25  H   UNL     1      12.448   7.334  -3.255  1.00  0.00     0.293 HD
ENDBRANCH   8  24
TORSDOF 5
ENDMDL
MODEL 7
REMARK VINA RESULT:    -3.564      2.309      3.865
REMARK INTER + INTRA:          -4.393
REMARK INTER:                  -4.391
REMARK INTRA:                  -0.002
REMARK UNBOUND:                -0.204
REMARK SMILES O=c1c(O)c(-c2ccc(O)cc2)oc2cc(O)cc(O)c12
REMARK SMILES IDX 5 1 3 2 2 3 1 4 21 5 19 6 18 7 16 8 15 9 14 10 13 11 6 12
REMARK SMILES IDX 7 13 8 14 9 15 12 16 11 17 10 18 4 20 20 22 17 24
REMARK H PARENT 10 19 4 21 20 23 17 25
REMARK Flexibility Score: inf
ROOT
ATOM      1  C   UNL     1      11.348   8.747  -2.225  1.00  0.00     0.180 A 
ATOM      2  C   UNL     1      10.346   9.645  -1.816  1.00  0.00     0.208 A 
ATOM      3  C   UNL     1      10.632  11.019  -1.792  1.00  0.00     0.238 A 
ATOM      4  O   UNL     1       9.749  11.813  -1.374  1.00  0.00    -0.285 OA
ATOM      5  C   UNL     1      11.910  11.480  -2.192  1.00  0.00     0.111 A 
ATOM      6  C   UNL     1      12.295  12.853  -2.245  1.00  0.00     0.134 A 
ATOM      7  C   UNL     1      13.626  13.187  -2.530  1.00  0.00     0.093 A 
ATOM      8  C   UNL     1      14.568  12.199  -2.828  1.00  0.00     0.123 A 
ATOM      9  C   UNL     1      14.185  10.859  -2.836  1.00  0.00     0.094 A 
ATOM     10  C   UNL     1      12.875  10.494  -2.521  1.00  0.00     0.146 A 
ATOM     11  O   UNL     1      12.556   9.205  -2.530  1.00  0.00    -0.452 OA
ENDROOT
BRANCH   1  12
ATOM     12  C   UNL     1      11.115   7.287  -2.300  1.00  0.00     0.021 A 
ATOM     13  C   UNL     1      10.027   6.796  -3.042  1.00  0.00     0.016 A 
ATOM     14  C   UNL     1       9.776   5.423  -3.107  1.00  0.00     0.047 A 
ATOM     15  C   UNL     1      10.598   4.523  -2.422  1.00  0.00     0.115 A 
ATOM     16  C   UNL     1      11.927   6.378  -1.597  1.00  0.00     0.016 A 
ATOM     17  C   UNL     1      11.673   5.004  -1.663  1.00  0.00     0.047 A 
BRANCH  15  18
ATOM     18  O   UNL     1      10.336   3.157  -2.496  1.00  0.00    -0.508 OA
ATOM     19  H   UNL     1       9.863   2.667  -1.746  1.00  0.00     0.293 HD
ENDBRANCH  15  18
ENDBRANCH   1  12
BRANCH   2  20
ATOM     20  O   UNL     1       9.099   9.166  -1.404  1.00  0.00    -0.502 OA
ATOM     21  H   UNL     1       8.537   8.550  -1.980  1.00  0.00     0.293 HD
ENDBRANCH   2  20
BRANCH   6  22
ATOM     22  O   UNL     1      11.412  13.921  -2.055  1.00  0.00    -0.507 OA
ATOM     23  H   UNL     1      10.535  13.859  -1.561  1.00  0.00     0.293 HD
ENDBRANCH   6  22
BRANCH   8  24
ATOM     24  O   UNL     1      15.885  12.540  -3.125  1.00  0.00    -0.508 OA
ATOM     25  H   UNL     1      16.397  12.080  -3.868  1.00  0.00     0.293 HD
ENDBRANCH   8  24
TORSDOF 5
ENDMDL
MODEL 8
REMARK VINA RESULT:    -3.532      2.562      8.127
REMARK INTER + INTRA:          -4.355
REMARK INTER:                  -4.207
REMARK INTRA:                  -0.148
REMARK UNBOUND:                -0.204
REMARK SMILES O=c1c(O)c(-c2ccc(O)cc2)oc2cc(O)cc(O)c12
REMARK SMILES IDX 5 1 3 2 2 3 1 4 21 5 19 6 18 7 16 8 15 9 14 10 13 11 6 12
REMARK SMILES IDX 7 13 8 14 9 15 12 16 11 17 10 18 4 20 20 22 17 24
REMARK H PARENT 10 19 4 21 20 23 17 25
REMARK Flexibility Score: inf
ROOT
ATOM      1  C   UNL     1      10.176  10.584  -1.868  1.00  0.00     0.180 A 
ATOM      2  C   UNL     1      11.562  10.666  -2.086  1.00  0.00     0.208 A 
ATOM      3  C   UNL     1      12.301   9.480  -2.217  1.00  0.00     0.238 A 
ATOM      4  O   UNL     1      13.550   9.558  -2.360  1.00  0.00    -0.285 OA
ATOM      5  C   UNL     1      11.644   8.228  -2.145  1.00  0.00     0.111 A 
ATOM      6  C   UNL     1      12.289   6.964  -2.304  1.00  0.00     0.134 A 
ATOM      7  C   UNL     1      11.564   5.786  -2.082  1.00  0.00     0.093 A 
ATOM      8  C   UNL     1      10.202   5.826  -1.771  1.00  0.00     0.123 A 
ATOM      9  C   UNL     1       9.552   7.054  -1.672  1.00  0.00     0.094 A 
ATOM     10  C   UNL     1      10.256   8.247  -1.852  1.00  0.00     0.146 A 
ATOM     11  O   UNL     1       9.600   9.395  -1.738  1.00  0.00    -0.452 OA
ENDROOT
BRANCH   1  12
ATOM     12  C   UNL     1       9.325  11.789  -1.744  1.00  0.00     0.021 A 
ATOM     13  C   UNL     1       8.402  12.093  -2.759  1.00  0.00     0.016 A 
ATOM     14  C   UNL     1       7.605  13.238  -2.672  1.00  0.00     0.047 A 
ATOM     15  C   UNL     1       7.730  14.102  -1.580  1.00  0.00     0.115 A 
ATOM     16  C   UNL     1       9.460  12.673  -0.657  1.00  0.00     0.016 A 
ATOM     17  C   UNL     1       8.662  13.819  -0.573  1.00  0.00     0.047 A 
BRANCH  15  18
ATOM     18  O   UNL     1       6.929  15.240  -1.507  1.00  0.00    -0.508 OA
ATOM     19  H   UNL     1       7.331  16.170  -1.491  1.00  0.00     0.293 HD
ENDBRANCH  15  18
ENDBRANCH   1  12
BRANCH   2  20
ATOM     20  O   UNL     1      12.194  11.912  -2.133  1.00  0.00    -0.502 OA
ATOM     21  H   UNL     1      12.010  12.587  -2.866  1.00  0.00     0.293 HD
ENDBRANCH   2  20
BRANCH   6  22
ATOM     22  O   UNL     1      13.620   6.811  -2.703  1.00  0.00    -0.507 OA
ATOM     23  H   UNL     1      14.257   6.126  -2.325  1.00  0.00     0.293 HD
ENDBRANCH   6  22
BRANCH   8  24
ATOM     24  O   UNL     1       9.485   4.650  -1.566  1.00  0.00    -0.508 OA
ATOM     25  H   UNL     1       8.492   4.595  -1.758  1.00  0.00     0.293 HD
ENDBRANCH   8  24
TORSDOF 5
ENDMDL
MODEL 9
REMARK VINA RESULT:    -3.447      2.560      7.521
REMARK INTER + INTRA:          -4.255
REMARK INTER:                  -4.277
REMARK INTRA:                   0.022
REMARK UNBOUND:                -0.204
REMARK SMILES O=c1c(O)c(-c2ccc(O)cc2)oc2cc(O)cc(O)c12
REMARK SMILES IDX 5 1 3 2 2 3 1 4 21 5 19 6 18 7 16 8 15 9 14 10 13 11 6 12
REMARK SMILES IDX 7 13 8 14 9 15 12 16 11 17 10 18 4 20 20 22 17 24
REMARK H PARENT 10 19 4 21 20 23 17 25
REMARK Flexibility Score: inf
ROOT
ATOM      1  C   UNL     1      11.487  11.249  -1.921  1.00  0.00     0.180 A 
ATOM      2  C   UNL     1      10.100  11.028  -1.843  1.00  0.00     0.208 A 
ATOM      3  C   UNL     1       9.616   9.713  -1.916  1.00  0.00     0.238 A 
ATOM      4  O   UNL     1       8.371   9.525  -1.900  1.00  0.00    -0.285 OA
ATOM      5  C   UNL     1      10.523   8.634  -2.049  1.00  0.00     0.111 A 
ATOM      6  C   UNL     1      10.145   7.258  -2.093  1.00  0.00     0.134 A 
ATOM      7  C   UNL     1      11.115   6.283  -2.359  1.00  0.00     0.093 A 
ATOM      8  C   UNL     1      12.460   6.629  -2.518  1.00  0.00     0.123 A 
ATOM      9  C   UNL     1      12.846   7.964  -2.418  1.00  0.00     0.094 A 
ATOM     10  C   UNL     1      11.897   8.962  -2.189  1.00  0.00     0.146 A 
ATOM     11  O   UNL     1      12.306  10.223  -2.112  1.00  0.00    -0.452 OA
ENDROOT
BRANCH   1  12
ATOM     12  C   UNL     1      12.075  12.605  -1.826  1.00  0.00     0.021 A 
ATOM     13  C   UNL     1      13.057  12.999  -2.750  1.00  0.00     0.016 A 
ATOM     14  C   UNL     1      13.642  14.266  -2.665  1.00  0.00     0.047 A 
ATOM     15  C   UNL     1      13.264  15.149  -1.650  1.00  0.00     0.115 A 
ATOM     16  C   UNL     1      11.713  13.490  -0.795  1.00  0.00     0.016 A 
ATOM     17  C   UNL     1      12.300  14.757  -0.711  1.00  0.00     0.047 A 
BRANCH  15  18
ATOM     18  O   UNL     1      13.855  16.409  -1.577  1.00  0.00    -0.508 OA
ATOM     19  H   UNL     1      14.037  16.858  -0.688  1.00  0.00     0.293 HD
ENDBRANCH  15  18
ENDBRANCH   1  12
BRANCH   2  20
ATOM     20  O   UNL     1       9.222  12.109  -1.733  1.00  0.00    -0.502 OA
ATOM     21  H   UNL     1       8.754  12.344  -0.865  1.00  0.00     0.293 HD
ENDBRANCH   2  20
BRANCH   6  22
ATOM     22  O   UNL     1       8.847   6.797  -1.855  1.00  0.00    -0.507 OA
ATOM     23  H   UNL     1       8.096   7.360  -1.487  1.00  0.00     0.293 HD
ENDBRANCH   6  22
BRANCH   8  24
ATOM     24  O   UNL     1      13.421   5.653  -2.767  1.00  0.00    -0.508 OA
ATOM     25  H   UNL     1      14.388   5.778  -2.492  1.00  0.00     0.293 HD
ENDBRANCH   8  24
TORSDOF 5
ENDMDL
