MODEL 1
REMARK VINA RESULT:    -5.447      0.000      0.000
REMARK INTER + INTRA:          -5.606
REMARK INTER:                  -5.606
REMARK INTRA:                   0.000
REMARK UNBOUND:                 0.000
REMARK SMILES O=c1ccc2ccc(O)cc2o1
REMARK SMILES IDX 6 1 7 2 8 3 10 4 11 5 5 6 4 7 3 8 2 9 1 10 12 11 9 12
REMARK H PARENT 9 13
REMARK Flexibility Score: inf
ROOT
ATOM      1  C   UNL     1      29.195  23.758  51.060  1.00  0.00     0.016 A 
ATOM      2  C   UNL     1      28.329  23.912  52.146  1.00  0.00     0.047 A 
ATOM      3  C   UNL     1      26.970  24.174  51.937  1.00  0.00     0.119 A 
ATOM      4  C   UNL     1      26.473  24.284  50.629  1.00  0.00     0.094 A 
ATOM      5  C   UNL     1      27.332  24.132  49.536  1.00  0.00     0.142 A 
ATOM      6  C   UNL     1      28.703  23.868  49.752  1.00  0.00     0.018 A 
ATOM      7  C   UNL     1      29.537  23.720  48.640  1.00  0.00     0.019 A 
ATOM      8  C   UNL     1      28.997  23.839  47.359  1.00  0.00     0.094 A 
ATOM      9  C   UNL     1      27.630  24.102  47.221  1.00  0.00     0.336 A 
ATOM     10  O   UNL     1      27.124  24.212  46.073  1.00  0.00    -0.246 OA
ATOM     11  O   UNL     1      26.858  24.238  48.297  1.00  0.00    -0.423 OA
ENDROOT
BRANCH   3  12
ATOM     12  O   UNL     1      26.123  24.324  53.032  1.00  0.00    -0.508 OA
ATOM     13  H   UNL     1      26.405  24.042  53.963  1.00  0.00     0.293 HD
ENDBRANCH   3  12
TORSDOF 1
ENDMDL
MODEL 2
REMARK VINA RESULT:    -5.418      1.954      2.248
REMARK INTER + INTRA:          -5.576
REMARK INTER:                  -5.576
REMARK INTRA:                   0.000
REMARK UNBOUND:                 0.000
REMARK SMILES O=c1ccc2ccc(O)cc2o1
REMARK SMILES IDX 6 1 7 2 8 3 10 4 11 5 5 6 4 7 3 8 2 9 1 10 12 11 9 12
REMARK H PARENT 9 13
REMARK Flexibility Score: inf
ROOT
ATOM      1  C   UNL     1      29.031  22.007  50.220  1.00  0.00     0.016 A 
ATOM      2  C   UNL     1      27.727  22.132  50.709  1.00  0.00     0.047 A 
ATOM      3  C   UNL     1      26.846  23.062  50.145  1.00  0.00     0.119 A 
ATOM      4  C   UNL     1      27.272  23.874  49.083  1.00  0.00     0.094 A 
ATOM      5  C   UNL     1      28.575  23.756  48.588  1.00  0.00     0.142 A 
ATOM      6  C   UNL     1      29.461  22.817  49.160  1.00  0.00     0.018 A 
ATOM      7  C   UNL     1      30.756  22.721  48.643  1.00  0.00     0.019 A 
ATOM      8  C   UNL     1      31.134  23.550  47.587  1.00  0.00     0.094 A 
ATOM      9  C   UNL     1      30.204  24.457  47.070  1.00  0.00     0.336 A 
ATOM     10  O   UNL     1      30.526  25.214  46.116  1.00  0.00    -0.246 OA
ATOM     11  O   UNL     1      28.976  24.528  47.581  1.00  0.00    -0.423 OA
ENDROOT
BRANCH   3  12
ATOM     12  O   UNL     1      25.551  23.173  50.646  1.00  0.00    -0.508 OA
ATOM     13  H   UNL     1      25.339  23.761  51.443  1.00  0.00     0.293 HD
ENDBRANCH   3  12
TORSDOF 1
ENDMDL
MODEL 3
REMARK VINA RESULT:    -5.398      2.367      3.170
REMARK INTER + INTRA:          -5.556
REMARK INTER:                  -5.556
REMARK INTRA:                   0.000
REMARK UNBOUND:                 0.000
REMARK SMILES O=c1ccc2ccc(O)cc2o1
REMARK SMILES IDX 6 1 7 2 8 3 10 4 11 5 5 6 4 7 3 8 2 9 1 10 12 11 9 12
REMARK H PARENT 9 13
REMARK Flexibility Score: inf
ROOT
ATOM      1  C   UNL     1      27.300  24.190  49.403  1.00  0.00     0.016 A 
ATOM      2  C   UNL     1      26.504  24.466  50.519  1.00  0.00     0.047 A 
ATOM      3  C   UNL     1      26.948  24.134  51.804  1.00  0.00     0.119 A 
ATOM      4  C   UNL     1      28.198  23.520  51.975  1.00  0.00     0.094 A 
ATOM      5  C   UNL     1      29.001  23.240  50.865  1.00  0.00     0.142 A 
ATOM      6  C   UNL     1      28.549  23.577  49.569  1.00  0.00     0.018 A 
ATOM      7  C   UNL     1      29.374  23.284  48.479  1.00  0.00     0.019 A 
ATOM      8  C   UNL     1      30.607  22.673  48.699  1.00  0.00     0.094 A 
ATOM      9  C   UNL     1      30.990  22.368  50.009  1.00  0.00     0.336 A 
ATOM     10  O   UNL     1      32.100  21.817  50.228  1.00  0.00    -0.246 OA
ATOM     11  O   UNL     1      30.186  22.657  51.030  1.00  0.00    -0.423 OA
ENDROOT
BRANCH   3  12
ATOM     12  O   UNL     1      26.141  24.418  52.904  1.00  0.00    -0.508 OA
ATOM     13  H   UNL     1      26.517  24.444  53.845  1.00  0.00     0.293 HD
ENDBRANCH   3  12
TORSDOF 1
ENDMDL
MODEL 4
REMARK VINA RESULT:    -5.149      1.439      1.932
REMARK INTER + INTRA:          -5.299
REMARK INTER:                  -5.299
REMARK INTRA:                   0.000
REMARK UNBOUND:                 0.000
REMARK SMILES O=c1ccc2ccc(O)cc2o1
REMARK SMILES IDX 6 1 7 2 8 3 10 4 11 5 5 6 4 7 3 8 2 9 1 10 12 11 9 12
REMARK H PARENT 9 13
REMARK Flexibility Score: inf
ROOT
ATOM      1  C   UNL     1      26.340  22.644  50.860  1.00  0.00     0.016 A 
ATOM      2  C   UNL     1      26.531  23.196  52.129  1.00  0.00     0.047 A 
ATOM      3  C   UNL     1      27.463  24.223  52.322  1.00  0.00     0.119 A 
ATOM      4  C   UNL     1      28.210  24.701  51.236  1.00  0.00     0.094 A 
ATOM      5  C   UNL     1      28.026  24.155  49.961  1.00  0.00     0.142 A 
ATOM      6  C   UNL     1      27.085  23.118  49.771  1.00  0.00     0.018 A 
ATOM      7  C   UNL     1      26.923  22.592  48.486  1.00  0.00     0.019 A 
ATOM      8  C   UNL     1      27.689  23.100  47.437  1.00  0.00     0.094 A 
ATOM      9  C   UNL     1      28.602  24.127  47.699  1.00  0.00     0.336 A 
ATOM     10  O   UNL     1      29.302  24.599  46.765  1.00  0.00    -0.246 OA
ATOM     11  O   UNL     1      28.737  24.610  48.932  1.00  0.00    -0.423 OA
ENDROOT
BRANCH   3  12
ATOM     12  O   UNL     1      27.639  24.761  53.595  1.00  0.00    -0.508 OA
ATOM     13  H   UNL     1      27.187  24.358  54.408  1.00  0.00     0.293 HD
ENDBRANCH   3  12
TORSDOF 1
ENDMDL
MODEL 5
REMARK VINA RESULT:    -5.146      1.932      4.438
REMARK INTER + INTRA:          -5.296
REMARK INTER:                  -5.296
REMARK INTRA:                   0.000
REMARK UNBOUND:                 0.000
REMARK SMILES O=c1ccc2ccc(O)cc2o1
REMARK SMILES IDX 6 1 7 2 8 3 10 4 11 5 5 6 4 7 3 8 2 9 1 10 12 11 9 12
REMARK H PARENT 9 13
REMARK Flexibility Score: inf
ROOT
ATOM      1  C   UNL     1      29.488  24.272  47.867  1.00  0.00     0.016 A 
ATOM      2  C   UNL     1      29.111  24.596  46.560  1.00  0.00     0.047 A 
ATOM      3  C   UNL     1      27.891  24.145  46.042  1.00  0.00     0.119 A 
ATOM      4  C   UNL     1      27.041  23.362  46.837  1.00  0.00     0.094 A 
ATOM      5  C   UNL     1      27.410  23.032  48.146  1.00  0.00     0.142 A 
ATOM      6  C   UNL     1      28.642  23.489  48.665  1.00  0.00     0.018 A 
ATOM      7  C   UNL     1      28.982  23.144  49.976  1.00  0.00     0.019 A 
ATOM      8  C   UNL     1      28.105  22.363  50.727  1.00  0.00     0.094 A 
ATOM      9  C   UNL     1      26.902  21.946  50.149  1.00  0.00     0.336 A 
ATOM     10  O   UNL     1      26.096  21.241  50.812  1.00  0.00    -0.246 OA
ATOM     11  O   UNL     1      26.601  22.289  48.898  1.00  0.00    -0.423 OA
ENDROOT
BRANCH   3  12
ATOM     12  O   UNL     1      27.533  24.479  44.738  1.00  0.00    -0.508 OA
ATOM     13  H   UNL     1      27.252  23.772  44.068  1.00  0.00     0.293 HD
ENDBRANCH   3  12
TORSDOF 1
ENDMDL
MODEL 6
REMARK VINA RESULT:    -5.080     13.063     14.193
REMARK INTER + INTRA:          -5.229
REMARK INTER:                  -5.229
REMARK INTRA:                   0.000
REMARK UNBOUND:                 0.000
REMARK SMILES O=c1ccc2ccc(O)cc2o1
REMARK SMILES IDX 6 1 7 2 8 3 10 4 11 5 5 6 4 7 3 8 2 9 1 10 12 11 9 12
REMARK H PARENT 9 13
REMARK Flexibility Score: inf
ROOT
ATOM      1  C   UNL     1      20.408  22.875  40.057  1.00  0.00     0.016 A 
ATOM      2  C   UNL     1      20.510  21.638  39.414  1.00  0.00     0.047 A 
ATOM      3  C   UNL     1      20.135  21.505  38.072  1.00  0.00     0.119 A 
ATOM      4  C   UNL     1      19.654  22.619  37.367  1.00  0.00     0.094 A 
ATOM      5  C   UNL     1      19.549  23.860  38.002  1.00  0.00     0.142 A 
ATOM      6  C   UNL     1      19.928  23.990  39.357  1.00  0.00     0.018 A 
ATOM      7  C   UNL     1      19.812  25.244  39.964  1.00  0.00     0.019 A 
ATOM      8  C   UNL     1      19.329  26.322  39.223  1.00  0.00     0.094 A 
ATOM      9  C   UNL     1      18.972  26.119  37.886  1.00  0.00     0.336 A 
ATOM     10  O   UNL     1      18.534  27.080  37.199  1.00  0.00    -0.246 OA
ATOM     11  O   UNL     1      19.092  24.915  37.331  1.00  0.00    -0.423 OA
ENDROOT
BRANCH   3  12
ATOM     12  O   UNL     1      20.243  20.264  37.448  1.00  0.00    -0.508 OA
ATOM     13  H   UNL     1      19.682  19.473  37.741  1.00  0.00     0.293 HD
ENDBRANCH   3  12
TORSDOF 1
ENDMDL
MODEL 7
REMARK VINA RESULT:    -5.047      1.896      4.686
REMARK INTER + INTRA:          -5.195
REMARK INTER:                  -5.195
REMARK INTRA:                   0.000
REMARK UNBOUND:                 0.000
REMARK SMILES O=c1ccc2ccc(O)cc2o1
REMARK SMILES IDX 6 1 7 2 8 3 10 4 11 5 5 6 4 7 3 8 2 9 1 10 12 11 9 12
REMARK H PARENT 9 13
REMARK Flexibility Score: inf
ROOT
ATOM      1  C   UNL     1      26.967  22.381  48.557  1.00  0.00     0.016 A 
ATOM      2  C   UNL     1      27.870  23.230  47.910  1.00  0.00     0.047 A 
ATOM      3  C   UNL     1      28.601  24.174  48.640  1.00  0.00     0.119 A 
ATOM      4  C   UNL     1      28.427  24.271  50.029  1.00  0.00     0.094 A 
ATOM      5  C   UNL     1      27.525  23.426  50.685  1.00  0.00     0.142 A 
ATOM      6  C   UNL     1      26.789  22.474  49.944  1.00  0.00     0.018 A 
ATOM      7  C   UNL     1      25.896  21.643  50.627  1.00  0.00     0.019 A 
ATOM      8  C   UNL     1      25.757  21.777  52.008  1.00  0.00     0.094 A 
ATOM      9  C   UNL     1      26.518  22.742  52.676  1.00  0.00     0.336 A 
ATOM     10  O   UNL     1      26.407  22.877  53.923  1.00  0.00    -0.246 OA
ATOM     11  O   UNL     1      27.362  23.520  52.002  1.00  0.00    -0.423 OA
ENDROOT
BRANCH   3  12
ATOM     12  O   UNL     1      29.496  25.011  47.979  1.00  0.00    -0.508 OA
ATOM     13  H   UNL     1      29.204  25.902  47.594  1.00  0.00     0.293 HD
ENDBRANCH   3  12
TORSDOF 1
ENDMDL
MODEL 8
REMARK VINA RESULT:    -4.965      2.142      4.700
REMARK INTER + INTRA:          -5.111
REMARK INTER:                  -5.111
REMARK INTRA:                   0.000
REMARK UNBOUND:                 0.000
REMARK SMILES O=c1ccc2ccc(O)cc2o1
REMARK SMILES IDX 6 1 7 2 8 3 10 4 11 5 5 6 4 7 3 8 2 9 1 10 12 11 9 12
REMARK H PARENT 9 13
REMARK Flexibility Score: inf
ROOT
ATOM      1  C   UNL     1      28.376  24.249  48.529  1.00  0.00     0.016 A 
ATOM      2  C   UNL     1      29.535  23.678  47.996  1.00  0.00     0.047 A 
ATOM      3  C   UNL     1      30.301  22.788  48.759  1.00  0.00     0.119 A 
ATOM      4  C   UNL     1      29.905  22.467  50.066  1.00  0.00     0.094 A 
ATOM      5  C   UNL     1      28.746  23.035  50.608  1.00  0.00     0.142 A 
ATOM      6  C   UNL     1      27.977  23.932  49.835  1.00  0.00     0.018 A 
ATOM      7  C   UNL     1      26.824  24.482  50.403  1.00  0.00     0.019 A 
ATOM      8  C   UNL     1      26.471  24.134  51.706  1.00  0.00     0.094 A 
ATOM      9  C   UNL     1      27.280  23.239  52.413  1.00  0.00     0.336 A 
ATOM     10  O   UNL     1      26.978  22.911  53.590  1.00  0.00    -0.246 OA
ATOM     11  O   UNL     1      28.373  22.729  51.848  1.00  0.00    -0.423 OA
ENDROOT
BRANCH   3  12
ATOM     12  O   UNL     1      31.453  22.229  48.211  1.00  0.00    -0.508 OA
ATOM     13  H   UNL     1      31.818  21.340  48.535  1.00  0.00     0.293 HD
ENDBRANCH   3  12
TORSDOF 1
ENDMDL
MODEL 9
REMARK VINA RESULT:    -4.917      2.432      3.048
REMARK INTER + INTRA:          -5.061
REMARK INTER:                  -5.061
REMARK INTRA:                   0.000
REMARK UNBOUND:                 0.000
REMARK SMILES O=c1ccc2ccc(O)cc2o1
REMARK SMILES IDX 6 1 7 2 8 3 10 4 11 5 5 6 4 7 3 8 2 9 1 10 12 11 9 12
REMARK H PARENT 9 13
REMARK Flexibility Score: inf
ROOT
ATOM      1  C   UNL     1      28.932  23.672  52.152  1.00  0.00     0.016 A 
ATOM      2  C   UNL     1      27.595  24.020  51.944  1.00  0.00     0.047 A 
ATOM      3  C   UNL     1      27.008  23.855  50.684  1.00  0.00     0.119 A 
ATOM      4  C   UNL     1      27.765  23.337  49.622  1.00  0.00     0.094 A 
ATOM      5  C   UNL     1      29.105  22.986  49.821  1.00  0.00     0.142 A 
ATOM      6  C   UNL     1      29.693  23.155  51.094  1.00  0.00     0.018 A 
ATOM      7  C   UNL     1      31.033  22.794  51.262  1.00  0.00     0.019 A 
ATOM      8  C   UNL     1      31.746  22.284  50.177  1.00  0.00     0.094 A 
ATOM      9  C   UNL     1      31.098  22.145  48.945  1.00  0.00     0.336 A 
ATOM     10  O   UNL     1      31.724  21.686  47.954  1.00  0.00    -0.246 OA
ATOM     11  O   UNL     1      29.821  22.496  48.812  1.00  0.00    -0.423 OA
ENDROOT
BRANCH   3  12
ATOM     12  O   UNL     1      25.674  24.208  50.496  1.00  0.00    -0.508 OA
ATOM     13  H   UNL     1      25.329  24.518  49.595  1.00  0.00     0.293 HD
ENDBRANCH   3  12
TORSDOF 1
ENDMDL
