MODEL 1
REMARK VINA RESULT:     1.921      0.000      0.000
REMARK INTER + INTRA:           2.012
REMARK INTER:                   2.033
REMARK INTRA:                  -0.022
REMARK UNBOUND:                -0.022
REMARK SMILES O=C([O-])c1cccnc1
REMARK SMILES IDX 4 1 5 2 9 3 6 4 8 5 7 6 2 7 1 8 3 9
REMARK H PARENT
REMARK Flexibility Score: inf
ROOT
ATOM      1  C   UNL     1     -19.875   9.143   4.078  1.00  0.00     0.016 A 
ATOM      2  C   UNL     1     -19.630  10.055   5.120  1.00  0.00     0.013 A 
ATOM      3  C   UNL     1     -21.075   9.262   3.355  1.00  0.00     0.120 A 
ATOM      4  C   UNL     1     -20.565  11.047   5.415  1.00  0.00     0.021 A 
ATOM      5  N   UNL     1     -21.969  10.238   3.664  1.00  0.00    -0.264 NA
ATOM      6  C   UNL     1     -21.742  11.125   4.670  1.00  0.00     0.111 A 
ENDROOT
BRANCH   1   7
ATOM      7  C   UNL     1     -18.898   8.084   3.747  1.00  0.00     0.073 C 
ATOM      8  O   UNL     1     -19.280   6.998   3.234  1.00  0.00    -0.545 OA
ATOM      9  O   UNL     1     -17.543   8.272   3.996  1.00  0.00    -0.545 OA
ENDBRANCH   1   7
TORSDOF 1
ENDMDL
MODEL 2
REMARK VINA RESULT:     3.256      2.721      3.676
REMARK INTER + INTRA:           3.424
REMARK INTER:                   3.447
REMARK INTRA:                  -0.022
REMARK UNBOUND:                -0.022
REMARK SMILES O=C([O-])c1cccnc1
REMARK SMILES IDX 4 1 5 2 9 3 6 4 8 5 7 6 2 7 1 8 3 9
REMARK H PARENT
REMARK Flexibility Score: inf
ROOT
ATOM      1  C   UNL     1     -20.272   9.667   4.368  1.00  0.00     0.016 A 
ATOM      2  C   UNL     1     -18.944   9.595   4.825  1.00  0.00     0.013 A 
ATOM      3  C   UNL     1     -20.686   8.762   3.376  1.00  0.00     0.120 A 
ATOM      4  C   UNL     1     -18.072   8.643   4.295  1.00  0.00     0.021 A 
ATOM      5  N   UNL     1     -19.816   7.844   2.877  1.00  0.00    -0.264 NA
ATOM      6  C   UNL     1     -18.530   7.766   3.311  1.00  0.00     0.111 A 
ENDROOT
BRANCH   1   7
ATOM      7  C   UNL     1     -21.212  10.668   4.916  1.00  0.00     0.073 C 
ATOM      8  O   UNL     1     -21.058  11.119   6.082  1.00  0.00    -0.545 OA
ATOM      9  O   UNL     1     -22.279  11.125   4.151  1.00  0.00    -0.545 OA
ENDBRANCH   1   7
TORSDOF 1
ENDMDL
MODEL 3
REMARK VINA RESULT:     3.350     19.480     19.972
REMARK INTER + INTRA:           3.524
REMARK INTER:                   3.540
REMARK INTRA:                  -0.016
REMARK UNBOUND:                -0.022
REMARK SMILES O=C([O-])c1cccnc1
REMARK SMILES IDX 4 1 5 2 9 3 6 4 8 5 7 6 2 7 1 8 3 9
REMARK H PARENT
REMARK Flexibility Score: inf
ROOT
ATOM      1  C   UNL     1     -20.438  -4.596  17.958  1.00  0.00     0.016 A 
ATOM      2  C   UNL     1     -21.124  -5.099  19.077  1.00  0.00     0.013 A 
ATOM      3  C   UNL     1     -20.732  -5.140  16.696  1.00  0.00     0.120 A 
ATOM      4  C   UNL     1     -22.070  -6.113  18.922  1.00  0.00     0.021 A 
ATOM      5  N   UNL     1     -21.658  -6.128  16.572  1.00  0.00    -0.264 NA
ATOM      6  C   UNL     1     -22.327  -6.621  17.648  1.00  0.00     0.111 A 
ENDROOT
BRANCH   1   7
ATOM      7  C   UNL     1     -19.432  -3.522  18.100  1.00  0.00     0.073 C 
ATOM      8  O   UNL     1     -19.771  -2.312  18.004  1.00  0.00    -0.545 OA
ATOM      9  O   UNL     1     -18.099  -3.832  18.344  1.00  0.00    -0.545 OA
ENDBRANCH   1   7
TORSDOF 1
ENDMDL
MODEL 4
REMARK VINA RESULT:     3.664     19.496     20.034
REMARK INTER + INTRA:           3.857
REMARK INTER:                   3.873
REMARK INTRA:                  -0.016
REMARK UNBOUND:                -0.022
REMARK SMILES O=C([O-])c1cccnc1
REMARK SMILES IDX 4 1 5 2 9 3 6 4 8 5 7 6 2 7 1 8 3 9
REMARK H PARENT
REMARK Flexibility Score: inf
ROOT
ATOM      1  C   UNL     1     -20.457  -4.606  17.956  1.00  0.00     0.016 A 
ATOM      2  C   UNL     1     -20.761  -5.170  16.705  1.00  0.00     0.013 A 
ATOM      3  C   UNL     1     -21.124  -5.100  19.091  1.00  0.00     0.120 A 
ATOM      4  C   UNL     1     -21.704  -6.194  16.609  1.00  0.00     0.021 A 
ATOM      5  N   UNL     1     -22.038  -6.099  18.970  1.00  0.00    -0.264 NA
ATOM      6  C   UNL     1     -22.339  -6.651  17.764  1.00  0.00     0.111 A 
ENDROOT
BRANCH   1   7
ATOM      7  C   UNL     1     -19.462  -3.520  18.081  1.00  0.00     0.073 C 
ATOM      8  O   UNL     1     -19.817  -2.314  18.003  1.00  0.00    -0.545 OA
ATOM      9  O   UNL     1     -18.119  -3.815  18.288  1.00  0.00    -0.545 OA
ENDBRANCH   1   7
TORSDOF 1
ENDMDL
MODEL 5
REMARK VINA RESULT:     4.257     20.459     21.024
REMARK INTER + INTRA:           4.485
REMARK INTER:                   4.507
REMARK INTRA:                  -0.022
REMARK UNBOUND:                -0.022
REMARK SMILES O=C([O-])c1cccnc1
REMARK SMILES IDX 4 1 5 2 9 3 6 4 8 5 7 6 2 7 1 8 3 9
REMARK H PARENT
REMARK Flexibility Score: inf
ROOT
ATOM      1  C   UNL     1     -21.825  -6.797  17.533  1.00  0.00     0.016 A 
ATOM      2  C   UNL     1     -21.293  -6.024  16.487  1.00  0.00     0.013 A 
ATOM      3  C   UNL     1     -21.866  -6.237  18.822  1.00  0.00     0.120 A 
ATOM      4  C   UNL     1     -20.822  -4.735  16.737  1.00  0.00     0.021 A 
ATOM      5  N   UNL     1     -21.400  -4.978  19.039  1.00  0.00    -0.264 NA
ATOM      6  C   UNL     1     -20.884  -4.223  18.034  1.00  0.00     0.111 A 
ENDROOT
BRANCH   1   7
ATOM      7  C   UNL     1     -22.330  -8.165  17.290  1.00  0.00     0.073 C 
ATOM      8  O   UNL     1     -22.814  -8.478  16.170  1.00  0.00    -0.545 OA
ATOM      9  O   UNL     1     -22.276  -9.125  18.294  1.00  0.00    -0.545 OA
ENDBRANCH   1   7
TORSDOF 1
ENDMDL
MODEL 6
REMARK VINA RESULT:     4.647      1.002      2.012
REMARK INTER + INTRA:           4.897
REMARK INTER:                   4.921
REMARK INTRA:                  -0.024
REMARK UNBOUND:                -0.022
REMARK SMILES O=C([O-])c1cccnc1
REMARK SMILES IDX 4 1 5 2 9 3 6 4 8 5 7 6 2 7 1 8 3 9
REMARK H PARENT
REMARK Flexibility Score: inf
ROOT
ATOM      1  C   UNL     1     -19.701   9.364   4.189  1.00  0.00     0.016 A 
ATOM      2  C   UNL     1     -20.678   8.952   3.266  1.00  0.00     0.013 A 
ATOM      3  C   UNL     1     -19.980  10.473   5.006  1.00  0.00     0.120 A 
ATOM      4  C   UNL     1     -21.889   9.638   3.176  1.00  0.00     0.021 A 
ATOM      5  N   UNL     1     -21.168  11.124   4.897  1.00  0.00    -0.264 NA
ATOM      6  C   UNL     1     -22.120  10.734   4.008  1.00  0.00     0.111 A 
ENDROOT
BRANCH   1   7
ATOM      7  C   UNL     1     -18.410   8.650   4.302  1.00  0.00     0.073 C 
ATOM      8  O   UNL     1     -17.536   9.037   5.122  1.00  0.00    -0.545 OA
ATOM      9  O   UNL     1     -18.146   7.542   3.506  1.00  0.00    -0.545 OA
ENDBRANCH   1   7
TORSDOF 1
ENDMDL
