MODEL 1
REMARK VINA RESULT:    -4.176      0.000      0.000
REMARK INTER + INTRA:          -5.736
REMARK INTER:                  -5.397
REMARK INTRA:                  -0.339
REMARK UNBOUND:                -0.339
REMARK SMILES CCCCCCC(=O)[O-]
REMARK SMILES IDX 5 1 6 2 7 3 8 4 9 5 4 6 3 7 2 8 1 9
REMARK H PARENT
REMARK Flexibility Score: inf
ROOT
ATOM      1  C   UNL     1       9.077  22.198  -8.888  1.00  0.00     0.006 C 
ENDROOT
BRANCH   1   2
ATOM      2  C   UNL     1      10.087  21.269  -8.206  1.00  0.00     0.053 C 
BRANCH   2   3
ATOM      3  C   UNL     1      10.334  21.705  -6.797  1.00  0.00     0.041 C 
ATOM      4  O   UNL     1      11.487  22.061  -6.437  1.00  0.00    -0.550 OA
ATOM      5  O   UNL     1       9.303  21.673  -5.867  1.00  0.00    -0.550 OA
ENDBRANCH   2   3
ENDBRANCH   1   2
BRANCH   1   6
ATOM      6  C   UNL     1       9.708  23.564  -9.194  1.00  0.00     0.000 C 
BRANCH   6   7
ATOM      7  C   UNL     1      10.955  23.454 -10.086  1.00  0.00    -0.000 C 
BRANCH   7   8
ATOM      8  C   UNL     1      11.962  24.587  -9.836  1.00  0.00    -0.003 C 
ATOM      9  C   UNL     1      12.823  24.296  -8.610  1.00  0.00     0.004 C 
ENDBRANCH   7   8
ENDBRANCH   6   7
ENDBRANCH   1   6
TORSDOF 5
ENDMDL
MODEL 2
REMARK VINA RESULT:    -4.117      2.527      3.138
REMARK INTER + INTRA:          -5.659
REMARK INTER:                  -5.473
REMARK INTRA:                  -0.187
REMARK UNBOUND:                -0.339
REMARK SMILES CCCCCCC(=O)[O-]
REMARK SMILES IDX 5 1 6 2 7 3 8 4 9 5 4 6 3 7 2 8 1 9
REMARK H PARENT
REMARK Flexibility Score: inf
ROOT
ATOM      1  C   UNL     1       7.696  24.307  -8.584  1.00  0.00     0.006 C 
ENDROOT
BRANCH   1   2
ATOM      2  C   UNL     1       6.634  23.778  -7.615  1.00  0.00     0.053 C 
BRANCH   2   3
ATOM      3  C   UNL     1       7.018  24.074  -6.201  1.00  0.00     0.041 C 
ATOM      4  O   UNL     1       7.654  23.223  -5.526  1.00  0.00    -0.550 OA
ATOM      5  O   UNL     1       6.632  25.271  -5.610  1.00  0.00    -0.550 OA
ENDBRANCH   2   3
ENDBRANCH   1   2
BRANCH   1   6
ATOM      6  C   UNL     1       8.475  23.152  -9.229  1.00  0.00     0.000 C 
BRANCH   6   7
ATOM      7  C   UNL     1       9.932  23.077  -8.744  1.00  0.00    -0.000 C 
BRANCH   7   8
ATOM      8  C   UNL     1      10.944  23.228  -9.889  1.00  0.00    -0.003 C 
ATOM      9  C   UNL     1      11.854  24.432  -9.662  1.00  0.00     0.004 C 
ENDBRANCH   7   8
ENDBRANCH   6   7
ENDBRANCH   1   6
TORSDOF 5
ENDMDL
MODEL 3
REMARK VINA RESULT:    -4.091      1.827      3.184
REMARK INTER + INTRA:          -5.626
REMARK INTER:                  -5.308
REMARK INTRA:                  -0.318
REMARK UNBOUND:                -0.339
REMARK SMILES CCCCCCC(=O)[O-]
REMARK SMILES IDX 5 1 6 2 7 3 8 4 9 5 4 6 3 7 2 8 1 9
REMARK H PARENT
REMARK Flexibility Score: inf
ROOT
ATOM      1  C   UNL     1       9.493  22.622  -9.060  1.00  0.00     0.006 C 
ENDROOT
BRANCH   1   2
ATOM      2  C   UNL     1       9.874  21.381  -8.247  1.00  0.00     0.053 C 
BRANCH   2   3
ATOM      3  C   UNL     1      10.300  21.768  -6.867  1.00  0.00     0.041 C 
ATOM      4  O   UNL     1       9.457  21.810  -5.932  1.00  0.00    -0.550 OA
ATOM      5  O   UNL     1      11.619  22.130  -6.621  1.00  0.00    -0.550 OA
ENDBRANCH   2   3
ENDBRANCH   1   2
BRANCH   1   6
ATOM      6  C   UNL     1       8.191  22.391  -9.839  1.00  0.00     0.000 C 
BRANCH   6   7
ATOM      7  C   UNL     1       7.059  23.330  -9.393  1.00  0.00    -0.000 C 
BRANCH   7   8
ATOM      8  C   UNL     1       7.515  24.345  -8.335  1.00  0.00    -0.003 C 
ATOM      9  C   UNL     1       6.849  24.072  -6.989  1.00  0.00     0.004 C 
ENDBRANCH   7   8
ENDBRANCH   6   7
ENDBRANCH   1   6
TORSDOF 5
ENDMDL
MODEL 4
REMARK VINA RESULT:    -4.090      2.490      4.044
REMARK INTER + INTRA:          -5.624
REMARK INTER:                  -5.436
REMARK INTRA:                  -0.189
REMARK UNBOUND:                -0.339
REMARK SMILES CCCCCCC(=O)[O-]
REMARK SMILES IDX 5 1 6 2 7 3 8 4 9 5 4 6 3 7 2 8 1 9
REMARK H PARENT
REMARK Flexibility Score: inf
ROOT
ATOM      1  C   UNL     1      10.269  22.832  -9.749  1.00  0.00     0.006 C 
ENDROOT
BRANCH   1   2
ATOM      2  C   UNL     1      11.157  23.254  -8.574  1.00  0.00     0.053 C 
BRANCH   2   3
ATOM      3  C   UNL     1      12.212  24.211  -9.030  1.00  0.00     0.041 C 
ATOM      4  O   UNL     1      12.077  24.832 -10.116  1.00  0.00    -0.550 OA
ATOM      5  O   UNL     1      13.370  24.379  -8.280  1.00  0.00    -0.550 OA
ENDBRANCH   2   3
ENDBRANCH   1   2
BRANCH   1   6
ATOM      6  C   UNL     1       8.958  22.208  -9.250  1.00  0.00     0.000 C 
BRANCH   6   7
ATOM      7  C   UNL     1       7.743  22.636 -10.088  1.00  0.00    -0.000 C 
BRANCH   7   8
ATOM      8  C   UNL     1       6.693  23.395  -9.263  1.00  0.00    -0.003 C 
ATOM      9  C   UNL     1       7.313  24.597  -8.558  1.00  0.00     0.004 C 
ENDBRANCH   7   8
ENDBRANCH   6   7
ENDBRANCH   1   6
TORSDOF 5
ENDMDL
MODEL 5
REMARK VINA RESULT:    -4.082      2.601      3.696
REMARK INTER + INTRA:          -5.614
REMARK INTER:                  -5.355
REMARK INTRA:                  -0.260
REMARK UNBOUND:                -0.339
REMARK SMILES CCCCCCC(=O)[O-]
REMARK SMILES IDX 5 1 6 2 7 3 8 4 9 5 4 6 3 7 2 8 1 9
REMARK H PARENT
REMARK Flexibility Score: inf
ROOT
ATOM      1  C   UNL     1       7.714  24.093  -8.569  1.00  0.00     0.006 C 
ENDROOT
BRANCH   1   2
ATOM      2  C   UNL     1       6.566  23.787  -7.603  1.00  0.00     0.053 C 
BRANCH   2   3
ATOM      3  C   UNL     1       6.958  24.119  -6.199  1.00  0.00     0.041 C 
ATOM      4  O   UNL     1       7.566  23.271  -5.494  1.00  0.00    -0.550 OA
ATOM      5  O   UNL     1       6.610  25.347  -5.650  1.00  0.00    -0.550 OA
ENDBRANCH   2   3
ENDBRANCH   1   2
BRANCH   1   6
ATOM      6  C   UNL     1       8.037  22.873  -9.444  1.00  0.00     0.000 C 
BRANCH   6   7
ATOM      7  C   UNL     1       9.506  22.435  -9.331  1.00  0.00    -0.000 C 
BRANCH   7   8
ATOM      8  C   UNL     1       9.923  22.134  -7.884  1.00  0.00    -0.003 C 
ATOM      9  C   UNL     1      10.187  20.644  -7.687  1.00  0.00     0.004 C 
ENDBRANCH   7   8
ENDBRANCH   6   7
ENDBRANCH   1   6
TORSDOF 5
ENDMDL
MODEL 6
REMARK VINA RESULT:    -4.063      2.252      3.997
REMARK INTER + INTRA:          -5.589
REMARK INTER:                  -5.313
REMARK INTRA:                  -0.277
REMARK UNBOUND:                -0.339
REMARK SMILES CCCCCCC(=O)[O-]
REMARK SMILES IDX 5 1 6 2 7 3 8 4 9 5 4 6 3 7 2 8 1 9
REMARK H PARENT
REMARK Flexibility Score: inf
ROOT
ATOM      1  C   UNL     1       9.611  23.492  -9.125  1.00  0.00     0.006 C 
ENDROOT
BRANCH   1   2
ATOM      2  C   UNL     1      10.856  23.258  -9.985  1.00  0.00     0.053 C 
BRANCH   2   3
ATOM      3  C   UNL     1      11.866  24.336  -9.752  1.00  0.00     0.041 C 
ATOM      4  O   UNL     1      12.091  25.197 -10.642  1.00  0.00    -0.550 OA
ATOM      5  O   UNL     1      12.596  24.362  -8.570  1.00  0.00    -0.550 OA
ENDBRANCH   2   3
ENDBRANCH   1   2
BRANCH   1   6
ATOM      6  C   UNL     1       9.076  22.168  -8.560  1.00  0.00     0.000 C 
BRANCH   6   7
ATOM      7  C   UNL     1       9.926  21.634  -7.396  1.00  0.00    -0.000 C 
BRANCH   7   8
ATOM      8  C   UNL     1      10.259  20.142  -7.543  1.00  0.00    -0.003 C 
ATOM      9  C   UNL     1      11.641  19.946  -8.159  1.00  0.00     0.004 C 
ENDBRANCH   7   8
ENDBRANCH   6   7
ENDBRANCH   1   6
TORSDOF 5
ENDMDL
MODEL 7
REMARK VINA RESULT:    -4.047      3.809      5.108
REMARK INTER + INTRA:          -5.569
REMARK INTER:                  -5.297
REMARK INTRA:                  -0.271
REMARK UNBOUND:                -0.339
REMARK SMILES CCCCCCC(=O)[O-]
REMARK SMILES IDX 5 1 6 2 7 3 8 4 9 5 4 6 3 7 2 8 1 9
REMARK H PARENT
REMARK Flexibility Score: inf
ROOT
ATOM      1  C   UNL     1       7.566  24.132  -8.362  1.00  0.00     0.006 C 
ENDROOT
BRANCH   1   2
ATOM      2  C   UNL     1       7.553  23.559  -6.942  1.00  0.00     0.053 C 
BRANCH   2   3
ATOM      3  C   UNL     1       6.396  24.104  -6.167  1.00  0.00     0.041 C 
ATOM      4  O   UNL     1       5.310  23.469  -6.120  1.00  0.00    -0.550 OA
ATOM      5  O   UNL     1       6.499  25.338  -5.536  1.00  0.00    -0.550 OA
ENDBRANCH   2   3
ENDBRANCH   1   2
BRANCH   1   6
ATOM      6  C   UNL     1       8.106  23.102  -9.365  1.00  0.00     0.000 C 
BRANCH   6   7
ATOM      7  C   UNL     1       6.999  22.480 -10.230  1.00  0.00    -0.000 C 
BRANCH   7   8
ATOM      8  C   UNL     1       5.704  23.305 -10.215  1.00  0.00    -0.003 C 
ATOM      9  C   UNL     1       4.586  22.561  -9.491  1.00  0.00     0.004 C 
ENDBRANCH   7   8
ENDBRANCH   6   7
ENDBRANCH   1   6
TORSDOF 5
ENDMDL
MODEL 8
REMARK VINA RESULT:    -3.979      2.971      4.214
REMARK INTER + INTRA:          -5.481
REMARK INTER:                  -5.290
REMARK INTRA:                  -0.192
REMARK UNBOUND:                -0.339
REMARK SMILES CCCCCCC(=O)[O-]
REMARK SMILES IDX 5 1 6 2 7 3 8 4 9 5 4 6 3 7 2 8 1 9
REMARK H PARENT
REMARK Flexibility Score: inf
ROOT
ATOM      1  C   UNL     1       9.081  22.846  -8.196  1.00  0.00     0.006 C 
ENDROOT
BRANCH   1   2
ATOM      2  C   UNL     1      10.098  22.207  -9.147  1.00  0.00     0.053 C 
BRANCH   2   3
ATOM      3  C   UNL     1      11.143  23.201  -9.542  1.00  0.00     0.041 C 
ATOM      4  O   UNL     1      11.218  23.603 -10.732  1.00  0.00    -0.550 OA
ATOM      5  O   UNL     1      12.070  23.645  -8.606  1.00  0.00    -0.550 OA
ENDBRANCH   2   3
ENDBRANCH   1   2
BRANCH   1   6
ATOM      6  C   UNL     1       8.017  23.631  -8.977  1.00  0.00     0.000 C 
BRANCH   6   7
ATOM      7  C   UNL     1       7.209  24.585  -8.082  1.00  0.00    -0.000 C 
BRANCH   7   8
ATOM      8  C   UNL     1       6.857  23.963  -6.722  1.00  0.00    -0.003 C 
ATOM      9  C   UNL     1       6.551  25.043  -5.688  1.00  0.00     0.004 C 
ENDBRANCH   7   8
ENDBRANCH   6   7
ENDBRANCH   1   6
TORSDOF 5
ENDMDL
MODEL 9
REMARK VINA RESULT:    -3.936      2.150      3.695
REMARK INTER + INTRA:          -5.426
REMARK INTER:                  -5.206
REMARK INTRA:                  -0.220
REMARK UNBOUND:                -0.339
REMARK SMILES CCCCCCC(=O)[O-]
REMARK SMILES IDX 5 1 6 2 7 3 8 4 9 5 4 6 3 7 2 8 1 9
REMARK H PARENT
REMARK Flexibility Score: inf
ROOT
ATOM      1  C   UNL     1       9.596  23.197  -8.705  1.00  0.00     0.006 C 
ENDROOT
BRANCH   1   2
ATOM      2  C   UNL     1      10.100  21.760  -8.866  1.00  0.00     0.053 C 
BRANCH   2   3
ATOM      3  C   UNL     1      10.119  21.059  -7.545  1.00  0.00     0.041 C 
ATOM      4  O   UNL     1      10.133  21.722  -6.476  1.00  0.00    -0.550 OA
ATOM      5  O   UNL     1      10.172  19.671  -7.494  1.00  0.00    -0.550 OA
ENDBRANCH   2   3
ENDBRANCH   1   2
BRANCH   1   6
ATOM      6  C   UNL     1       8.089  23.286  -8.988  1.00  0.00     0.000 C 
BRANCH   6   7
ATOM      7  C   UNL     1       7.648  22.369 -10.140  1.00  0.00    -0.000 C 
BRANCH   7   8
ATOM      8  C   UNL     1       6.157  22.521 -10.478  1.00  0.00    -0.003 C 
ATOM      9  C   UNL     1       5.382  23.098  -9.297  1.00  0.00     0.004 C 
ENDBRANCH   7   8
ENDBRANCH   6   7
ENDBRANCH   1   6
TORSDOF 5
ENDMDL
