MODEL 1
REMARK VINA RESULT:    -3.865      0.000      0.000
REMARK INTER + INTRA:          -5.274
REMARK INTER:                  -4.995
REMARK INTRA:                  -0.278
REMARK UNBOUND:                -0.278
REMARK SMILES CCCCCCC(=O)[O-]
REMARK SMILES IDX 5 1 6 2 7 3 8 4 9 5 4 6 3 7 2 8 1 9
REMARK H PARENT
REMARK Flexibility Score: inf
ROOT
ATOM      1  C   UNL     1      54.349  46.114  11.933  1.00  0.00     0.006 C 
ENDROOT
BRANCH   1   2
ATOM      2  C   UNL     1      54.302  44.583  12.019  1.00  0.00     0.053 C 
BRANCH   2   3
ATOM      3  C   UNL     1      54.240  43.953  10.661  1.00  0.00     0.041 C 
ATOM      4  O   UNL     1      54.179  42.700  10.546  1.00  0.00    -0.550 OA
ATOM      5  O   UNL     1      54.284  44.748   9.523  1.00  0.00    -0.550 OA
ENDBRANCH   2   3
ENDBRANCH   1   2
BRANCH   1   6
ATOM      6  C   UNL     1      53.171  46.774  12.663  1.00  0.00     0.000 C 
BRANCH   6   7
ATOM      7  C   UNL     1      51.834  46.382  12.018  1.00  0.00    -0.000 C 
BRANCH   7   8
ATOM      8  C   UNL     1      51.709  46.881  10.570  1.00  0.00    -0.003 C 
ATOM      9  C   UNL     1      50.813  48.113  10.443  1.00  0.00     0.004 C 
ENDBRANCH   7   8
ENDBRANCH   6   7
ENDBRANCH   1   6
TORSDOF 5
ENDMDL
MODEL 2
REMARK VINA RESULT:    -3.797     13.084     14.705
REMARK INTER + INTRA:          -5.185
REMARK INTER:                  -5.032
REMARK INTRA:                  -0.152
REMARK UNBOUND:                -0.278
REMARK SMILES CCCCCCC(=O)[O-]
REMARK SMILES IDX 5 1 6 2 7 3 8 4 9 5 4 6 3 7 2 8 1 9
REMARK H PARENT
REMARK Flexibility Score: inf
ROOT
ATOM      1  C   UNL     1      50.640  33.400   3.950  1.00  0.00     0.006 C 
ENDROOT
BRANCH   1   2
ATOM      2  C   UNL     1      51.530  33.033   2.756  1.00  0.00     0.053 C 
BRANCH   2   3
ATOM      3  C   UNL     1      50.907  33.438   1.455  1.00  0.00     0.041 C 
ATOM      4  O   UNL     1      49.717  33.848   1.421  1.00  0.00    -0.550 OA
ATOM      5  O   UNL     1      51.632  33.331   0.275  1.00  0.00    -0.550 OA
ENDBRANCH   2   3
ENDBRANCH   1   2
BRANCH   1   6
ATOM      6  C   UNL     1      50.888  32.491   5.162  1.00  0.00     0.000 C 
BRANCH   6   7
ATOM      7  C   UNL     1      49.758  32.628   6.193  1.00  0.00    -0.000 C 
BRANCH   7   8
ATOM      8  C   UNL     1      49.376  34.092   6.459  1.00  0.00    -0.003 C 
ATOM      9  C   UNL     1      49.865  34.594   7.817  1.00  0.00     0.004 C 
ENDBRANCH   7   8
ENDBRANCH   6   7
ENDBRANCH   1   6
TORSDOF 5
ENDMDL
MODEL 3
REMARK VINA RESULT:    -3.766     11.336     12.717
REMARK INTER + INTRA:          -5.145
REMARK INTER:                  -4.982
REMARK INTRA:                  -0.163
REMARK UNBOUND:                -0.278
REMARK SMILES CCCCCCC(=O)[O-]
REMARK SMILES IDX 5 1 6 2 7 3 8 4 9 5 4 6 3 7 2 8 1 9
REMARK H PARENT
REMARK Flexibility Score: inf
ROOT
ATOM      1  C   UNL     1      48.260  51.891   0.549  1.00  0.00     0.006 C 
ENDROOT
BRANCH   1   2
ATOM      2  C   UNL     1      48.866  50.907   1.557  1.00  0.00     0.053 C 
BRANCH   2   3
ATOM      3  C   UNL     1      50.360  51.016   1.608  1.00  0.00     0.041 C 
ATOM      4  O   UNL     1      51.025  51.124   0.545  1.00  0.00    -0.550 OA
ATOM      5  O   UNL     1      51.019  50.964   2.830  1.00  0.00    -0.550 OA
ENDBRANCH   2   3
ENDBRANCH   1   2
BRANCH   1   6
ATOM      6  C   UNL     1      46.730  51.971   0.662  1.00  0.00     0.000 C 
BRANCH   6   7
ATOM      7  C   UNL     1      46.198  50.936   1.664  1.00  0.00    -0.000 C 
BRANCH   7   8
ATOM      8  C   UNL     1      44.679  50.738   1.556  1.00  0.00    -0.003 C 
ATOM      9  C   UNL     1      44.300  49.454   0.819  1.00  0.00     0.004 C 
ENDBRANCH   7   8
ENDBRANCH   6   7
ENDBRANCH   1   6
TORSDOF 5
ENDMDL
MODEL 4
REMARK VINA RESULT:    -3.760     12.514     14.151
REMARK INTER + INTRA:          -5.138
REMARK INTER:                  -4.966
REMARK INTRA:                  -0.172
REMARK UNBOUND:                -0.278
REMARK SMILES CCCCCCC(=O)[O-]
REMARK SMILES IDX 5 1 6 2 7 3 8 4 9 5 4 6 3 7 2 8 1 9
REMARK H PARENT
REMARK Flexibility Score: inf
ROOT
ATOM      1  C   UNL     1      50.887  32.368   5.074  1.00  0.00     0.006 C 
ENDROOT
BRANCH   1   2
ATOM      2  C   UNL     1      50.559  33.615   4.245  1.00  0.00     0.053 C 
BRANCH   2   3
ATOM      3  C   UNL     1      50.886  33.421   2.796  1.00  0.00     0.041 C 
ATOM      4  O   UNL     1      50.180  33.965   1.907  1.00  0.00    -0.550 OA
ATOM      5  O   UNL     1      51.953  32.611   2.427  1.00  0.00    -0.550 OA
ENDBRANCH   2   3
ENDBRANCH   1   2
BRANCH   1   6
ATOM      6  C   UNL     1      50.150  32.354   6.421  1.00  0.00     0.000 C 
BRANCH   6   7
ATOM      7  C   UNL     1      49.404  33.676   6.654  1.00  0.00    -0.000 C 
BRANCH   7   8
ATOM      8  C   UNL     1      49.130  33.946   8.141  1.00  0.00    -0.003 C 
ATOM      9  C   UNL     1      49.985  35.080   8.705  1.00  0.00     0.004 C 
ENDBRANCH   7   8
ENDBRANCH   6   7
ENDBRANCH   1   6
TORSDOF 5
ENDMDL
MODEL 5
REMARK VINA RESULT:    -3.738     13.312     14.531
REMARK INTER + INTRA:          -5.109
REMARK INTER:                  -4.887
REMARK INTRA:                  -0.222
REMARK UNBOUND:                -0.278
REMARK SMILES CCCCCCC(=O)[O-]
REMARK SMILES IDX 5 1 6 2 7 3 8 4 9 5 4 6 3 7 2 8 1 9
REMARK H PARENT
REMARK Flexibility Score: inf
ROOT
ATOM      1  C   UNL     1      50.840  32.244   5.945  1.00  0.00     0.006 C 
ENDROOT
BRANCH   1   2
ATOM      2  C   UNL     1      49.350  32.486   6.212  1.00  0.00     0.053 C 
BRANCH   2   3
ATOM      3  C   UNL     1      49.138  33.467   7.325  1.00  0.00     0.041 C 
ATOM      4  O   UNL     1      49.762  34.560   7.335  1.00  0.00    -0.550 OA
ATOM      5  O   UNL     1      48.273  33.158   8.368  1.00  0.00    -0.550 OA
ENDBRANCH   2   3
ENDBRANCH   1   2
BRANCH   1   6
ATOM      6  C   UNL     1      51.215  32.485   4.475  1.00  0.00     0.000 C 
BRANCH   6   7
ATOM      7  C   UNL     1      50.507  33.731   3.924  1.00  0.00    -0.000 C 
BRANCH   7   8
ATOM      8  C   UNL     1      50.466  33.757   2.389  1.00  0.00    -0.003 C 
ATOM      9  C   UNL     1      51.760  33.252   1.753  1.00  0.00     0.004 C 
ENDBRANCH   7   8
ENDBRANCH   6   7
ENDBRANCH   1   6
TORSDOF 5
ENDMDL
MODEL 6
REMARK VINA RESULT:    -3.711     13.126     14.764
REMARK INTER + INTRA:          -5.074
REMARK INTER:                  -4.917
REMARK INTRA:                  -0.158
REMARK UNBOUND:                -0.278
REMARK SMILES CCCCCCC(=O)[O-]
REMARK SMILES IDX 5 1 6 2 7 3 8 4 9 5 4 6 3 7 2 8 1 9
REMARK H PARENT
REMARK Flexibility Score: inf
ROOT
ATOM      1  C   UNL     1      49.580  33.437   4.579  1.00  0.00     0.006 C 
ENDROOT
BRANCH   1   2
ATOM      2  C   UNL     1      49.861  32.801   5.946  1.00  0.00     0.053 C 
BRANCH   2   3
ATOM      3  C   UNL     1      49.395  33.674   7.071  1.00  0.00     0.041 C 
ATOM      4  O   UNL     1      49.829  34.850   7.183  1.00  0.00    -0.550 OA
ATOM      5  O   UNL     1      48.505  33.175   8.014  1.00  0.00    -0.550 OA
ENDBRANCH   2   3
ENDBRANCH   1   2
BRANCH   1   6
ATOM      6  C   UNL     1      50.822  33.448   3.675  1.00  0.00     0.000 C 
BRANCH   6   7
ATOM      7  C   UNL     1      50.462  33.904   2.253  1.00  0.00    -0.000 C 
BRANCH   7   8
ATOM      8  C   UNL     1      51.239  33.135   1.173  1.00  0.00    -0.003 C 
ATOM      9  C   UNL     1      52.293  32.195   1.757  1.00  0.00     0.004 C 
ENDBRANCH   7   8
ENDBRANCH   6   7
ENDBRANCH   1   6
TORSDOF 5
ENDMDL
MODEL 7
REMARK VINA RESULT:    -3.658      2.353      4.058
REMARK INTER + INTRA:          -5.005
REMARK INTER:                  -4.704
REMARK INTRA:                  -0.301
REMARK UNBOUND:                -0.278
REMARK SMILES CCCCCCC(=O)[O-]
REMARK SMILES IDX 5 1 6 2 7 3 8 4 9 5 4 6 3 7 2 8 1 9
REMARK H PARENT
REMARK Flexibility Score: inf
ROOT
ATOM      1  C   UNL     1      52.361  45.829  12.818  1.00  0.00     0.006 C 
ENDROOT
BRANCH   1   2
ATOM      2  C   UNL     1      52.184  47.220  12.197  1.00  0.00     0.053 C 
BRANCH   2   3
ATOM      3  C   UNL     1      51.148  47.216  11.113  1.00  0.00     0.041 C 
ATOM      4  O   UNL     1      51.458  46.879   9.941  1.00  0.00    -0.550 OA
ATOM      5  O   UNL     1      49.849  47.618  11.394  1.00  0.00    -0.550 OA
ENDBRANCH   2   3
ENDBRANCH   1   2
BRANCH   1   6
ATOM      6  C   UNL     1      53.817  45.344  12.754  1.00  0.00     0.000 C 
BRANCH   6   7
ATOM      7  C   UNL     1      54.510  45.851  11.481  1.00  0.00    -0.000 C 
BRANCH   7   8
ATOM      8  C   UNL     1      54.366  44.876  10.302  1.00  0.00    -0.003 C 
ATOM      9  C   UNL     1      54.196  43.425  10.751  1.00  0.00     0.004 C 
ENDBRANCH   7   8
ENDBRANCH   6   7
ENDBRANCH   1   6
TORSDOF 5
ENDMDL
MODEL 8
REMARK VINA RESULT:    -3.592     11.746     13.139
REMARK INTER + INTRA:          -4.921
REMARK INTER:                  -4.743
REMARK INTRA:                  -0.178
REMARK UNBOUND:                -0.278
REMARK SMILES CCCCCCC(=O)[O-]
REMARK SMILES IDX 5 1 6 2 7 3 8 4 9 5 4 6 3 7 2 8 1 9
REMARK H PARENT
REMARK Flexibility Score: inf
ROOT
ATOM      1  C   UNL     1      47.309  51.779   0.630  1.00  0.00     0.006 C 
ENDROOT
BRANCH   1   2
ATOM      2  C   UNL     1      46.681  51.002   1.793  1.00  0.00     0.053 C 
BRANCH   2   3
ATOM      3  C   UNL     1      45.268  50.603   1.496  1.00  0.00     0.041 C 
ATOM      4  O   UNL     1      45.031  49.658   0.697  1.00  0.00    -0.550 OA
ATOM      5  O   UNL     1      44.213  51.295   2.076  1.00  0.00    -0.550 OA
ENDBRANCH   2   3
ENDBRANCH   1   2
BRANCH   1   6
ATOM      6  C   UNL     1      48.844  51.749   0.671  1.00  0.00     0.000 C 
BRANCH   6   7
ATOM      7  C   UNL     1      49.347  50.687   1.660  1.00  0.00    -0.000 C 
BRANCH   7   8
ATOM      8  C   UNL     1      50.690  51.067   2.301  1.00  0.00    -0.003 C 
ATOM      9  C   UNL     1      51.725  51.534   1.277  1.00  0.00     0.004 C 
ENDBRANCH   7   8
ENDBRANCH   6   7
ENDBRANCH   1   6
TORSDOF 5
ENDMDL
MODEL 9
REMARK VINA RESULT:    -3.573     14.146     15.525
REMARK INTER + INTRA:          -4.896
REMARK INTER:                  -4.749
REMARK INTRA:                  -0.147
REMARK UNBOUND:                -0.278
REMARK SMILES CCCCCCC(=O)[O-]
REMARK SMILES IDX 5 1 6 2 7 3 8 4 9 5 4 6 3 7 2 8 1 9
REMARK H PARENT
REMARK Flexibility Score: inf
ROOT
ATOM      1  C   UNL     1      50.378  33.735   3.472  1.00  0.00     0.006 C 
ENDROOT
BRANCH   1   2
ATOM      2  C   UNL     1      51.031  32.812   4.508  1.00  0.00     0.053 C 
BRANCH   2   3
ATOM      3  C   UNL     1      50.344  32.893   5.837  1.00  0.00     0.041 C 
ATOM      4  O   UNL     1      50.665  32.108   6.767  1.00  0.00    -0.550 OA
ATOM      5  O   UNL     1      49.326  33.817   6.037  1.00  0.00    -0.550 OA
ENDBRANCH   2   3
ENDBRANCH   1   2
BRANCH   1   6
ATOM      6  C   UNL     1      50.947  33.522   2.062  1.00  0.00     0.000 C 
BRANCH   6   7
ATOM      7  C   UNL     1      49.865  33.740   0.994  1.00  0.00    -0.000 C 
BRANCH   7   8
ATOM      8  C   UNL     1      50.144  32.958  -0.298  1.00  0.00    -0.003 C 
ATOM      9  C   UNL     1      51.234  31.901  -0.127  1.00  0.00     0.004 C 
ENDBRANCH   7   8
ENDBRANCH   6   7
ENDBRANCH   1   6
TORSDOF 5
ENDMDL
