MODEL 1
REMARK VINA RESULT:    -3.556      0.000      0.000
REMARK INTER + INTRA:          -8.248
REMARK INTER:                  -6.467
REMARK INTRA:                  -1.781
REMARK UNBOUND:                -1.781
REMARK SMILES CCCCCCCCCCCCCCCC(=O)[O-]
REMARK SMILES IDX 9 1 10 2 11 3 12 4 13 5 14 6 15 7 16 8 17 9 18 10 8 11 7 12
REMARK SMILES IDX 6 13 5 14 4 15 3 16 2 17 1 18
REMARK H PARENT
REMARK Flexibility Score: inf
ROOT
ATOM      1  C   UNL     1      57.802  28.529  51.416  1.00  0.00     0.000 C 
ENDROOT
BRANCH   1   2
ATOM      2  C   UNL     1      57.632  29.177  50.033  1.00  0.00     0.000 C 
BRANCH   2   3
ATOM      3  C   UNL     1      58.971  29.226  49.282  1.00  0.00     0.000 C 
BRANCH   3   4
ATOM      4  C   UNL     1      60.174  28.946  50.196  1.00  0.00     0.000 C 
BRANCH   4   5
ATOM      5  C   UNL     1      61.104  27.859  49.635  1.00  0.00     0.000 C 
BRANCH   5   6
ATOM      6  C   UNL     1      60.515  26.459  49.867  1.00  0.00     0.006 C 
BRANCH   6   7
ATOM      7  C   UNL     1      61.249  25.696  50.976  1.00  0.00     0.053 C 
BRANCH   7   8
ATOM      8  C   UNL     1      61.667  24.329  50.528  1.00  0.00     0.041 C 
ATOM      9  O   UNL     1      62.756  23.837  50.927  1.00  0.00    -0.550 OA
ATOM     10  O   UNL     1      60.840  23.584  49.698  1.00  0.00    -0.550 OA
ENDBRANCH   7   8
ENDBRANCH   6   7
ENDBRANCH   5   6
ENDBRANCH   4   5
ENDBRANCH   3   4
ENDBRANCH   2   3
ENDBRANCH   1   2
BRANCH   1  11
ATOM     11  C   UNL     1      56.977  27.241  51.573  1.00  0.00     0.000 C 
BRANCH  11  12
ATOM     12  C   UNL     1      56.891  26.430  50.268  1.00  0.00    -0.000 C 
BRANCH  12  13
ATOM     13  C   UNL     1      55.439  26.153  49.846  1.00  0.00    -0.000 C 
BRANCH  13  14
ATOM     14  C   UNL     1      54.423  27.010  50.621  1.00  0.00    -0.000 C 
BRANCH  14  15
ATOM     15  C   UNL     1      53.506  27.820  49.681  1.00  0.00    -0.000 C 
BRANCH  15  16
ATOM     16  C   UNL     1      53.136  29.213  50.226  1.00  0.00    -0.000 C 
BRANCH  16  17
ATOM     17  C   UNL     1      54.236  29.890  51.061  1.00  0.00    -0.003 C 
ATOM     18  C   UNL     1      53.729  31.108  51.833  1.00  0.00     0.004 C 
ENDBRANCH  16  17
ENDBRANCH  15  16
ENDBRANCH  14  15
ENDBRANCH  13  14
ENDBRANCH  12  13
ENDBRANCH  11  12
ENDBRANCH   1  11
TORSDOF 14
ENDMDL
MODEL 2
REMARK VINA RESULT:    -3.466      3.520      7.155
REMARK INTER + INTRA:          -8.085
REMARK INTER:                  -5.828
REMARK INTRA:                  -2.256
REMARK UNBOUND:                -1.781
REMARK SMILES CCCCCCCCCCCCCCCC(=O)[O-]
REMARK SMILES IDX 9 1 10 2 11 3 12 4 13 5 14 6 15 7 16 8 17 9 18 10 8 11 7 12
REMARK SMILES IDX 6 13 5 14 4 15 3 16 2 17 1 18
REMARK H PARENT
REMARK Flexibility Score: inf
ROOT
ATOM      1  C   UNL     1      56.758  27.338  51.610  1.00  0.00     0.000 C 
ENDROOT
BRANCH   1   2
ATOM      2  C   UNL     1      56.693  26.496  50.327  1.00  0.00     0.000 C 
BRANCH   2   3
ATOM      3  C   UNL     1      55.247  26.087  50.012  1.00  0.00     0.000 C 
BRANCH   3   4
ATOM      4  C   UNL     1      54.212  27.025  50.653  1.00  0.00     0.000 C 
BRANCH   4   5
ATOM      5  C   UNL     1      53.375  27.785  49.613  1.00  0.00     0.000 C 
BRANCH   5   6
ATOM      6  C   UNL     1      52.910  29.140  50.167  1.00  0.00     0.006 C 
BRANCH   6   7
ATOM      7  C   UNL     1      54.083  30.014  50.629  1.00  0.00     0.053 C 
BRANCH   7   8
ATOM      8  C   UNL     1      53.905  30.483  52.040  1.00  0.00     0.041 C 
ATOM      9  O   UNL     1      53.149  31.458  52.292  1.00  0.00    -0.550 OA
ATOM     10  O   UNL     1      54.547  29.823  53.080  1.00  0.00    -0.550 OA
ENDBRANCH   7   8
ENDBRANCH   6   7
ENDBRANCH   5   6
ENDBRANCH   4   5
ENDBRANCH   3   4
ENDBRANCH   2   3
ENDBRANCH   1   2
BRANCH   1  11
ATOM     11  C   UNL     1      57.583  28.623  51.436  1.00  0.00     0.000 C 
BRANCH  11  12
ATOM     12  C   UNL     1      57.579  29.136  49.985  1.00  0.00    -0.000 C 
BRANCH  12  13
ATOM     13  C   UNL     1      58.997  29.256  49.402  1.00  0.00    -0.000 C 
BRANCH  13  14
ATOM     14  C   UNL     1      60.092  28.990  50.449  1.00  0.00    -0.000 C 
BRANCH  14  15
ATOM     15  C   UNL     1      60.971  27.776  50.080  1.00  0.00    -0.000 C 
BRANCH  15  16
ATOM     16  C   UNL     1      60.164  26.527  49.678  1.00  0.00    -0.000 C 
BRANCH  16  17
ATOM     17  C   UNL     1      60.320  25.328  50.628  1.00  0.00    -0.003 C 
ATOM     18  C   UNL     1      60.102  25.700  52.094  1.00  0.00     0.004 C 
ENDBRANCH  16  17
ENDBRANCH  15  16
ENDBRANCH  14  15
ENDBRANCH  13  14
ENDBRANCH  12  13
ENDBRANCH  11  12
ENDBRANCH   1  11
TORSDOF 14
ENDMDL
MODEL 3
REMARK VINA RESULT:    -3.460      3.149      5.109
REMARK INTER + INTRA:          -8.074
REMARK INTER:                  -7.158
REMARK INTRA:                  -0.916
REMARK UNBOUND:                -1.781
REMARK SMILES CCCCCCCCCCCCCCCC(=O)[O-]
REMARK SMILES IDX 9 1 10 2 11 3 12 4 13 5 14 6 15 7 16 8 17 9 18 10 8 11 7 12
REMARK SMILES IDX 6 13 5 14 4 15 3 16 2 17 1 18
REMARK H PARENT
REMARK Flexibility Score: inf
ROOT
ATOM      1  C   UNL     1      61.050  26.012  50.403  1.00  0.00     0.000 C 
ENDROOT
BRANCH   1   2
ATOM      2  C   UNL     1      59.740  25.215  50.313  1.00  0.00     0.000 C 
BRANCH   2   3
ATOM      3  C   UNL     1      59.966  23.744  50.695  1.00  0.00     0.000 C 
BRANCH   3   4
ATOM      4  C   UNL     1      61.049  23.068  49.840  1.00  0.00     0.000 C 
BRANCH   4   5
ATOM      5  C   UNL     1      60.621  21.687  49.323  1.00  0.00     0.000 C 
BRANCH   5   6
ATOM      6  C   UNL     1      60.085  20.814  50.468  1.00  0.00     0.006 C 
BRANCH   6   7
ATOM      7  C   UNL     1      60.288  19.317  50.203  1.00  0.00     0.053 C 
BRANCH   7   8
ATOM      8  C   UNL     1      59.004  18.637  49.840  1.00  0.00     0.041 C 
ATOM      9  O   UNL     1      57.962  18.852  50.513  1.00  0.00    -0.550 OA
ATOM     10  O   UNL     1      58.949  17.792  48.739  1.00  0.00    -0.550 OA
ENDBRANCH   7   8
ENDBRANCH   6   7
ENDBRANCH   5   6
ENDBRANCH   4   5
ENDBRANCH   3   4
ENDBRANCH   2   3
ENDBRANCH   1   2
BRANCH   1  11
ATOM     11  C   UNL     1      60.936  27.413  49.781  1.00  0.00     0.000 C 
BRANCH  11  12
ATOM     12  C   UNL     1      59.533  27.697  49.216  1.00  0.00    -0.000 C 
BRANCH  12  13
ATOM     13  C   UNL     1      59.087  29.148  49.460  1.00  0.00    -0.000 C 
BRANCH  13  14
ATOM     14  C   UNL     1      58.055  29.268  50.594  1.00  0.00    -0.000 C 
BRANCH  14  15
ATOM     15  C   UNL     1      57.002  28.141  50.548  1.00  0.00    -0.000 C 
BRANCH  15  16
ATOM     16  C   UNL     1      55.549  28.648  50.603  1.00  0.00    -0.000 C 
BRANCH  16  17
ATOM     17  C   UNL     1      54.487  27.601  50.228  1.00  0.00    -0.003 C 
ATOM     18  C   UNL     1      55.095  26.252  49.845  1.00  0.00     0.004 C 
ENDBRANCH  16  17
ENDBRANCH  15  16
ENDBRANCH  14  15
ENDBRANCH  13  14
ENDBRANCH  12  13
ENDBRANCH  11  12
ENDBRANCH   1  11
TORSDOF 14
ENDMDL
MODEL 4
REMARK VINA RESULT:    -3.394      1.307      4.204
REMARK INTER + INTRA:          -7.953
REMARK INTER:                  -5.805
REMARK INTRA:                  -2.148
REMARK UNBOUND:                -1.781
REMARK SMILES CCCCCCCCCCCCCCCC(=O)[O-]
REMARK SMILES IDX 9 1 10 2 11 3 12 4 13 5 14 6 15 7 16 8 17 9 18 10 8 11 7 12
REMARK SMILES IDX 6 13 5 14 4 15 3 16 2 17 1 18
REMARK H PARENT
REMARK Flexibility Score: inf
ROOT
ATOM      1  C   UNL     1      54.145  27.260  49.635  1.00  0.00     0.000 C 
ENDROOT
BRANCH   1   2
ATOM      2  C   UNL     1      55.160  26.132  49.876  1.00  0.00     0.000 C 
BRANCH   2   3
ATOM      3  C   UNL     1      55.366  25.892  51.379  1.00  0.00     0.000 C 
BRANCH   3   4
ATOM      4  C   UNL     1      56.842  25.675  51.749  1.00  0.00     0.000 C 
BRANCH   4   5
ATOM      5  C   UNL     1      57.782  25.813  50.542  1.00  0.00     0.000 C 
BRANCH   5   6
ATOM      6  C   UNL     1      59.252  25.769  50.985  1.00  0.00     0.006 C 
BRANCH   6   7
ATOM      7  C   UNL     1      60.045  24.671  50.264  1.00  0.00     0.053 C 
BRANCH   7   8
ATOM      8  C   UNL     1      61.521  24.918  50.326  1.00  0.00     0.041 C 
ATOM      9  O   UNL     1      62.310  23.972  50.585  1.00  0.00    -0.550 OA
ATOM     10  O   UNL     1      62.028  26.184  50.064  1.00  0.00    -0.550 OA
ENDBRANCH   7   8
ENDBRANCH   6   7
ENDBRANCH   5   6
ENDBRANCH   4   5
ENDBRANCH   3   4
ENDBRANCH   2   3
ENDBRANCH   1   2
BRANCH   1  11
ATOM     11  C   UNL     1      54.012  28.207  50.839  1.00  0.00     0.000 C 
BRANCH  11  12
ATOM     12  C   UNL     1      54.925  29.441  50.725  1.00  0.00    -0.000 C 
BRANCH  12  13
ATOM     13  C   UNL     1      55.895  29.563  51.911  1.00  0.00    -0.000 C 
BRANCH  13  14
ATOM     14  C   UNL     1      57.364  29.372  51.497  1.00  0.00    -0.000 C 
BRANCH  14  15
ATOM     15  C   UNL     1      57.530  29.268  49.966  1.00  0.00    -0.000 C 
BRANCH  15  16
ATOM     16  C   UNL     1      58.999  29.261  49.502  1.00  0.00    -0.000 C 
BRANCH  16  17
ATOM     17  C   UNL     1      60.033  29.292  50.639  1.00  0.00    -0.003 C 
ATOM     18  C   UNL     1      61.189  30.254  50.364  1.00  0.00     0.004 C 
ENDBRANCH  16  17
ENDBRANCH  15  16
ENDBRANCH  14  15
ENDBRANCH  13  14
ENDBRANCH  12  13
ENDBRANCH  11  12
ENDBRANCH   1  11
TORSDOF 14
ENDMDL
MODEL 5
REMARK VINA RESULT:    -3.389     10.792     12.268
REMARK INTER + INTRA:          -7.944
REMARK INTER:                  -5.539
REMARK INTRA:                  -2.405
REMARK UNBOUND:                -1.781
REMARK SMILES CCCCCCCCCCCCCCCC(=O)[O-]
REMARK SMILES IDX 9 1 10 2 11 3 12 4 13 5 14 6 15 7 16 8 17 9 18 10 8 11 7 12
REMARK SMILES IDX 6 13 5 14 4 15 3 16 2 17 1 18
REMARK H PARENT
REMARK Flexibility Score: inf
ROOT
ATOM      1  C   UNL     1      61.058  31.422  60.989  1.00  0.00     0.000 C 
ENDROOT
BRANCH   1   2
ATOM      2  C   UNL     1      61.859  30.306  61.677  1.00  0.00     0.000 C 
BRANCH   2   3
ATOM      3  C   UNL     1      63.349  30.395  61.312  1.00  0.00     0.000 C 
BRANCH   3   4
ATOM      4  C   UNL     1      63.796  31.830  60.992  1.00  0.00     0.000 C 
BRANCH   4   5
ATOM      5  C   UNL     1      64.561  31.931  59.664  1.00  0.00     0.000 C 
BRANCH   5   6
ATOM      6  C   UNL     1      64.046  30.895  58.654  1.00  0.00     0.006 C 
BRANCH   6   7
ATOM      7  C   UNL     1      65.187  30.134  57.967  1.00  0.00     0.053 C 
BRANCH   7   8
ATOM      8  C   UNL     1      65.784  29.095  58.865  1.00  0.00     0.041 C 
ATOM      9  O   UNL     1      66.770  29.379  59.594  1.00  0.00    -0.550 OA
ATOM     10  O   UNL     1      65.230  27.822  58.922  1.00  0.00    -0.550 OA
ENDBRANCH   7   8
ENDBRANCH   6   7
ENDBRANCH   5   6
ENDBRANCH   4   5
ENDBRANCH   3   4
ENDBRANCH   2   3
ENDBRANCH   1   2
BRANCH   1  11
ATOM     11  C   UNL     1      60.431  30.970  59.660  1.00  0.00     0.000 C 
BRANCH  11  12
ATOM     12  C   UNL     1      60.365  32.103  58.621  1.00  0.00    -0.000 C 
BRANCH  12  13
ATOM     13  C   UNL     1      60.875  33.441  59.182  1.00  0.00    -0.000 C 
BRANCH  13  14
ATOM     14  C   UNL     1      61.901  34.118  58.257  1.00  0.00    -0.000 C 
BRANCH  14  15
ATOM     15  C   UNL     1      62.773  35.147  59.008  1.00  0.00    -0.000 C 
BRANCH  15  16
ATOM     16  C   UNL     1      62.543  35.160  60.531  1.00  0.00    -0.000 C 
BRANCH  16  17
ATOM     17  C   UNL     1      63.439  36.137  61.309  1.00  0.00    -0.003 C 
ATOM     18  C   UNL     1      64.777  35.519  61.716  1.00  0.00     0.004 C 
ENDBRANCH  16  17
ENDBRANCH  15  16
ENDBRANCH  14  15
ENDBRANCH  13  14
ENDBRANCH  12  13
ENDBRANCH  11  12
ENDBRANCH   1  11
TORSDOF 14
ENDMDL
MODEL 6
REMARK VINA RESULT:    -3.355      1.333      2.770
REMARK INTER + INTRA:          -7.883
REMARK INTER:                  -5.929
REMARK INTRA:                  -1.954
REMARK UNBOUND:                -1.781
REMARK SMILES CCCCCCCCCCCCCCCC(=O)[O-]
REMARK SMILES IDX 9 1 10 2 11 3 12 4 13 5 14 6 15 7 16 8 17 9 18 10 8 11 7 12
REMARK SMILES IDX 6 13 5 14 4 15 3 16 2 17 1 18
REMARK H PARENT
REMARK Flexibility Score: inf
ROOT
ATOM      1  C   UNL     1      57.507  29.555  50.452  1.00  0.00     0.000 C 
ENDROOT
BRANCH   1   2
ATOM      2  C   UNL     1      58.206  28.346  49.811  1.00  0.00     0.000 C 
BRANCH   2   3
ATOM      3  C   UNL     1      59.628  28.711  49.358  1.00  0.00     0.000 C 
BRANCH   3   4
ATOM      4  C   UNL     1      60.641  27.585  49.615  1.00  0.00     0.000 C 
BRANCH   4   5
ATOM      5  C   UNL     1      60.142  26.563  50.647  1.00  0.00     0.000 C 
BRANCH   5   6
ATOM      6  C   UNL     1      59.958  25.180  50.004  1.00  0.00     0.006 C 
BRANCH   6   7
ATOM      7  C   UNL     1      61.174  24.270  50.222  1.00  0.00     0.053 C 
BRANCH   7   8
ATOM      8  C   UNL     1      60.817  22.822  50.086  1.00  0.00     0.041 C 
ATOM      9  O   UNL     1      60.866  22.261  48.960  1.00  0.00    -0.550 OA
ATOM     10  O   UNL     1      60.464  22.083  51.208  1.00  0.00    -0.550 OA
ENDBRANCH   7   8
ENDBRANCH   6   7
ENDBRANCH   5   6
ENDBRANCH   4   5
ENDBRANCH   3   4
ENDBRANCH   2   3
ENDBRANCH   1   2
BRANCH   1  11
ATOM     11  C   UNL     1      57.043  29.278  51.891  1.00  0.00     0.000 C 
BRANCH  11  12
ATOM     12  C   UNL     1      55.566  29.648  52.117  1.00  0.00    -0.000 C 
BRANCH  12  13
ATOM     13  C   UNL     1      54.723  29.499  50.840  1.00  0.00    -0.000 C 
BRANCH  13  14
ATOM     14  C   UNL     1      53.876  28.216  50.836  1.00  0.00    -0.000 C 
BRANCH  14  15
ATOM     15  C   UNL     1      54.250  27.273  49.672  1.00  0.00    -0.000 C 
BRANCH  15  16
ATOM     16  C   UNL     1      55.284  26.197  50.056  1.00  0.00    -0.000 C 
BRANCH  16  17
ATOM     17  C   UNL     1      55.370  25.895  51.561  1.00  0.00    -0.003 C 
ATOM     18  C   UNL     1      56.799  25.628  52.032  1.00  0.00     0.004 C 
ENDBRANCH  16  17
ENDBRANCH  15  16
ENDBRANCH  14  15
ENDBRANCH  13  14
ENDBRANCH  12  13
ENDBRANCH  11  12
ENDBRANCH   1  11
TORSDOF 14
ENDMDL
MODEL 7
REMARK VINA RESULT:    -3.353     10.957     12.578
REMARK INTER + INTRA:          -7.879
REMARK INTER:                  -5.520
REMARK INTRA:                  -2.359
REMARK UNBOUND:                -1.781
REMARK SMILES CCCCCCCCCCCCCCCC(=O)[O-]
REMARK SMILES IDX 9 1 10 2 11 3 12 4 13 5 14 6 15 7 16 8 17 9 18 10 8 11 7 12
REMARK SMILES IDX 6 13 5 14 4 15 3 16 2 17 1 18
REMARK H PARENT
REMARK Flexibility Score: inf
ROOT
ATOM      1  C   UNL     1      62.043  34.237  56.933  1.00  0.00     0.000 C 
ENDROOT
BRANCH   1   2
ATOM      2  C   UNL     1      61.815  32.806  57.443  1.00  0.00     0.000 C 
BRANCH   2   3
ATOM      3  C   UNL     1      60.438  32.676  58.113  1.00  0.00     0.000 C 
BRANCH   3   4
ATOM      4  C   UNL     1      60.444  31.698  59.298  1.00  0.00     0.000 C 
BRANCH   4   5
ATOM      5  C   UNL     1      61.193  32.251  60.519  1.00  0.00     0.000 C 
BRANCH   5   6
ATOM      6  C   UNL     1      62.363  31.334  60.907  1.00  0.00     0.006 C 
BRANCH   6   7
ATOM      7  C   UNL     1      61.894  30.067  61.633  1.00  0.00     0.053 C 
BRANCH   7   8
ATOM      8  C   UNL     1      62.714  28.872  61.255  1.00  0.00     0.041 C 
ATOM      9  O   UNL     1      62.201  27.723  61.266  1.00  0.00    -0.550 OA
ATOM     10  O   UNL     1      64.036  29.032  60.859  1.00  0.00    -0.550 OA
ENDBRANCH   7   8
ENDBRANCH   6   7
ENDBRANCH   5   6
ENDBRANCH   4   5
ENDBRANCH   3   4
ENDBRANCH   2   3
ENDBRANCH   1   2
BRANCH   1  11
ATOM     11  C   UNL     1      63.185  34.955  57.670  1.00  0.00     0.000 C 
BRANCH  11  12
ATOM     12  C   UNL     1      63.902  34.043  58.681  1.00  0.00    -0.000 C 
BRANCH  12  13
ATOM     13  C   UNL     1      64.468  34.826  59.877  1.00  0.00    -0.000 C 
BRANCH  13  14
ATOM     14  C   UNL     1      63.430  35.039  60.992  1.00  0.00    -0.000 C 
BRANCH  14  15
ATOM     15  C   UNL     1      63.141  36.534  61.243  1.00  0.00    -0.000 C 
BRANCH  15  16
ATOM     16  C   UNL     1      61.744  36.982  60.773  1.00  0.00    -0.000 C 
BRANCH  16  17
ATOM     17  C   UNL     1      60.809  35.836  60.352  1.00  0.00    -0.003 C 
ATOM     18  C   UNL     1      59.848  36.235  59.232  1.00  0.00     0.004 C 
ENDBRANCH  16  17
ENDBRANCH  15  16
ENDBRANCH  14  15
ENDBRANCH  13  14
ENDBRANCH  12  13
ENDBRANCH  11  12
ENDBRANCH   1  11
TORSDOF 14
ENDMDL
MODEL 8
REMARK VINA RESULT:    -3.307     10.943     12.587
REMARK INTER + INTRA:          -7.794
REMARK INTER:                  -5.959
REMARK INTRA:                  -1.835
REMARK UNBOUND:                -1.781
REMARK SMILES CCCCCCCCCCCCCCCC(=O)[O-]
REMARK SMILES IDX 9 1 10 2 11 3 12 4 13 5 14 6 15 7 16 8 17 9 18 10 8 11 7 12
REMARK SMILES IDX 6 13 5 14 4 15 3 16 2 17 1 18
REMARK H PARENT
REMARK Flexibility Score: inf
ROOT
ATOM      1  C   UNL     1      60.755  31.069  58.611  1.00  0.00     0.000 C 
ENDROOT
BRANCH   1   2
ATOM      2  C   UNL     1      60.358  30.250  59.849  1.00  0.00     0.000 C 
BRANCH   2   3
ATOM      3  C   UNL     1      60.760  30.977  61.140  1.00  0.00     0.000 C 
BRANCH   3   4
ATOM      4  C   UNL     1      62.036  30.401  61.773  1.00  0.00     0.000 C 
BRANCH   4   5
ATOM      5  C   UNL     1      62.475  29.079  61.125  1.00  0.00     0.000 C 
BRANCH   5   6
ATOM      6  C   UNL     1      63.911  29.181  60.589  1.00  0.00     0.006 C 
BRANCH   6   7
ATOM      7  C   UNL     1      64.590  27.810  60.478  1.00  0.00     0.053 C 
BRANCH   7   8
ATOM      8  C   UNL     1      66.081  27.932  60.402  1.00  0.00     0.041 C 
ATOM      9  O   UNL     1      66.784  26.927  60.116  1.00  0.00    -0.550 OA
ATOM     10  O   UNL     1      66.692  29.161  60.612  1.00  0.00    -0.550 OA
ENDBRANCH   7   8
ENDBRANCH   6   7
ENDBRANCH   5   6
ENDBRANCH   4   5
ENDBRANCH   3   4
ENDBRANCH   2   3
ENDBRANCH   1   2
BRANCH   1  11
ATOM     11  C   UNL     1      60.410  32.560  58.750  1.00  0.00     0.000 C 
BRANCH  11  12
ATOM     12  C   UNL     1      61.658  33.441  58.937  1.00  0.00    -0.000 C 
BRANCH  12  13
ATOM     13  C   UNL     1      62.953  32.713  58.539  1.00  0.00    -0.000 C 
BRANCH  13  14
ATOM     14  C   UNL     1      64.049  32.827  59.612  1.00  0.00    -0.000 C 
BRANCH  14  15
ATOM     15  C   UNL     1      63.620  33.724  60.793  1.00  0.00    -0.000 C 
BRANCH  15  16
ATOM     16  C   UNL     1      64.610  34.865  61.095  1.00  0.00    -0.000 C 
BRANCH  16  17
ATOM     17  C   UNL     1      63.952  36.209  61.451  1.00  0.00    -0.003 C 
ATOM     18  C   UNL     1      62.488  36.285  61.020  1.00  0.00     0.004 C 
ENDBRANCH  16  17
ENDBRANCH  15  16
ENDBRANCH  14  15
ENDBRANCH  13  14
ENDBRANCH  12  13
ENDBRANCH  11  12
ENDBRANCH   1  11
TORSDOF 14
ENDMDL
MODEL 9
REMARK VINA RESULT:    -3.253      1.822      2.488
REMARK INTER + INTRA:          -7.696
REMARK INTER:                  -5.413
REMARK INTRA:                  -2.284
REMARK UNBOUND:                -1.781
REMARK SMILES CCCCCCCCCCCCCCCC(=O)[O-]
REMARK SMILES IDX 9 1 10 2 11 3 12 4 13 5 14 6 15 7 16 8 17 9 18 10 8 11 7 12
REMARK SMILES IDX 6 13 5 14 4 15 3 16 2 17 1 18
REMARK H PARENT
REMARK Flexibility Score: inf
ROOT
ATOM      1  C   UNL     1      56.771  28.593  53.305  1.00  0.00     0.000 C 
ENDROOT
BRANCH   1   2
ATOM      2  C   UNL     1      58.168  29.123  52.948  1.00  0.00     0.000 C 
BRANCH   2   3
ATOM      3  C   UNL     1      58.103  30.073  51.743  1.00  0.00     0.000 C 
BRANCH   3   4
ATOM      4  C   UNL     1      57.835  29.337  50.420  1.00  0.00     0.000 C 
BRANCH   4   5
ATOM      5  C   UNL     1      59.058  29.323  49.491  1.00  0.00     0.000 C 
BRANCH   5   6
ATOM      6  C   UNL     1      59.549  27.888  49.250  1.00  0.00     0.006 C 
BRANCH   6   7
ATOM      7  C   UNL     1      60.943  27.642  49.840  1.00  0.00     0.053 C 
BRANCH   7   8
ATOM      8  C   UNL     1      60.879  27.294  51.295  1.00  0.00     0.041 C 
ATOM      9  O   UNL     1      61.619  27.891  52.122  1.00  0.00    -0.550 OA
ATOM     10  O   UNL     1      59.978  26.337  51.744  1.00  0.00    -0.550 OA
ENDBRANCH   7   8
ENDBRANCH   6   7
ENDBRANCH   5   6
ENDBRANCH   4   5
ENDBRANCH   3   4
ENDBRANCH   2   3
ENDBRANCH   1   2
BRANCH   1  11
ATOM     11  C   UNL     1      56.750  27.070  53.514  1.00  0.00     0.000 C 
BRANCH  11  12
ATOM     12  C   UNL     1      55.792  26.353  52.546  1.00  0.00    -0.000 C 
BRANCH  12  13
ATOM     13  C   UNL     1      56.499  25.879  51.267  1.00  0.00    -0.000 C 
BRANCH  13  14
ATOM     14  C   UNL     1      55.939  26.544  49.998  1.00  0.00    -0.000 C 
BRANCH  14  15
ATOM     15  C   UNL     1      54.424  26.302  49.833  1.00  0.00    -0.000 C 
BRANCH  15  16
ATOM     16  C   UNL     1      53.606  27.595  49.651  1.00  0.00    -0.000 C 
BRANCH  16  17
ATOM     17  C   UNL     1      54.191  28.830  50.355  1.00  0.00    -0.003 C 
ATOM     18  C   UNL     1      53.478  29.160  51.666  1.00  0.00     0.004 C 
ENDBRANCH  16  17
ENDBRANCH  15  16
ENDBRANCH  14  15
ENDBRANCH  13  14
ENDBRANCH  12  13
ENDBRANCH  11  12
ENDBRANCH   1  11
TORSDOF 14
ENDMDL
