MODEL 1
REMARK VINA RESULT:    -6.790      0.000      0.000
REMARK INTER + INTRA:          -7.284
REMARK INTER:                  -7.187
REMARK INTRA:                  -0.098
REMARK UNBOUND:                -0.098
REMARK SMILES C=C(C)[C@H]1CC=C(C)C(=O)C1
REMARK SMILES IDX 8 1 7 2 6 3 5 4 4 5 11 6 9 7 10 8 2 9 1 10 3 11
REMARK H PARENT
REMARK Flexibility Score: inf
ROOT
ATOM      1  C   UNL     1      -6.125  30.092  30.045  1.00  0.00     0.048 C 
ATOM      2  C   UNL     1      -4.864  29.368  29.659  1.00  0.00    -0.012 C 
ATOM      3  C   UNL     1      -4.251  28.561  30.542  1.00  0.00    -0.019 C 
ATOM      4  C   UNL     1      -2.945  27.879  30.229  1.00  0.00     0.036 C 
ATOM      5  C   UNL     1      -2.819  27.583  28.723  1.00  0.00     0.025 C 
ATOM      6  C   UNL     1      -3.015  28.872  27.904  1.00  0.00     0.089 C 
ATOM      7  C   UNL     1      -4.286  29.569  28.307  1.00  0.00     0.158 C 
ATOM      8  O   UNL     1      -4.834  30.363  27.497  1.00  0.00    -0.295 OA
ENDROOT
BRANCH   5   9
ATOM      9  C   UNL     1      -1.492  26.912  28.395  1.00  0.00    -0.077 C 
ATOM     10  C   UNL     1      -0.397  27.195  29.119  1.00  0.00     0.008 C 
ATOM     11  C   UNL     1      -1.370  25.922  27.262  1.00  0.00     0.039 C 
ENDBRANCH   5   9
TORSDOF 1
ENDMDL
MODEL 2
REMARK VINA RESULT:    -6.197      1.359      1.986
REMARK INTER + INTRA:          -6.656
REMARK INTER:                  -6.569
REMARK INTRA:                  -0.087
REMARK UNBOUND:                -0.098
REMARK SMILES C=C(C)[C@H]1CC=C(C)C(=O)C1
REMARK SMILES IDX 8 1 7 2 6 3 5 4 4 5 11 6 9 7 10 8 2 9 1 10 3 11
REMARK H PARENT
REMARK Flexibility Score: inf
ROOT
ATOM      1  C   UNL     1      -5.927  30.591  28.853  1.00  0.00     0.048 C 
ATOM      2  C   UNL     1      -4.811  29.598  28.676  1.00  0.00    -0.012 C 
ATOM      3  C   UNL     1      -3.908  29.763  27.693  1.00  0.00    -0.019 C 
ATOM      4  C   UNL     1      -2.822  28.755  27.428  1.00  0.00     0.036 C 
ATOM      5  C   UNL     1      -2.402  28.034  28.723  1.00  0.00     0.025 C 
ATOM      6  C   UNL     1      -3.629  27.404  29.407  1.00  0.00     0.089 C 
ATOM      7  C   UNL     1      -4.724  28.422  29.577  1.00  0.00     0.158 C 
ATOM      8  O   UNL     1      -5.598  28.241  30.467  1.00  0.00    -0.295 OA
ENDROOT
BRANCH   5   9
ATOM      9  C   UNL     1      -1.319  26.998  28.459  1.00  0.00    -0.077 C 
ATOM     10  C   UNL     1      -0.185  27.010  29.179  1.00  0.00     0.008 C 
ATOM     11  C   UNL     1      -1.485  25.940  27.396  1.00  0.00     0.039 C 
ENDBRANCH   5   9
TORSDOF 1
ENDMDL
MODEL 3
REMARK VINA RESULT:    -6.120      1.961      4.571
REMARK INTER + INTRA:          -6.575
REMARK INTER:                  -6.477
REMARK INTRA:                  -0.098
REMARK UNBOUND:                -0.098
REMARK SMILES C=C(C)[C@H]1CC=C(C)C(=O)C1
REMARK SMILES IDX 8 1 7 2 6 3 5 4 4 5 11 6 9 7 10 8 2 9 1 10 3 11
REMARK H PARENT
REMARK Flexibility Score: inf
ROOT
ATOM      1  C   UNL     1       0.726  25.761  28.049  1.00  0.00     0.048 C 
ATOM      2  C   UNL     1      -0.460  26.504  28.599  1.00  0.00    -0.012 C 
ATOM      3  C   UNL     1      -0.352  27.197  29.746  1.00  0.00    -0.019 C 
ATOM      4  C   UNL     1      -1.531  27.890  30.376  1.00  0.00     0.036 C 
ATOM      5  C   UNL     1      -2.541  28.352  29.309  1.00  0.00     0.025 C 
ATOM      6  C   UNL     1      -2.965  27.167  28.423  1.00  0.00     0.089 C 
ATOM      7  C   UNL     1      -1.758  26.449  27.882  1.00  0.00     0.158 C 
ATOM      8  O   UNL     1      -1.873  25.760  26.834  1.00  0.00    -0.295 OA
ENDROOT
BRANCH   5   9
ATOM      9  C   UNL     1      -3.746  29.035  29.940  1.00  0.00    -0.077 C 
ATOM     10  C   UNL     1      -3.759  29.299  31.256  1.00  0.00     0.008 C 
ATOM     11  C   UNL     1      -4.946  29.431  29.114  1.00  0.00     0.039 C 
ENDBRANCH   5   9
TORSDOF 1
ENDMDL
MODEL 4
REMARK VINA RESULT:    -6.093      1.985      4.691
REMARK INTER + INTRA:          -6.547
REMARK INTER:                  -6.451
REMARK INTRA:                  -0.095
REMARK UNBOUND:                -0.098
REMARK SMILES C=C(C)[C@H]1CC=C(C)C(=O)C1
REMARK SMILES IDX 8 1 7 2 6 3 5 4 4 5 11 6 9 7 10 8 2 9 1 10 3 11
REMARK H PARENT
REMARK Flexibility Score: inf
ROOT
ATOM      1  C   UNL     1      -0.454  26.626  28.327  1.00  0.00     0.048 C 
ATOM      2  C   UNL     1      -1.627  27.526  28.606  1.00  0.00    -0.012 C 
ATOM      3  C   UNL     1      -2.358  28.017  27.590  1.00  0.00    -0.019 C 
ATOM      4  C   UNL     1      -3.490  28.984  27.815  1.00  0.00     0.036 C 
ATOM      5  C   UNL     1      -4.160  28.749  29.182  1.00  0.00     0.025 C 
ATOM      6  C   UNL     1      -3.113  28.804  30.309  1.00  0.00     0.089 C 
ATOM      7  C   UNL     1      -1.957  27.890  30.006  1.00  0.00     0.158 C 
ATOM      8  O   UNL     1      -1.242  27.469  30.954  1.00  0.00    -0.295 OA
ENDROOT
BRANCH   5   9
ATOM      9  C   UNL     1      -5.293  29.737  29.426  1.00  0.00    -0.077 C 
ATOM     10  C   UNL     1      -5.996  29.687  30.569  1.00  0.00     0.008 C 
ATOM     11  C   UNL     1      -5.654  30.786  28.403  1.00  0.00     0.039 C 
ENDBRANCH   5   9
TORSDOF 1
ENDMDL
MODEL 5
REMARK VINA RESULT:    -5.625      1.751      2.318
REMARK INTER + INTRA:          -6.051
REMARK INTER:                  -5.955
REMARK INTRA:                  -0.096
REMARK UNBOUND:                -0.098
REMARK SMILES C=C(C)[C@H]1CC=C(C)C(=O)C1
REMARK SMILES IDX 8 1 7 2 6 3 5 4 4 5 11 6 9 7 10 8 2 9 1 10 3 11
REMARK H PARENT
REMARK Flexibility Score: inf
ROOT
ATOM      1  C   UNL     1      -5.675  29.685  30.830  1.00  0.00     0.048 C 
ATOM      2  C   UNL     1      -4.544  28.848  30.299  1.00  0.00    -0.012 C 
ATOM      3  C   UNL     1      -4.753  27.998  29.279  1.00  0.00    -0.019 C 
ATOM      4  C   UNL     1      -3.672  27.083  28.767  1.00  0.00     0.036 C 
ATOM      5  C   UNL     1      -2.277  27.711  28.951  1.00  0.00     0.025 C 
ATOM      6  C   UNL     1      -2.058  28.106  30.422  1.00  0.00     0.089 C 
ATOM      7  C   UNL     1      -3.201  28.948  30.923  1.00  0.00     0.158 C 
ATOM      8  O   UNL     1      -3.017  29.708  31.910  1.00  0.00    -0.295 OA
ENDROOT
BRANCH   5   9
ATOM      9  C   UNL     1      -1.177  26.783  28.454  1.00  0.00    -0.077 C 
ATOM     10  C   UNL     1      -1.410  25.952  27.426  1.00  0.00     0.008 C 
ATOM     11  C   UNL     1       0.189  26.771  29.095  1.00  0.00     0.039 C 
ENDBRANCH   5   9
TORSDOF 1
ENDMDL
MODEL 6
REMARK VINA RESULT:    -5.605      1.656      4.333
REMARK INTER + INTRA:          -6.030
REMARK INTER:                  -5.932
REMARK INTRA:                  -0.098
REMARK UNBOUND:                -0.098
REMARK SMILES C=C(C)[C@H]1CC=C(C)C(=O)C1
REMARK SMILES IDX 8 1 7 2 6 3 5 4 4 5 11 6 9 7 10 8 2 9 1 10 3 11
REMARK H PARENT
REMARK Flexibility Score: inf
ROOT
ATOM      1  C   UNL     1      -0.396  27.033  29.572  1.00  0.00     0.048 C 
ATOM      2  C   UNL     1      -1.724  27.740  29.553  1.00  0.00    -0.012 C 
ATOM      3  C   UNL     1      -2.250  28.221  30.693  1.00  0.00    -0.019 C 
ATOM      4  C   UNL     1      -3.611  28.864  30.736  1.00  0.00     0.036 C 
ATOM      5  C   UNL     1      -3.943  29.557  29.401  1.00  0.00     0.025 C 
ATOM      6  C   UNL     1      -3.803  28.565  28.233  1.00  0.00     0.089 C 
ATOM      7  C   UNL     1      -2.464  27.880  28.274  1.00  0.00     0.158 C 
ATOM      8  O   UNL     1      -1.994  27.386  27.214  1.00  0.00    -0.295 OA
ENDROOT
BRANCH   5   9
ATOM      9  C   UNL     1      -5.326  30.192  29.430  1.00  0.00    -0.077 C 
ATOM     10  C   UNL     1      -6.125  30.019  30.496  1.00  0.00     0.008 C 
ATOM     11  C   UNL     1      -5.834  31.022  28.277  1.00  0.00     0.039 C 
ENDBRANCH   5   9
TORSDOF 1
ENDMDL
MODEL 7
REMARK VINA RESULT:    -4.942      1.852      4.637
REMARK INTER + INTRA:          -5.329
REMARK INTER:                  -5.233
REMARK INTRA:                  -0.096
REMARK UNBOUND:                -0.098
REMARK SMILES C=C(C)[C@H]1CC=C(C)C(=O)C1
REMARK SMILES IDX 8 1 7 2 6 3 5 4 4 5 11 6 9 7 10 8 2 9 1 10 3 11
REMARK H PARENT
REMARK Flexibility Score: inf
ROOT
ATOM      1  C   UNL     1      -1.953  26.053  28.146  1.00  0.00     0.048 C 
ATOM      2  C   UNL     1      -2.667  27.372  28.255  1.00  0.00    -0.012 C 
ATOM      3  C   UNL     1      -2.198  28.450  27.601  1.00  0.00    -0.019 C 
ATOM      4  C   UNL     1      -2.832  29.808  27.742  1.00  0.00     0.036 C 
ATOM      5  C   UNL     1      -4.342  29.693  28.019  1.00  0.00     0.025 C 
ATOM      6  C   UNL     1      -4.595  28.800  29.247  1.00  0.00     0.089 C 
ATOM      7  C   UNL     1      -3.876  27.486  29.107  1.00  0.00     0.158 C 
ATOM      8  O   UNL     1      -4.287  26.489  29.759  1.00  0.00    -0.295 OA
ENDROOT
BRANCH   5   9
ATOM      9  C   UNL     1      -4.986  31.062  28.184  1.00  0.00    -0.077 C 
ATOM     10  C   UNL     1      -4.545  32.106  27.463  1.00  0.00     0.008 C 
ATOM     11  C   UNL     1      -6.125  31.284  29.150  1.00  0.00     0.039 C 
ENDBRANCH   5   9
TORSDOF 1
ENDMDL
MODEL 8
REMARK VINA RESULT:    -4.855      2.305      4.792
REMARK INTER + INTRA:          -5.237
REMARK INTER:                  -5.141
REMARK INTRA:                  -0.095
REMARK UNBOUND:                -0.098
REMARK SMILES C=C(C)[C@H]1CC=C(C)C(=O)C1
REMARK SMILES IDX 8 1 7 2 6 3 5 4 4 5 11 6 9 7 10 8 2 9 1 10 3 11
REMARK H PARENT
REMARK Flexibility Score: inf
ROOT
ATOM      1  C   UNL     1      -0.782  25.873  27.122  1.00  0.00     0.048 C 
ATOM      2  C   UNL     1      -1.451  26.829  28.071  1.00  0.00    -0.012 C 
ATOM      3  C   UNL     1      -2.615  27.412  27.735  1.00  0.00    -0.019 C 
ATOM      4  C   UNL     1      -3.280  28.435  28.616  1.00  0.00     0.036 C 
ATOM      5  C   UNL     1      -2.968  28.178  30.102  1.00  0.00     0.025 C 
ATOM      6  C   UNL     1      -1.446  28.115  30.327  1.00  0.00     0.089 C 
ATOM      7  C   UNL     1      -0.807  27.146  29.370  1.00  0.00     0.158 C 
ATOM      8  O   UNL     1       0.308  26.638  29.664  1.00  0.00    -0.295 OA
ENDROOT
BRANCH   5   9
ATOM      9  C   UNL     1      -3.620  29.221  30.999  1.00  0.00    -0.077 C 
ATOM     10  C   UNL     1      -4.886  29.609  30.771  1.00  0.00     0.008 C 
ATOM     11  C   UNL     1      -2.874  29.842  32.154  1.00  0.00     0.039 C 
ENDBRANCH   5   9
TORSDOF 1
ENDMDL
MODEL 9
REMARK VINA RESULT:    -4.780      1.587      2.071
REMARK INTER + INTRA:          -5.157
REMARK INTER:                  -5.062
REMARK INTRA:                  -0.095
REMARK UNBOUND:                -0.098
REMARK SMILES C=C(C)[C@H]1CC=C(C)C(=O)C1
REMARK SMILES IDX 8 1 7 2 6 3 5 4 4 5 11 6 9 7 10 8 2 9 1 10 3 11
REMARK H PARENT
REMARK Flexibility Score: inf
ROOT
ATOM      1  C   UNL     1      -3.480  29.629  31.819  1.00  0.00     0.048 C 
ATOM      2  C   UNL     1      -2.791  28.835  30.743  1.00  0.00    -0.012 C 
ATOM      3  C   UNL     1      -1.502  28.479  30.887  1.00  0.00    -0.019 C 
ATOM      4  C   UNL     1      -0.748  27.754  29.804  1.00  0.00     0.036 C 
ATOM      5  C   UNL     1      -1.687  26.862  28.972  1.00  0.00     0.025 C 
ATOM      6  C   UNL     1      -2.858  27.691  28.413  1.00  0.00     0.089 C 
ATOM      7  C   UNL     1      -3.532  28.467  29.512  1.00  0.00     0.158 C 
ATOM      8  O   UNL     1      -4.724  28.843  29.355  1.00  0.00    -0.295 OA
ENDROOT
BRANCH   5   9
ATOM      9  C   UNL     1      -0.935  26.141  27.861  1.00  0.00    -0.077 C 
ATOM     10  C   UNL     1       0.275  25.612  28.100  1.00  0.00     0.008 C 
ATOM     11  C   UNL     1      -1.521  26.003  26.477  1.00  0.00     0.039 C 
ENDBRANCH   5   9
TORSDOF 1
ENDMDL
