MODEL 1
REMARK VINA RESULT:     2.044      0.000      0.000
REMARK INTER + INTRA:           1.941
REMARK INTER:                   2.164
REMARK INTRA:                  -0.223
REMARK UNBOUND:                -0.223
REMARK SMILES CC1=CC[C@@H]2[C@H]3[C@@H](C(C)C)CC[C@]2(C)[C@@H]13
REMARK SMILES IDX 1 1 2 2 3 3 4 4 5 5 6 6 15 7 13 8 12 9 11 10 7 11 14 12 8 13
REMARK SMILES IDX 9 14 10 15
REMARK H PARENT
REMARK Flexibility Score: inf
ROOT
ATOM      1  C   UNL     1     -15.375  -5.604  15.492  1.00  0.00     0.039 C 
ATOM      2  C   UNL     1     -14.737  -4.344  15.994  1.00  0.00    -0.073 C 
ATOM      3  C   UNL     1     -13.520  -3.943  15.543  1.00  0.00    -0.027 C 
ATOM      4  C   UNL     1     -12.929  -2.633  16.074  1.00  0.00     0.031 C 
ATOM      5  C   UNL     1     -13.888  -1.989  17.127  1.00  0.00     0.003 C 
ATOM      6  C   UNL     1     -14.337  -3.112  18.098  1.00  0.00     0.004 C 
ATOM      7  C   UNL     1     -15.415  -3.461  17.046  1.00  0.00     0.024 C 
ATOM      8  C   UNL     1     -15.355  -1.975  16.625  1.00  0.00    -0.022 C 
ATOM      9  C   UNL     1     -16.255  -1.136  17.586  1.00  0.00     0.008 C 
ATOM     10  C   UNL     1     -15.789  -1.222  19.063  1.00  0.00     0.005 C 
ATOM     11  C   UNL     1     -15.030  -2.547  19.378  1.00  0.00    -0.005 C 
ATOM     12  C   UNL     1     -15.641  -1.615  15.147  1.00  0.00     0.012 C 
ENDROOT
BRANCH  11  13
ATOM     13  C   UNL     1     -14.075  -2.404  20.603  1.00  0.00    -0.014 C 
ATOM     14  C   UNL     1     -14.803  -2.368  21.958  1.00  0.00     0.007 C 
ATOM     15  C   UNL     1     -13.167  -1.172  20.466  1.00  0.00     0.007 C 
ENDBRANCH  11  13
TORSDOF 1
ENDMDL
MODEL 2
REMARK VINA RESULT:     4.631      0.851      0.855
REMARK INTER + INTRA:           4.679
REMARK INTER:                   4.918
REMARK INTRA:                  -0.239
REMARK UNBOUND:                -0.223
REMARK SMILES CC1=CC[C@@H]2[C@H]3[C@@H](C(C)C)CC[C@]2(C)[C@@H]13
REMARK SMILES IDX 1 1 2 2 3 3 4 4 5 5 6 6 15 7 13 8 12 9 11 10 7 11 14 12 8 13
REMARK SMILES IDX 9 14 10 15
REMARK H PARENT
REMARK Flexibility Score: inf
ROOT
ATOM      1  C   UNL     1     -14.360  -5.690  15.240  1.00  0.00     0.039 C 
ATOM      2  C   UNL     1     -14.078  -4.287  15.687  1.00  0.00    -0.073 C 
ATOM      3  C   UNL     1     -13.141  -3.526  15.066  1.00  0.00    -0.027 C 
ATOM      4  C   UNL     1     -12.914  -2.090  15.550  1.00  0.00     0.031 C 
ATOM      5  C   UNL     1     -13.841  -1.772  16.768  1.00  0.00     0.003 C 
ATOM      6  C   UNL     1     -13.748  -2.970  17.750  1.00  0.00     0.004 C 
ATOM      7  C   UNL     1     -14.818  -3.654  16.869  1.00  0.00     0.024 C 
ATOM      8  C   UNL     1     -15.299  -2.231  16.506  1.00  0.00    -0.022 C 
ATOM      9  C   UNL     1     -16.247  -1.710  17.632  1.00  0.00     0.008 C 
ATOM     10  C   UNL     1     -15.543  -1.628  19.012  1.00  0.00     0.005 C 
ATOM     11  C   UNL     1     -14.364  -2.639  19.146  1.00  0.00    -0.005 C 
ATOM     12  C   UNL     1     -15.922  -1.996  15.109  1.00  0.00     0.012 C 
ENDROOT
BRANCH  11  13
ATOM     13  C   UNL     1     -13.316  -2.188  20.210  1.00  0.00    -0.014 C 
ATOM     14  C   UNL     1     -13.025  -3.248  21.286  1.00  0.00     0.007 C 
ATOM     15  C   UNL     1     -13.729  -0.866  20.877  1.00  0.00     0.007 C 
ENDBRANCH  11  13
TORSDOF 1
ENDMDL
