MODEL 1
REMARK VINA RESULT:    -3.787      0.000      0.000
REMARK INTER + INTRA:          -6.179
REMARK INTER:                  -5.779
REMARK INTRA:                  -0.400
REMARK UNBOUND:                -0.400
REMARK SMILES CC1=CCC[C@H](C)C(=O)C[C@H](C(C)C)C(=O)C1
REMARK SMILES IDX 8 1 9 2 6 3 7 4 5 5 4 6 3 7 2 8 1 9 10 11 11 12 15 13 16 14
REMARK SMILES IDX 17 15 12 17 13 18 14 19
REMARK H PARENT
REMARK Flexibility Score: 70.00
ROOT
ATOM      1  C   UNL     1       7.389 -18.664  25.322  1.00  0.00     0.136 C 
ATOM      2  O   UNL     1       7.172 -18.034  26.348  1.00  0.00    -0.299 OA
ENDROOT
BRANCH   1   3
ATOM      3  C   UNL     1       7.944 -20.077  25.471  1.00  0.00     0.053 C 
ATOM      4  C   UNL     1       7.323 -20.724  26.719  1.00  0.00     0.016 C 
BRANCH   3   5
ATOM      5  C   UNL     1       7.758 -21.031  24.266  1.00  0.00     0.015 C 
BRANCH   5   6
ATOM      6  C   UNL     1       9.038 -21.597  23.625  1.00  0.00     0.028 C 
BRANCH   6   7
ATOM      7  C   UNL     1      10.179 -20.614  23.499  1.00  0.00    -0.028 C 
ATOM      8  C   UNL     1      10.256 -19.517  22.697  1.00  0.00    -0.070 CG0
ATOM      9  C   UNL     1      11.560 -18.756  22.724  1.00  0.00     0.039 C 
ATOM     10  G   UNL     1       9.119 -18.911  21.874  1.00  0.00     0.000 G0
ENDBRANCH   6   7
ENDBRANCH   5   6
ENDBRANCH   3   5
ENDBRANCH   1   3
BRANCH   1  11
ATOM     11  C   UNL     1       7.091 -17.969  24.009  1.00  0.00     0.087 C 
BRANCH  11  12
ATOM     12  C   UNL     1       8.266 -17.049  23.563  1.00  0.00     0.066 C 
BRANCH  12  13
ATOM     13  C   UNL     1       8.769 -17.456  22.177  1.00  0.00     0.140 C 
ATOM     14  O   UNL     1       8.922 -16.615  21.301  1.00  0.00    -0.299 OA
BRANCH  13  15
ATOM     15  C   UNL     1       9.126 -18.888  21.874  1.00  0.00     0.106 CG0
ATOM     16  G   UNL     1      10.254 -19.493  22.710  1.00  0.00     0.000 G0
ENDBRANCH  13  15
ENDBRANCH  12  13
BRANCH  12  17
ATOM     17  C   UNL     1       7.910 -15.523  23.621  1.00  0.00    -0.006 C 
ATOM     18  C   UNL     1       6.401 -15.260  23.788  1.00  0.00     0.008 C 
ATOM     19  C   UNL     1       8.653 -14.828  24.780  1.00  0.00     0.008 C 
ENDBRANCH  12  17
ENDBRANCH  11  12
ENDBRANCH   1  11
TORSDOF 1
ENDMDL
MODEL 2
REMARK VINA RESULT:    -3.752      2.137      4.219
REMARK INTER + INTRA:          -6.125
REMARK INTER:                  -5.551
REMARK INTRA:                  -0.574
REMARK UNBOUND:                -0.400
REMARK SMILES CC1=CCC[C@H](C)C(=O)C[C@H](C(C)C)C(=O)C1
REMARK SMILES IDX 8 1 9 2 6 3 7 4 5 5 4 6 3 7 2 8 1 9 10 11 11 12 15 13 16 14
REMARK SMILES IDX 17 15 12 17 13 18 14 19
REMARK H PARENT
REMARK Flexibility Score: 70.00
ROOT
ATOM      1  C   UNL     1       7.700 -17.727  25.452  1.00  0.00     0.136 C 
ATOM      2  O   UNL     1       7.083 -17.663  26.507  1.00  0.00    -0.299 OA
ENDROOT
BRANCH   1   3
ATOM      3  C   UNL     1       7.338 -16.718  24.367  1.00  0.00     0.053 C 
ATOM      4  C   UNL     1       5.879 -16.277  24.567  1.00  0.00     0.016 C 
BRANCH   3   5
ATOM      5  C   UNL     1       8.232 -15.459  24.259  1.00  0.00     0.015 C 
BRANCH   5   6
ATOM      6  C   UNL     1       9.533 -15.460  25.081  1.00  0.00     0.028 C 
BRANCH   6   7
ATOM      7  C   UNL     1      10.805 -15.488  24.265  1.00  0.00    -0.028 C 
ATOM      8  C   UNL     1      11.726 -16.486  24.182  1.00  0.00    -0.070 CG0
ATOM      9  C   UNL     1      12.948 -16.205  23.340  1.00  0.00     0.039 C 
ATOM     10  G   UNL     1      11.586 -17.901  24.746  1.00  0.00     0.000 G0
ENDBRANCH   6   7
ENDBRANCH   5   6
ENDBRANCH   3   5
ENDBRANCH   1   3
BRANCH   1  11
ATOM     11  C   UNL     1       8.754 -18.808  25.333  1.00  0.00     0.087 C 
BRANCH  11  12
ATOM     12  C   UNL     1       9.322 -18.904  23.886  1.00  0.00     0.066 C 
BRANCH  12  13
ATOM     13  C   UNL     1      10.851 -18.910  23.911  1.00  0.00     0.140 C 
ATOM     14  O   UNL     1      11.480 -19.703  23.222  1.00  0.00    -0.299 OA
BRANCH  13  15
ATOM     15  C   UNL     1      11.614 -17.916  24.748  1.00  0.00     0.106 CG0
ATOM     16  G   UNL     1      11.709 -16.496  24.188  1.00  0.00     0.000 G0
ENDBRANCH  13  15
ENDBRANCH  12  13
BRANCH  12  17
ATOM     17  C   UNL     1       8.755 -20.123  23.080  1.00  0.00    -0.006 C 
ATOM     18  C   UNL     1       8.300 -21.286  23.983  1.00  0.00     0.008 C 
ATOM     19  C   UNL     1       7.560 -19.696  22.204  1.00  0.00     0.008 C 
ENDBRANCH  12  17
ENDBRANCH  11  12
ENDBRANCH   1  11
TORSDOF 1
ENDMDL
MODEL 3
REMARK VINA RESULT:    -3.751      2.145      4.951
REMARK INTER + INTRA:          -6.124
REMARK INTER:                  -5.881
REMARK INTRA:                  -0.243
REMARK UNBOUND:                -0.400
REMARK SMILES CC1=CCC[C@H](C)C(=O)C[C@H](C(C)C)C(=O)C1
REMARK SMILES IDX 8 1 9 2 6 3 7 4 5 5 4 6 3 7 2 8 1 9 10 11 11 12 15 13 16 14
REMARK SMILES IDX 17 15 12 17 13 18 14 19
REMARK H PARENT
REMARK Flexibility Score: 70.00
ROOT
ATOM      1  C   UNL     1       8.177 -17.113  23.014  1.00  0.00     0.136 C 
ATOM      2  O   UNL     1       9.184 -17.389  22.374  1.00  0.00    -0.299 OA
ENDROOT
BRANCH   1   3
ATOM      3  C   UNL     1       7.962 -15.650  23.386  1.00  0.00     0.053 C 
ATOM      4  C   UNL     1       6.570 -15.501  24.023  1.00  0.00     0.016 C 
BRANCH   3   5
ATOM      5  C   UNL     1       9.013 -15.006  24.322  1.00  0.00     0.015 C 
BRANCH   5   6
ATOM      6  C   UNL     1       8.924 -15.365  25.816  1.00  0.00     0.028 C 
BRANCH   6   7
ATOM      7  C   UNL     1       9.781 -16.533  26.245  1.00  0.00    -0.028 C 
ATOM      8  C   UNL     1       9.387 -17.808  26.514  1.00  0.00    -0.070 CG0
ATOM      9  C   UNL     1      10.459 -18.754  27.000  1.00  0.00     0.039 C 
ATOM     10  G   UNL     1       8.004 -18.406  26.253  1.00  0.00     0.000 G0
ENDBRANCH   6   7
ENDBRANCH   5   6
ENDBRANCH   3   5
ENDBRANCH   1   3
BRANCH   1  11
ATOM     11  C   UNL     1       7.255 -18.259  23.376  1.00  0.00     0.087 C 
BRANCH  11  12
ATOM     12  C   UNL     1       8.048 -19.510  23.854  1.00  0.00     0.066 C 
BRANCH  12  13
ATOM     13  C   UNL     1       7.982 -19.636  25.378  1.00  0.00     0.140 C 
ATOM     14  O   UNL     1       7.942 -20.738  25.908  1.00  0.00    -0.299 OA
BRANCH  13  15
ATOM     15  C   UNL     1       8.008 -18.412  26.256  1.00  0.00     0.106 CG0
ATOM     16  G   UNL     1       9.385 -17.806  26.527  1.00  0.00     0.000 G0
ENDBRANCH  13  15
ENDBRANCH  12  13
BRANCH  12  17
ATOM     17  C   UNL     1       7.597 -20.835  23.148  1.00  0.00    -0.006 C 
ATOM     18  C   UNL     1       6.993 -20.599  21.750  1.00  0.00     0.008 C 
ATOM     19  C   UNL     1       8.780 -21.813  23.005  1.00  0.00     0.008 C 
ENDBRANCH  12  17
ENDBRANCH  11  12
ENDBRANCH   1  11
TORSDOF 1
ENDMDL
MODEL 4
REMARK VINA RESULT:    -3.746      2.238      4.485
REMARK INTER + INTRA:          -6.117
REMARK INTER:                  -5.817
REMARK INTRA:                  -0.300
REMARK UNBOUND:                -0.400
REMARK SMILES CC1=CCC[C@H](C)C(=O)C[C@H](C(C)C)C(=O)C1
REMARK SMILES IDX 8 1 9 2 6 3 7 4 5 5 4 6 3 7 2 8 1 9 10 11 11 12 15 13 16 14
REMARK SMILES IDX 17 15 12 17 13 18 14 19
REMARK H PARENT
REMARK Flexibility Score: 70.00
ROOT
ATOM      1  C   UNL     1       6.639 -16.595  23.826  1.00  0.00     0.136 C 
ATOM      2  O   UNL     1       5.792 -16.337  24.671  1.00  0.00    -0.299 OA
ENDROOT
BRANCH   1   3
ATOM      3  C   UNL     1       7.432 -15.426  23.249  1.00  0.00     0.053 C 
ATOM      4  C   UNL     1       6.446 -14.358  22.747  1.00  0.00     0.016 C 
BRANCH   3   5
ATOM      5  C   UNL     1       8.465 -14.755  24.186  1.00  0.00     0.015 C 
BRANCH   5   6
ATOM      6  C   UNL     1       9.944 -15.115  23.959  1.00  0.00     0.028 C 
BRANCH   6   7
ATOM      7  C   UNL     1      10.578 -15.935  25.059  1.00  0.00    -0.028 C 
ATOM      8  C   UNL     1      10.771 -17.281  25.096  1.00  0.00    -0.070 CG0
ATOM      9  C   UNL     1      11.367 -17.840  26.367  1.00  0.00     0.039 C 
ATOM     10  G   UNL     1      10.566 -18.261  23.940  1.00  0.00     0.000 G0
ENDBRANCH   6   7
ENDBRANCH   5   6
ENDBRANCH   3   5
ENDBRANCH   1   3
BRANCH   1  11
ATOM     11  C   UNL     1       6.803 -18.049  23.434  1.00  0.00     0.087 C 
BRANCH  11  12
ATOM     12  C   UNL     1       8.192 -18.318  22.783  1.00  0.00     0.066 C 
BRANCH  12  13
ATOM     13  C   UNL     1       9.174 -18.864  23.822  1.00  0.00     0.140 C 
ATOM     14  O   UNL     1       8.858 -19.804  24.540  1.00  0.00    -0.299 OA
BRANCH  13  15
ATOM     15  C   UNL     1      10.559 -18.288  23.953  1.00  0.00     0.106 CG0
ATOM     16  G   UNL     1      10.765 -17.278  25.083  1.00  0.00     0.000 G0
ENDBRANCH  13  15
ENDBRANCH  12  13
BRANCH  12  17
ATOM     17  C   UNL     1       8.113 -19.246  21.522  1.00  0.00    -0.006 C 
ATOM     18  C   UNL     1       9.436 -19.977  21.226  1.00  0.00     0.008 C 
ATOM     19  C   UNL     1       7.002 -20.303  21.687  1.00  0.00     0.008 C 
ENDBRANCH  12  17
ENDBRANCH  11  12
ENDBRANCH   1  11
TORSDOF 1
ENDMDL
MODEL 5
REMARK VINA RESULT:    -3.741      2.137      5.049
REMARK INTER + INTRA:          -6.109
REMARK INTER:                  -5.984
REMARK INTRA:                  -0.126
REMARK UNBOUND:                -0.400
REMARK SMILES CC1=CCC[C@H](C)C(=O)C[C@H](C(C)C)C(=O)C1
REMARK SMILES IDX 8 1 9 2 6 3 7 4 5 5 4 6 3 7 2 8 1 9 10 11 11 12 15 13 16 14
REMARK SMILES IDX 17 15 12 17 13 18 14 19
REMARK H PARENT
REMARK Flexibility Score: 70.00
ROOT
ATOM      1  C   UNL     1      10.300 -17.368  24.446  1.00  0.00     0.136 C 
ATOM      2  O   UNL     1      10.333 -17.575  25.652  1.00  0.00    -0.299 OA
ENDROOT
BRANCH   1   3
ATOM      3  C   UNL     1      11.107 -16.187  23.916  1.00  0.00     0.053 C 
ATOM      4  C   UNL     1      11.466 -16.453  22.445  1.00  0.00     0.016 C 
BRANCH   3   5
ATOM      5  C   UNL     1      10.452 -14.788  24.027  1.00  0.00     0.015 C 
BRANCH   5   6
ATOM      6  C   UNL     1       9.055 -14.727  24.670  1.00  0.00     0.028 C 
BRANCH   6   7
ATOM      7  C   UNL     1       7.944 -14.290  23.743  1.00  0.00    -0.028 C 
ATOM      8  C   UNL     1       7.283 -15.037  22.816  1.00  0.00    -0.070 CG0
ATOM      9  C   UNL     1       6.262 -14.311  21.973  1.00  0.00     0.039 C 
ATOM     10  G   UNL     1       7.380 -16.552  22.633  1.00  0.00     0.000 G0
ENDBRANCH   6   7
ENDBRANCH   5   6
ENDBRANCH   3   5
ENDBRANCH   1   3
BRANCH   1  11
ATOM     11  C   UNL     1       9.453 -18.303  23.608  1.00  0.00     0.087 C 
BRANCH  11  12
ATOM     12  C   UNL     1       8.048 -18.531  24.240  1.00  0.00     0.066 C 
BRANCH  12  13
ATOM     13  C   UNL     1       7.089 -17.410  23.834  1.00  0.00     0.140 C 
ATOM     14  O   UNL     1       6.104 -17.158  24.516  1.00  0.00    -0.299 OA
BRANCH  13  15
ATOM     15  C   UNL     1       7.359 -16.567  22.615  1.00  0.00     0.106 CG0
ATOM     16  G   UNL     1       7.300 -15.052  22.816  1.00  0.00     0.000 G0
ENDBRANCH  13  15
ENDBRANCH  12  13
BRANCH  12  17
ATOM     17  C   UNL     1       7.449 -19.944  23.918  1.00  0.00    -0.006 C 
ATOM     18  C   UNL     1       7.155 -20.149  22.420  1.00  0.00     0.008 C 
ATOM     19  C   UNL     1       8.403 -21.063  24.382  1.00  0.00     0.008 C 
ENDBRANCH  12  17
ENDBRANCH  11  12
ENDBRANCH   1  11
TORSDOF 1
ENDMDL
MODEL 6
REMARK VINA RESULT:    -3.736      2.095      4.575
REMARK INTER + INTRA:          -6.102
REMARK INTER:                  -6.038
REMARK INTRA:                  -0.064
REMARK UNBOUND:                -0.400
REMARK SMILES CC1=CCC[C@H](C)C(=O)C[C@H](C(C)C)C(=O)C1
REMARK SMILES IDX 8 1 9 2 6 3 7 4 5 5 4 6 3 7 2 8 1 9 10 11 11 12 15 13 16 14
REMARK SMILES IDX 17 15 12 17 13 18 14 19
REMARK H PARENT
REMARK Flexibility Score: 70.00
ROOT
ATOM      1  C   UNL     1       7.806 -16.488  25.770  1.00  0.00     0.136 C 
ATOM      2  O   UNL     1       7.933 -15.680  26.680  1.00  0.00    -0.299 OA
ENDROOT
BRANCH   1   3
ATOM      3  C   UNL     1       7.784 -15.943  24.346  1.00  0.00     0.053 C 
ATOM      4  C   UNL     1       6.346 -15.525  23.998  1.00  0.00     0.016 C 
BRANCH   3   5
ATOM      5  C   UNL     1       8.738 -14.764  24.035  1.00  0.00     0.015 C 
BRANCH   5   6
ATOM      6  C   UNL     1      10.236 -15.096  23.924  1.00  0.00     0.028 C 
BRANCH   6   7
ATOM      7  C   UNL     1      10.549 -16.457  23.347  1.00  0.00    -0.028 C 
ATOM      8  C   UNL     1      11.051 -17.546  23.991  1.00  0.00    -0.070 CG0
ATOM      9  C   UNL     1      11.336 -18.759  23.138  1.00  0.00     0.039 C 
ATOM     10  G   UNL     1      11.233 -17.704  25.501  1.00  0.00     0.000 G0
ENDBRANCH   6   7
ENDBRANCH   5   6
ENDBRANCH   3   5
ENDBRANCH   1   3
BRANCH   1  11
ATOM     11  C   UNL     1       7.675 -17.947  26.157  1.00  0.00     0.087 C 
BRANCH  11  12
ATOM     12  C   UNL     1       8.845 -18.802  25.587  1.00  0.00     0.066 C 
BRANCH  12  13
ATOM     13  C   UNL     1      10.163 -18.428  26.268  1.00  0.00     0.140 C 
ATOM     14  O   UNL     1      10.374 -18.748  27.430  1.00  0.00    -0.299 OA
BRANCH  13  15
ATOM     15  C   UNL     1      11.242 -17.697  25.512  1.00  0.00     0.106 CG0
ATOM     16  G   UNL     1      11.037 -17.565  24.003  1.00  0.00     0.000 G0
ENDBRANCH  13  15
ENDBRANCH  12  13
BRANCH  12  17
ATOM     17  C   UNL     1       8.576 -20.345  25.665  1.00  0.00    -0.006 C 
ATOM     18  C   UNL     1       7.421 -20.710  26.617  1.00  0.00     0.008 C 
ATOM     19  C   UNL     1       8.253 -20.917  24.270  1.00  0.00     0.008 C 
ENDBRANCH  12  17
ENDBRANCH  11  12
ENDBRANCH   1  11
TORSDOF 1
ENDMDL
MODEL 7
REMARK VINA RESULT:    -3.731      2.235      3.603
REMARK INTER + INTRA:          -6.094
REMARK INTER:                  -5.648
REMARK INTRA:                  -0.446
REMARK UNBOUND:                -0.400
REMARK SMILES CC1=CCC[C@H](C)C(=O)C[C@H](C(C)C)C(=O)C1
REMARK SMILES IDX 8 1 9 2 6 3 7 4 5 5 4 6 3 7 2 8 1 9 10 11 11 12 15 13 16 14
REMARK SMILES IDX 17 15 12 17 13 18 14 19
REMARK H PARENT
REMARK Flexibility Score: 70.00
ROOT
ATOM      1  C   UNL     1       8.241 -18.860  22.063  1.00  0.00     0.136 C 
ATOM      2  O   UNL     1       8.336 -18.725  20.851  1.00  0.00    -0.299 OA
ENDROOT
BRANCH   1   3
ATOM      3  C   UNL     1       7.356 -19.993  22.575  1.00  0.00     0.053 C 
ATOM      4  C   UNL     1       6.749 -20.730  21.370  1.00  0.00     0.016 C 
BRANCH   3   5
ATOM      5  C   UNL     1       8.022 -21.029  23.512  1.00  0.00     0.015 C 
BRANCH   5   6
ATOM      6  C   UNL     1       7.627 -20.972  24.999  1.00  0.00     0.028 C 
BRANCH   6   7
ATOM      7  C   UNL     1       8.786 -20.980  25.969  1.00  0.00    -0.028 C 
ATOM      8  C   UNL     1       9.358 -19.919  26.602  1.00  0.00    -0.070 CG0
ATOM      9  C   UNL     1      10.561 -20.220  27.464  1.00  0.00     0.039 C 
ATOM     10  G   UNL     1       8.830 -18.485  26.628  1.00  0.00     0.000 G0
ENDBRANCH   6   7
ENDBRANCH   5   6
ENDBRANCH   3   5
ENDBRANCH   1   3
BRANCH   1  11
ATOM     11  C   UNL     1       9.006 -17.881  22.929  1.00  0.00     0.087 C 
BRANCH  11  12
ATOM     12  C   UNL     1       8.233 -17.541  24.237  1.00  0.00     0.066 C 
BRANCH  12  13
ATOM     13  C   UNL     1       9.170 -17.602  25.445  1.00  0.00     0.140 C 
ATOM     14  O   UNL     1      10.189 -16.925  25.475  1.00  0.00    -0.299 OA
BRANCH  13  15
ATOM     15  C   UNL     1       8.839 -18.464  26.636  1.00  0.00     0.106 CG0
ATOM     16  G   UNL     1       9.350 -19.904  26.589  1.00  0.00     0.000 G0
ENDBRANCH  13  15
ENDBRANCH  12  13
BRANCH  12  17
ATOM     17  C   UNL     1       7.475 -16.170  24.167  1.00  0.00    -0.006 C 
ATOM     18  C   UNL     1       7.688 -15.429  22.834  1.00  0.00     0.008 C 
ATOM     19  C   UNL     1       5.959 -16.369  24.373  1.00  0.00     0.008 C 
ENDBRANCH  12  17
ENDBRANCH  11  12
ENDBRANCH   1  11
TORSDOF 1
ENDMDL
MODEL 8
REMARK VINA RESULT:    -3.640      2.463      4.435
REMARK INTER + INTRA:          -5.955
REMARK INTER:                  -5.523
REMARK INTRA:                  -0.432
REMARK UNBOUND:                -0.400
REMARK SMILES CC1=CCC[C@H](C)C(=O)C[C@H](C(C)C)C(=O)C1
REMARK SMILES IDX 8 1 9 2 6 3 7 4 5 5 4 6 3 7 2 8 1 9 10 11 11 12 15 13 16 14
REMARK SMILES IDX 17 15 12 17 13 18 14 19
REMARK H PARENT
REMARK Flexibility Score: 70.00
ROOT
ATOM      1  C   UNL     1      10.091 -15.169  24.244  1.00  0.00     0.136 C 
ATOM      2  O   UNL     1       9.852 -14.003  23.960  1.00  0.00    -0.299 OA
ENDROOT
BRANCH   1   3
ATOM      3  C   UNL     1      11.382 -15.772  23.699  1.00  0.00     0.053 C 
ATOM      4  C   UNL     1      12.287 -14.635  23.198  1.00  0.00     0.016 C 
BRANCH   3   5
ATOM      5  C   UNL     1      12.193 -16.671  24.664  1.00  0.00     0.015 C 
BRANCH   5   6
ATOM      6  C   UNL     1      12.220 -18.177  24.350  1.00  0.00     0.028 C 
BRANCH   6   7
ATOM      7  C   UNL     1      12.076 -19.083  25.550  1.00  0.00    -0.028 C 
ATOM      8  C   UNL     1      10.936 -19.630  26.055  1.00  0.00    -0.070 CG0
ATOM      9  C   UNL     1      11.084 -20.442  27.321  1.00  0.00     0.039 C 
ATOM     10  G   UNL     1       9.553 -19.612  25.403  1.00  0.00     0.000 G0
ENDBRANCH   6   7
ENDBRANCH   5   6
ENDBRANCH   3   5
ENDBRANCH   1   3
BRANCH   1  11
ATOM     11  C   UNL     1       9.073 -15.893  25.100  1.00  0.00     0.087 C 
BRANCH  11  12
ATOM     12  C   UNL     1       8.690 -17.276  24.496  1.00  0.00     0.066 C 
BRANCH  12  13
ATOM     13  C   UNL     1       8.727 -18.361  25.575  1.00  0.00     0.140 C 
ATOM     14  O   UNL     1       8.064 -18.241  26.597  1.00  0.00    -0.299 OA
BRANCH  13  15
ATOM     15  C   UNL     1       9.542 -19.613  25.384  1.00  0.00     0.106 CG0
ATOM     16  G   UNL     1      10.923 -19.624  26.040  1.00  0.00     0.000 G0
ENDBRANCH  13  15
ENDBRANCH  12  13
BRANCH  12  17
ATOM     17  C   UNL     1       7.315 -17.261  23.742  1.00  0.00    -0.006 C 
ATOM     18  C   UNL     1       6.334 -16.210  24.296  1.00  0.00     0.008 C 
ATOM     19  C   UNL     1       7.516 -16.989  22.238  1.00  0.00     0.008 C 
ENDBRANCH  12  17
ENDBRANCH  11  12
ENDBRANCH   1  11
TORSDOF 1
ENDMDL
MODEL 9
REMARK VINA RESULT:    -3.602      2.255      4.902
REMARK INTER + INTRA:          -5.897
REMARK INTER:                  -5.338
REMARK INTRA:                  -0.558
REMARK UNBOUND:                -0.400
REMARK SMILES CC1=CCC[C@H](C)C(=O)C[C@H](C(C)C)C(=O)C1
REMARK SMILES IDX 8 1 9 2 6 3 7 4 5 5 4 6 3 7 2 8 1 9 10 11 11 12 15 13 16 14
REMARK SMILES IDX 17 15 12 17 13 18 14 19
REMARK H PARENT
REMARK Flexibility Score: 70.00
ROOT
ATOM      1  C   UNL     1      11.460 -18.170  23.713  1.00  0.00     0.136 C 
ATOM      2  O   UNL     1      12.537 -17.939  23.180  1.00  0.00    -0.299 OA
ENDROOT
BRANCH   1   3
ATOM      3  C   UNL     1      11.360 -17.946  25.218  1.00  0.00     0.053 C 
ATOM      4  C   UNL     1      12.690 -18.362  25.870  1.00  0.00     0.016 C 
BRANCH   3   5
ATOM      5  C   UNL     1      10.996 -16.517  25.689  1.00  0.00     0.015 C 
BRANCH   5   6
ATOM      6  C   UNL     1       9.570 -16.307  26.227  1.00  0.00     0.028 C 
BRANCH   6   7
ATOM      7  C   UNL     1       8.679 -15.450  25.358  1.00  0.00    -0.028 C 
ATOM      8  C   UNL     1       7.730 -15.857  24.472  1.00  0.00    -0.070 CG0
ATOM      9  C   UNL     1       7.040 -14.772  23.680  1.00  0.00     0.039 C 
ATOM     10  G   UNL     1       7.207 -17.283  24.292  1.00  0.00     0.000 G0
ENDBRANCH   6   7
ENDBRANCH   5   6
ENDBRANCH   3   5
ENDBRANCH   1   3
BRANCH   1  11
ATOM     11  C   UNL     1      10.340 -18.663  22.820  1.00  0.00     0.087 C 
BRANCH  11  12
ATOM     12  C   UNL     1       9.072 -19.042  23.641  1.00  0.00     0.066 C 
BRANCH  12  13
ATOM     13  C   UNL     1       7.898 -18.137  23.261  1.00  0.00     0.140 C 
ATOM     14  O   UNL     1       7.481 -18.111  22.110  1.00  0.00    -0.299 OA
BRANCH  13  15
ATOM     15  C   UNL     1       7.205 -17.294  24.300  1.00  0.00     0.106 CG0
ATOM     16  G   UNL     1       7.735 -15.871  24.476  1.00  0.00     0.000 G0
ENDBRANCH  13  15
ENDBRANCH  12  13
BRANCH  12  17
ATOM     17  C   UNL     1       8.691 -20.558  23.522  1.00  0.00    -0.006 C 
ATOM     18  C   UNL     1       9.869 -21.503  23.829  1.00  0.00     0.008 C 
ATOM     19  C   UNL     1       7.529 -20.909  24.474  1.00  0.00     0.008 C 
ENDBRANCH  12  17
ENDBRANCH  11  12
ENDBRANCH   1  11
TORSDOF 1
ENDMDL
