MODEL 1
REMARK VINA RESULT:    -3.409      0.000      0.000
REMARK INTER + INTRA:          -5.318
REMARK INTER:                  -4.605
REMARK INTRA:                  -0.713
REMARK UNBOUND:                -0.713
REMARK SMILES O=C[C@@H](O)[C@@H](O)[C@H](O)CO
REMARK SMILES IDX 7 1 9 2 10 3 5 5 3 6 2 7 1 8 4 9 6 11 8 13
REMARK H PARENT 10 4 4 10 6 12 8 14
REMARK Flexibility Score: inf
ROOT
ATOM      1  C   UNL     1      28.293 -12.575 -22.002  1.00  0.00     0.171 C 
ENDROOT
BRANCH   1   2
ATOM      2  C   UNL     1      29.645 -13.234 -22.342  1.00  0.00     0.190 C 
BRANCH   2   3
ATOM      3  O   UNL     1      29.981 -14.229 -21.411  1.00  0.00    -0.394 OA
ATOM      4  H   UNL     1      29.128 -14.597 -21.062  1.00  0.00     0.210 HD
ENDBRANCH   2   3
ENDBRANCH   1   2
BRANCH   1   5
ATOM      5  C   UNL     1      27.260 -13.525 -21.329  1.00  0.00     0.181 C 
BRANCH   5   6
ATOM      6  C   UNL     1      25.838 -12.916 -21.165  1.00  0.00     0.209 C 
BRANCH   6   7
ATOM      7  C   UNL     1      24.871 -13.442 -22.190  1.00  0.00     0.258 C 
ATOM      8  O   UNL     1      25.018 -13.177 -23.373  1.00  0.00    -0.300 OA
ENDBRANCH   6   7
BRANCH   6   9
ATOM      9  O   UNL     1      25.328 -13.154 -19.879  1.00  0.00    -0.383 OA
ATOM     10  H   UNL     1      25.124 -12.266 -19.484  1.00  0.00     0.211 HD
ENDBRANCH   6   9
ENDBRANCH   5   6
BRANCH   5  11
ATOM     11  O   UNL     1      27.165 -14.688 -22.113  1.00  0.00    -0.387 OA
ATOM     12  H   UNL     1      26.240 -14.724 -22.471  1.00  0.00     0.211 HD
ENDBRANCH   5  11
ENDBRANCH   1   5
BRANCH   1  13
ATOM     13  O   UNL     1      27.743 -11.996 -23.161  1.00  0.00    -0.388 OA
ATOM     14  H   UNL     1      27.657 -12.711 -23.845  1.00  0.00     0.211 HD
ENDBRANCH   1  13
TORSDOF 8
ENDMDL
MODEL 2
REMARK VINA RESULT:    -3.314     16.390     17.816
REMARK INTER + INTRA:          -5.189
REMARK INTER:                  -4.537
REMARK INTRA:                  -0.652
REMARK UNBOUND:                -0.713
REMARK SMILES O=C[C@@H](O)[C@@H](O)[C@H](O)CO
REMARK SMILES IDX 7 1 9 2 10 3 5 5 3 6 2 7 1 8 4 9 6 11 8 13
REMARK H PARENT 10 4 4 10 6 12 8 14
REMARK Flexibility Score: inf
ROOT
ATOM      1  C   UNL     1      36.722  -7.818 -34.548  1.00  0.00     0.171 C 
ENDROOT
BRANCH   1   2
ATOM      2  C   UNL     1      37.583  -9.092 -34.655  1.00  0.00     0.190 C 
BRANCH   2   3
ATOM      3  O   UNL     1      38.951  -8.785 -34.713  1.00  0.00    -0.394 OA
ATOM      4  H   UNL     1      39.210  -8.800 -35.672  1.00  0.00     0.210 HD
ENDBRANCH   2   3
ENDBRANCH   1   2
BRANCH   1   5
ATOM      5  C   UNL     1      37.384  -6.537 -35.135  1.00  0.00     0.181 C 
BRANCH   5   6
ATOM      6  C   UNL     1      36.405  -5.598 -35.896  1.00  0.00     0.209 C 
BRANCH   6   7
ATOM      7  C   UNL     1      35.837  -4.525 -35.009  1.00  0.00     0.258 C 
ATOM      8  O   UNL     1      35.210  -4.822 -34.003  1.00  0.00    -0.300 OA
ENDBRANCH   6   7
BRANCH   6   9
ATOM      9  O   UNL     1      37.030  -5.002 -37.004  1.00  0.00    -0.383 OA
ATOM     10  H   UNL     1      37.730  -5.636 -37.313  1.00  0.00     0.211 HD
ENDBRANCH   6   9
ENDBRANCH   5   6
BRANCH   5  11
ATOM     11  O   UNL     1      37.961  -5.821 -34.072  1.00  0.00    -0.387 OA
ATOM     12  H   UNL     1      37.217  -5.404 -33.563  1.00  0.00     0.211 HD
ENDBRANCH   5  11
ENDBRANCH   1   5
BRANCH   1  13
ATOM     13  O   UNL     1      36.351  -7.606 -33.208  1.00  0.00    -0.388 OA
ATOM     14  H   UNL     1      36.753  -8.333 -32.663  1.00  0.00     0.211 HD
ENDBRANCH   1  13
TORSDOF 8
ENDMDL
MODEL 3
REMARK VINA RESULT:    -3.314      2.062      2.979
REMARK INTER + INTRA:          -5.189
REMARK INTER:                  -4.426
REMARK INTRA:                  -0.763
REMARK UNBOUND:                -0.713
REMARK SMILES O=C[C@@H](O)[C@@H](O)[C@H](O)CO
REMARK SMILES IDX 7 1 9 2 10 3 5 5 3 6 2 7 1 8 4 9 6 11 8 13
REMARK H PARENT 10 4 4 10 6 12 8 14
REMARK Flexibility Score: inf
ROOT
ATOM      1  C   UNL     1      27.195 -12.381 -21.908  1.00  0.00     0.171 C 
ENDROOT
BRANCH   1   2
ATOM      2  C   UNL     1      28.513 -13.027 -21.434  1.00  0.00     0.190 C 
BRANCH   2   3
ATOM      3  O   UNL     1      29.512 -12.064 -21.224  1.00  0.00    -0.394 OA
ATOM      4  H   UNL     1      29.328 -11.645 -20.343  1.00  0.00     0.210 HD
ENDBRANCH   2   3
ENDBRANCH   1   2
BRANCH   1   5
ATOM      5  C   UNL     1      26.431 -11.589 -20.808  1.00  0.00     0.181 C 
BRANCH   5   6
ATOM      6  C   UNL     1      26.102 -12.415 -19.531  1.00  0.00     0.209 C 
BRANCH   6   7
ATOM      7  C   UNL     1      25.626 -11.549 -18.398  1.00  0.00     0.258 C 
ATOM      8  O   UNL     1      24.900 -10.591 -18.613  1.00  0.00    -0.300 OA
ENDBRANCH   6   7
BRANCH   6   9
ATOM      9  O   UNL     1      25.139 -13.402 -19.798  1.00  0.00    -0.383 OA
ATOM     10  H   UNL     1      25.562 -14.277 -19.591  1.00  0.00     0.211 HD
ENDBRANCH   6   9
ENDBRANCH   5   6
BRANCH   5  11
ATOM     11  O   UNL     1      27.221 -10.486 -20.440  1.00  0.00    -0.387 OA
ATOM     12  H   UNL     1      28.096 -10.842 -20.133  1.00  0.00     0.211 HD
ENDBRANCH   5  11
ENDBRANCH   1   5
BRANCH   1  13
ATOM     13  O   UNL     1      26.361 -13.364 -22.471  1.00  0.00    -0.388 OA
ATOM     14  H   UNL     1      26.647 -14.246 -22.114  1.00  0.00     0.211 HD
ENDBRANCH   1  13
TORSDOF 8
ENDMDL
MODEL 4
REMARK VINA RESULT:    -3.312      2.595      3.723
REMARK INTER + INTRA:          -5.187
REMARK INTER:                  -4.682
REMARK INTRA:                  -0.505
REMARK UNBOUND:                -0.713
REMARK SMILES O=C[C@@H](O)[C@@H](O)[C@H](O)CO
REMARK SMILES IDX 7 1 9 2 10 3 5 5 3 6 2 7 1 8 4 9 6 11 8 13
REMARK H PARENT 10 4 4 10 6 12 8 14
REMARK Flexibility Score: inf
ROOT
ATOM      1  C   UNL     1      25.898 -13.001 -20.487  1.00  0.00     0.171 C 
ENDROOT
BRANCH   1   2
ATOM      2  C   UNL     1      25.949 -12.066 -19.263  1.00  0.00     0.190 C 
BRANCH   2   3
ATOM      3  O   UNL     1      25.151 -12.548 -18.213  1.00  0.00    -0.394 OA
ATOM      4  H   UNL     1      24.326 -12.916 -18.624  1.00  0.00     0.210 HD
ENDBRANCH   2   3
ENDBRANCH   1   2
BRANCH   1   5
ATOM      5  C   UNL     1      25.906 -12.270 -21.862  1.00  0.00     0.181 C 
BRANCH   5   6
ATOM      6  C   UNL     1      24.858 -12.804 -22.880  1.00  0.00     0.209 C 
BRANCH   6   7
ATOM      7  C   UNL     1      24.713 -11.903 -24.076  1.00  0.00     0.258 C 
ATOM      8  O   UNL     1      23.925 -10.971 -24.055  1.00  0.00    -0.300 OA
ENDBRANCH   6   7
BRANCH   6   9
ATOM      9  O   UNL     1      25.184 -14.101 -23.312  1.00  0.00    -0.383 OA
ATOM     10  H   UNL     1      24.934 -14.718 -22.575  1.00  0.00     0.211 HD
ENDBRANCH   6   9
ENDBRANCH   5   6
BRANCH   5  11
ATOM     11  O   UNL     1      25.653 -10.907 -21.629  1.00  0.00    -0.387 OA
ATOM     12  H   UNL     1      26.385 -10.396 -22.063  1.00  0.00     0.211 HD
ENDBRANCH   5  11
ENDBRANCH   1   5
BRANCH   1  13
ATOM     13  O   UNL     1      24.779 -13.849 -20.391  1.00  0.00    -0.388 OA
ATOM     14  H   UNL     1      23.992 -13.354 -20.740  1.00  0.00     0.211 HD
ENDBRANCH   1  13
TORSDOF 8
ENDMDL
MODEL 5
REMARK VINA RESULT:    -3.307     17.666     19.139
REMARK INTER + INTRA:          -5.181
REMARK INTER:                  -5.050
REMARK INTRA:                  -0.131
REMARK UNBOUND:                -0.713
REMARK SMILES O=C[C@@H](O)[C@@H](O)[C@H](O)CO
REMARK SMILES IDX 7 1 9 2 10 3 5 5 3 6 2 7 1 8 4 9 6 11 8 13
REMARK H PARENT 10 4 4 10 6 12 8 14
REMARK Flexibility Score: inf
ROOT
ATOM      1  C   UNL     1      36.686  -5.341 -35.741  1.00  0.00     0.171 C 
ENDROOT
BRANCH   1   2
ATOM      2  C   UNL     1      36.533  -6.774 -35.193  1.00  0.00     0.190 C 
BRANCH   2   3
ATOM      3  O   UNL     1      37.667  -7.173 -34.471  1.00  0.00    -0.394 OA
ATOM      4  H   UNL     1      38.416  -6.591 -34.765  1.00  0.00     0.210 HD
ENDBRANCH   2   3
ENDBRANCH   1   2
BRANCH   1   5
ATOM      5  C   UNL     1      35.891  -5.059 -37.049  1.00  0.00     0.181 C 
BRANCH   5   6
ATOM      6  C   UNL     1      34.891  -3.872 -36.952  1.00  0.00     0.209 C 
BRANCH   6   7
ATOM      7  C   UNL     1      34.699  -3.401 -35.536  1.00  0.00     0.258 C 
ATOM      8  O   UNL     1      34.258  -2.285 -35.310  1.00  0.00    -0.300 OA
ENDBRANCH   6   7
BRANCH   6   9
ATOM      9  O   UNL     1      35.304  -2.792 -37.749  1.00  0.00    -0.383 OA
ATOM     10  H   UNL     1      34.606  -2.091 -37.664  1.00  0.00     0.211 HD
ENDBRANCH   6   9
ENDBRANCH   5   6
BRANCH   5  11
ATOM     11  O   UNL     1      36.819  -4.784 -38.069  1.00  0.00    -0.387 OA
ATOM     12  H   UNL     1      37.218  -5.651 -38.344  1.00  0.00     0.211 HD
ENDBRANCH   5  11
ENDBRANCH   1   5
BRANCH   1  13
ATOM     13  O   UNL     1      38.049  -5.046 -35.923  1.00  0.00    -0.388 OA
ATOM     14  H   UNL     1      38.568  -5.604 -35.286  1.00  0.00     0.211 HD
ENDBRANCH   1  13
TORSDOF 8
ENDMDL
MODEL 6
REMARK VINA RESULT:    -3.285      3.023      4.421
REMARK INTER + INTRA:          -5.150
REMARK INTER:                  -4.682
REMARK INTRA:                  -0.468
REMARK UNBOUND:                -0.713
REMARK SMILES O=C[C@@H](O)[C@@H](O)[C@H](O)CO
REMARK SMILES IDX 7 1 9 2 10 3 5 5 3 6 2 7 1 8 4 9 6 11 8 13
REMARK H PARENT 10 4 4 10 6 12 8 14
REMARK Flexibility Score: inf
ROOT
ATOM      1  C   UNL     1      25.852 -12.353 -20.041  1.00  0.00     0.171 C 
ENDROOT
BRANCH   1   2
ATOM      2  C   UNL     1      27.262 -12.511 -20.644  1.00  0.00     0.190 C 
BRANCH   2   3
ATOM      3  O   UNL     1      27.885 -11.267 -20.829  1.00  0.00    -0.394 OA
ATOM      4  H   UNL     1      28.857 -11.407 -20.683  1.00  0.00     0.210 HD
ENDBRANCH   2   3
ENDBRANCH   1   2
BRANCH   1   5
ATOM      5  C   UNL     1      25.833 -11.973 -18.531  1.00  0.00     0.181 C 
BRANCH   5   6
ATOM      6  C   UNL     1      25.573 -10.465 -18.251  1.00  0.00     0.209 C 
BRANCH   6   7
ATOM      7  C   UNL     1      26.830  -9.729 -17.877  1.00  0.00     0.258 C 
ATOM      8  O   UNL     1      27.496  -9.166 -18.733  1.00  0.00    -0.300 OA
ENDBRANCH   6   7
BRANCH   6   9
ATOM      9  O   UNL     1      24.978  -9.836 -19.357  1.00  0.00    -0.383 OA
ATOM     10  H   UNL     1      24.901  -8.872 -19.131  1.00  0.00     0.211 HD
ENDBRANCH   6   9
ENDBRANCH   5   6
BRANCH   5  11
ATOM     11  O   UNL     1      24.823 -12.727 -17.907  1.00  0.00    -0.387 OA
ATOM     12  H   UNL     1      24.138 -12.926 -18.598  1.00  0.00     0.211 HD
ENDBRANCH   5  11
ENDBRANCH   1   5
BRANCH   1  13
ATOM     13  O   UNL     1      25.109 -13.527 -20.259  1.00  0.00    -0.388 OA
ATOM     14  H   UNL     1      25.400 -14.200 -19.589  1.00  0.00     0.211 HD
ENDBRANCH   1  13
TORSDOF 8
ENDMDL
MODEL 7
REMARK VINA RESULT:    -3.280      2.025      3.929
REMARK INTER + INTRA:          -5.143
REMARK INTER:                  -4.392
REMARK INTRA:                  -0.752
REMARK UNBOUND:                -0.713
REMARK SMILES O=C[C@@H](O)[C@@H](O)[C@H](O)CO
REMARK SMILES IDX 7 1 9 2 10 3 5 5 3 6 2 7 1 8 4 9 6 11 8 13
REMARK H PARENT 10 4 4 10 6 12 8 14
REMARK Flexibility Score: inf
ROOT
ATOM      1  C   UNL     1      26.262 -13.470 -21.465  1.00  0.00     0.171 C 
ENDROOT
BRANCH   1   2
ATOM      2  C   UNL     1      25.068 -13.207 -22.405  1.00  0.00     0.190 C 
BRANCH   2   3
ATOM      3  O   UNL     1      23.908 -13.859 -21.959  1.00  0.00    -0.394 OA
ATOM      4  H   UNL     1      24.189 -14.493 -21.249  1.00  0.00     0.210 HD
ENDBRANCH   2   3
ENDBRANCH   1   2
BRANCH   1   5
ATOM      5  C   UNL     1      26.236 -12.652 -20.141  1.00  0.00     0.181 C 
BRANCH   5   6
ATOM      6  C   UNL     1      26.033 -11.122 -20.335  1.00  0.00     0.209 C 
BRANCH   6   7
ATOM      7  C   UNL     1      25.621 -10.435 -19.062  1.00  0.00     0.258 C 
ATOM      8  O   UNL     1      26.194 -10.682 -18.012  1.00  0.00    -0.300 OA
ENDBRANCH   6   7
BRANCH   6   9
ATOM      9  O   UNL     1      27.196 -10.514 -20.836  1.00  0.00    -0.383 OA
ATOM     10  H   UNL     1      26.948  -9.585 -21.085  1.00  0.00     0.211 HD
ENDBRANCH   6   9
ENDBRANCH   5   6
BRANCH   5  11
ATOM     11  O   UNL     1      25.189 -13.148 -19.345  1.00  0.00    -0.387 OA
ATOM     12  H   UNL     1      25.177 -12.611 -18.510  1.00  0.00     0.211 HD
ENDBRANCH   5  11
ENDBRANCH   1   5
BRANCH   1  13
ATOM     13  O   UNL     1      27.467 -13.246 -22.155  1.00  0.00    -0.388 OA
ATOM     14  H   UNL     1      28.117 -12.858 -21.513  1.00  0.00     0.211 HD
ENDBRANCH   1  13
TORSDOF 8
ENDMDL
MODEL 8
REMARK VINA RESULT:    -3.219     14.858     16.690
REMARK INTER + INTRA:          -5.062
REMARK INTER:                  -4.573
REMARK INTRA:                  -0.489
REMARK UNBOUND:                -0.713
REMARK SMILES O=C[C@@H](O)[C@@H](O)[C@H](O)CO
REMARK SMILES IDX 7 1 9 2 10 3 5 5 3 6 2 7 1 8 4 9 6 11 8 13
REMARK H PARENT 10 4 4 10 6 12 8 14
REMARK Flexibility Score: inf
ROOT
ATOM      1  C   UNL     1      36.925  -9.337 -33.942  1.00  0.00     0.171 C 
ENDROOT
BRANCH   1   2
ATOM      2  C   UNL     1      36.235 -10.237 -32.898  1.00  0.00     0.190 C 
BRANCH   2   3
ATOM      3  O   UNL     1      34.950 -10.618 -33.315  1.00  0.00    -0.394 OA
ATOM      4  H   UNL     1      34.720 -10.049 -34.095  1.00  0.00     0.210 HD
ENDBRANCH   2   3
ENDBRANCH   1   2
BRANCH   1   5
ATOM      5  C   UNL     1      36.209  -7.979 -34.200  1.00  0.00     0.181 C 
BRANCH   5   6
ATOM      6  C   UNL     1      37.101  -6.901 -34.881  1.00  0.00     0.209 C 
BRANCH   6   7
ATOM      7  C   UNL     1      36.302  -5.955 -35.734  1.00  0.00     0.258 C 
ATOM      8  O   UNL     1      35.321  -5.389 -35.278  1.00  0.00    -0.300 OA
ENDBRANCH   6   7
BRANCH   6   9
ATOM      9  O   UNL     1      37.829  -6.168 -33.930  1.00  0.00    -0.383 OA
ATOM     10  H   UNL     1      38.120  -6.813 -33.234  1.00  0.00     0.211 HD
ENDBRANCH   6   9
ENDBRANCH   5   6
BRANCH   5  11
ATOM     11  O   UNL     1      35.094  -8.225 -35.019  1.00  0.00    -0.387 OA
ATOM     12  H   UNL     1      34.286  -8.128 -34.450  1.00  0.00     0.211 HD
ENDBRANCH   5  11
ENDBRANCH   1   5
BRANCH   1  13
ATOM     13  O   UNL     1      37.082 -10.044 -35.148  1.00  0.00    -0.388 OA
ATOM     14  H   UNL     1      36.422  -9.685 -35.798  1.00  0.00     0.211 HD
ENDBRANCH   1  13
TORSDOF 8
ENDMDL
MODEL 9
REMARK VINA RESULT:    -3.215      1.783      3.420
REMARK INTER + INTRA:          -5.057
REMARK INTER:                  -4.568
REMARK INTRA:                  -0.489
REMARK UNBOUND:                -0.713
REMARK SMILES O=C[C@@H](O)[C@@H](O)[C@H](O)CO
REMARK SMILES IDX 7 1 9 2 10 3 5 5 3 6 2 7 1 8 4 9 6 11 8 13
REMARK H PARENT 10 4 4 10 6 12 8 14
REMARK Flexibility Score: inf
ROOT
ATOM      1  C   UNL     1      25.382 -12.516 -22.668  1.00  0.00     0.171 C 
ENDROOT
BRANCH   1   2
ATOM      2  C   UNL     1      25.493 -11.595 -23.900  1.00  0.00     0.190 C 
BRANCH   2   3
ATOM      3  O   UNL     1      26.681 -11.826 -24.610  1.00  0.00    -0.394 OA
ATOM      4  H   UNL     1      26.512 -12.597 -25.211  1.00  0.00     0.210 HD
ENDBRANCH   2   3
ENDBRANCH   1   2
BRANCH   1   5
ATOM      5  C   UNL     1      26.540 -12.362 -21.639  1.00  0.00     0.181 C 
BRANCH   5   6
ATOM      6  C   UNL     1      26.188 -12.834 -20.199  1.00  0.00     0.209 C 
BRANCH   6   7
ATOM      7  C   UNL     1      26.056 -11.686 -19.237  1.00  0.00     0.258 C 
ATOM      8  O   UNL     1      25.649 -11.874 -18.101  1.00  0.00    -0.300 OA
ENDBRANCH   6   7
BRANCH   6   9
ATOM      9  O   UNL     1      25.005 -13.590 -20.187  1.00  0.00    -0.383 OA
ATOM     10  H   UNL     1      24.269 -12.965 -19.952  1.00  0.00     0.211 HD
ENDBRANCH   6   9
ENDBRANCH   5   6
BRANCH   5  11
ATOM     11  O   UNL     1      27.636 -13.111 -22.103  1.00  0.00    -0.387 OA
ATOM     12  H   UNL     1      28.371 -12.470 -22.289  1.00  0.00     0.211 HD
ENDBRANCH   5  11
ENDBRANCH   1   5
BRANCH   1  13
ATOM     13  O   UNL     1      25.273 -13.855 -23.085  1.00  0.00    -0.388 OA
ATOM     14  H   UNL     1      26.032 -14.359 -22.689  1.00  0.00     0.211 HD
ENDBRANCH   1  13
TORSDOF 8
ENDMDL
