MODEL 1
REMARK VINA RESULT:    -4.932      0.000      0.000
REMARK INTER + INTRA:          -7.965
REMARK INTER:                  -7.095
REMARK INTRA:                  -0.870
REMARK UNBOUND:                -0.870
REMARK SMILES O=C(CO)[C@H](O)[C@@H](O)[C@@H](O)CO
REMARK SMILES IDX 7 1 9 2 11 3 12 4 10 6 5 8 2 9 1 10 3 11 4 12 6 14 8 16
REMARK H PARENT 12 5 10 7 4 13 6 15 8 17
REMARK Flexibility Score: inf
ROOT
ATOM      1  C   UNL     1     -12.781   8.825   8.003  1.00  0.00     0.181 C 
ENDROOT
BRANCH   1   2
ATOM      2  C   UNL     1     -14.293   8.537   8.217  1.00  0.00     0.171 C 
BRANCH   2   3
ATOM      3  C   UNL     1     -14.634   8.288   9.697  1.00  0.00     0.190 C 
BRANCH   3   4
ATOM      4  O   UNL     1     -15.049   9.478  10.312  1.00  0.00    -0.394 OA
ATOM      5  H   UNL     1     -15.013   9.319  11.291  1.00  0.00     0.210 HD
ENDBRANCH   3   4
ENDBRANCH   2   3
BRANCH   2   6
ATOM      6  O   UNL     1     -14.698   7.438   7.440  1.00  0.00    -0.388 OA
ATOM      7  H   UNL     1     -14.308   6.627   7.860  1.00  0.00     0.211 HD
ENDBRANCH   2   6
ENDBRANCH   1   2
BRANCH   1   8
ATOM      8  C   UNL     1     -12.465   9.820   6.849  1.00  0.00     0.214 C 
BRANCH   8   9
ATOM      9  C   UNL     1     -12.207  11.219   7.382  1.00  0.00     0.189 C 
ATOM     10  O   UNL     1     -11.055  11.558   7.612  1.00  0.00    -0.294 OA
BRANCH   9  11
ATOM     11  C   UNL     1     -13.333  12.191   7.639  1.00  0.00     0.234 C 
BRANCH  11  12
ATOM     12  O   UNL     1     -13.469  12.460   9.009  1.00  0.00    -0.388 OA
ATOM     13  H   UNL     1     -14.214  11.892   9.337  1.00  0.00     0.211 HD
ENDBRANCH  11  12
ENDBRANCH   9  11
ENDBRANCH   8   9
BRANCH   8  14
ATOM     14  O   UNL     1     -13.457   9.814   5.850  1.00  0.00    -0.382 OA
ATOM     15  H   UNL     1     -13.859  10.719   5.807  1.00  0.00     0.211 HD
ENDBRANCH   8  14
ENDBRANCH   1   8
BRANCH   1  16
ATOM     16  O   UNL     1     -12.172   9.227   9.207  1.00  0.00    -0.387 OA
ATOM     17  H   UNL     1     -11.196   9.078   9.127  1.00  0.00     0.211 HD
ENDBRANCH   1  16
TORSDOF 10
ENDMDL
MODEL 2
REMARK VINA RESULT:    -4.797      1.530      4.499
REMARK INTER + INTRA:          -7.771
REMARK INTER:                  -7.014
REMARK INTRA:                  -0.757
REMARK UNBOUND:                -0.870
REMARK SMILES O=C(CO)[C@H](O)[C@@H](O)[C@@H](O)CO
REMARK SMILES IDX 7 1 9 2 11 3 12 4 10 6 5 8 2 9 1 10 3 11 4 12 6 14 8 16
REMARK H PARENT 12 5 10 7 4 13 6 15 8 17
REMARK Flexibility Score: inf
ROOT
ATOM      1  C   UNL     1     -13.428   9.100   7.967  1.00  0.00     0.181 C 
ENDROOT
BRANCH   1   2
ATOM      2  C   UNL     1     -12.729   9.751   6.742  1.00  0.00     0.171 C 
BRANCH   2   3
ATOM      3  C   UNL     1     -12.623  11.281   6.878  1.00  0.00     0.190 C 
BRANCH   3   4
ATOM      4  O   UNL     1     -13.587  11.912   6.079  1.00  0.00    -0.394 OA
ATOM      5  H   UNL     1     -13.478  12.889   6.221  1.00  0.00     0.210 HD
ENDBRANCH   3   4
ENDBRANCH   2   3
BRANCH   2   6
ATOM      6  O   UNL     1     -13.406   9.421   5.556  1.00  0.00    -0.388 OA
ATOM      7  H   UNL     1     -13.508   8.433   5.545  1.00  0.00     0.211 HD
ENDBRANCH   2   6
ENDBRANCH   1   2
BRANCH   1   8
ATOM      8  C   UNL     1     -14.263   7.827   7.639  1.00  0.00     0.214 C 
BRANCH   8   9
ATOM      9  C   UNL     1     -15.001   7.321   8.866  1.00  0.00     0.189 C 
ATOM     10  O   UNL     1     -15.144   8.074   9.819  1.00  0.00    -0.294 OA
BRANCH   9  11
ATOM     11  C   UNL     1     -15.554   5.918   8.938  1.00  0.00     0.234 C 
BRANCH  11  12
ATOM     12  O   UNL     1     -16.084   5.516   7.703  1.00  0.00    -0.388 OA
ATOM     13  H   UNL     1     -17.072   5.570   7.786  1.00  0.00     0.211 HD
ENDBRANCH  11  12
ENDBRANCH   9  11
ENDBRANCH   8   9
BRANCH   8  14
ATOM     14  O   UNL     1     -13.484   6.817   7.042  1.00  0.00    -0.382 OA
ATOM     15  H   UNL     1     -13.613   5.981   7.558  1.00  0.00     0.211 HD
ENDBRANCH   8  14
ENDBRANCH   1   8
BRANCH   1  16
ATOM     16  O   UNL     1     -12.504   8.854   9.000  1.00  0.00    -0.387 OA
ATOM     17  H   UNL     1     -12.975   8.378   9.731  1.00  0.00     0.211 HD
ENDBRANCH   1  16
TORSDOF 10
ENDMDL
MODEL 3
REMARK VINA RESULT:    -4.760      1.551      4.857
REMARK INTER + INTRA:          -7.717
REMARK INTER:                  -6.911
REMARK INTRA:                  -0.806
REMARK UNBOUND:                -0.870
REMARK SMILES O=C(CO)[C@H](O)[C@@H](O)[C@@H](O)CO
REMARK SMILES IDX 7 1 9 2 11 3 12 4 10 6 5 8 2 9 1 10 3 11 4 12 6 14 8 16
REMARK H PARENT 12 5 10 7 4 13 6 15 8 17
REMARK Flexibility Score: inf
ROOT
ATOM      1  C   UNL     1     -13.667   8.274   8.327  1.00  0.00     0.181 C 
ENDROOT
BRANCH   1   2
ATOM      2  C   UNL     1     -13.008   9.661   8.089  1.00  0.00     0.171 C 
BRANCH   2   3
ATOM      3  C   UNL     1     -12.405   9.783   6.677  1.00  0.00     0.190 C 
BRANCH   3   4
ATOM      4  O   UNL     1     -13.415   9.997   5.729  1.00  0.00    -0.394 OA
ATOM      5  H   UNL     1     -13.081   9.626   4.870  1.00  0.00     0.210 HD
ENDBRANCH   3   4
ENDBRANCH   2   3
BRANCH   2   6
ATOM      6  O   UNL     1     -12.020   9.908   9.056  1.00  0.00    -0.388 OA
ATOM      7  H   UNL     1     -12.192   9.287   9.812  1.00  0.00     0.211 HD
ENDBRANCH   2   6
ENDBRANCH   1   2
BRANCH   1   8
ATOM      8  C   UNL     1     -14.182   8.039   9.778  1.00  0.00     0.214 C 
BRANCH   8   9
ATOM      9  C   UNL     1     -14.786   6.654   9.931  1.00  0.00     0.189 C 
ATOM     10  O   UNL     1     -14.040   5.685   9.948  1.00  0.00    -0.294 OA
BRANCH   9  11
ATOM     11  C   UNL     1     -16.276   6.446  10.055  1.00  0.00     0.234 C 
BRANCH  11  12
ATOM     12  O   UNL     1     -16.935   6.757   8.857  1.00  0.00    -0.388 OA
ATOM     13  H   UNL     1     -16.338   7.372   8.355  1.00  0.00     0.211 HD
ENDBRANCH  11  12
ENDBRANCH   9  11
ENDBRANCH   8   9
BRANCH   8  14
ATOM     14  O   UNL     1     -15.069   9.048  10.199  1.00  0.00    -0.382 OA
ATOM     15  H   UNL     1     -15.317   9.593   9.409  1.00  0.00     0.211 HD
ENDBRANCH   8  14
ENDBRANCH   1   8
BRANCH   1  16
ATOM     16  O   UNL     1     -14.679   8.030   7.379  1.00  0.00    -0.387 OA
ATOM     17  H   UNL     1     -15.190   8.869   7.247  1.00  0.00     0.211 HD
ENDBRANCH   1  16
TORSDOF 10
ENDMDL
MODEL 4
REMARK VINA RESULT:    -4.728      2.486      4.145
REMARK INTER + INTRA:          -7.670
REMARK INTER:                  -6.764
REMARK INTRA:                  -0.906
REMARK UNBOUND:                -0.870
REMARK SMILES O=C(CO)[C@H](O)[C@@H](O)[C@@H](O)CO
REMARK SMILES IDX 7 1 9 2 11 3 12 4 10 6 5 8 2 9 1 10 3 11 4 12 6 14 8 16
REMARK H PARENT 12 5 10 7 4 13 6 15 8 17
REMARK Flexibility Score: inf
ROOT
ATOM      1  C   UNL     1     -15.009   7.983  10.562  1.00  0.00     0.181 C 
ENDROOT
BRANCH   1   2
ATOM      2  C   UNL     1     -16.196   7.334  11.326  1.00  0.00     0.171 C 
BRANCH   2   3
ATOM      3  C   UNL     1     -15.992   5.823  11.543  1.00  0.00     0.190 C 
BRANCH   3   4
ATOM      4  O   UNL     1     -16.857   5.088  10.720  1.00  0.00    -0.394 OA
ATOM      5  H   UNL     1     -17.694   4.953  11.237  1.00  0.00     0.210 HD
ENDBRANCH   3   4
ENDBRANCH   2   3
BRANCH   2   6
ATOM      6  O   UNL     1     -17.403   7.561  10.644  1.00  0.00    -0.388 OA
ATOM      7  H   UNL     1     -17.508   8.546  10.561  1.00  0.00     0.211 HD
ENDBRANCH   2   6
ENDBRANCH   1   2
BRANCH   1   8
ATOM      8  C   UNL     1     -14.641   7.288   9.219  1.00  0.00     0.214 C 
BRANCH   8   9
ATOM      9  C   UNL     1     -13.625   8.101   8.436  1.00  0.00     0.189 C 
ATOM     10  O   UNL     1     -12.736   8.677   9.048  1.00  0.00    -0.294 OA
BRANCH   9  11
ATOM     11  C   UNL     1     -13.691   8.221   6.933  1.00  0.00     0.234 C 
BRANCH  11  12
ATOM     12  O   UNL     1     -13.771   6.960   6.325  1.00  0.00    -0.388 OA
ATOM     13  H   UNL     1     -12.939   6.475   6.567  1.00  0.00     0.211 HD
ENDBRANCH  11  12
ENDBRANCH   9  11
ENDBRANCH   8   9
BRANCH   8  14
ATOM     14  O   UNL     1     -15.778   6.985   8.446  1.00  0.00    -0.382 OA
ATOM     15  H   UNL     1     -15.760   7.551   7.632  1.00  0.00     0.211 HD
ENDBRANCH   8  14
ENDBRANCH   1   8
BRANCH   1  16
ATOM     16  O   UNL     1     -15.223   9.363  10.382  1.00  0.00    -0.387 OA
ATOM     17  H   UNL     1     -14.422   9.747   9.942  1.00  0.00     0.211 HD
ENDBRANCH   1  16
TORSDOF 10
ENDMDL
MODEL 5
REMARK VINA RESULT:    -4.705      1.369      2.962
REMARK INTER + INTRA:          -7.638
REMARK INTER:                  -6.773
REMARK INTRA:                  -0.865
REMARK UNBOUND:                -0.870
REMARK SMILES O=C(CO)[C@H](O)[C@@H](O)[C@@H](O)CO
REMARK SMILES IDX 7 1 9 2 11 3 12 4 10 6 5 8 2 9 1 10 3 11 4 12 6 14 8 16
REMARK H PARENT 12 5 10 7 4 13 6 15 8 17
REMARK Flexibility Score: inf
ROOT
ATOM      1  C   UNL     1     -14.484   7.891   8.582  1.00  0.00     0.181 C 
ENDROOT
BRANCH   1   2
ATOM      2  C   UNL     1     -15.108   7.783  10.001  1.00  0.00     0.171 C 
BRANCH   2   3
ATOM      3  C   UNL     1     -16.445   7.018   9.991  1.00  0.00     0.190 C 
BRANCH   3   4
ATOM      4  O   UNL     1     -16.764   6.606   8.690  1.00  0.00    -0.394 OA
ATOM      5  H   UNL     1     -17.205   7.379   8.248  1.00  0.00     0.210 HD
ENDBRANCH   3   4
ENDBRANCH   2   3
BRANCH   2   6
ATOM      6  O   UNL     1     -15.292   9.061  10.556  1.00  0.00    -0.388 OA
ATOM      7  H   UNL     1     -14.524   9.226  11.164  1.00  0.00     0.211 HD
ENDBRANCH   2   6
ENDBRANCH   1   2
BRANCH   1   8
ATOM      8  C   UNL     1     -13.452   9.045   8.412  1.00  0.00     0.214 C 
BRANCH   8   9
ATOM      9  C   UNL     1     -13.058   9.221   6.956  1.00  0.00     0.189 C 
ATOM     10  O   UNL     1     -13.546   8.474   6.119  1.00  0.00    -0.294 OA
BRANCH   9  11
ATOM     11  C   UNL     1     -12.079  10.285   6.521  1.00  0.00     0.234 C 
BRANCH  11  12
ATOM     12  O   UNL     1     -11.608  11.022   7.618  1.00  0.00    -0.388 OA
ATOM     13  H   UNL     1     -10.617  10.969   7.590  1.00  0.00     0.211 HD
ENDBRANCH  11  12
ENDBRANCH   9  11
ENDBRANCH   8   9
BRANCH   8  14
ATOM     14  O   UNL     1     -12.328   8.884   9.244  1.00  0.00    -0.382 OA
ATOM     15  H   UNL     1     -11.567   8.588   8.682  1.00  0.00     0.211 HD
ENDBRANCH   8  14
ENDBRANCH   1   8
BRANCH   1  16
ATOM     16  O   UNL     1     -13.942   6.657   8.178  1.00  0.00    -0.387 OA
ATOM     17  H   UNL     1     -12.981   6.791   7.974  1.00  0.00     0.211 HD
ENDBRANCH   1  16
TORSDOF 10
ENDMDL
MODEL 6
REMARK VINA RESULT:    -4.529     11.502     12.725
REMARK INTER + INTRA:          -7.385
REMARK INTER:                  -6.415
REMARK INTRA:                  -0.970
REMARK UNBOUND:                -0.870
REMARK SMILES O=C(CO)[C@H](O)[C@@H](O)[C@@H](O)CO
REMARK SMILES IDX 7 1 9 2 11 3 12 4 10 6 5 8 2 9 1 10 3 11 4 12 6 14 8 16
REMARK H PARENT 12 5 10 7 4 13 6 15 8 17
REMARK Flexibility Score: inf
ROOT
ATOM      1  C   UNL     1      -7.198  -0.815   4.814  1.00  0.00     0.181 C 
ENDROOT
BRANCH   1   2
ATOM      2  C   UNL     1      -7.075  -1.016   6.350  1.00  0.00     0.171 C 
BRANCH   2   3
ATOM      3  C   UNL     1      -5.948  -0.162   6.960  1.00  0.00     0.190 C 
BRANCH   3   4
ATOM      4  O   UNL     1      -6.457   1.053   7.438  1.00  0.00    -0.394 OA
ATOM      5  H   UNL     1      -5.731   1.478   7.966  1.00  0.00     0.210 HD
ENDBRANCH   3   4
ENDBRANCH   2   3
BRANCH   2   6
ATOM      6  O   UNL     1      -6.867  -2.372   6.654  1.00  0.00    -0.388 OA
ATOM      7  H   UNL     1      -7.731  -2.730   6.987  1.00  0.00     0.211 HD
ENDBRANCH   2   6
ENDBRANCH   1   2
BRANCH   1   8
ATOM      8  C   UNL     1      -8.426  -1.516   4.162  1.00  0.00     0.214 C 
BRANCH   8   9
ATOM      9  C   UNL     1      -9.705  -0.738   4.419  1.00  0.00     0.189 C 
ATOM     10  O   UNL     1      -9.907   0.288   3.785  1.00  0.00    -0.294 OA
BRANCH   9  11
ATOM     11  C   UNL     1     -10.721  -1.195   5.437  1.00  0.00     0.234 C 
BRANCH  11  12
ATOM     12  O   UNL     1     -11.214  -2.471   5.127  1.00  0.00    -0.388 OA
ATOM     13  H   UNL     1     -12.180  -2.361   4.924  1.00  0.00     0.211 HD
ENDBRANCH  11  12
ENDBRANCH   9  11
ENDBRANCH   8   9
BRANCH   8  14
ATOM     14  O   UNL     1      -8.543  -2.863   4.555  1.00  0.00    -0.382 OA
ATOM     15  H   UNL     1      -7.645  -3.186   4.825  1.00  0.00     0.211 HD
ENDBRANCH   8  14
ENDBRANCH   1   8
BRANCH   1  16
ATOM     16  O   UNL     1      -7.153   0.552   4.482  1.00  0.00    -0.387 OA
ATOM     17  H   UNL     1      -8.078   0.858   4.300  1.00  0.00     0.211 HD
ENDBRANCH   1  16
TORSDOF 10
ENDMDL
MODEL 7
REMARK VINA RESULT:    -4.446      3.618      5.518
REMARK INTER + INTRA:          -7.265
REMARK INTER:                  -6.026
REMARK INTRA:                  -1.239
REMARK UNBOUND:                -0.870
REMARK SMILES O=C(CO)[C@H](O)[C@@H](O)[C@@H](O)CO
REMARK SMILES IDX 7 1 9 2 11 3 12 4 10 6 5 8 2 9 1 10 3 11 4 12 6 14 8 16
REMARK H PARENT 12 5 10 7 4 13 6 15 8 17
REMARK Flexibility Score: inf
ROOT
ATOM      1  C   UNL     1     -15.797   7.236   8.950  1.00  0.00     0.181 C 
ENDROOT
BRANCH   1   2
ATOM      2  C   UNL     1     -15.552   7.600  10.441  1.00  0.00     0.171 C 
BRANCH   2   3
ATOM      3  C   UNL     1     -16.756   7.242  11.332  1.00  0.00     0.190 C 
BRANCH   3   4
ATOM      4  O   UNL     1     -16.786   5.863  11.583  1.00  0.00    -0.394 OA
ATOM      5  H   UNL     1     -16.306   5.720  12.441  1.00  0.00     0.210 HD
ENDBRANCH   3   4
ENDBRANCH   2   3
BRANCH   2   6
ATOM      6  O   UNL     1     -15.250   8.966  10.571  1.00  0.00    -0.388 OA
ATOM      7  H   UNL     1     -14.352   9.104  10.169  1.00  0.00     0.211 HD
ENDBRANCH   2   6
ENDBRANCH   1   2
BRANCH   1   8
ATOM      8  C   UNL     1     -14.541   6.713   8.194  1.00  0.00     0.214 C 
BRANCH   8   9
ATOM      9  C   UNL     1     -14.597   5.207   8.008  1.00  0.00     0.189 C 
ATOM     10  O   UNL     1     -15.058   4.759   6.967  1.00  0.00    -0.294 OA
BRANCH   9  11
ATOM     11  C   UNL     1     -14.108   4.256   9.072  1.00  0.00     0.234 C 
BRANCH  11  12
ATOM     12  O   UNL     1     -15.073   4.072  10.074  1.00  0.00    -0.388 OA
ATOM     13  H   UNL     1     -15.923   4.443   9.720  1.00  0.00     0.211 HD
ENDBRANCH  11  12
ENDBRANCH   9  11
ENDBRANCH   8   9
BRANCH   8  14
ATOM     14  O   UNL     1     -13.340   7.122   8.804  1.00  0.00    -0.382 OA
ATOM     15  H   UNL     1     -12.622   7.097   8.122  1.00  0.00     0.211 HD
ENDBRANCH   8  14
ENDBRANCH   1   8
BRANCH   1  16
ATOM     16  O   UNL     1     -16.879   6.345   8.823  1.00  0.00    -0.387 OA
ATOM     17  H   UNL     1     -17.039   6.186   7.858  1.00  0.00     0.211 HD
ENDBRANCH   1  16
TORSDOF 10
ENDMDL
MODEL 8
REMARK VINA RESULT:    -4.393      2.240      5.335
REMARK INTER + INTRA:          -7.189
REMARK INTER:                  -5.940
REMARK INTRA:                  -1.249
REMARK UNBOUND:                -0.870
REMARK SMILES O=C(CO)[C@H](O)[C@@H](O)[C@@H](O)CO
REMARK SMILES IDX 7 1 9 2 11 3 12 4 10 6 5 8 2 9 1 10 3 11 4 12 6 14 8 16
REMARK H PARENT 12 5 10 7 4 13 6 15 8 17
REMARK Flexibility Score: inf
ROOT
ATOM      1  C   UNL     1     -15.409   8.179   9.503  1.00  0.00     0.181 C 
ENDROOT
BRANCH   1   2
ATOM      2  C   UNL     1     -14.181   7.746   8.654  1.00  0.00     0.171 C 
BRANCH   2   3
ATOM      3  C   UNL     1     -13.323   8.948   8.217  1.00  0.00     0.190 C 
BRANCH   3   4
ATOM      4  O   UNL     1     -12.302   9.185   9.148  1.00  0.00    -0.394 OA
ATOM      5  H   UNL     1     -11.446   9.154   8.645  1.00  0.00     0.210 HD
ENDBRANCH   3   4
ENDBRANCH   2   3
BRANCH   2   6
ATOM      6  O   UNL     1     -14.595   7.018   7.526  1.00  0.00    -0.388 OA
ATOM      7  H   UNL     1     -14.012   7.295   6.771  1.00  0.00     0.211 HD
ENDBRANCH   2   6
ENDBRANCH   1   2
BRANCH   1   8
ATOM      8  C   UNL     1     -16.185   7.006  10.170  1.00  0.00     0.214 C 
BRANCH   8   9
ATOM      9  C   UNL     1     -15.251   6.107  10.962  1.00  0.00     0.189 C 
ATOM     10  O   UNL     1     -14.636   6.584  11.905  1.00  0.00    -0.294 OA
BRANCH   9  11
ATOM     11  C   UNL     1     -15.062   4.651  10.611  1.00  0.00     0.234 C 
BRANCH  11  12
ATOM     12  O   UNL     1     -14.916   4.477   9.227  1.00  0.00    -0.388 OA
ATOM     13  H   UNL     1     -15.184   5.333   8.803  1.00  0.00     0.211 HD
ENDBRANCH  11  12
ENDBRANCH   9  11
ENDBRANCH   8   9
BRANCH   8  14
ATOM     14  O   UNL     1     -16.952   6.277   9.241  1.00  0.00    -0.382 OA
ATOM     15  H   UNL     1     -17.781   6.788   9.055  1.00  0.00     0.211 HD
ENDBRANCH   8  14
ENDBRANCH   1   8
BRANCH   1  16
ATOM     16  O   UNL     1     -15.044   9.155  10.449  1.00  0.00    -0.387 OA
ATOM     17  H   UNL     1     -15.114   8.753  11.353  1.00  0.00     0.211 HD
ENDBRANCH   1  16
TORSDOF 10
ENDMDL
MODEL 9
REMARK VINA RESULT:    -4.343     11.981     12.972
REMARK INTER + INTRA:          -7.117
REMARK INTER:                  -5.654
REMARK INTRA:                  -1.462
REMARK UNBOUND:                -0.870
REMARK SMILES O=C(CO)[C@H](O)[C@@H](O)[C@@H](O)CO
REMARK SMILES IDX 7 1 9 2 11 3 12 4 10 6 5 8 2 9 1 10 3 11 4 12 6 14 8 16
REMARK H PARENT 12 5 10 7 4 13 6 15 8 17
REMARK Flexibility Score: inf
ROOT
ATOM      1  C   UNL     1      -4.128  -0.076   5.247  1.00  0.00     0.181 C 
ENDROOT
BRANCH   1   2
ATOM      2  C   UNL     1      -4.647  -1.538   5.341  1.00  0.00     0.171 C 
BRANCH   2   3
ATOM      3  C   UNL     1      -4.922  -1.966   6.795  1.00  0.00     0.190 C 
BRANCH   3   4
ATOM      4  O   UNL     1      -5.962  -1.201   7.342  1.00  0.00    -0.394 OA
ATOM      5  H   UNL     1      -5.957  -1.373   8.320  1.00  0.00     0.210 HD
ENDBRANCH   3   4
ENDBRANCH   2   3
BRANCH   2   6
ATOM      6  O   UNL     1      -3.731  -2.423   4.747  1.00  0.00    -0.388 OA
ATOM      7  H   UNL     1      -3.892  -3.319   5.147  1.00  0.00     0.211 HD
ENDBRANCH   2   6
ENDBRANCH   1   2
BRANCH   1   8
ATOM      8  C   UNL     1      -5.202   0.969   4.824  1.00  0.00     0.214 C 
BRANCH   8   9
ATOM      9  C   UNL     1      -5.070   2.251   5.627  1.00  0.00     0.189 C 
ATOM     10  O   UNL     1      -4.162   3.024   5.356  1.00  0.00    -0.294 OA
BRANCH   9  11
ATOM     11  C   UNL     1      -6.022   2.587   6.749  1.00  0.00     0.234 C 
BRANCH  11  12
ATOM     12  O   UNL     1      -6.034   1.581   7.726  1.00  0.00    -0.388 OA
ATOM     13  H   UNL     1      -6.820   1.757   8.305  1.00  0.00     0.211 HD
ENDBRANCH  11  12
ENDBRANCH   9  11
ENDBRANCH   8   9
BRANCH   8  14
ATOM     14  O   UNL     1      -6.508   0.446   4.881  1.00  0.00    -0.382 OA
ATOM     15  H   UNL     1      -6.486  -0.384   5.423  1.00  0.00     0.211 HD
ENDBRANCH   8  14
ENDBRANCH   1   8
BRANCH   1  16
ATOM     16  O   UNL     1      -3.486   0.305   6.440  1.00  0.00    -0.387 OA
ATOM     17  H   UNL     1      -3.051  -0.497   6.829  1.00  0.00     0.211 HD
ENDBRANCH   1  16
TORSDOF 10
ENDMDL
