MODEL 1
REMARK VINA RESULT:     8.676      0.000      0.000
REMARK INTER + INTRA:           9.179
REMARK INTER:                   9.690
REMARK INTRA:                  -0.511
REMARK UNBOUND:                -0.511
REMARK SMILES CC1(C)CC[C@@]2(C(=O)[O-])[C@H](O)C[C@@]3(C)C(=CC[C@H]4[C@@]5(C)CC[C@H](O)C(C)(C)[C@@H]5CC[C@]43C)[C@H]2C1
REMARK SMILES IDX 6 1 5 2 33 3 10 4 4 5 34 6 15 7 12 8 2 9 16 10 13 11 1 12
REMARK SMILES IDX 3 13 17 14 31 15 14 16 18 17 30 18 32 19 19 20 29 21 21 22
REMARK SMILES IDX 20 23 28 24 22 25 25 26 23 27 26 28 27 29 7 30 8 31 9 32
REMARK SMILES IDX 11 33 24 35
REMARK H PARENT 11 34 24 36
REMARK Flexibility Score: inf
ROOT
ATOM      1  C   UNL     1     100.508 117.663 123.507  1.00  0.00     0.042 C 
ATOM      2  C   UNL     1     100.180 118.937 124.366  1.00  0.00     0.017 C 
ATOM      3  C   UNL     1      99.248 117.226 122.665  1.00  0.00     0.030 C 
ATOM      4  C   UNL     1     100.891 116.510 124.478  1.00  0.00     0.127 C 
ATOM      5  C   UNL     1      99.153 119.848 123.685  1.00  0.00     0.007 C 
ATOM      6  C   UNL     1      97.933 117.599 123.397  1.00  0.00     0.015 C 
ATOM      7  C   UNL     1      99.214 115.754 122.233  1.00  0.00    -0.063 C 
ATOM      8  C   UNL     1     101.242 115.217 123.722  1.00  0.00     0.044 C 
ATOM      9  C   UNL     1      97.768 119.145 123.544  1.00  0.00    -0.035 C 
ATOM     10  C   UNL     1      98.338 115.420 121.269  1.00  0.00    -0.027 C 
ATOM     11  C   UNL     1     100.047 114.635 122.869  1.00  0.00    -0.003 C 
ATOM     12  C   UNL     1      97.038 119.715 122.307  1.00  0.00     0.011 C 
ATOM     13  C   UNL     1      96.904 119.440 124.789  1.00  0.00     0.011 C 
ATOM     14  C   UNL     1      98.030 113.995 120.927  1.00  0.00     0.032 C 
ATOM     15  C   UNL     1     100.538 113.647 121.683  1.00  0.00    -0.020 C 
ATOM     16  C   UNL     1      99.132 113.883 123.895  1.00  0.00     0.017 C 
ATOM     17  C   UNL     1      99.292 113.052 120.850  1.00  0.00     0.006 C 
ATOM     18  C   UNL     1     101.539 114.376 120.690  1.00  0.00     0.008 C 
ATOM     19  C   UNL     1     101.319 112.476 122.369  1.00  0.00     0.012 C 
ATOM     20  C   UNL     1      99.643 112.619 119.353  1.00  0.00    -0.025 C 
ATOM     21  C   UNL     1     101.022 114.837 119.308  1.00  0.00     0.005 C 
ATOM     22  C   UNL     1      98.431 111.904 118.655  1.00  0.00     0.010 C 
ATOM     23  C   UNL     1     100.797 111.569 119.358  1.00  0.00     0.012 C 
ATOM     24  C   UNL     1      99.996 113.923 118.571  1.00  0.00     0.003 C 
ATOM     25  C   UNL     1      98.614 111.720 117.135  1.00  0.00     0.033 C 
ATOM     26  C   UNL     1     100.200 113.774 117.013  1.00  0.00    -0.006 C 
ATOM     27  C   UNL     1      98.954 113.036 116.413  1.00  0.00     0.120 C 
ATOM     28  C   UNL     1     101.517 113.041 116.629  1.00  0.00     0.014 C 
ATOM     29  C   UNL     1     100.254 115.193 116.376  1.00  0.00     0.014 C 
ENDROOT
BRANCH   1  30
ATOM     30  C   UNL     1     101.679 117.998 122.575  1.00  0.00     0.051 C 
ATOM     31  O   UNL     1     101.585 117.797 121.336  1.00  0.00    -0.549 OA
ATOM     32  O   UNL     1     102.871 118.518 123.069  1.00  0.00    -0.549 OA
ENDBRANCH   1  30
BRANCH   4  33
ATOM     33  O   UNL     1     101.928 116.891 125.355  1.00  0.00    -0.392 OA
ATOM     34  H   UNL     1     101.546 117.054 126.253  1.00  0.00     0.210 HD
ENDBRANCH   4  33
BRANCH  27  35
ATOM     35  O   UNL     1      99.149 112.751 115.049  1.00  0.00    -0.393 OA
ATOM     36  H   UNL     1      98.253 112.623 114.640  1.00  0.00     0.210 HD
ENDBRANCH  27  35
TORSDOF 3
ENDMDL
