MODEL 1
REMARK VINA RESULT:    -5.328      0.000      0.000
REMARK INTER + INTRA:          -5.862
REMARK INTER:                  -5.951
REMARK INTRA:                   0.089
REMARK UNBOUND:                 0.089
REMARK SMILES COc1cc2ccc(=O)oc2c(O)c1O
REMARK SMILES IDX 3 1 14 2 12 3 11 4 5 5 4 6 6 7 7 8 8 9 9 10 10 11 2 12 1 13
REMARK SMILES IDX 15 14 13 16
REMARK H PARENT 15 15 13 17
REMARK Flexibility Score: inf
ROOT
ATOM      1  C   UNL     1       8.465  -6.027  -6.832  1.00  0.00     0.165 A 
ATOM      2  C   UNL     1       9.824  -5.742  -7.071  1.00  0.00     0.204 A 
ATOM      3  C   UNL     1      10.461  -6.240  -8.223  1.00  0.00     0.205 A 
ATOM      4  C   UNL     1       9.744  -7.020  -9.137  1.00  0.00     0.184 A 
ATOM      5  C   UNL     1       8.384  -7.309  -8.902  1.00  0.00     0.025 A 
ATOM      6  C   UNL     1       7.749  -6.815  -7.756  1.00  0.00     0.062 A 
ATOM      7  C   UNL     1       7.696  -8.092  -9.835  1.00  0.00     0.020 A 
ATOM      8  C   UNL     1       8.369  -8.563 -10.963  1.00  0.00     0.094 A 
ATOM      9  C   UNL     1       9.718  -8.238 -11.131  1.00  0.00     0.336 A 
ATOM     10  O   UNL     1      10.344  -8.653 -12.141  1.00  0.00    -0.246 OA
ATOM     11  O   UNL     1      10.348  -7.490 -10.227  1.00  0.00    -0.419 OA
ENDROOT
BRANCH   1  12
ATOM     12  O   UNL     1       7.861  -5.516  -5.672  1.00  0.00    -0.493 OA
ATOM     13  C   UNL     1       8.132  -5.971  -4.350  1.00  0.00     0.278 C 
ENDBRANCH   1  12
BRANCH   2  14
ATOM     14  O   UNL     1      10.553  -4.965  -6.170  1.00  0.00    -0.502 OA
ATOM     15  H   UNL     1      10.266  -4.030  -5.903  1.00  0.00     0.293 HD
ENDBRANCH   2  14
BRANCH   3  16
ATOM     16  O   UNL     1      11.806  -5.965  -8.472  1.00  0.00    -0.502 OA
ATOM     17  H   UNL     1      12.434  -6.654  -8.870  1.00  0.00     0.293 HD
ENDBRANCH   3  16
TORSDOF 3
ENDMDL
MODEL 2
REMARK VINA RESULT:    -5.262      1.441      4.836
REMARK INTER + INTRA:          -5.788
REMARK INTER:                  -5.721
REMARK INTRA:                  -0.067
REMARK UNBOUND:                 0.089
REMARK SMILES COc1cc2ccc(=O)oc2c(O)c1O
REMARK SMILES IDX 3 1 14 2 12 3 11 4 5 5 4 6 6 7 7 8 8 9 9 10 10 11 2 12 1 13
REMARK SMILES IDX 15 14 13 16
REMARK H PARENT 15 15 13 17
REMARK Flexibility Score: inf
ROOT
ATOM      1  C   UNL     1       9.331  -6.897 -11.224  1.00  0.00     0.165 A 
ATOM      2  C   UNL     1      10.643  -6.606 -10.797  1.00  0.00     0.204 A 
ATOM      3  C   UNL     1      10.882  -6.197  -9.473  1.00  0.00     0.205 A 
ATOM      4  C   UNL     1       9.817  -6.077  -8.574  1.00  0.00     0.184 A 
ATOM      5  C   UNL     1       8.502  -6.366  -8.996  1.00  0.00     0.025 A 
ATOM      6  C   UNL     1       8.263  -6.773 -10.314  1.00  0.00     0.062 A 
ATOM      7  C   UNL     1       7.460  -6.235  -8.073  1.00  0.00     0.020 A 
ATOM      8  C   UNL     1       7.746  -5.826  -6.770  1.00  0.00     0.094 A 
ATOM      9  C   UNL     1       9.072  -5.557  -6.421  1.00  0.00     0.336 A 
ATOM     10  O   UNL     1       9.352  -5.186  -5.251  1.00  0.00    -0.246 OA
ATOM     11  O   UNL     1      10.046  -5.689  -7.320  1.00  0.00    -0.419 OA
ENDROOT
BRANCH   1  12
ATOM     12  O   UNL     1       9.127  -7.302 -12.554  1.00  0.00    -0.493 OA
ATOM     13  C   UNL     1       9.040  -8.657 -12.982  1.00  0.00     0.278 C 
ENDBRANCH   1  12
BRANCH   2  14
ATOM     14  O   UNL     1      11.717  -6.722 -11.681  1.00  0.00    -0.502 OA
ATOM     15  H   UNL     1      12.681  -6.695 -11.371  1.00  0.00     0.293 HD
ENDBRANCH   2  14
BRANCH   3  16
ATOM     16  O   UNL     1      12.176  -5.907  -9.036  1.00  0.00    -0.502 OA
ATOM     17  H   UNL     1      12.936  -5.727  -9.682  1.00  0.00     0.293 HD
ENDBRANCH   3  16
TORSDOF 3
ENDMDL
MODEL 3
REMARK VINA RESULT:    -5.112      2.190      2.413
REMARK INTER + INTRA:          -5.620
REMARK INTER:                  -5.568
REMARK INTRA:                  -0.052
REMARK UNBOUND:                 0.089
REMARK SMILES COc1cc2ccc(=O)oc2c(O)c1O
REMARK SMILES IDX 3 1 14 2 12 3 11 4 5 5 4 6 6 7 7 8 8 9 9 10 10 11 2 12 1 13
REMARK SMILES IDX 15 14 13 16
REMARK H PARENT 15 15 13 17
REMARK Flexibility Score: inf
ROOT
ATOM      1  C   UNL     1       7.823  -7.312  -6.484  1.00  0.00     0.165 A 
ATOM      2  C   UNL     1       7.696  -5.946  -6.806  1.00  0.00     0.204 A 
ATOM      3  C   UNL     1       7.763  -5.526  -8.147  1.00  0.00     0.205 A 
ATOM      4  C   UNL     1       7.956  -6.465  -9.166  1.00  0.00     0.184 A 
ATOM      5  C   UNL     1       8.085  -7.833  -8.849  1.00  0.00     0.025 A 
ATOM      6  C   UNL     1       8.019  -8.252  -7.515  1.00  0.00     0.062 A 
ATOM      7  C   UNL     1       8.277  -8.745  -9.891  1.00  0.00     0.020 A 
ATOM      8  C   UNL     1       8.337  -8.282 -11.206  1.00  0.00     0.094 A 
ATOM      9  C   UNL     1       8.201  -6.912 -11.447  1.00  0.00     0.336 A 
ATOM     10  O   UNL     1       8.252  -6.473 -12.625  1.00  0.00    -0.246 OA
ATOM     11  O   UNL     1       8.019  -6.065 -10.435  1.00  0.00    -0.419 OA
ENDROOT
BRANCH   1  12
ATOM     12  O   UNL     1       7.753  -7.698  -5.135  1.00  0.00    -0.493 OA
ATOM     13  C   UNL     1       7.156  -8.903  -4.668  1.00  0.00     0.278 C 
ENDBRANCH   1  12
BRANCH   2  14
ATOM     14  O   UNL     1       7.502  -4.997  -5.802  1.00  0.00    -0.502 OA
ATOM     15  H   UNL     1       8.227  -4.347  -5.522  1.00  0.00     0.293 HD
ENDBRANCH   2  14
BRANCH   3  16
ATOM     16  O   UNL     1       7.637  -4.177  -8.481  1.00  0.00    -0.502 OA
ATOM     17  H   UNL     1       7.260  -3.493  -7.835  1.00  0.00     0.293 HD
ENDBRANCH   3  16
TORSDOF 3
ENDMDL
MODEL 4
REMARK VINA RESULT:    -5.093      3.099      4.561
REMARK INTER + INTRA:          -5.600
REMARK INTER:                  -5.550
REMARK INTRA:                  -0.050
REMARK UNBOUND:                 0.089
REMARK SMILES COc1cc2ccc(=O)oc2c(O)c1O
REMARK SMILES IDX 3 1 14 2 12 3 11 4 5 5 4 6 6 7 7 8 8 9 9 10 10 11 2 12 1 13
REMARK SMILES IDX 15 14 13 16
REMARK H PARENT 15 15 13 17
REMARK Flexibility Score: inf
ROOT
ATOM      1  C   UNL     1       7.601  -4.338 -10.881  1.00  0.00     0.165 A 
ATOM      2  C   UNL     1       7.154  -4.290  -9.546  1.00  0.00     0.204 A 
ATOM      3  C   UNL     1       7.822  -5.024  -8.549  1.00  0.00     0.205 A 
ATOM      4  C   UNL     1       8.934  -5.805  -8.881  1.00  0.00     0.184 A 
ATOM      5  C   UNL     1       9.385  -5.857 -10.216  1.00  0.00     0.025 A 
ATOM      6  C   UNL     1       8.722  -5.128 -11.209  1.00  0.00     0.062 A 
ATOM      7  C   UNL     1      10.500  -6.648 -10.514  1.00  0.00     0.020 A 
ATOM      8  C   UNL     1      11.129  -7.358  -9.492  1.00  0.00     0.094 A 
ATOM      9  C   UNL     1      10.628  -7.259  -8.191  1.00  0.00     0.336 A 
ATOM     10  O   UNL     1      11.182  -7.892  -7.254  1.00  0.00    -0.246 OA
ATOM     11  O   UNL     1       9.566  -6.499  -7.935  1.00  0.00    -0.419 OA
ENDROOT
BRANCH   1  12
ATOM     12  O   UNL     1       6.911  -3.594 -11.853  1.00  0.00    -0.493 OA
ATOM     13  C   UNL     1       7.437  -3.243 -13.128  1.00  0.00     0.278 C 
ENDBRANCH   1  12
BRANCH   2  14
ATOM     14  O   UNL     1       6.047  -3.515  -9.197  1.00  0.00    -0.502 OA
ATOM     15  H   UNL     1       5.980  -3.033  -8.308  1.00  0.00     0.293 HD
ENDBRANCH   2  14
BRANCH   3  16
ATOM     16  O   UNL     1       7.391  -4.984  -7.221  1.00  0.00    -0.502 OA
ATOM     17  H   UNL     1       6.976  -4.155  -6.813  1.00  0.00     0.293 HD
ENDBRANCH   3  16
TORSDOF 3
ENDMDL
MODEL 5
REMARK VINA RESULT:    -4.923     10.725     12.841
REMARK INTER + INTRA:          -5.410
REMARK INTER:                  -5.342
REMARK INTRA:                  -0.068
REMARK UNBOUND:                 0.089
REMARK SMILES COc1cc2ccc(=O)oc2c(O)c1O
REMARK SMILES IDX 3 1 14 2 12 3 11 4 5 5 4 6 6 7 7 8 8 9 9 10 10 11 2 12 1 13
REMARK SMILES IDX 15 14 13 16
REMARK H PARENT 15 15 13 17
REMARK Flexibility Score: inf
ROOT
ATOM      1  C   UNL     1      19.164  -2.280  -8.267  1.00  0.00     0.165 A 
ATOM      2  C   UNL     1      18.770  -2.718  -6.986  1.00  0.00     0.204 A 
ATOM      3  C   UNL     1      19.735  -3.131  -6.051  1.00  0.00     0.205 A 
ATOM      4  C   UNL     1      21.093  -3.108  -6.389  1.00  0.00     0.184 A 
ATOM      5  C   UNL     1      21.493  -2.672  -7.669  1.00  0.00     0.025 A 
ATOM      6  C   UNL     1      20.533  -2.261  -8.601  1.00  0.00     0.062 A 
ATOM      7  C   UNL     1      22.857  -2.662  -7.975  1.00  0.00     0.020 A 
ATOM      8  C   UNL     1      23.778  -3.080  -7.015  1.00  0.00     0.094 A 
ATOM      9  C   UNL     1      23.311  -3.500  -5.767  1.00  0.00     0.336 A 
ATOM     10  O   UNL     1      24.125  -3.881  -4.886  1.00  0.00    -0.246 OA
ATOM     11  O   UNL     1      22.006  -3.499  -5.501  1.00  0.00    -0.419 OA
ENDROOT
BRANCH   1  12
ATOM     12  O   UNL     1      18.174  -1.876  -9.177  1.00  0.00    -0.493 OA
ATOM     13  C   UNL     1      17.770  -2.625 -10.319  1.00  0.00     0.278 C 
ENDBRANCH   1  12
BRANCH   2  14
ATOM     14  O   UNL     1      17.420  -2.746  -6.632  1.00  0.00    -0.502 OA
ATOM     15  H   UNL     1      17.105  -3.036  -5.714  1.00  0.00     0.293 HD
ENDBRANCH   2  14
BRANCH   3  16
ATOM     16  O   UNL     1      19.359  -3.565  -4.778  1.00  0.00    -0.502 OA
ATOM     17  H   UNL     1      18.389  -3.693  -4.516  1.00  0.00     0.293 HD
ENDBRANCH   3  16
TORSDOF 3
ENDMDL
MODEL 6
REMARK VINA RESULT:    -4.888      2.733      5.161
REMARK INTER + INTRA:          -5.370
REMARK INTER:                  -5.315
REMARK INTRA:                  -0.055
REMARK UNBOUND:                 0.089
REMARK SMILES COc1cc2ccc(=O)oc2c(O)c1O
REMARK SMILES IDX 3 1 14 2 12 3 11 4 5 5 4 6 6 7 7 8 8 9 9 10 10 11 2 12 1 13
REMARK SMILES IDX 15 14 13 16
REMARK H PARENT 15 15 13 17
REMARK Flexibility Score: inf
ROOT
ATOM      1  C   UNL     1       8.046  -5.443 -11.485  1.00  0.00     0.165 A 
ATOM      2  C   UNL     1       8.021  -6.832 -11.724  1.00  0.00     0.204 A 
ATOM      3  C   UNL     1       7.983  -7.736 -10.647  1.00  0.00     0.205 A 
ATOM      4  C   UNL     1       7.969  -7.258  -9.332  1.00  0.00     0.184 A 
ATOM      5  C   UNL     1       7.995  -5.869  -9.087  1.00  0.00     0.025 A 
ATOM      6  C   UNL     1       8.033  -4.969 -10.158  1.00  0.00     0.062 A 
ATOM      7  C   UNL     1       7.982  -5.424  -7.761  1.00  0.00     0.020 A 
ATOM      8  C   UNL     1       7.943  -6.358  -6.725  1.00  0.00     0.094 A 
ATOM      9  C   UNL     1       7.919  -7.719  -7.042  1.00  0.00     0.336 A 
ATOM     10  O   UNL     1       7.885  -8.578  -6.123  1.00  0.00    -0.246 OA
ATOM     11  O   UNL     1       7.933  -8.115  -8.313  1.00  0.00    -0.419 OA
ENDROOT
BRANCH   1  12
ATOM     12  O   UNL     1       8.085  -4.569 -12.583  1.00  0.00    -0.493 OA
ATOM     13  C   UNL     1       7.298  -3.388 -12.706  1.00  0.00     0.278 C 
ENDBRANCH   1  12
BRANCH   2  14
ATOM     14  O   UNL     1       8.033  -7.325 -13.030  1.00  0.00    -0.502 OA
ATOM     15  H   UNL     1       8.823  -7.834 -13.411  1.00  0.00     0.293 HD
ENDBRANCH   2  14
BRANCH   3  16
ATOM     16  O   UNL     1       7.956  -9.114 -10.869  1.00  0.00    -0.502 OA
ATOM     17  H   UNL     1       8.119  -9.784 -10.127  1.00  0.00     0.293 HD
ENDBRANCH   3  16
TORSDOF 3
ENDMDL
MODEL 7
REMARK VINA RESULT:    -4.845     10.336     12.029
REMARK INTER + INTRA:          -5.322
REMARK INTER:                  -5.255
REMARK INTRA:                  -0.067
REMARK UNBOUND:                 0.089
REMARK SMILES COc1cc2ccc(=O)oc2c(O)c1O
REMARK SMILES IDX 3 1 14 2 12 3 11 4 5 5 4 6 6 7 7 8 8 9 9 10 10 11 2 12 1 13
REMARK SMILES IDX 15 14 13 16
REMARK H PARENT 15 15 13 17
REMARK Flexibility Score: inf
ROOT
ATOM      1  C   UNL     1      12.625   3.720  -4.464  1.00  0.00     0.165 A 
ATOM      2  C   UNL     1      12.106   2.876  -5.467  1.00  0.00     0.204 A 
ATOM      3  C   UNL     1      12.743   2.788  -6.718  1.00  0.00     0.205 A 
ATOM      4  C   UNL     1      13.897   3.539  -6.970  1.00  0.00     0.184 A 
ATOM      5  C   UNL     1      14.420   4.385  -5.970  1.00  0.00     0.025 A 
ATOM      6  C   UNL     1      13.787   4.474  -4.725  1.00  0.00     0.062 A 
ATOM      7  C   UNL     1      15.574   5.123  -6.256  1.00  0.00     0.020 A 
ATOM      8  C   UNL     1      16.171   5.003  -7.510  1.00  0.00     0.094 A 
ATOM      9  C   UNL     1      15.598   4.145  -8.453  1.00  0.00     0.336 A 
ATOM     10  O   UNL     1      16.121   4.022  -9.592  1.00  0.00    -0.246 OA
ATOM     11  O   UNL     1      14.499   3.454  -8.155  1.00  0.00    -0.419 OA
ENDROOT
BRANCH   1  12
ATOM     12  O   UNL     1      11.964   3.785  -3.226  1.00  0.00    -0.493 OA
ATOM     13  C   UNL     1      11.000   4.772  -2.875  1.00  0.00     0.278 C 
ENDBRANCH   1  12
BRANCH   2  14
ATOM     14  O   UNL     1      10.957   2.120  -5.231  1.00  0.00    -0.502 OA
ATOM     15  H   UNL     1      10.210   2.041  -5.911  1.00  0.00     0.293 HD
ENDBRANCH   2  14
BRANCH   3  16
ATOM     16  O   UNL     1      12.241   1.956  -7.720  1.00  0.00    -0.502 OA
ATOM     17  H   UNL     1      12.834   1.321  -8.241  1.00  0.00     0.293 HD
ENDBRANCH   3  16
TORSDOF 3
ENDMDL
MODEL 8
REMARK VINA RESULT:    -4.803      1.731      2.358
REMARK INTER + INTRA:          -5.275
REMARK INTER:                  -5.215
REMARK INTRA:                  -0.060
REMARK UNBOUND:                 0.089
REMARK SMILES COc1cc2ccc(=O)oc2c(O)c1O
REMARK SMILES IDX 3 1 14 2 12 3 11 4 5 5 4 6 6 7 7 8 8 9 9 10 10 11 2 12 1 13
REMARK SMILES IDX 15 14 13 16
REMARK H PARENT 15 15 13 17
REMARK Flexibility Score: inf
ROOT
ATOM      1  C   UNL     1       8.205  -6.006  -7.450  1.00  0.00     0.165 A 
ATOM      2  C   UNL     1       7.827  -5.279  -8.596  1.00  0.00     0.204 A 
ATOM      3  C   UNL     1       8.387  -5.589  -9.848  1.00  0.00     0.205 A 
ATOM      4  C   UNL     1       9.324  -6.623  -9.959  1.00  0.00     0.184 A 
ATOM      5  C   UNL     1       9.706  -7.353  -8.815  1.00  0.00     0.025 A 
ATOM      6  C   UNL     1       9.149  -7.045  -7.569  1.00  0.00     0.062 A 
ATOM      7  C   UNL     1      10.645  -8.380  -8.961  1.00  0.00     0.020 A 
ATOM      8  C   UNL     1      11.173  -8.651 -10.223  1.00  0.00     0.094 A 
ATOM      9  C   UNL     1      10.748  -7.886 -11.313  1.00  0.00     0.336 A 
ATOM     10  O   UNL     1      11.213  -8.115 -12.461  1.00  0.00    -0.246 OA
ATOM     11  O   UNL     1       9.853  -6.915 -11.146  1.00  0.00    -0.419 OA
ENDROOT
BRANCH   1  12
ATOM     12  O   UNL     1       7.627  -5.670  -6.214  1.00  0.00    -0.493 OA
ATOM     13  C   UNL     1       8.361  -5.333  -5.042  1.00  0.00     0.278 C 
ENDBRANCH   1  12
BRANCH   2  14
ATOM     14  O   UNL     1       6.893  -4.246  -8.502  1.00  0.00    -0.502 OA
ATOM     15  H   UNL     1       6.074  -4.306  -7.909  1.00  0.00     0.293 HD
ENDBRANCH   2  14
BRANCH   3  16
ATOM     16  O   UNL     1       8.021  -4.878 -10.992  1.00  0.00    -0.502 OA
ATOM     17  H   UNL     1       7.167  -4.333 -11.040  1.00  0.00     0.293 HD
ENDBRANCH   3  16
TORSDOF 3
ENDMDL
MODEL 9
REMARK VINA RESULT:    -4.757      8.944     11.129
REMARK INTER + INTRA:          -5.224
REMARK INTER:                  -5.157
REMARK INTRA:                  -0.066
REMARK UNBOUND:                 0.089
REMARK SMILES COc1cc2ccc(=O)oc2c(O)c1O
REMARK SMILES IDX 3 1 14 2 12 3 11 4 5 5 4 6 6 7 7 8 8 9 9 10 10 11 2 12 1 13
REMARK SMILES IDX 15 14 13 16
REMARK H PARENT 15 15 13 17
REMARK Flexibility Score: inf
ROOT
ATOM      1  C   UNL     1      16.653  -0.626  -9.424  1.00  0.00     0.165 A 
ATOM      2  C   UNL     1      16.525  -2.023  -9.295  1.00  0.00     0.204 A 
ATOM      3  C   UNL     1      17.456  -2.753  -8.533  1.00  0.00     0.205 A 
ATOM      4  C   UNL     1      18.514  -2.091  -7.901  1.00  0.00     0.184 A 
ATOM      5  C   UNL     1      18.648  -0.693  -8.028  1.00  0.00     0.025 A 
ATOM      6  C   UNL     1      17.723   0.034  -8.785  1.00  0.00     0.062 A 
ATOM      7  C   UNL     1      19.718  -0.064  -7.384  1.00  0.00     0.020 A 
ATOM      8  C   UNL     1      20.616  -0.828  -6.639  1.00  0.00     0.094 A 
ATOM      9  C   UNL     1      20.422  -2.210  -6.557  1.00  0.00     0.336 A 
ATOM     10  O   UNL     1      21.221  -2.919  -5.890  1.00  0.00    -0.246 OA
ATOM     11  O   UNL     1      19.395  -2.784  -7.180  1.00  0.00    -0.419 OA
ENDROOT
BRANCH   1  12
ATOM     12  O   UNL     1      15.707   0.072 -10.192  1.00  0.00    -0.493 OA
ATOM     13  C   UNL     1      14.759   0.994  -9.666  1.00  0.00     0.278 C 
ENDBRANCH   1  12
BRANCH   2  14
ATOM     14  O   UNL     1      15.474  -2.698  -9.918  1.00  0.00    -0.502 OA
ATOM     15  H   UNL     1      15.390  -2.758 -10.926  1.00  0.00     0.293 HD
ENDBRANCH   2  14
BRANCH   3  16
ATOM     16  O   UNL     1      17.340  -4.137  -8.395  1.00  0.00    -0.502 OA
ATOM     17  H   UNL     1      16.817  -4.563  -7.639  1.00  0.00     0.293 HD
ENDBRANCH   3  16
TORSDOF 3
ENDMDL
