MODEL 1
REMARK VINA RESULT:    -5.341      0.000      0.000
REMARK INTER + INTRA:          -5.497
REMARK INTER:                  -5.497
REMARK INTRA:                   0.000
REMARK UNBOUND:                 0.000
REMARK SMILES Nc1ncnc2nc[nH]c12
REMARK SMILES IDX 8 1 7 2 6 3 5 4 4 5 3 6 2 7 10 8 9 9 1 11
REMARK H PARENT 9 10 1 12 1 13
REMARK Flexibility Score: inf
ROOT
ATOM      1  C   UNL     1      70.158  24.913  57.478  1.00  0.00     0.199 A 
ATOM      2  N   UNL     1      70.127  23.667  58.029  1.00  0.00    -0.217 NA
ATOM      3  C   UNL     1      68.819  23.368  57.981  1.00  0.00     0.182 A 
ATOM      4  N   UNL     1      68.236  22.223  58.411  1.00  0.00    -0.215 NA
ATOM      5  C   UNL     1      66.881  22.100  58.278  1.00  0.00     0.226 A 
ATOM      6  N   UNL     1      66.140  23.112  57.723  1.00  0.00    -0.217 NA
ATOM      7  C   UNL     1      66.727  24.268  57.289  1.00  0.00     0.152 A 
ATOM      8  C   UNL     1      68.107  24.378  57.432  1.00  0.00     0.127 A 
ATOM      9  N   UNL     1      68.939  25.375  57.103  1.00  0.00    -0.340 N 
ATOM     10  H   UNL     1      68.715  26.293  56.661  1.00  0.00     0.168 HD
ENDROOT
BRANCH   7  11
ATOM     11  N   UNL     1      65.936  25.308  56.714  1.00  0.00    -0.382 N 
ATOM     12  H   UNL     1      64.961  25.471  57.052  1.00  0.00     0.158 HD
ATOM     13  H   UNL     1      66.310  25.920  55.954  1.00  0.00     0.158 HD
ENDBRANCH   7  11
TORSDOF 1
ENDMDL
MODEL 2
REMARK VINA RESULT:    -5.201     10.903     12.335
REMARK INTER + INTRA:          -5.354
REMARK INTER:                  -5.354
REMARK INTRA:                   0.000
REMARK UNBOUND:                 0.000
REMARK SMILES Nc1ncnc2nc[nH]c12
REMARK SMILES IDX 8 1 7 2 6 3 5 4 4 5 3 6 2 7 10 8 9 9 1 11
REMARK H PARENT 9 10 1 12 1 13
REMARK Flexibility Score: inf
ROOT
ATOM      1  C   UNL     1      76.518  31.628  59.199  1.00  0.00     0.199 A 
ATOM      2  N   UNL     1      75.267  31.358  58.733  1.00  0.00    -0.217 NA
ATOM      3  C   UNL     1      74.998  32.447  57.994  1.00  0.00     0.182 A 
ATOM      4  N   UNL     1      73.860  32.692  57.300  1.00  0.00    -0.215 NA
ATOM      5  C   UNL     1      73.770  33.863  56.602  1.00  0.00     0.226 A 
ATOM      6  N   UNL     1      74.806  34.762  56.612  1.00  0.00    -0.217 NA
ATOM      7  C   UNL     1      75.954  34.517  57.312  1.00  0.00     0.152 A 
ATOM      8  C   UNL     1      76.031  33.319  58.017  1.00  0.00     0.127 A 
ATOM      9  N   UNL     1      77.013  32.819  58.778  1.00  0.00    -0.340 N 
ATOM     10  H   UNL     1      77.943  33.237  59.002  1.00  0.00     0.168 HD
ENDROOT
BRANCH   7  11
ATOM     11  N   UNL     1      77.020  35.467  57.306  1.00  0.00    -0.382 N 
ATOM     12  H   UNL     1      77.828  35.350  57.958  1.00  0.00     0.158 HD
ATOM     13  H   UNL     1      77.015  36.287  56.660  1.00  0.00     0.158 HD
ENDBRANCH   7  11
TORSDOF 1
ENDMDL
MODEL 3
REMARK VINA RESULT:    -5.046      1.106      2.945
REMARK INTER + INTRA:          -5.194
REMARK INTER:                  -5.194
REMARK INTRA:                   0.000
REMARK UNBOUND:                 0.000
REMARK SMILES Nc1ncnc2nc[nH]c12
REMARK SMILES IDX 8 1 7 2 6 3 5 4 4 5 3 6 2 7 10 8 9 9 1 11
REMARK H PARENT 9 10 1 12 1 13
REMARK Flexibility Score: inf
ROOT
ATOM      1  C   UNL     1      66.396  25.260  56.723  1.00  0.00     0.199 A 
ATOM      2  N   UNL     1      66.129  24.011  57.195  1.00  0.00    -0.217 NA
ATOM      3  C   UNL     1      67.357  23.548  57.484  1.00  0.00     0.182 A 
ATOM      4  N   UNL     1      67.662  22.330  57.991  1.00  0.00    -0.215 NA
ATOM      5  C   UNL     1      68.978  22.038  58.220  1.00  0.00     0.226 A 
ATOM      6  N   UNL     1      69.955  22.958  57.940  1.00  0.00    -0.217 NA
ATOM      7  C   UNL     1      69.649  24.188  57.428  1.00  0.00     0.152 A 
ATOM      8  C   UNL     1      68.305  24.470  57.200  1.00  0.00     0.127 A 
ATOM      9  N   UNL     1      67.717  25.571  56.714  1.00  0.00    -0.340 N 
ATOM     10  H   UNL     1      68.159  26.463  56.401  1.00  0.00     0.168 HD
ENDROOT
BRANCH   7  11
ATOM     11  N   UNL     1      70.683  25.131  57.145  1.00  0.00    -0.382 N 
ATOM     12  H   UNL     1      71.333  24.969  56.344  1.00  0.00     0.158 HD
ATOM     13  H   UNL     1      70.809  25.991  57.724  1.00  0.00     0.158 HD
ENDBRANCH   7  11
TORSDOF 1
ENDMDL
MODEL 4
REMARK VINA RESULT:    -4.775      0.968      2.923
REMARK INTER + INTRA:          -4.915
REMARK INTER:                  -4.915
REMARK INTRA:                   0.000
REMARK UNBOUND:                 0.000
REMARK SMILES Nc1ncnc2nc[nH]c12
REMARK SMILES IDX 8 1 7 2 6 3 5 4 4 5 3 6 2 7 10 8 9 9 1 11
REMARK H PARENT 9 10 1 12 1 13
REMARK Flexibility Score: inf
ROOT
ATOM      1  C   UNL     1      65.871  22.427  58.513  1.00  0.00     0.199 A 
ATOM      2  N   UNL     1      67.108  22.117  58.991  1.00  0.00    -0.217 NA
ATOM      3  C   UNL     1      67.882  23.039  58.397  1.00  0.00     0.182 A 
ATOM      4  N   UNL     1      69.223  23.178  58.533  1.00  0.00    -0.215 NA
ATOM      5  C   UNL     1      69.841  24.183  57.843  1.00  0.00     0.226 A 
ATOM      6  N   UNL     1      69.116  25.023  57.036  1.00  0.00    -0.217 NA
ATOM      7  C   UNL     1      67.763  24.884  56.897  1.00  0.00     0.152 A 
ATOM      8  C   UNL     1      67.148  23.856  57.606  1.00  0.00     0.127 A 
ATOM      9  N   UNL     1      65.863  23.486  57.664  1.00  0.00    -0.340 N 
ATOM     10  H   UNL     1      65.040  23.905  57.178  1.00  0.00     0.168 HD
ENDROOT
BRANCH   7  11
ATOM     11  N   UNL     1      67.028  25.770  56.052  1.00  0.00    -0.382 N 
ATOM     12  H   UNL     1      66.137  25.453  55.611  1.00  0.00     0.158 HD
ATOM     13  H   UNL     1      67.363  26.741  55.859  1.00  0.00     0.158 HD
ENDBRANCH   7  11
TORSDOF 1
ENDMDL
MODEL 5
REMARK VINA RESULT:    -4.643     10.276     12.169
REMARK INTER + INTRA:          -4.779
REMARK INTER:                  -4.779
REMARK INTRA:                   0.000
REMARK UNBOUND:                 0.000
REMARK SMILES Nc1ncnc2nc[nH]c12
REMARK SMILES IDX 8 1 7 2 6 3 5 4 4 5 3 6 2 7 10 8 9 9 1 11
REMARK H PARENT 9 10 1 12 1 13
REMARK Flexibility Score: inf
ROOT
ATOM      1  C   UNL     1      75.286  30.896  58.814  1.00  0.00     0.199 A 
ATOM      2  N   UNL     1      76.432  31.581  59.082  1.00  0.00    -0.217 NA
ATOM      3  C   UNL     1      76.232  32.737  58.428  1.00  0.00     0.182 A 
ATOM      4  N   UNL     1      77.083  33.789  58.367  1.00  0.00    -0.215 NA
ATOM      5  C   UNL     1      76.702  34.886  57.646  1.00  0.00     0.226 A 
ATOM      6  N   UNL     1      75.491  34.912  57.004  1.00  0.00    -0.217 NA
ATOM      7  C   UNL     1      74.630  33.851  57.064  1.00  0.00     0.152 A 
ATOM      8  C   UNL     1      75.033  32.742  57.802  1.00  0.00     0.127 A 
ATOM      9  N   UNL     1      74.410  31.579  58.034  1.00  0.00    -0.340 N 
ATOM     10  H   UNL     1      73.474  31.261  57.700  1.00  0.00     0.168 HD
ENDROOT
BRANCH   7  11
ATOM     11  N   UNL     1      73.373  33.901  56.388  1.00  0.00    -0.382 N 
ATOM     12  H   UNL     1      73.278  33.494  55.431  1.00  0.00     0.158 HD
ATOM     13  H   UNL     1      72.535  34.339  56.831  1.00  0.00     0.158 HD
ENDBRANCH   7  11
TORSDOF 1
ENDMDL
MODEL 6
REMARK VINA RESULT:    -4.623     10.400     12.346
REMARK INTER + INTRA:          -4.758
REMARK INTER:                  -4.758
REMARK INTRA:                   0.000
REMARK UNBOUND:                 0.000
REMARK SMILES Nc1ncnc2nc[nH]c12
REMARK SMILES IDX 8 1 7 2 6 3 5 4 4 5 3 6 2 7 10 8 9 9 1 11
REMARK H PARENT 9 10 1 12 1 13
REMARK Flexibility Score: inf
ROOT
ATOM      1  C   UNL     1      76.702  34.628  57.656  1.00  0.00     0.199 A 
ATOM      2  N   UNL     1      75.782  33.794  57.096  1.00  0.00    -0.217 NA
ATOM      3  C   UNL     1      75.812  32.739  57.927  1.00  0.00     0.182 A 
ATOM      4  N   UNL     1      75.074  31.608  57.824  1.00  0.00    -0.215 NA
ATOM      5  C   UNL     1      75.245  30.638  58.772  1.00  0.00     0.226 A 
ATOM      6  N   UNL     1      76.141  30.813  59.795  1.00  0.00    -0.217 NA
ATOM      7  C   UNL     1      76.887  31.954  59.900  1.00  0.00     0.152 A 
ATOM      8  C   UNL     1      76.702  32.932  58.928  1.00  0.00     0.127 A 
ATOM      9  N   UNL     1      77.282  34.129  58.777  1.00  0.00    -0.340 N 
ATOM     10  H   UNL     1      78.008  34.583  59.373  1.00  0.00     0.168 HD
ENDROOT
BRANCH   7  11
ATOM     11  N   UNL     1      77.814  32.114  60.975  1.00  0.00    -0.382 N 
ATOM     12  H   UNL     1      78.472  32.924  60.980  1.00  0.00     0.158 HD
ATOM     13  H   UNL     1      77.853  31.433  61.766  1.00  0.00     0.158 HD
ENDBRANCH   7  11
TORSDOF 1
ENDMDL
MODEL 7
REMARK VINA RESULT:    -4.617     11.066     12.545
REMARK INTER + INTRA:          -4.752
REMARK INTER:                  -4.752
REMARK INTRA:                   0.000
REMARK UNBOUND:                 0.000
REMARK SMILES Nc1ncnc2nc[nH]c12
REMARK SMILES IDX 8 1 7 2 6 3 5 4 4 5 3 6 2 7 10 8 9 9 1 11
REMARK H PARENT 9 10 1 12 1 13
REMARK Flexibility Score: inf
ROOT
ATOM      1  C   UNL     1      73.214  34.571  56.378  1.00  0.00     0.199 A 
ATOM      2  N   UNL     1      73.147  33.300  56.863  1.00  0.00    -0.217 NA
ATOM      3  C   UNL     1      74.368  33.135  57.398  1.00  0.00     0.182 A 
ATOM      4  N   UNL     1      74.834  32.027  58.022  1.00  0.00    -0.215 NA
ATOM      5  C   UNL     1      76.112  32.047  58.505  1.00  0.00     0.226 A 
ATOM      6  N   UNL     1      76.895  33.164  58.358  1.00  0.00    -0.217 NA
ATOM      7  C   UNL     1      76.426  34.284  57.729  1.00  0.00     0.152 A 
ATOM      8  C   UNL     1      75.123  34.247  57.243  1.00  0.00     0.127 A 
ATOM      9  N   UNL     1      74.409  35.177  56.595  1.00  0.00    -0.340 N 
ATOM     10  H   UNL     1      74.693  36.142  56.318  1.00  0.00     0.168 HD
ENDROOT
BRANCH   7  11
ATOM     11  N   UNL     1      77.259  35.435  57.588  1.00  0.00    -0.382 N 
ATOM     12  H   UNL     1      76.831  36.372  57.420  1.00  0.00     0.158 HD
ATOM     13  H   UNL     1      78.299  35.365  57.650  1.00  0.00     0.158 HD
ENDBRANCH   7  11
TORSDOF 1
ENDMDL
MODEL 8
REMARK VINA RESULT:    -4.544     15.630     17.468
REMARK INTER + INTRA:          -4.677
REMARK INTER:                  -4.677
REMARK INTRA:                   0.000
REMARK UNBOUND:                 0.000
REMARK SMILES Nc1ncnc2nc[nH]c12
REMARK SMILES IDX 8 1 7 2 6 3 5 4 4 5 3 6 2 7 10 8 9 9 1 11
REMARK H PARENT 9 10 1 12 1 13
REMARK Flexibility Score: inf
ROOT
ATOM      1  C   UNL     1      74.187  35.472  49.061  1.00  0.00     0.199 A 
ATOM      2  N   UNL     1      74.632  36.585  48.414  1.00  0.00    -0.217 NA
ATOM      3  C   UNL     1      75.962  36.398  48.407  1.00  0.00     0.182 A 
ATOM      4  N   UNL     1      76.892  37.228  47.876  1.00  0.00    -0.215 NA
ATOM      5  C   UNL     1      78.207  36.865  47.966  1.00  0.00     0.226 A 
ATOM      6  N   UNL     1      78.566  35.693  48.580  1.00  0.00    -0.217 NA
ATOM      7  C   UNL     1      77.629  34.854  49.117  1.00  0.00     0.152 A 
ATOM      8  C   UNL     1      76.294  35.237  49.017  1.00  0.00     0.127 A 
ATOM      9  N   UNL     1      75.180  34.629  49.442  1.00  0.00    -0.340 N 
ATOM     10  H   UNL     1      75.084  33.720  49.947  1.00  0.00     0.168 HD
ENDROOT
BRANCH   7  11
ATOM     11  N   UNL     1      78.026  33.638  49.751  1.00  0.00    -0.382 N 
ATOM     12  H   UNL     1      77.311  32.916  49.991  1.00  0.00     0.158 HD
ATOM     13  H   UNL     1      79.026  33.448  49.985  1.00  0.00     0.158 HD
ENDBRANCH   7  11
TORSDOF 1
ENDMDL
MODEL 9
REMARK VINA RESULT:    -4.494     10.546     12.283
REMARK INTER + INTRA:          -4.626
REMARK INTER:                  -4.626
REMARK INTRA:                   0.000
REMARK UNBOUND:                 0.000
REMARK SMILES Nc1ncnc2nc[nH]c12
REMARK SMILES IDX 8 1 7 2 6 3 5 4 4 5 3 6 2 7 10 8 9 9 1 11
REMARK H PARENT 9 10 1 12 1 13
REMARK Flexibility Score: inf
ROOT
ATOM      1  C   UNL     1      73.496  34.251  56.269  1.00  0.00     0.199 A 
ATOM      2  N   UNL     1      74.621  34.995  56.458  1.00  0.00    -0.217 NA
ATOM      3  C   UNL     1      75.351  34.207  57.265  1.00  0.00     0.182 A 
ATOM      4  N   UNL     1      76.581  34.480  57.764  1.00  0.00    -0.215 NA
ATOM      5  C   UNL     1      77.169  33.549  58.574  1.00  0.00     0.226 A 
ATOM      6  N   UNL     1      76.524  32.375  58.868  1.00  0.00    -0.217 NA
ATOM      7  C   UNL     1      75.283  32.098  58.366  1.00  0.00     0.152 A 
ATOM      8  C   UNL     1      74.698  33.056  57.543  1.00  0.00     0.127 A 
ATOM      9  N   UNL     1      73.513  33.060  56.919  1.00  0.00    -0.340 N 
ATOM     10  H   UNL     1      72.770  32.327  56.924  1.00  0.00     0.168 HD
ENDROOT
BRANCH   7  11
ATOM     11  N   UNL     1      74.632  30.869  58.686  1.00  0.00    -0.382 N 
ATOM     12  H   UNL     1      75.049  30.224  59.394  1.00  0.00     0.158 HD
ATOM     13  H   UNL     1      73.736  30.591  58.225  1.00  0.00     0.158 HD
ENDBRANCH   7  11
TORSDOF 1
ENDMDL
