MODEL 1
REMARK VINA RESULT:     4.337      0.000      0.000
REMARK INTER + INTRA:           5.572
REMARK INTER:                   4.718
REMARK INTRA:                   0.855
REMARK UNBOUND:                 0.855
REMARK SMILES C[C@@H]1[C@H](C)CC[C@]2(C(=O)[O-])CC[C@]3(C)C(=CC[C@@H]4[C@@]5(C)CC[C@H](O)C(C)(C)[C@H]5CC[C@@]43C)[C@@H]12
REMARK SMILES IDX 7 1 6 2 11 3 33 4 5 5 12 6 15 7 2 8 3 9 13 10 16 11 1 12
REMARK SMILES IDX 4 13 14 14 31 15 17 16 18 17 30 18 32 19 19 20 29 21 28 22
REMARK SMILES IDX 21 23 20 24 25 25 22 26 23 27 26 28 27 29 8 30 9 31 10 32
REMARK SMILES IDX 24 33
REMARK H PARENT 24 34
REMARK Flexibility Score: inf
ROOT
ATOM      1  C   UNL     1      21.391  39.164   4.111  1.00  0.00     0.017 C 
ATOM      2  C   UNL     1      22.315  38.475   3.076  1.00  0.00     0.014 C 
ATOM      3  C   UNL     1      19.900  39.005   3.652  1.00  0.00     0.014 C 
ATOM      4  C   UNL     1      21.717  40.700   4.148  1.00  0.00     0.030 C 
ATOM      5  C   UNL     1      23.805  38.766   3.332  1.00  0.00     0.004 C 
ATOM      6  C   UNL     1      18.892  39.843   4.498  1.00  0.00     0.013 C 
ATOM      7  C   UNL     1      20.709  41.380   5.080  1.00  0.00    -0.063 C 
ATOM      8  C   UNL     1      23.227  41.037   4.356  1.00  0.00    -0.003 C 
ATOM      9  C   UNL     1      24.124  40.277   3.331  1.00  0.00    -0.011 C 
ATOM     10  C   UNL     1      19.245  41.376   4.618  1.00  0.00    -0.006 C 
ATOM     11  C   UNL     1      20.971  41.390   6.399  1.00  0.00    -0.027 C 
ATOM     12  C   UNL     1      23.472  42.557   4.317  1.00  0.00     0.008 C 
ATOM     13  C   UNL     1      24.078  40.850   1.898  1.00  0.00     0.008 C 
ATOM     14  C   UNL     1      19.128  41.976   3.169  1.00  0.00     0.017 C 
ATOM     15  C   UNL     1      18.299  42.260   5.637  1.00  0.00    -0.020 C 
ATOM     16  C   UNL     1      19.881  41.239   7.414  1.00  0.00     0.032 C 
ATOM     17  C   UNL     1      18.763  42.269   7.172  1.00  0.00     0.006 C 
ATOM     18  C   UNL     1      16.816  41.806   5.527  1.00  0.00     0.008 C 
ATOM     19  C   UNL     1      18.345  43.762   5.192  1.00  0.00     0.012 C 
ATOM     20  C   UNL     1      17.601  42.293   8.301  1.00  0.00    -0.025 C 
ATOM     21  C   UNL     1      16.425  40.747   6.559  1.00  0.00     0.005 C 
ATOM     22  C   UNL     1      16.428  41.255   8.029  1.00  0.00     0.003 C 
ATOM     23  C   UNL     1      17.047  43.762   8.492  1.00  0.00     0.010 C 
ATOM     24  C   UNL     1      18.259  41.927   9.675  1.00  0.00     0.012 C 
ATOM     25  C   UNL     1      14.999  41.700   8.568  1.00  0.00    -0.006 C 
ATOM     26  C   UNL     1      15.682  44.125   7.871  1.00  0.00     0.033 C 
ATOM     27  C   UNL     1      14.571  43.045   7.920  1.00  0.00     0.120 C 
ATOM     28  C   UNL     1      14.993  41.819  10.120  1.00  0.00     0.014 C 
ATOM     29  C   UNL     1      13.918  40.624   8.244  1.00  0.00     0.014 C 
ENDROOT
BRANCH   1  30
ATOM     30  C   UNL     1      21.568  38.449   5.458  1.00  0.00     0.048 C 
ATOM     31  O   UNL     1      21.220  37.244   5.587  1.00  0.00    -0.550 OA
ATOM     32  O   UNL     1      22.219  39.053   6.525  1.00  0.00    -0.550 OA
ENDBRANCH   1  30
BRANCH  27  33
ATOM     33  O   UNL     1      13.432  43.554   8.572  1.00  0.00    -0.393 OA
ATOM     34  H   UNL     1      13.718  43.840   9.478  1.00  0.00     0.210 HD
ENDBRANCH  27  33
TORSDOF 2
ENDMDL
MODEL 2
REMARK VINA RESULT:     5.462      3.246      5.938
REMARK INTER + INTRA:           6.796
REMARK INTER:                   6.104
REMARK INTRA:                   0.692
REMARK UNBOUND:                 0.855
REMARK SMILES C[C@@H]1[C@H](C)CC[C@]2(C(=O)[O-])CC[C@]3(C)C(=CC[C@@H]4[C@@]5(C)CC[C@H](O)C(C)(C)[C@H]5CC[C@@]43C)[C@@H]12
REMARK SMILES IDX 7 1 6 2 11 3 33 4 5 5 12 6 15 7 2 8 3 9 13 10 16 11 1 12
REMARK SMILES IDX 4 13 14 14 31 15 17 16 18 17 30 18 32 19 19 20 29 21 28 22
REMARK SMILES IDX 21 23 20 24 25 25 22 26 23 27 26 28 27 29 8 30 9 31 10 32
REMARK SMILES IDX 24 33
REMARK H PARENT 24 34
REMARK Flexibility Score: inf
ROOT
ATOM      1  C   UNL     1      20.293  43.134   1.060  1.00  0.00     0.017 C 
ATOM      2  C   UNL     1      20.446  43.806  -0.327  1.00  0.00     0.014 C 
ATOM      3  C   UNL     1      21.584  43.408   1.907  1.00  0.00     0.014 C 
ATOM      4  C   UNL     1      20.172  41.580   0.868  1.00  0.00     0.030 C 
ATOM      5  C   UNL     1      19.321  43.408  -1.301  1.00  0.00     0.004 C 
ATOM      6  C   UNL     1      21.640  42.602   3.242  1.00  0.00     0.013 C 
ATOM      7  C   UNL     1      20.150  40.927   2.253  1.00  0.00    -0.063 C 
ATOM      8  C   UNL     1      19.074  41.137  -0.151  1.00  0.00    -0.003 C 
ATOM      9  C   UNL     1      19.232  41.881  -1.513  1.00  0.00    -0.011 C 
ATOM     10  C   UNL     1      21.437  41.045   3.081  1.00  0.00    -0.006 C 
ATOM     11  C   UNL     1      18.973  40.843   2.897  1.00  0.00    -0.027 C 
ATOM     12  C   UNL     1      19.061  39.607  -0.330  1.00  0.00     0.008 C 
ATOM     13  C   UNL     1      20.402  41.375  -2.383  1.00  0.00     0.008 C 
ATOM     14  C   UNL     1      22.668  40.517   2.257  1.00  0.00     0.017 C 
ATOM     15  C   UNL     1      21.326  40.181   4.480  1.00  0.00    -0.020 C 
ATOM     16  C   UNL     1      18.879  41.020   4.380  1.00  0.00     0.032 C 
ATOM     17  C   UNL     1      19.853  40.076   5.107  1.00  0.00     0.006 C 
ATOM     18  C   UNL     1      22.322  40.735   5.538  1.00  0.00     0.008 C 
ATOM     19  C   UNL     1      21.749  38.700   4.193  1.00  0.00     0.012 C 
ATOM     20  C   UNL     1      19.731  40.079   6.722  1.00  0.00    -0.025 C 
ATOM     21  C   UNL     1      21.701  41.772   6.475  1.00  0.00     0.005 C 
ATOM     22  C   UNL     1      20.609  41.202   7.426  1.00  0.00     0.003 C 
ATOM     23  C   UNL     1      20.047  38.642   7.303  1.00  0.00     0.010 C 
ATOM     24  C   UNL     1      18.230  40.342   7.090  1.00  0.00     0.012 C 
ATOM     25  C   UNL     1      21.141  40.828   8.878  1.00  0.00    -0.006 C 
ATOM     26  C   UNL     1      21.420  38.396   7.961  1.00  0.00     0.033 C 
ATOM     27  C   UNL     1      22.010  39.542   8.821  1.00  0.00     0.120 C 
ATOM     28  C   UNL     1      19.963  40.642   9.879  1.00  0.00     0.014 C 
ATOM     29  C   UNL     1      21.998  41.984   9.476  1.00  0.00     0.014 C 
ENDROOT
BRANCH   1  30
ATOM     30  C   UNL     1      19.094  43.777   1.771  1.00  0.00     0.048 C 
ATOM     31  O   UNL     1      19.182  44.116   2.983  1.00  0.00    -0.550 OA
ATOM     32  O   UNL     1      17.934  44.116   1.087  1.00  0.00    -0.550 OA
ENDBRANCH   1  30
BRANCH  27  33
ATOM     33  O   UNL     1      22.274  39.081  10.125  1.00  0.00    -0.393 OA
ATOM     34  H   UNL     1      22.802  39.785  10.582  1.00  0.00     0.210 HD
ENDBRANCH  27  33
TORSDOF 2
ENDMDL
MODEL 3
REMARK VINA RESULT:     5.792      2.013      7.795
REMARK INTER + INTRA:           7.155
REMARK INTER:                   6.881
REMARK INTRA:                   0.275
REMARK UNBOUND:                 0.855
REMARK SMILES C[C@@H]1[C@H](C)CC[C@]2(C(=O)[O-])CC[C@]3(C)C(=CC[C@@H]4[C@@]5(C)CC[C@H](O)C(C)(C)[C@H]5CC[C@@]43C)[C@@H]12
REMARK SMILES IDX 7 1 6 2 11 3 33 4 5 5 12 6 15 7 2 8 3 9 13 10 16 11 1 12
REMARK SMILES IDX 4 13 14 14 31 15 17 16 18 17 30 18 32 19 19 20 29 21 28 22
REMARK SMILES IDX 21 23 20 24 25 25 22 26 23 27 26 28 27 29 8 30 9 31 10 32
REMARK SMILES IDX 24 33
REMARK H PARENT 24 34
REMARK Flexibility Score: inf
ROOT
ATOM      1  C   UNL     1      16.970  43.108   8.657  1.00  0.00     0.017 C 
ATOM      2  C   UNL     1      16.074  43.871   9.664  1.00  0.00     0.014 C 
ATOM      3  C   UNL     1      18.038  44.096   8.072  1.00  0.00     0.014 C 
ATOM      4  C   UNL     1      16.084  42.603   7.461  1.00  0.00     0.030 C 
ATOM      5  C   UNL     1      14.865  43.036  10.125  1.00  0.00     0.004 C 
ATOM      6  C   UNL     1      18.859  43.500   6.886  1.00  0.00     0.013 C 
ATOM      7  C   UNL     1      17.007  41.966   6.419  1.00  0.00    -0.063 C 
ATOM      8  C   UNL     1      14.820  41.793   7.889  1.00  0.00    -0.003 C 
ATOM      9  C   UNL     1      13.979  42.574   8.947  1.00  0.00    -0.011 C 
ATOM     10  C   UNL     1      17.988  42.911   5.710  1.00  0.00    -0.006 C 
ATOM     11  C   UNL     1      17.355  40.677   6.581  1.00  0.00    -0.027 C 
ATOM     12  C   UNL     1      13.973  41.390   6.668  1.00  0.00     0.008 C 
ATOM     13  C   UNL     1      13.167  43.753   8.371  1.00  0.00     0.008 C 
ATOM     14  C   UNL     1      17.216  44.124   5.075  1.00  0.00     0.017 C 
ATOM     15  C   UNL     1      18.814  42.126   4.519  1.00  0.00    -0.020 C 
ATOM     16  C   UNL     1      18.725  40.187   6.232  1.00  0.00     0.032 C 
ATOM     17  C   UNL     1      19.091  40.570   4.787  1.00  0.00     0.006 C 
ATOM     18  C   UNL     1      20.147  42.864   4.211  1.00  0.00     0.008 C 
ATOM     19  C   UNL     1      17.962  42.165   3.205  1.00  0.00     0.012 C 
ATOM     20  C   UNL     1      20.496  39.962   4.254  1.00  0.00    -0.025 C 
ATOM     21  C   UNL     1      21.342  42.316   4.993  1.00  0.00     0.005 C 
ATOM     22  C   UNL     1      21.754  40.869   4.601  1.00  0.00     0.003 C 
ATOM     23  C   UNL     1      20.410  39.649   2.706  1.00  0.00     0.010 C 
ATOM     24  C   UNL     1      20.705  38.567   4.937  1.00  0.00     0.012 C 
ATOM     25  C   UNL     1      22.946  40.793   3.550  1.00  0.00    -0.006 C 
ATOM     26  C   UNL     1      21.091  40.617   1.717  1.00  0.00     0.033 C 
ATOM     27  C   UNL     1      22.454  41.222   2.141  1.00  0.00     0.120 C 
ATOM     28  C   UNL     1      23.562  39.364   3.497  1.00  0.00     0.014 C 
ATOM     29  C   UNL     1      24.125  41.723   3.971  1.00  0.00     0.014 C 
ENDROOT
BRANCH   1  30
ATOM     30  C   UNL     1      17.699  41.991   9.417  1.00  0.00     0.048 C 
ATOM     31  O   UNL     1      18.908  42.134   9.747  1.00  0.00    -0.550 OA
ATOM     32  O   UNL     1      17.033  40.861   9.869  1.00  0.00    -0.550 OA
ENDBRANCH   1  30
BRANCH  27  33
ATOM     33  O   UNL     1      23.435  40.925   1.176  1.00  0.00    -0.393 OA
ATOM     34  H   UNL     1      24.256  41.418   1.433  1.00  0.00     0.210 HD
ENDBRANCH  27  33
TORSDOF 2
ENDMDL
