MODEL 1
REMARK VINA RESULT:    -8.628      0.000      0.000
REMARK INTER + INTRA:         -10.458
REMARK INTER:                 -10.141
REMARK INTRA:                  -0.317
REMARK UNBOUND:                -0.317
REMARK SMILES O=c1cc(-c2ccc(O)c(O)c2)oc2cc(O)cc(O)c12
REMARK SMILES IDX 4 1 3 2 2 3 1 4 21 5 19 6 18 7 16 8 15 9 14 10 13 11 5 12
REMARK SMILES IDX 6 13 7 14 8 15 12 16 10 17 9 18 11 20 20 22 17 24
REMARK H PARENT 9 19 11 21 20 23 17 25
REMARK Flexibility Score: inf
ROOT
ATOM      1  C   UNL     1      -3.467  -0.218   9.625  1.00  0.00     0.138 A 
ATOM      2  C   UNL     1      -4.843  -0.094   9.858  1.00  0.00     0.100 A 
ATOM      3  C   UNL     1      -5.464  -0.929  10.787  1.00  0.00     0.197 A 
ATOM      4  O   UNL     1      -6.710  -0.837  10.930  1.00  0.00    -0.289 OA
ATOM      5  C   UNL     1      -4.694  -1.872  11.511  1.00  0.00     0.107 A 
ATOM      6  C   UNL     1      -5.212  -2.747  12.512  1.00  0.00     0.134 A 
ATOM      7  C   UNL     1      -4.377  -3.719  13.077  1.00  0.00     0.093 A 
ATOM      8  C   UNL     1      -3.028  -3.806  12.721  1.00  0.00     0.123 A 
ATOM      9  C   UNL     1      -2.501  -2.921  11.784  1.00  0.00     0.094 A 
ATOM     10  C   UNL     1      -3.316  -1.963  11.177  1.00  0.00     0.146 A 
ATOM     11  O   UNL     1      -2.777  -1.148  10.277  1.00  0.00    -0.456 OA
ENDROOT
BRANCH   1  12
ATOM     12  C   UNL     1      -2.756   0.646   8.648  1.00  0.00     0.021 A 
ATOM     13  C   UNL     1      -3.436   1.721   8.052  1.00  0.00     0.016 A 
ATOM     14  C   UNL     1      -2.792   2.543   7.124  1.00  0.00     0.051 A 
ATOM     15  C   UNL     1      -1.463   2.301   6.768  1.00  0.00     0.157 A 
ATOM     16  C   UNL     1      -1.421   0.397   8.275  1.00  0.00     0.062 A 
ATOM     17  C   UNL     1      -0.773   1.221   7.342  1.00  0.00     0.158 A 
BRANCH  15  18
ATOM     18  O   UNL     1      -0.847   3.140   5.840  1.00  0.00    -0.504 OA
ATOM     19  H   UNL     1      -0.166   2.796   5.173  1.00  0.00     0.293 HD
ENDBRANCH  15  18
BRANCH  17  20
ATOM     20  O   UNL     1       0.549   0.968   6.982  1.00  0.00    -0.504 OA
ATOM     21  H   UNL     1       1.314   1.116   7.630  1.00  0.00     0.293 HD
ENDBRANCH  17  20
ENDBRANCH   1  12
BRANCH   6  22
ATOM     22  O   UNL     1      -6.520  -2.688  13.001  1.00  0.00    -0.507 OA
ATOM     23  H   UNL     1      -7.296  -2.257  12.521  1.00  0.00     0.293 HD
ENDBRANCH   6  22
BRANCH   8  24
ATOM     24  O   UNL     1      -2.201  -4.767  13.300  1.00  0.00    -0.508 OA
ATOM     25  H   UNL     1      -1.506  -5.264  12.757  1.00  0.00     0.293 HD
ENDBRANCH   8  24
TORSDOF 5
ENDMDL
MODEL 2
REMARK VINA RESULT:    -8.617      1.933      2.815
REMARK INTER + INTRA:         -10.445
REMARK INTER:                 -10.128
REMARK INTRA:                  -0.317
REMARK UNBOUND:                -0.317
REMARK SMILES O=c1cc(-c2ccc(O)c(O)c2)oc2cc(O)cc(O)c12
REMARK SMILES IDX 4 1 3 2 2 3 1 4 21 5 19 6 18 7 16 8 15 9 14 10 13 11 5 12
REMARK SMILES IDX 6 13 7 14 8 15 12 16 10 17 9 18 11 20 20 22 17 24
REMARK H PARENT 9 19 11 21 20 23 17 25
REMARK Flexibility Score: inf
ROOT
ATOM      1  C   UNL     1      -3.315   0.594  10.234  1.00  0.00     0.138 A 
ATOM      2  C   UNL     1      -2.828   0.678  11.546  1.00  0.00     0.100 A 
ATOM      3  C   UNL     1      -3.355  -0.155  12.533  1.00  0.00     0.197 A 
ATOM      4  O   UNL     1      -2.943  -0.014  13.713  1.00  0.00    -0.289 OA
ATOM      5  C   UNL     1      -4.355  -1.099  12.196  1.00  0.00     0.107 A 
ATOM      6  C   UNL     1      -4.937  -2.028  13.110  1.00  0.00     0.134 A 
ATOM      7  C   UNL     1      -6.001  -2.835  12.689  1.00  0.00     0.093 A 
ATOM      8  C   UNL     1      -6.462  -2.791  11.370  1.00  0.00     0.123 A 
ATOM      9  C   UNL     1      -5.864  -1.926  10.457  1.00  0.00     0.094 A 
ATOM     10  C   UNL     1      -4.824  -1.083  10.855  1.00  0.00     0.146 A 
ATOM     11  O   UNL     1      -4.292  -0.262   9.956  1.00  0.00    -0.456 OA
ENDROOT
BRANCH   1  12
ATOM     12  C   UNL     1      -2.788   1.457   9.145  1.00  0.00     0.021 A 
ATOM     13  C   UNL     1      -1.639   2.233   9.373  1.00  0.00     0.016 A 
ATOM     14  C   UNL     1      -1.128   3.058   8.368  1.00  0.00     0.051 A 
ATOM     15  C   UNL     1      -1.760   3.129   7.123  1.00  0.00     0.157 A 
ATOM     16  C   UNL     1      -3.429   1.542   7.894  1.00  0.00     0.062 A 
ATOM     17  C   UNL     1      -2.917   2.372   6.885  1.00  0.00     0.158 A 
BRANCH  15  18
ATOM     18  O   UNL     1      -1.225   3.961   6.139  1.00  0.00    -0.504 OA
ATOM     19  H   UNL     1      -1.635   4.032   5.215  1.00  0.00     0.293 HD
ENDBRANCH  15  18
BRANCH  17  20
ATOM     20  O   UNL     1      -3.558   2.447   5.649  1.00  0.00    -0.504 OA
ATOM     21  H   UNL     1      -4.428   2.953   5.532  1.00  0.00     0.293 HD
ENDBRANCH  17  20
ENDBRANCH   1  12
BRANCH   6  22
ATOM     22  O   UNL     1      -4.495  -2.213  14.423  1.00  0.00    -0.507 OA
ATOM     23  H   UNL     1      -4.916  -2.843  15.089  1.00  0.00     0.293 HD
ENDBRANCH   6  22
BRANCH   8  24
ATOM     24  O   UNL     1      -7.511  -3.609  10.957  1.00  0.00    -0.508 OA
ATOM     25  H   UNL     1      -7.420  -4.618  10.938  1.00  0.00     0.293 HD
ENDBRANCH   8  24
TORSDOF 5
ENDMDL
MODEL 3
REMARK VINA RESULT:    -8.591      1.916      2.804
REMARK INTER + INTRA:         -10.415
REMARK INTER:                 -10.097
REMARK INTRA:                  -0.318
REMARK UNBOUND:                -0.317
REMARK SMILES O=c1cc(-c2ccc(O)c(O)c2)oc2cc(O)cc(O)c12
REMARK SMILES IDX 4 1 3 2 2 3 1 4 21 5 19 6 18 7 16 8 15 9 14 10 13 11 5 12
REMARK SMILES IDX 6 13 7 14 8 15 12 16 10 17 9 18 11 20 20 22 17 24
REMARK H PARENT 9 19 11 21 20 23 17 25
REMARK Flexibility Score: inf
ROOT
ATOM      1  C   UNL     1      -2.575  -0.186  10.166  1.00  0.00     0.138 A 
ATOM      2  C   UNL     1      -2.493  -1.557   9.891  1.00  0.00     0.100 A 
ATOM      3  C   UNL     1      -3.055  -2.475  10.779  1.00  0.00     0.197 A 
ATOM      4  O   UNL     1      -2.912  -3.701  10.537  1.00  0.00    -0.289 OA
ATOM      5  C   UNL     1      -3.731  -2.013  11.934  1.00  0.00     0.107 A 
ATOM      6  C   UNL     1      -4.378  -2.854  12.888  1.00  0.00     0.134 A 
ATOM      7  C   UNL     1      -4.914  -2.290  14.053  1.00  0.00     0.093 A 
ATOM      8  C   UNL     1      -4.880  -0.909  14.267  1.00  0.00     0.123 A 
ATOM      9  C   UNL     1      -4.299  -0.075  13.316  1.00  0.00     0.094 A 
ATOM     10  C   UNL     1      -3.724  -0.610  12.160  1.00  0.00     0.146 A 
ATOM     11  O   UNL     1      -3.167   0.219  11.285  1.00  0.00    -0.456 OA
ENDROOT
BRANCH   1  12
ATOM     12  C   UNL     1      -1.994   0.834   9.255  1.00  0.00     0.021 A 
ATOM     13  C   UNL     1      -1.447   0.430   8.025  1.00  0.00     0.016 A 
ATOM     14  C   UNL     1      -0.888   1.368   7.154  1.00  0.00     0.051 A 
ATOM     15  C   UNL     1      -0.857   2.722   7.498  1.00  0.00     0.157 A 
ATOM     16  C   UNL     1      -1.948   2.197   9.604  1.00  0.00     0.062 A 
ATOM     17  C   UNL     1      -1.386   3.140   8.730  1.00  0.00     0.158 A 
BRANCH  15  18
ATOM     18  O   UNL     1      -0.294   3.635   6.607  1.00  0.00    -0.504 OA
ATOM     19  H   UNL     1       0.672   3.932   6.679  1.00  0.00     0.293 HD
ENDBRANCH  15  18
BRANCH  17  20
ATOM     20  O   UNL     1      -1.348   4.487   9.083  1.00  0.00    -0.504 OA
ATOM     21  H   UNL     1      -0.477   4.953   9.310  1.00  0.00     0.293 HD
ENDBRANCH  17  20
ENDBRANCH   1  12
BRANCH   6  22
ATOM     22  O   UNL     1      -4.542  -4.233  12.730  1.00  0.00    -0.507 OA
ATOM     23  H   UNL     1      -3.801  -4.913  12.802  1.00  0.00     0.293 HD
ENDBRANCH   6  22
BRANCH   8  24
ATOM     24  O   UNL     1      -5.430  -0.356  15.422  1.00  0.00    -0.508 OA
ATOM     25  H   UNL     1      -6.196  -0.805  15.911  1.00  0.00     0.293 HD
ENDBRANCH   8  24
TORSDOF 5
ENDMDL
MODEL 4
REMARK VINA RESULT:    -8.336      1.317      1.519
REMARK INTER + INTRA:         -10.115
REMARK INTER:                  -9.850
REMARK INTRA:                  -0.265
REMARK UNBOUND:                -0.317
REMARK SMILES O=c1cc(-c2ccc(O)c(O)c2)oc2cc(O)cc(O)c12
REMARK SMILES IDX 4 1 3 2 2 3 1 4 21 5 19 6 18 7 16 8 15 9 14 10 13 11 5 12
REMARK SMILES IDX 6 13 7 14 8 15 12 16 10 17 9 18 11 20 20 22 17 24
REMARK H PARENT 9 19 11 21 20 23 17 25
REMARK Flexibility Score: inf
ROOT
ATOM      1  C   UNL     1      -3.122   0.507   9.807  1.00  0.00     0.138 A 
ATOM      2  C   UNL     1      -4.262   0.886  10.528  1.00  0.00     0.100 A 
ATOM      3  C   UNL     1      -4.806   0.012  11.470  1.00  0.00     0.197 A 
ATOM      4  O   UNL     1      -5.865   0.353  12.056  1.00  0.00    -0.289 OA
ATOM      5  C   UNL     1      -4.182  -1.236  11.714  1.00  0.00     0.107 A 
ATOM      6  C   UNL     1      -4.623  -2.189  12.680  1.00  0.00     0.134 A 
ATOM      7  C   UNL     1      -3.996  -3.439  12.751  1.00  0.00     0.093 A 
ATOM      8  C   UNL     1      -2.905  -3.746  11.933  1.00  0.00     0.123 A 
ATOM      9  C   UNL     1      -2.434  -2.802  11.025  1.00  0.00     0.094 A 
ATOM     10  C   UNL     1      -3.060  -1.558  10.906  1.00  0.00     0.146 A 
ATOM     11  O   UNL     1      -2.588  -0.692  10.016  1.00  0.00    -0.456 OA
ENDROOT
BRANCH   1  12
ATOM     12  C   UNL     1      -2.502   1.399   8.793  1.00  0.00     0.021 A 
ATOM     13  C   UNL     1      -1.591   2.386   9.205  1.00  0.00     0.016 A 
ATOM     14  C   UNL     1      -1.001   3.242   8.272  1.00  0.00     0.051 A 
ATOM     15  C   UNL     1      -1.317   3.134   6.915  1.00  0.00     0.157 A 
ATOM     16  C   UNL     1      -2.828   1.303   7.427  1.00  0.00     0.062 A 
ATOM     17  C   UNL     1      -2.237   2.164   6.489  1.00  0.00     0.158 A 
BRANCH  15  18
ATOM     18  O   UNL     1      -0.710   4.002   6.007  1.00  0.00    -0.504 OA
ATOM     19  H   UNL     1      -0.248   4.854   6.304  1.00  0.00     0.293 HD
ENDBRANCH  15  18
BRANCH  17  20
ATOM     20  O   UNL     1      -2.565   2.059   5.138  1.00  0.00    -0.504 OA
ATOM     21  H   UNL     1      -2.577   2.869   4.530  1.00  0.00     0.293 HD
ENDBRANCH  17  20
ENDBRANCH   1  12
BRANCH   6  22
ATOM     22  O   UNL     1      -5.646  -1.951  13.602  1.00  0.00    -0.507 OA
ATOM     23  H   UNL     1      -5.615  -2.209  14.577  1.00  0.00     0.293 HD
ENDBRANCH   6  22
BRANCH   8  24
ATOM     24  O   UNL     1      -2.277  -4.987  12.022  1.00  0.00    -0.508 OA
ATOM     25  H   UNL     1      -1.449  -5.122  12.590  1.00  0.00     0.293 HD
ENDBRANCH   8  24
TORSDOF 5
ENDMDL
MODEL 5
REMARK VINA RESULT:    -7.709      3.786      8.823
REMARK INTER + INTRA:          -9.378
REMARK INTER:                  -9.060
REMARK INTRA:                  -0.318
REMARK UNBOUND:                -0.317
REMARK SMILES O=c1cc(-c2ccc(O)c(O)c2)oc2cc(O)cc(O)c12
REMARK SMILES IDX 4 1 3 2 2 3 1 4 21 5 19 6 18 7 16 8 15 9 14 10 13 11 5 12
REMARK SMILES IDX 6 13 7 14 8 15 12 16 10 17 9 18 11 20 20 22 17 24
REMARK H PARENT 9 19 11 21 20 23 17 25
REMARK Flexibility Score: inf
ROOT
ATOM      1  C   UNL     1      -6.245  -3.794  14.067  1.00  0.00     0.138 A 
ATOM      2  C   UNL     1      -6.892  -3.678  12.830  1.00  0.00     0.100 A 
ATOM      3  C   UNL     1      -6.465  -2.716  11.915  1.00  0.00     0.197 A 
ATOM      4  O   UNL     1      -7.104  -2.593  10.839  1.00  0.00    -0.289 OA
ATOM      5  C   UNL     1      -5.361  -1.886  12.230  1.00  0.00     0.107 A 
ATOM      6  C   UNL     1      -4.812  -0.899  11.358  1.00  0.00     0.134 A 
ATOM      7  C   UNL     1      -3.793  -0.059  11.824  1.00  0.00     0.093 A 
ATOM      8  C   UNL     1      -3.262  -0.211  13.108  1.00  0.00     0.123 A 
ATOM      9  C   UNL     1      -3.756  -1.207  13.947  1.00  0.00     0.094 A 
ATOM     10  C   UNL     1      -4.796  -2.039  13.524  1.00  0.00     0.146 A 
ATOM     11  O   UNL     1      -5.247  -2.967  14.361  1.00  0.00    -0.456 OA
ENDROOT
BRANCH   1  12
ATOM     12  C   UNL     1      -6.659  -4.802  15.078  1.00  0.00     0.021 A 
ATOM     13  C   UNL     1      -7.781  -5.609  14.828  1.00  0.00     0.016 A 
ATOM     14  C   UNL     1      -8.196  -6.559  15.766  1.00  0.00     0.051 A 
ATOM     15  C   UNL     1      -7.504  -6.712  16.970  1.00  0.00     0.157 A 
ATOM     16  C   UNL     1      -5.974  -4.949  16.299  1.00  0.00     0.062 A 
ATOM     17  C   UNL     1      -6.390  -5.901  17.242  1.00  0.00     0.158 A 
BRANCH  15  18
ATOM     18  O   UNL     1      -7.941  -7.669  17.886  1.00  0.00    -0.504 OA
ATOM     19  H   UNL     1      -7.768  -7.580  18.880  1.00  0.00     0.293 HD
ENDBRANCH  15  18
BRANCH  17  20
ATOM     20  O   UNL     1      -5.703  -6.041  18.447  1.00  0.00    -0.504 OA
ATOM     21  H   UNL     1      -5.221  -6.900  18.687  1.00  0.00     0.293 HD
ENDBRANCH  17  20
ENDBRANCH   1  12
BRANCH   6  22
ATOM     22  O   UNL     1      -5.209  -0.721  10.030  1.00  0.00    -0.507 OA
ATOM     23  H   UNL     1      -5.378   0.173   9.595  1.00  0.00     0.293 HD
ENDBRANCH   6  22
BRANCH   8  24
ATOM     24  O   UNL     1      -2.238   0.620  13.557  1.00  0.00    -0.508 OA
ATOM     25  H   UNL     1      -1.880   0.556  14.503  1.00  0.00     0.293 HD
ENDBRANCH   8  24
TORSDOF 5
ENDMDL
MODEL 6
REMARK VINA RESULT:    -7.708      3.177      9.068
REMARK INTER + INTRA:          -9.377
REMARK INTER:                  -9.059
REMARK INTRA:                  -0.318
REMARK UNBOUND:                -0.317
REMARK SMILES O=c1cc(-c2ccc(O)c(O)c2)oc2cc(O)cc(O)c12
REMARK SMILES IDX 4 1 3 2 2 3 1 4 21 5 19 6 18 7 16 8 15 9 14 10 13 11 5 12
REMARK SMILES IDX 6 13 7 14 8 15 12 16 10 17 9 18 11 20 20 22 17 24
REMARK H PARENT 9 19 11 21 20 23 17 25
REMARK Flexibility Score: inf
ROOT
ATOM      1  C   UNL     1      -5.411  -4.179  13.927  1.00  0.00     0.138 A 
ATOM      2  C   UNL     1      -4.100  -4.441  13.506  1.00  0.00     0.100 A 
ATOM      3  C   UNL     1      -3.537  -3.678  12.483  1.00  0.00     0.197 A 
ATOM      4  O   UNL     1      -2.383  -3.976  12.084  1.00  0.00    -0.289 OA
ATOM      5  C   UNL     1      -4.283  -2.624  11.901  1.00  0.00     0.107 A 
ATOM      6  C   UNL     1      -3.797  -1.753  10.880  1.00  0.00     0.134 A 
ATOM      7  C   UNL     1      -4.666  -0.821  10.298  1.00  0.00     0.093 A 
ATOM      8  C   UNL     1      -5.984  -0.687  10.744  1.00  0.00     0.123 A 
ATOM      9  C   UNL     1      -6.450  -1.496  11.777  1.00  0.00     0.094 A 
ATOM     10  C   UNL     1      -5.619  -2.459  12.354  1.00  0.00     0.146 A 
ATOM     11  O   UNL     1      -6.108  -3.220  13.327  1.00  0.00    -0.456 OA
ENDROOT
BRANCH   1  12
ATOM     12  C   UNL     1      -6.057  -4.961  15.012  1.00  0.00     0.021 A 
ATOM     13  C   UNL     1      -5.372  -6.045  15.586  1.00  0.00     0.016 A 
ATOM     14  C   UNL     1      -5.961  -6.801  16.602  1.00  0.00     0.051 A 
ATOM     15  C   UNL     1      -7.246  -6.495  17.056  1.00  0.00     0.157 A 
ATOM     16  C   UNL     1      -7.358  -4.665  15.463  1.00  0.00     0.062 A 
ATOM     17  C   UNL     1      -7.952  -5.425  16.483  1.00  0.00     0.158 A 
BRANCH  15  18
ATOM     18  O   UNL     1      -7.808  -7.266  18.073  1.00  0.00    -0.504 OA
ATOM     19  H   UNL     1      -8.371  -8.086  17.878  1.00  0.00     0.293 HD
ENDBRANCH  15  18
BRANCH  17  20
ATOM     20  O   UNL     1      -9.238  -5.121  16.924  1.00  0.00    -0.504 OA
ATOM     21  H   UNL     1      -9.957  -5.833  16.996  1.00  0.00     0.293 HD
ENDBRANCH  17  20
ENDBRANCH   1  12
BRANCH   6  22
ATOM     22  O   UNL     1      -2.477  -1.745  10.422  1.00  0.00    -0.507 OA
ATOM     23  H   UNL     1      -2.199  -1.577   9.467  1.00  0.00     0.293 HD
ENDBRANCH   6  22
BRANCH   8  24
ATOM     24  O   UNL     1      -6.836   0.253  10.170  1.00  0.00    -0.508 OA
ATOM     25  H   UNL     1      -7.626  -0.026   9.599  1.00  0.00     0.293 HD
ENDBRANCH   8  24
TORSDOF 5
ENDMDL
MODEL 7
REMARK VINA RESULT:    -7.695      3.912      9.031
REMARK INTER + INTRA:          -9.362
REMARK INTER:                  -9.066
REMARK INTRA:                  -0.296
REMARK UNBOUND:                -0.317
REMARK SMILES O=c1cc(-c2ccc(O)c(O)c2)oc2cc(O)cc(O)c12
REMARK SMILES IDX 4 1 3 2 2 3 1 4 21 5 19 6 18 7 16 8 15 9 14 10 13 11 5 12
REMARK SMILES IDX 6 13 7 14 8 15 12 16 10 17 9 18 11 20 20 22 17 24
REMARK H PARENT 9 19 11 21 20 23 17 25
REMARK Flexibility Score: inf
ROOT
ATOM      1  C   UNL     1      -6.025  -3.517  14.508  1.00  0.00     0.138 A 
ATOM      2  C   UNL     1      -5.148  -2.517  14.950  1.00  0.00     0.100 A 
ATOM      3  C   UNL     1      -4.724  -1.528  14.062  1.00  0.00     0.197 A 
ATOM      4  O   UNL     1      -3.888  -0.681  14.470  1.00  0.00    -0.289 OA
ATOM      5  C   UNL     1      -5.207  -1.523  12.731  1.00  0.00     0.107 A 
ATOM      6  C   UNL     1      -4.876  -0.542  11.750  1.00  0.00     0.134 A 
ATOM      7  C   UNL     1      -5.323  -0.706  10.433  1.00  0.00     0.093 A 
ATOM      8  C   UNL     1      -6.139  -1.783  10.077  1.00  0.00     0.123 A 
ATOM      9  C   UNL     1      -6.511  -2.717  11.040  1.00  0.00     0.094 A 
ATOM     10  C   UNL     1      -6.054  -2.600  12.355  1.00  0.00     0.146 A 
ATOM     11  O   UNL     1      -6.420  -3.521  13.240  1.00  0.00    -0.456 OA
ENDROOT
BRANCH   1  12
ATOM     12  C   UNL     1      -6.508  -4.592  15.412  1.00  0.00     0.021 A 
ATOM     13  C   UNL     1      -6.873  -4.275  16.731  1.00  0.00     0.016 A 
ATOM     14  C   UNL     1      -7.323  -5.269  17.603  1.00  0.00     0.051 A 
ATOM     15  C   UNL     1      -7.407  -6.598  17.177  1.00  0.00     0.157 A 
ATOM     16  C   UNL     1      -6.580  -5.934  14.991  1.00  0.00     0.062 A 
ATOM     17  C   UNL     1      -7.030  -6.934  15.867  1.00  0.00     0.158 A 
BRANCH  15  18
ATOM     18  O   UNL     1      -7.861  -7.568  18.069  1.00  0.00    -0.504 OA
ATOM     19  H   UNL     1      -8.398  -8.371  17.763  1.00  0.00     0.293 HD
ENDBRANCH  15  18
BRANCH  17  20
ATOM     20  O   UNL     1      -7.100  -8.259  15.440  1.00  0.00    -0.504 OA
ATOM     21  H   UNL     1      -7.963  -8.789  15.491  1.00  0.00     0.293 HD
ENDBRANCH  17  20
ENDBRANCH   1  12
BRANCH   6  22
ATOM     22  O   UNL     1      -4.140   0.616  12.020  1.00  0.00    -0.507 OA
ATOM     23  H   UNL     1      -3.376   0.957  11.456  1.00  0.00     0.293 HD
ENDBRANCH   6  22
BRANCH   8  24
ATOM     24  O   UNL     1      -6.591  -1.929   8.767  1.00  0.00    -0.508 OA
ATOM     25  H   UNL     1      -7.417  -1.446   8.435  1.00  0.00     0.293 HD
ENDBRANCH   8  24
TORSDOF 5
ENDMDL
MODEL 8
REMARK VINA RESULT:    -7.671      3.458      8.701
REMARK INTER + INTRA:          -9.334
REMARK INTER:                  -9.039
REMARK INTRA:                  -0.294
REMARK UNBOUND:                -0.317
REMARK SMILES O=c1cc(-c2ccc(O)c(O)c2)oc2cc(O)cc(O)c12
REMARK SMILES IDX 4 1 3 2 2 3 1 4 21 5 19 6 18 7 16 8 15 9 14 10 13 11 5 12
REMARK SMILES IDX 6 13 7 14 8 15 12 16 10 17 9 18 11 20 20 22 17 24
REMARK H PARENT 9 19 11 21 20 23 17 25
REMARK Flexibility Score: inf
ROOT
ATOM      1  C   UNL     1      -5.599  -4.067  13.933  1.00  0.00     0.138 A 
ATOM      2  C   UNL     1      -6.370  -3.132  13.230  1.00  0.00     0.100 A 
ATOM      3  C   UNL     1      -5.777  -2.360  12.231  1.00  0.00     0.197 A 
ATOM      4  O   UNL     1      -6.478  -1.485  11.660  1.00  0.00    -0.289 OA
ATOM      5  C   UNL     1      -4.410  -2.550  11.912  1.00  0.00     0.107 A 
ATOM      6  C   UNL     1      -3.710  -1.849  10.885  1.00  0.00     0.134 A 
ATOM      7  C   UNL     1      -2.329  -2.038  10.740  1.00  0.00     0.093 A 
ATOM      8  C   UNL     1      -1.637  -2.947  11.545  1.00  0.00     0.123 A 
ATOM      9  C   UNL     1      -2.322  -3.674  12.514  1.00  0.00     0.094 A 
ATOM     10  C   UNL     1      -3.693  -3.484  12.707  1.00  0.00     0.146 A 
ATOM     11  O   UNL     1      -4.305  -4.188  13.652  1.00  0.00    -0.456 OA
ENDROOT
BRANCH   1  12
ATOM     12  C   UNL     1      -6.180  -4.915  15.005  1.00  0.00     0.021 A 
ATOM     13  C   UNL     1      -5.459  -6.027  15.474  1.00  0.00     0.016 A 
ATOM     14  C   UNL     1      -5.987  -6.844  16.477  1.00  0.00     0.051 A 
ATOM     15  C   UNL     1      -7.245  -6.572  17.021  1.00  0.00     0.157 A 
ATOM     16  C   UNL     1      -7.453  -4.654  15.546  1.00  0.00     0.062 A 
ATOM     17  C   UNL     1      -7.985  -5.475  16.552  1.00  0.00     0.158 A 
BRANCH  15  18
ATOM     18  O   UNL     1      -7.745  -7.406  18.021  1.00  0.00    -0.504 OA
ATOM     19  H   UNL     1      -8.690  -7.771  17.995  1.00  0.00     0.293 HD
ENDBRANCH  15  18
BRANCH  17  20
ATOM     20  O   UNL     1      -9.245  -5.206  17.083  1.00  0.00    -0.504 OA
ATOM     21  H   UNL     1      -9.358  -4.702  17.956  1.00  0.00     0.293 HD
ENDBRANCH  17  20
ENDBRANCH   1  12
BRANCH   6  22
ATOM     22  O   UNL     1      -4.321  -0.984   9.973  1.00  0.00    -0.507 OA
ATOM     23  H   UNL     1      -4.171   0.012   9.935  1.00  0.00     0.293 HD
ENDBRANCH   6  22
BRANCH   8  24
ATOM     24  O   UNL     1      -0.267  -3.138  11.382  1.00  0.00    -0.508 OA
ATOM     25  H   UNL     1       0.139  -4.067  11.355  1.00  0.00     0.293 HD
ENDBRANCH   8  24
TORSDOF 5
ENDMDL
MODEL 9
REMARK VINA RESULT:    -7.531      3.779      9.002
REMARK INTER + INTRA:          -9.169
REMARK INTER:                  -8.873
REMARK INTRA:                  -0.296
REMARK UNBOUND:                -0.317
REMARK SMILES O=c1cc(-c2ccc(O)c(O)c2)oc2cc(O)cc(O)c12
REMARK SMILES IDX 4 1 3 2 2 3 1 4 21 5 19 6 18 7 16 8 15 9 14 10 13 11 5 12
REMARK SMILES IDX 6 13 7 14 8 15 12 16 10 17 9 18 11 20 20 22 17 24
REMARK H PARENT 9 19 11 21 20 23 17 25
REMARK Flexibility Score: inf
ROOT
ATOM      1  C   UNL     1      -5.463  -3.774  14.390  1.00  0.00     0.138 A 
ATOM      2  C   UNL     1      -4.768  -4.225  13.260  1.00  0.00     0.100 A 
ATOM      3  C   UNL     1      -4.097  -3.308  12.450  1.00  0.00     0.197 A 
ATOM      4  O   UNL     1      -3.535  -3.734  11.409  1.00  0.00    -0.289 OA
ATOM      5  C   UNL     1      -4.096  -1.934  12.794  1.00  0.00     0.107 A 
ATOM      6  C   UNL     1      -3.412  -0.915  12.066  1.00  0.00     0.134 A 
ATOM      7  C   UNL     1      -3.580   0.426  12.435  1.00  0.00     0.093 A 
ATOM      8  C   UNL     1      -4.357   0.778  13.542  1.00  0.00     0.123 A 
ATOM      9  C   UNL     1      -4.985  -0.215  14.290  1.00  0.00     0.094 A 
ATOM     10  C   UNL     1      -4.866  -1.559  13.927  1.00  0.00     0.146 A 
ATOM     11  O   UNL     1      -5.493  -2.473  14.660  1.00  0.00    -0.456 OA
ENDROOT
BRANCH   1  12
ATOM     12  C   UNL     1      -6.194  -4.707  15.285  1.00  0.00     0.021 A 
ATOM     13  C   UNL     1      -6.744  -4.224  16.485  1.00  0.00     0.016 A 
ATOM     14  C   UNL     1      -7.429  -5.083  17.349  1.00  0.00     0.051 A 
ATOM     15  C   UNL     1      -7.568  -6.438  17.035  1.00  0.00     0.157 A 
ATOM     16  C   UNL     1      -6.325  -6.075  14.980  1.00  0.00     0.062 A 
ATOM     17  C   UNL     1      -7.011  -6.939  15.847  1.00  0.00     0.158 A 
BRANCH  15  18
ATOM     18  O   UNL     1      -8.259  -7.270  17.915  1.00  0.00    -0.504 OA
ATOM     19  H   UNL     1      -8.691  -8.134  17.611  1.00  0.00     0.293 HD
ENDBRANCH  15  18
BRANCH  17  20
ATOM     20  O   UNL     1      -7.137  -8.291  15.534  1.00  0.00    -0.504 OA
ATOM     21  H   UNL     1      -6.714  -8.685  14.701  1.00  0.00     0.293 HD
ENDBRANCH  17  20
ENDBRANCH   1  12
BRANCH   6  22
ATOM     22  O   UNL     1      -2.545  -1.165  11.000  1.00  0.00    -0.507 OA
ATOM     23  H   UNL     1      -1.640  -0.734  10.880  1.00  0.00     0.293 HD
ENDBRANCH   6  22
BRANCH   8  24
ATOM     24  O   UNL     1      -4.506   2.113  13.910  1.00  0.00    -0.508 OA
ATOM     25  H   UNL     1      -4.755   2.377  14.856  1.00  0.00     0.293 HD
ENDBRANCH   8  24
TORSDOF 5
ENDMDL
