MODEL 1
REMARK VINA RESULT:    -3.186      0.000      0.000
REMARK INTER + INTRA:          -3.809
REMARK INTER:                  -3.745
REMARK INTRA:                  -0.064
REMARK UNBOUND:                -0.064
REMARK SMILES CCCCC(=O)[O-]
REMARK SMILES IDX 4 1 5 2 6 3 7 4 3 5 2 6 1 7
REMARK H PARENT
REMARK Flexibility Score: inf
ROOT
ATOM      1  C   UNL     1     -43.502  28.185   2.290  1.00  0.00     0.053 C 
ENDROOT
BRANCH   1   2
ATOM      2  C   UNL     1     -44.574  27.323   2.883  1.00  0.00     0.041 C 
ATOM      3  O   UNL     1     -45.777  27.691   2.844  1.00  0.00    -0.550 OA
ATOM      4  O   UNL     1     -44.247  26.096   3.448  1.00  0.00    -0.550 OA
ENDBRANCH   1   2
BRANCH   1   5
ATOM      5  C   UNL     1     -42.722  27.455   1.185  1.00  0.00     0.006 C 
BRANCH   5   6
ATOM      6  C   UNL     1     -43.165  27.816  -0.244  1.00  0.00    -0.003 C 
ATOM      7  C   UNL     1     -44.368  27.000  -0.717  1.00  0.00     0.004 C 
ENDBRANCH   5   6
ENDBRANCH   1   5
TORSDOF 3
ENDMDL
MODEL 2
REMARK VINA RESULT:    -2.952      2.027      3.041
REMARK INTER + INTRA:          -3.534
REMARK INTER:                  -3.509
REMARK INTRA:                  -0.025
REMARK UNBOUND:                -0.064
REMARK SMILES CCCCC(=O)[O-]
REMARK SMILES IDX 4 1 5 2 6 3 7 4 3 5 2 6 1 7
REMARK H PARENT
REMARK Flexibility Score: inf
ROOT
ATOM      1  C   UNL     1     -43.972  27.224  -0.539  1.00  0.00     0.053 C 
ENDROOT
BRANCH   1   2
ATOM      2  C   UNL     1     -43.754  27.301   0.941  1.00  0.00     0.041 C 
ATOM      3  O   UNL     1     -42.616  27.579   1.400  1.00  0.00    -0.550 OA
ATOM      4  O   UNL     1     -44.817  27.098   1.813  1.00  0.00    -0.550 OA
ENDBRANCH   1   2
BRANCH   1   5
ATOM      5  C   UNL     1     -45.392  26.748  -0.887  1.00  0.00     0.006 C 
BRANCH   5   6
ATOM      6  C   UNL     1     -45.451  25.726  -2.036  1.00  0.00    -0.003 C 
ATOM      7  C   UNL     1     -46.163  26.268  -3.276  1.00  0.00     0.004 C 
ENDBRANCH   5   6
ENDBRANCH   1   5
TORSDOF 3
ENDMDL
MODEL 3
REMARK VINA RESULT:    -2.891      4.251      5.476
REMARK INTER + INTRA:          -3.462
REMARK INTER:                  -3.443
REMARK INTRA:                  -0.019
REMARK UNBOUND:                -0.064
REMARK SMILES CCCCC(=O)[O-]
REMARK SMILES IDX 4 1 5 2 6 3 7 4 3 5 2 6 1 7
REMARK H PARENT
REMARK Flexibility Score: inf
ROOT
ATOM      1  C   UNL     1     -46.005  27.057  -2.609  1.00  0.00     0.053 C 
ENDROOT
BRANCH   1   2
ATOM      2  C   UNL     1     -45.459  26.070  -1.623  1.00  0.00     0.041 C 
ATOM      3  O   UNL     1     -45.803  24.860  -1.681  1.00  0.00    -0.550 OA
ATOM      4  O   UNL     1     -44.544  26.479  -0.661  1.00  0.00    -0.550 OA
ENDBRANCH   1   2
BRANCH   1   5
ATOM      5  C   UNL     1     -46.380  26.391  -3.942  1.00  0.00     0.006 C 
BRANCH   5   6
ATOM      6  C   UNL     1     -46.246  27.312  -5.168  1.00  0.00    -0.003 C 
ATOM      7  C   UNL     1     -45.885  26.553  -6.444  1.00  0.00     0.004 C 
ENDBRANCH   5   6
ENDBRANCH   1   5
TORSDOF 3
ENDMDL
MODEL 4
REMARK VINA RESULT:    -2.811     22.008     22.874
REMARK INTER + INTRA:          -3.368
REMARK INTER:                  -3.324
REMARK INTRA:                  -0.044
REMARK UNBOUND:                -0.064
REMARK SMILES CCCCC(=O)[O-]
REMARK SMILES IDX 4 1 5 2 6 3 7 4 3 5 2 6 1 7
REMARK H PARENT
REMARK Flexibility Score: inf
ROOT
ATOM      1  C   UNL     1     -29.200  10.053   7.233  1.00  0.00     0.053 C 
ENDROOT
BRANCH   1   2
ATOM      2  C   UNL     1     -28.326  10.939   6.399  1.00  0.00     0.041 C 
ATOM      3  O   UNL     1     -28.719  12.088   6.069  1.00  0.00    -0.550 OA
ATOM      4  O   UNL     1     -27.062  10.508   6.014  1.00  0.00    -0.550 OA
ENDBRANCH   1   2
BRANCH   1   5
ATOM      5  C   UNL     1     -30.163  10.863   8.116  1.00  0.00     0.006 C 
BRANCH   5   6
ATOM      6  C   UNL     1     -31.650  10.536   7.893  1.00  0.00    -0.003 C 
ATOM      7  C   UNL     1     -32.538  10.988   9.052  1.00  0.00     0.004 C 
ENDBRANCH   5   6
ENDBRANCH   1   5
TORSDOF 3
ENDMDL
MODEL 5
REMARK VINA RESULT:    -2.806      1.975      3.253
REMARK INTER + INTRA:          -3.363
REMARK INTER:                  -3.296
REMARK INTRA:                  -0.067
REMARK UNBOUND:                -0.064
REMARK SMILES CCCCC(=O)[O-]
REMARK SMILES IDX 4 1 5 2 6 3 7 4 3 5 2 6 1 7
REMARK H PARENT
REMARK Flexibility Score: inf
ROOT
ATOM      1  C   UNL     1     -43.435  27.590  -0.197  1.00  0.00     0.053 C 
ENDROOT
BRANCH   1   2
ATOM      2  C   UNL     1     -44.746  26.867  -0.253  1.00  0.00     0.041 C 
ATOM      3  O   UNL     1     -44.962  26.015  -1.154  1.00  0.00    -0.550 OA
ATOM      4  O   UNL     1     -45.717  27.110   0.711  1.00  0.00    -0.550 OA
ENDBRANCH   1   2
BRANCH   1   5
ATOM      5  C   UNL     1     -42.830  27.577   1.216  1.00  0.00     0.006 C 
BRANCH   5   6
ATOM      6  C   UNL     1     -43.009  28.894   1.992  1.00  0.00    -0.003 C 
ATOM      7  C   UNL     1     -43.408  28.673   3.451  1.00  0.00     0.004 C 
ENDBRANCH   5   6
ENDBRANCH   1   5
TORSDOF 3
ENDMDL
MODEL 6
REMARK VINA RESULT:    -2.707      2.299      3.948
REMARK INTER + INTRA:          -3.246
REMARK INTER:                  -3.150
REMARK INTRA:                  -0.096
REMARK UNBOUND:                -0.064
REMARK SMILES CCCCC(=O)[O-]
REMARK SMILES IDX 4 1 5 2 6 3 7 4 3 5 2 6 1 7
REMARK H PARENT
REMARK Flexibility Score: inf
ROOT
ATOM      1  C   UNL     1     -43.976  28.627   2.940  1.00  0.00     0.053 C 
ENDROOT
BRANCH   1   2
ATOM      2  C   UNL     1     -44.013  27.168   2.605  1.00  0.00     0.041 C 
ATOM      3  O   UNL     1     -44.443  26.335   3.446  1.00  0.00    -0.550 OA
ATOM      4  O   UNL     1     -43.604  26.730   1.351  1.00  0.00    -0.550 OA
ENDBRANCH   1   2
BRANCH   1   5
ATOM      5  C   UNL     1     -42.935  28.941   4.027  1.00  0.00     0.006 C 
BRANCH   5   6
ATOM      6  C   UNL     1     -43.525  29.089   5.441  1.00  0.00    -0.003 C 
ATOM      7  C   UNL     1     -42.957  28.072   6.431  1.00  0.00     0.004 C 
ENDBRANCH   5   6
ENDBRANCH   1   5
TORSDOF 3
ENDMDL
MODEL 7
REMARK VINA RESULT:    -2.689      3.276      4.390
REMARK INTER + INTRA:          -3.225
REMARK INTER:                  -3.208
REMARK INTRA:                  -0.017
REMARK UNBOUND:                -0.064
REMARK SMILES CCCCC(=O)[O-]
REMARK SMILES IDX 4 1 5 2 6 3 7 4 3 5 2 6 1 7
REMARK H PARENT
REMARK Flexibility Score: inf
ROOT
ATOM      1  C   UNL     1     -45.405  27.174  -1.119  1.00  0.00     0.053 C 
ENDROOT
BRANCH   1   2
ATOM      2  C   UNL     1     -45.805  26.052  -2.026  1.00  0.00     0.041 C 
ATOM      3  O   UNL     1     -45.709  24.858  -1.638  1.00  0.00    -0.550 OA
ATOM      4  O   UNL     1     -46.316  26.325  -3.289  1.00  0.00    -0.550 OA
ENDBRANCH   1   2
BRANCH   1   5
ATOM      5  C   UNL     1     -43.990  26.979  -0.552  1.00  0.00     0.006 C 
BRANCH   5   6
ATOM      6  C   UNL     1     -43.522  28.111   0.379  1.00  0.00    -0.003 C 
ATOM      7  C   UNL     1     -43.110  27.609   1.764  1.00  0.00     0.004 C 
ENDBRANCH   5   6
ENDBRANCH   1   5
TORSDOF 3
ENDMDL
MODEL 8
REMARK VINA RESULT:    -2.646      6.797      8.289
REMARK INTER + INTRA:          -3.174
REMARK INTER:                  -3.155
REMARK INTRA:                  -0.018
REMARK UNBOUND:                -0.064
REMARK SMILES CCCCC(=O)[O-]
REMARK SMILES IDX 4 1 5 2 6 3 7 4 3 5 2 6 1 7
REMARK H PARENT
REMARK Flexibility Score: inf
ROOT
ATOM      1  C   UNL     1     -45.964  27.604  -5.543  1.00  0.00     0.053 C 
ENDROOT
BRANCH   1   2
ATOM      2  C   UNL     1     -45.839  27.115  -6.953  1.00  0.00     0.041 C 
ATOM      3  O   UNL     1     -45.205  26.057  -7.203  1.00  0.00    -0.550 OA
ATOM      4  O   UNL     1     -46.451  27.811  -7.988  1.00  0.00    -0.550 OA
ENDBRANCH   1   2
BRANCH   1   5
ATOM      5  C   UNL     1     -46.414  26.489  -4.585  1.00  0.00     0.006 C 
BRANCH   5   6
ATOM      6  C   UNL     1     -46.295  26.852  -3.094  1.00  0.00    -0.003 C 
ATOM      7  C   UNL     1     -45.621  25.755  -2.269  1.00  0.00     0.004 C 
ENDBRANCH   5   6
ENDBRANCH   1   5
TORSDOF 3
ENDMDL
MODEL 9
REMARK VINA RESULT:    -2.548      3.437      5.160
REMARK INTER + INTRA:          -3.060
REMARK INTER:                  -3.043
REMARK INTRA:                  -0.017
REMARK UNBOUND:                -0.064
REMARK SMILES CCCCC(=O)[O-]
REMARK SMILES IDX 4 1 5 2 6 3 7 4 3 5 2 6 1 7
REMARK H PARENT
REMARK Flexibility Score: inf
ROOT
ATOM      1  C   UNL     1     -44.395  28.095   5.304  1.00  0.00     0.053 C 
ENDROOT
BRANCH   1   2
ATOM      2  C   UNL     1     -45.138  27.201   4.361  1.00  0.00     0.041 C 
ATOM      3  O   UNL     1     -46.397  27.174   4.372  1.00  0.00    -0.550 OA
ATOM      4  O   UNL     1     -44.442  26.421   3.446  1.00  0.00    -0.550 OA
ENDBRANCH   1   2
BRANCH   1   5
ATOM      5  C   UNL     1     -43.799  27.315   6.487  1.00  0.00     0.006 C 
BRANCH   5   6
ATOM      6  C   UNL     1     -42.562  27.977   7.121  1.00  0.00    -0.003 C 
ATOM      7  C   UNL     1     -42.914  28.887   8.297  1.00  0.00     0.004 C 
ENDBRANCH   5   6
ENDBRANCH   1   5
TORSDOF 3
ENDMDL
