MODEL 1
REMARK VINA RESULT:    -5.855      0.000      0.000
REMARK INTER + INTRA:         -11.872
REMARK INTER:                 -10.305
REMARK INTRA:                  -1.567
REMARK UNBOUND:                -1.567
REMARK SMILES CCCCCCC=CCCCCCCCC(=O)[O-]
REMARK SMILES IDX 10 1 11 2 12 3 13 4 14 5 15 6 16 7 17 8 18 9 9 10 8 11 7 12
REMARK SMILES IDX 6 13 5 14 4 15 3 16 2 17 1 18
REMARK H PARENT
REMARK Flexibility Score: inf
ROOT
ATOM      1  C   UNL     1       9.428   4.237  54.827  1.00  0.00     0.004 C 
ENDROOT
BRANCH   1   2
ATOM      2  C   UNL     1       9.660   5.197  56.007  1.00  0.00     0.000 C 
BRANCH   2   3
ATOM      3  C   UNL     1       9.417   6.667  55.629  1.00  0.00     0.000 C 
BRANCH   3   4
ATOM      4  C   UNL     1      10.709   7.396  55.227  1.00  0.00     0.000 C 
BRANCH   4   5
ATOM      5  C   UNL     1      10.493   8.238  53.965  1.00  0.00     0.006 C 
BRANCH   5   6
ATOM      6  C   UNL     1       9.863   7.403  52.847  1.00  0.00     0.053 C 
BRANCH   6   7
ATOM      7  C   UNL     1       9.482   8.274  51.692  1.00  0.00     0.041 C 
ATOM      8  O   UNL     1       8.971   9.407  51.894  1.00  0.00    -0.550 OA
ATOM      9  O   UNL     1       9.644   7.814  50.391  1.00  0.00    -0.550 OA
ENDBRANCH   6   7
ENDBRANCH   5   6
ENDBRANCH   4   5
ENDBRANCH   3   4
ENDBRANCH   2   3
ENDBRANCH   1   2
BRANCH   1  10
ATOM     10  C   UNL     1      10.637   3.324  54.577  1.00  0.00     0.027 C 
BRANCH  10  11
ATOM     11  C   UNL     1      11.694   4.001  53.739  1.00  0.00    -0.031 C 
ATOM     12  C   UNL     1      12.805   4.575  54.235  1.00  0.00    -0.031 C 
BRANCH  12  13
ATOM     13  C   UNL     1      13.164   4.572  55.702  1.00  0.00     0.027 C 
BRANCH  13  14
ATOM     14  C   UNL     1      14.046   3.368  56.052  1.00  0.00     0.004 C 
BRANCH  14  15
ATOM     15  C   UNL     1      15.505   3.617  55.642  1.00  0.00     0.000 C 
BRANCH  15  16
ATOM     16  C   UNL     1      16.288   2.315  55.395  1.00  0.00    -0.000 C 
BRANCH  16  17
ATOM     17  C   UNL     1      15.917   1.149  56.329  1.00  0.00    -0.003 C 
ATOM     18  C   UNL     1      16.538  -0.181  55.900  1.00  0.00     0.004 C 
ENDBRANCH  16  17
ENDBRANCH  15  16
ENDBRANCH  14  15
ENDBRANCH  13  14
ENDBRANCH  12  13
ENDBRANCH  10  11
ENDBRANCH   1  10
TORSDOF 13
ENDMDL
MODEL 2
REMARK VINA RESULT:    -5.786      1.707      2.676
REMARK INTER + INTRA:         -11.750
REMARK INTER:                 -10.019
REMARK INTRA:                  -1.731
REMARK UNBOUND:                -1.567
REMARK SMILES CCCCCCC=CCCCCCCCC(=O)[O-]
REMARK SMILES IDX 10 1 11 2 12 3 13 4 14 5 15 6 16 7 17 8 18 9 9 10 8 11 7 12
REMARK SMILES IDX 6 13 5 14 4 15 3 16 2 17 1 18
REMARK H PARENT
REMARK Flexibility Score: inf
ROOT
ATOM      1  C   UNL     1      11.743   3.735  53.150  1.00  0.00     0.004 C 
ENDROOT
BRANCH   1   2
ATOM      2  C   UNL     1      12.474   5.019  53.582  1.00  0.00     0.000 C 
BRANCH   2   3
ATOM      3  C   UNL     1      12.184   6.206  52.649  1.00  0.00     0.000 C 
BRANCH   3   4
ATOM      4  C   UNL     1      11.436   7.346  53.358  1.00  0.00     0.000 C 
BRANCH   4   5
ATOM      5  C   UNL     1      10.169   7.734  52.588  1.00  0.00     0.006 C 
BRANCH   5   6
ATOM      6  C   UNL     1       8.914   7.472  53.426  1.00  0.00     0.053 C 
BRANCH   6   7
ATOM      7  C   UNL     1       9.012   8.165  54.747  1.00  0.00     0.041 C 
ATOM      8  O   UNL     1       8.913   7.507  55.816  1.00  0.00    -0.550 OA
ATOM      9  O   UNL     1       9.161   9.545  54.800  1.00  0.00    -0.550 OA
ENDBRANCH   6   7
ENDBRANCH   5   6
ENDBRANCH   4   5
ENDBRANCH   3   4
ENDBRANCH   2   3
ENDBRANCH   1   2
BRANCH   1  10
ATOM     10  C   UNL     1      10.783   3.224  54.235  1.00  0.00     0.027 C 
BRANCH  10  11
ATOM     11  C   UNL     1      10.374   4.319  55.190  1.00  0.00    -0.031 C 
ATOM     12  C   UNL     1      10.744   4.378  56.482  1.00  0.00    -0.031 C 
BRANCH  12  13
ATOM     13  C   UNL     1      11.664   3.375  57.135  1.00  0.00     0.027 C 
BRANCH  13  14
ATOM     14  C   UNL     1      13.126   3.823  57.041  1.00  0.00     0.004 C 
BRANCH  14  15
ATOM     15  C   UNL     1      13.996   2.732  56.399  1.00  0.00     0.000 C 
BRANCH  15  16
ATOM     16  C   UNL     1      15.197   3.302  55.623  1.00  0.00    -0.000 C 
BRANCH  16  17
ATOM     17  C   UNL     1      16.350   2.307  55.393  1.00  0.00    -0.003 C 
ATOM     18  C   UNL     1      16.220   1.038  56.234  1.00  0.00     0.004 C 
ENDBRANCH  16  17
ENDBRANCH  15  16
ENDBRANCH  14  15
ENDBRANCH  13  14
ENDBRANCH  12  13
ENDBRANCH  10  11
ENDBRANCH   1  10
TORSDOF 13
ENDMDL
MODEL 3
REMARK VINA RESULT:    -5.640      4.313      7.156
REMARK INTER + INTRA:         -11.492
REMARK INTER:                  -9.632
REMARK INTRA:                  -1.860
REMARK UNBOUND:                -1.567
REMARK SMILES CCCCCCC=CCCCCCCCC(=O)[O-]
REMARK SMILES IDX 10 1 11 2 12 3 13 4 14 5 15 6 16 7 17 8 18 9 9 10 8 11 7 12
REMARK SMILES IDX 6 13 5 14 4 15 3 16 2 17 1 18
REMARK H PARENT
REMARK Flexibility Score: inf
ROOT
ATOM      1  C   UNL     1      11.419   3.501  56.437  1.00  0.00     0.004 C 
ENDROOT
BRANCH   1   2
ATOM      2  C   UNL     1      12.897   3.360  56.841  1.00  0.00     0.000 C 
BRANCH   2   3
ATOM      3  C   UNL     1      13.768   4.507  56.305  1.00  0.00     0.000 C 
BRANCH   3   4
ATOM      4  C   UNL     1      15.061   4.007  55.641  1.00  0.00     0.000 C 
BRANCH   4   5
ATOM      5  C   UNL     1      15.133   2.476  55.664  1.00  0.00     0.006 C 
BRANCH   5   6
ATOM      6  C   UNL     1      16.584   1.996  55.767  1.00  0.00     0.053 C 
BRANCH   6   7
ATOM      7  C   UNL     1      16.644   0.640  56.394  1.00  0.00     0.041 C 
ATOM      8  O   UNL     1      16.829   0.523  57.634  1.00  0.00    -0.550 OA
ATOM      9  O   UNL     1      16.546  -0.498  55.603  1.00  0.00    -0.550 OA
ENDBRANCH   6   7
ENDBRANCH   5   6
ENDBRANCH   4   5
ENDBRANCH   3   4
ENDBRANCH   2   3
ENDBRANCH   1   2
BRANCH   1  10
ATOM     10  C   UNL     1      10.925   4.951  56.544  1.00  0.00     0.027 C 
BRANCH  10  11
ATOM     11  C   UNL     1       9.674   5.184  55.732  1.00  0.00    -0.031 C 
ATOM     12  C   UNL     1       9.330   6.366  55.191  1.00  0.00    -0.031 C 
BRANCH  12  13
ATOM     13  C   UNL     1      10.182   7.609  55.284  1.00  0.00     0.027 C 
BRANCH  13  14
ATOM     14  C   UNL     1      10.499   8.168  53.893  1.00  0.00     0.004 C 
BRANCH  14  15
ATOM     15  C   UNL     1      11.830   7.611  53.367  1.00  0.00     0.000 C 
BRANCH  15  16
ATOM     16  C   UNL     1      11.659   6.310  52.562  1.00  0.00    -0.000 C 
BRANCH  16  17
ATOM     17  C   UNL     1      12.545   5.140  53.027  1.00  0.00    -0.003 C 
ATOM     18  C   UNL     1      11.856   3.782  52.903  1.00  0.00     0.004 C 
ENDBRANCH  16  17
ENDBRANCH  15  16
ENDBRANCH  14  15
ENDBRANCH  13  14
ENDBRANCH  12  13
ENDBRANCH  10  11
ENDBRANCH   1  10
TORSDOF 13
ENDMDL
MODEL 4
REMARK VINA RESULT:    -5.629      4.134      7.565
REMARK INTER + INTRA:         -11.474
REMARK INTER:                  -9.876
REMARK INTRA:                  -1.598
REMARK UNBOUND:                -1.567
REMARK SMILES CCCCCCC=CCCCCCCCC(=O)[O-]
REMARK SMILES IDX 10 1 11 2 12 3 13 4 14 5 15 6 16 7 17 8 18 9 9 10 8 11 7 12
REMARK SMILES IDX 6 13 5 14 4 15 3 16 2 17 1 18
REMARK H PARENT
REMARK Flexibility Score: inf
ROOT
ATOM      1  C   UNL     1      11.065   4.162  56.090  1.00  0.00     0.004 C 
ENDROOT
BRANCH   1   2
ATOM      2  C   UNL     1      12.153   3.110  56.372  1.00  0.00     0.000 C 
BRANCH   2   3
ATOM      3  C   UNL     1      13.524   3.742  56.659  1.00  0.00     0.000 C 
BRANCH   3   4
ATOM      4  C   UNL     1      14.474   3.667  55.454  1.00  0.00     0.000 C 
BRANCH   4   5
ATOM      5  C   UNL     1      15.879   3.233  55.888  1.00  0.00     0.006 C 
BRANCH   5   6
ATOM      6  C   UNL     1      16.173   1.798  55.441  1.00  0.00     0.053 C 
BRANCH   6   7
ATOM      7  C   UNL     1      16.137   0.866  56.610  1.00  0.00     0.041 C 
ATOM      8  O   UNL     1      17.163   0.210  56.931  1.00  0.00    -0.550 OA
ATOM      9  O   UNL     1      14.955   0.683  57.318  1.00  0.00    -0.550 OA
ENDBRANCH   6   7
ENDBRANCH   5   6
ENDBRANCH   4   5
ENDBRANCH   3   4
ENDBRANCH   2   3
ENDBRANCH   1   2
BRANCH   1  10
ATOM     10  C   UNL     1      10.378   3.935  54.736  1.00  0.00     0.027 C 
BRANCH  10  11
ATOM     11  C   UNL     1      11.372   3.625  53.642  1.00  0.00    -0.031 C 
ATOM     12  C   UNL     1      12.086   4.553  52.979  1.00  0.00    -0.031 C 
BRANCH  12  13
ATOM     13  C   UNL     1      12.021   6.031  53.281  1.00  0.00     0.027 C 
BRANCH  13  14
ATOM     14  C   UNL     1      11.155   6.768  52.254  1.00  0.00     0.004 C 
BRANCH  14  15
ATOM     15  C   UNL     1      10.276   7.828  52.935  1.00  0.00     0.000 C 
BRANCH  15  16
ATOM     16  C   UNL     1       9.121   7.217  53.749  1.00  0.00    -0.000 C 
BRANCH  16  17
ATOM     17  C   UNL     1       9.161   7.522  55.258  1.00  0.00    -0.003 C 
ATOM     18  C   UNL     1       9.531   8.973  55.565  1.00  0.00     0.004 C 
ENDBRANCH  16  17
ENDBRANCH  15  16
ENDBRANCH  14  15
ENDBRANCH  13  14
ENDBRANCH  12  13
ENDBRANCH  10  11
ENDBRANCH   1  10
TORSDOF 13
ENDMDL
MODEL 5
REMARK VINA RESULT:    -5.605      1.374      2.502
REMARK INTER + INTRA:         -11.431
REMARK INTER:                  -9.639
REMARK INTRA:                  -1.792
REMARK UNBOUND:                -1.567
REMARK SMILES CCCCCCC=CCCCCCCCC(=O)[O-]
REMARK SMILES IDX 10 1 11 2 12 3 13 4 14 5 15 6 16 7 17 8 18 9 9 10 8 11 7 12
REMARK SMILES IDX 6 13 5 14 4 15 3 16 2 17 1 18
REMARK H PARENT
REMARK Flexibility Score: inf
ROOT
ATOM      1  C   UNL     1      11.818   7.564  53.760  1.00  0.00     0.004 C 
ENDROOT
BRANCH   1   2
ATOM      2  C   UNL     1      11.146   7.508  55.144  1.00  0.00     0.000 C 
BRANCH   2   3
ATOM      3  C   UNL     1       9.665   7.105  55.066  1.00  0.00     0.000 C 
BRANCH   3   4
ATOM      4  C   UNL     1       8.717   8.269  55.394  1.00  0.00     0.000 C 
BRANCH   4   5
ATOM      5  C   UNL     1       7.897   8.674  54.164  1.00  0.00     0.006 C 
BRANCH   5   6
ATOM      6  C   UNL     1       8.617   9.757  53.355  1.00  0.00     0.053 C 
BRANCH   6   7
ATOM      7  C   UNL     1       8.716   9.359  51.917  1.00  0.00     0.041 C 
ATOM      8  O   UNL     1       9.829   9.380  51.329  1.00  0.00    -0.550 OA
ATOM      9  O   UNL     1       7.570   9.014  51.210  1.00  0.00    -0.550 OA
ENDBRANCH   6   7
ENDBRANCH   5   6
ENDBRANCH   4   5
ENDBRANCH   3   4
ENDBRANCH   2   3
ENDBRANCH   1   2
BRANCH   1  10
ATOM     10  C   UNL     1      11.285   6.478  52.814  1.00  0.00     0.027 C 
BRANCH  10  11
ATOM     11  C   UNL     1      12.245   5.321  52.682  1.00  0.00    -0.031 C 
ATOM     12  C   UNL     1      12.145   4.169  53.368  1.00  0.00    -0.031 C 
BRANCH  12  13
ATOM     13  C   UNL     1      11.021   3.862  54.328  1.00  0.00     0.027 C 
BRANCH  13  14
ATOM     14  C   UNL     1      11.563   3.360  55.671  1.00  0.00     0.004 C 
BRANCH  14  15
ATOM     15  C   UNL     1      12.862   4.089  56.047  1.00  0.00     0.000 C 
BRANCH  15  16
ATOM     16  C   UNL     1      14.029   3.126  56.331  1.00  0.00    -0.000 C 
BRANCH  16  17
ATOM     17  C   UNL     1      15.314   3.414  55.533  1.00  0.00    -0.003 C 
ATOM     18  C   UNL     1      16.314   2.259  55.573  1.00  0.00     0.004 C 
ENDBRANCH  16  17
ENDBRANCH  15  16
ENDBRANCH  14  15
ENDBRANCH  13  14
ENDBRANCH  12  13
ENDBRANCH  10  11
ENDBRANCH   1  10
TORSDOF 13
ENDMDL
MODEL 6
REMARK VINA RESULT:    -5.598      1.860      2.800
REMARK INTER + INTRA:         -11.420
REMARK INTER:                  -9.673
REMARK INTRA:                  -1.746
REMARK UNBOUND:                -1.567
REMARK SMILES CCCCCCC=CCCCCCCCC(=O)[O-]
REMARK SMILES IDX 10 1 11 2 12 3 13 4 14 5 15 6 16 7 17 8 18 9 9 10 8 11 7 12
REMARK SMILES IDX 6 13 5 14 4 15 3 16 2 17 1 18
REMARK H PARENT
REMARK Flexibility Score: inf
ROOT
ATOM      1  C   UNL     1      10.790   3.463  54.497  1.00  0.00     0.004 C 
ENDROOT
BRANCH   1   2
ATOM      2  C   UNL     1      11.824   3.766  53.399  1.00  0.00     0.000 C 
BRANCH   2   3
ATOM      3  C   UNL     1      12.439   5.168  53.536  1.00  0.00     0.000 C 
BRANCH   3   4
ATOM      4  C   UNL     1      11.930   6.145  52.466  1.00  0.00     0.000 C 
BRANCH   4   5
ATOM      5  C   UNL     1      11.532   7.487  53.091  1.00  0.00     0.006 C 
BRANCH   5   6
ATOM      6  C   UNL     1      11.378   7.361  54.610  1.00  0.00     0.053 C 
BRANCH   6   7
ATOM      7  C   UNL     1       9.944   7.512  55.006  1.00  0.00     0.041 C 
ATOM      8  O   UNL     1       9.118   6.595  54.756  1.00  0.00    -0.550 OA
ATOM      9  O   UNL     1       9.507   8.686  55.607  1.00  0.00    -0.550 OA
ENDBRANCH   6   7
ENDBRANCH   5   6
ENDBRANCH   4   5
ENDBRANCH   3   4
ENDBRANCH   2   3
ENDBRANCH   1   2
BRANCH   1  10
ATOM     10  C   UNL     1      11.257   3.941  55.879  1.00  0.00     0.027 C 
BRANCH  10  11
ATOM     11  C   UNL     1      11.886   2.826  56.680  1.00  0.00    -0.031 C 
ATOM     12  C   UNL     1      13.188   2.772  57.015  1.00  0.00    -0.031 C 
BRANCH  12  13
ATOM     13  C   UNL     1      14.185   3.853  56.673  1.00  0.00     0.027 C 
BRANCH  13  14
ATOM     14  C   UNL     1      15.054   3.446  55.478  1.00  0.00     0.004 C 
BRANCH  14  15
ATOM     15  C   UNL     1      16.296   2.669  55.939  1.00  0.00     0.000 C 
BRANCH  15  16
ATOM     16  C   UNL     1      16.399   1.271  55.304  1.00  0.00    -0.000 C 
BRANCH  16  17
ATOM     17  C   UNL     1      16.357   0.101  56.303  1.00  0.00    -0.003 C 
ATOM     18  C   UNL     1      17.307   0.289  57.485  1.00  0.00     0.004 C 
ENDBRANCH  16  17
ENDBRANCH  15  16
ENDBRANCH  14  15
ENDBRANCH  13  14
ENDBRANCH  12  13
ENDBRANCH  10  11
ENDBRANCH   1  10
TORSDOF 13
ENDMDL
MODEL 7
REMARK VINA RESULT:    -5.570      3.604      7.296
REMARK INTER + INTRA:         -11.370
REMARK INTER:                  -9.493
REMARK INTRA:                  -1.876
REMARK UNBOUND:                -1.567
REMARK SMILES CCCCCCC=CCCCCCCCC(=O)[O-]
REMARK SMILES IDX 10 1 11 2 12 3 13 4 14 5 15 6 16 7 17 8 18 9 9 10 8 11 7 12
REMARK SMILES IDX 6 13 5 14 4 15 3 16 2 17 1 18
REMARK H PARENT
REMARK Flexibility Score: inf
ROOT
ATOM      1  C   UNL     1      11.809   3.857  53.043  1.00  0.00     0.004 C 
ENDROOT
BRANCH   1   2
ATOM      2  C   UNL     1      11.009   3.232  54.200  1.00  0.00     0.000 C 
BRANCH   2   3
ATOM      3  C   UNL     1       9.943   4.185  54.763  1.00  0.00     0.000 C 
BRANCH   3   4
ATOM      4  C   UNL     1      10.034   4.338  56.290  1.00  0.00     0.000 C 
BRANCH   4   5
ATOM      5  C   UNL     1      11.482   4.571  56.733  1.00  0.00     0.006 C 
BRANCH   5   6
ATOM      6  C   UNL     1      11.902   3.553  57.798  1.00  0.00     0.053 C 
BRANCH   6   7
ATOM      7  C   UNL     1      13.012   2.689  57.289  1.00  0.00     0.041 C 
ATOM      8  O   UNL     1      13.259   1.585  57.842  1.00  0.00    -0.550 OA
ATOM      9  O   UNL     1      13.807   3.124  56.237  1.00  0.00    -0.550 OA
ENDBRANCH   6   7
ENDBRANCH   5   6
ENDBRANCH   4   5
ENDBRANCH   3   4
ENDBRANCH   2   3
ENDBRANCH   1   2
BRANCH   1  10
ATOM     10  C   UNL     1      12.470   5.183  53.447  1.00  0.00     0.027 C 
BRANCH  10  11
ATOM     11  C   UNL     1      11.924   6.350  52.660  1.00  0.00    -0.031 C 
ATOM     12  C   UNL     1      11.405   7.462  53.211  1.00  0.00    -0.031 C 
BRANCH  12  13
ATOM     13  C   UNL     1      11.347   7.708  54.700  1.00  0.00     0.027 C 
BRANCH  13  14
ATOM     14  C   UNL     1       9.937   8.118  55.138  1.00  0.00     0.004 C 
BRANCH  14  15
ATOM     15  C   UNL     1       8.872   7.470  54.242  1.00  0.00     0.000 C 
BRANCH  15  16
ATOM     16  C   UNL     1       7.939   8.498  53.578  1.00  0.00    -0.000 C 
BRANCH  16  17
ATOM     17  C   UNL     1       7.956   8.489  52.038  1.00  0.00    -0.003 C 
ATOM     18  C   UNL     1       7.016   9.526  51.424  1.00  0.00     0.004 C 
ENDBRANCH  16  17
ENDBRANCH  15  16
ENDBRANCH  14  15
ENDBRANCH  13  14
ENDBRANCH  12  13
ENDBRANCH  10  11
ENDBRANCH   1  10
TORSDOF 13
ENDMDL
MODEL 8
REMARK VINA RESULT:    -5.568      4.292      7.974
REMARK INTER + INTRA:         -11.366
REMARK INTER:                 -10.052
REMARK INTRA:                  -1.314
REMARK UNBOUND:                -1.567
REMARK SMILES CCCCCCC=CCCCCCCCC(=O)[O-]
REMARK SMILES IDX 10 1 11 2 12 3 13 4 14 5 15 6 16 7 17 8 18 9 9 10 8 11 7 12
REMARK SMILES IDX 6 13 5 14 4 15 3 16 2 17 1 18
REMARK H PARENT
REMARK Flexibility Score: inf
ROOT
ATOM      1  C   UNL     1      12.282   4.165  54.297  1.00  0.00     0.004 C 
ENDROOT
BRANCH   1   2
ATOM      2  C   UNL     1      12.939   4.489  55.651  1.00  0.00     0.000 C 
BRANCH   2   3
ATOM      3  C   UNL     1      14.000   3.453  56.056  1.00  0.00     0.000 C 
BRANCH   3   4
ATOM      4  C   UNL     1      15.405   3.819  55.553  1.00  0.00     0.000 C 
BRANCH   4   5
ATOM      5  C   UNL     1      16.330   2.597  55.572  1.00  0.00     0.006 C 
BRANCH   5   6
ATOM      6  C   UNL     1      15.635   1.390  56.209  1.00  0.00     0.053 C 
BRANCH   6   7
ATOM      7  C   UNL     1      16.610   0.276  56.424  1.00  0.00     0.041 C 
ATOM      8  O   UNL     1      16.555  -0.760  55.711  1.00  0.00    -0.550 OA
ATOM      9  O   UNL     1      17.547   0.360  57.446  1.00  0.00    -0.550 OA
ENDBRANCH   6   7
ENDBRANCH   5   6
ENDBRANCH   4   5
ENDBRANCH   3   4
ENDBRANCH   2   3
ENDBRANCH   1   2
BRANCH   1  10
ATOM     10  C   UNL     1      10.820   3.725  54.454  1.00  0.00     0.027 C 
BRANCH  10  11
ATOM     11  C   UNL     1      10.231   4.175  55.769  1.00  0.00    -0.031 C 
ATOM     12  C   UNL     1       9.633   5.363  55.967  1.00  0.00    -0.031 C 
BRANCH  12  13
ATOM     13  C   UNL     1       9.427   6.388  54.878  1.00  0.00     0.027 C 
BRANCH  13  14
ATOM     14  C   UNL     1      10.281   7.637  55.124  1.00  0.00     0.004 C 
BRANCH  14  15
ATOM     15  C   UNL     1      11.153   7.957  53.901  1.00  0.00     0.000 C 
BRANCH  15  16
ATOM     16  C   UNL     1      10.785   7.116  52.665  1.00  0.00    -0.000 C 
BRANCH  16  17
ATOM     17  C   UNL     1       9.813   7.798  51.684  1.00  0.00    -0.003 C 
ATOM     18  C   UNL     1       9.707   9.307  51.900  1.00  0.00     0.004 C 
ENDBRANCH  16  17
ENDBRANCH  15  16
ENDBRANCH  14  15
ENDBRANCH  13  14
ENDBRANCH  12  13
ENDBRANCH  10  11
ENDBRANCH   1  10
TORSDOF 13
ENDMDL
MODEL 9
REMARK VINA RESULT:    -5.484      3.639      7.488
REMARK INTER + INTRA:         -11.219
REMARK INTER:                  -9.086
REMARK INTRA:                  -2.132
REMARK UNBOUND:                -1.567
REMARK SMILES CCCCCCC=CCCCCCCCC(=O)[O-]
REMARK SMILES IDX 10 1 11 2 12 3 13 4 14 5 15 6 16 7 17 8 18 9 9 10 8 11 7 12
REMARK SMILES IDX 6 13 5 14 4 15 3 16 2 17 1 18
REMARK H PARENT
REMARK Flexibility Score: inf
ROOT
ATOM      1  C   UNL     1      12.431   5.534  52.639  1.00  0.00     0.004 C 
ENDROOT
BRANCH   1   2
ATOM      2  C   UNL     1      12.478   4.489  53.767  1.00  0.00     0.000 C 
BRANCH   2   3
ATOM      3  C   UNL     1      11.161   3.708  53.905  1.00  0.00     0.000 C 
BRANCH   3   4
ATOM      4  C   UNL     1      10.488   3.921  55.270  1.00  0.00     0.000 C 
BRANCH   4   5
ATOM      5  C   UNL     1      11.490   4.456  56.299  1.00  0.00     0.006 C 
BRANCH   5   6
ATOM      6  C   UNL     1      11.714   3.445  57.426  1.00  0.00     0.053 C 
BRANCH   6   7
ATOM      7  C   UNL     1      12.923   2.610  57.150  1.00  0.00     0.041 C 
ATOM      8  O   UNL     1      13.016   1.450  57.631  1.00  0.00    -0.550 OA
ATOM      9  O   UNL     1      13.972   3.130  56.402  1.00  0.00    -0.550 OA
ENDBRANCH   6   7
ENDBRANCH   5   6
ENDBRANCH   4   5
ENDBRANCH   3   4
ENDBRANCH   2   3
ENDBRANCH   1   2
BRANCH   1  10
ATOM     10  C   UNL     1      11.324   6.574  52.860  1.00  0.00     0.027 C 
BRANCH  10  11
ATOM     11  C   UNL     1      11.654   7.522  53.987  1.00  0.00    -0.031 C 
ATOM     12  C   UNL     1      10.783   7.908  54.937  1.00  0.00    -0.031 C 
BRANCH  12  13
ATOM     13  C   UNL     1       9.365   7.398  55.027  1.00  0.00     0.027 C 
BRANCH  13  14
ATOM     14  C   UNL     1       8.376   8.549  55.237  1.00  0.00     0.004 C 
BRANCH  14  15
ATOM     15  C   UNL     1       8.802   9.793  54.444  1.00  0.00     0.000 C 
BRANCH  15  16
ATOM     16  C   UNL     1       8.263   9.799  53.002  1.00  0.00    -0.000 C 
BRANCH  16  17
ATOM     17  C   UNL     1       9.344   9.735  51.907  1.00  0.00    -0.003 C 
ATOM     18  C   UNL     1       9.102   8.617  50.894  1.00  0.00     0.004 C 
ENDBRANCH  16  17
ENDBRANCH  15  16
ENDBRANCH  14  15
ENDBRANCH  13  14
ENDBRANCH  12  13
ENDBRANCH  10  11
ENDBRANCH   1  10
TORSDOF 13
ENDMDL
