MODEL 1
REMARK VINA RESULT:    -4.129      0.000      0.000
REMARK INTER + INTRA:         -16.602
REMARK INTER:                 -10.888
REMARK INTRA:                  -5.714
REMARK UNBOUND:                -5.714
REMARK SMILES CCCCCCCCCCCCCCCCCCCCCCCCCCCCCC(=O)[O-]
REMARK SMILES IDX 16 1 17 2 18 3 19 4 20 5 21 6 22 7 23 8 24 9 25 10 26 11
REMARK SMILES IDX 27 12 28 13 29 14 30 15 31 16 32 17 15 18 14 19 13 20 12 21
REMARK SMILES IDX 11 22 10 23 9 24 8 25 7 26 6 27 5 28 4 29 3 30 2 31 1 32
REMARK H PARENT
REMARK Flexibility Score: inf
ROOT
ATOM      1  C   UNL     1      37.934  31.705  25.288  1.00  0.00     0.000 C 
ENDROOT
BRANCH   1   2
ATOM      2  C   UNL     1      37.989  32.793  26.372  1.00  0.00     0.000 C 
BRANCH   2   3
ATOM      3  C   UNL     1      36.594  33.183  26.889  1.00  0.00     0.000 C 
BRANCH   3   4
ATOM      4  C   UNL     1      35.465  32.486  26.112  1.00  0.00     0.000 C 
BRANCH   4   5
ATOM      5  C   UNL     1      34.314  33.444  25.759  1.00  0.00     0.000 C 
BRANCH   5   6
ATOM      6  C   UNL     1      33.808  33.258  24.317  1.00  0.00     0.000 C 
BRANCH   6   7
ATOM      7  C   UNL     1      34.012  34.473  23.392  1.00  0.00     0.000 C 
BRANCH   7   8
ATOM      8  C   UNL     1      34.998  35.538  23.912  1.00  0.00     0.000 C 
BRANCH   8   9
ATOM      9  C   UNL     1      36.437  35.410  23.379  1.00  0.00     0.000 C 
BRANCH   9  10
ATOM     10  C   UNL     1      37.437  36.307  24.131  1.00  0.00     0.000 C 
BRANCH  10  11
ATOM     11  C   UNL     1      37.139  36.373  25.644  1.00  0.00     0.000 C 
BRANCH  11  12
ATOM     12  C   UNL     1      38.394  36.545  26.517  1.00  0.00     0.000 C 
BRANCH  12  13
ATOM     13  C   UNL     1      38.117  36.320  28.011  1.00  0.00     0.006 C 
BRANCH  13  14
ATOM     14  C   UNL     1      37.005  37.236  28.540  1.00  0.00     0.053 C 
BRANCH  14  15
ATOM     15  C   UNL     1      35.842  36.451  29.066  1.00  0.00     0.041 C 
ATOM     16  O   UNL     1      34.840  36.233  28.336  1.00  0.00    -0.550 OA
ATOM     17  O   UNL     1      35.856  35.981  30.372  1.00  0.00    -0.550 OA
ENDBRANCH  14  15
ENDBRANCH  13  14
ENDBRANCH  12  13
ENDBRANCH  11  12
ENDBRANCH  10  11
ENDBRANCH   9  10
ENDBRANCH   8   9
ENDBRANCH   7   8
ENDBRANCH   6   7
ENDBRANCH   5   6
ENDBRANCH   4   5
ENDBRANCH   3   4
ENDBRANCH   2   3
ENDBRANCH   1   2
BRANCH   1  18
ATOM     18  C   UNL     1      38.413  32.205  23.917  1.00  0.00     0.000 C 
BRANCH  18  19
ATOM     19  C   UNL     1      37.305  32.060  22.866  1.00  0.00     0.000 C 
BRANCH  19  20
ATOM     20  C   UNL     1      36.479  30.785  23.101  1.00  0.00     0.000 C 
BRANCH  20  21
ATOM     21  C   UNL     1      35.502  30.497  21.951  1.00  0.00     0.000 C 
BRANCH  21  22
ATOM     22  C   UNL     1      35.212  31.740  21.095  1.00  0.00     0.000 C 
BRANCH  22  23
ATOM     23  C   UNL     1      33.710  31.877  20.818  1.00  0.00     0.000 C 
BRANCH  23  24
ATOM     24  C   UNL     1      32.904  30.847  21.624  1.00  0.00    -0.000 C 
BRANCH  24  25
ATOM     25  C   UNL     1      32.118  29.872  20.722  1.00  0.00    -0.000 C 
BRANCH  25  26
ATOM     26  C   UNL     1      32.853  28.544  20.447  1.00  0.00    -0.000 C 
BRANCH  26  27
ATOM     27  C   UNL     1      33.272  28.321  18.985  1.00  0.00    -0.000 C 
BRANCH  27  28
ATOM     28  C   UNL     1      34.794  28.269  18.748  1.00  0.00    -0.000 C 
BRANCH  28  29
ATOM     29  C   UNL     1      35.389  29.597  18.226  1.00  0.00    -0.000 C 
BRANCH  29  30
ATOM     30  C   UNL     1      34.572  30.253  17.094  1.00  0.00    -0.000 C 
BRANCH  30  31
ATOM     31  C   UNL     1      34.500  31.792  17.157  1.00  0.00    -0.003 C 
ATOM     32  C   UNL     1      33.068  32.327  17.197  1.00  0.00     0.004 C 
ENDBRANCH  30  31
ENDBRANCH  29  30
ENDBRANCH  28  29
ENDBRANCH  27  28
ENDBRANCH  26  27
ENDBRANCH  25  26
ENDBRANCH  24  25
ENDBRANCH  23  24
ENDBRANCH  22  23
ENDBRANCH  21  22
ENDBRANCH  20  21
ENDBRANCH  19  20
ENDBRANCH  18  19
ENDBRANCH   1  18
TORSDOF 28
ENDMDL
MODEL 2
REMARK VINA RESULT:    -4.063      2.402      4.530
REMARK INTER + INTRA:         -16.426
REMARK INTER:                 -11.067
REMARK INTRA:                  -5.359
REMARK UNBOUND:                -5.714
REMARK SMILES CCCCCCCCCCCCCCCCCCCCCCCCCCCCCC(=O)[O-]
REMARK SMILES IDX 16 1 17 2 18 3 19 4 20 5 21 6 22 7 23 8 24 9 25 10 26 11
REMARK SMILES IDX 27 12 28 13 29 14 30 15 31 16 32 17 15 18 14 19 13 20 12 21
REMARK SMILES IDX 11 22 10 23 9 24 8 25 7 26 6 27 5 28 4 29 3 30 2 31 1 32
REMARK H PARENT
REMARK Flexibility Score: inf
ROOT
ATOM      1  C   UNL     1      33.663  32.878  24.569  1.00  0.00     0.000 C 
ENDROOT
BRANCH   1   2
ATOM      2  C   UNL     1      34.492  32.311  25.732  1.00  0.00     0.000 C 
BRANCH   2   3
ATOM      3  C   UNL     1      35.515  33.322  26.277  1.00  0.00     0.000 C 
BRANCH   3   4
ATOM      4  C   UNL     1      35.066  34.779  26.071  1.00  0.00     0.000 C 
BRANCH   4   5
ATOM      5  C   UNL     1      35.490  35.696  27.230  1.00  0.00     0.000 C 
BRANCH   5   6
ATOM      6  C   UNL     1      36.123  34.920  28.400  1.00  0.00     0.000 C 
BRANCH   6   7
ATOM      7  C   UNL     1      36.480  35.774  29.632  1.00  0.00     0.000 C 
BRANCH   7   8
ATOM      8  C   UNL     1      36.622  37.287  29.366  1.00  0.00     0.000 C 
BRANCH   8   9
ATOM      9  C   UNL     1      38.015  37.735  28.887  1.00  0.00     0.000 C 
BRANCH   9  10
ATOM     10  C   UNL     1      39.139  36.788  29.343  1.00  0.00     0.000 C 
BRANCH  10  11
ATOM     11  C   UNL     1      39.849  36.108  28.153  1.00  0.00     0.000 C 
BRANCH  11  12
ATOM     12  C   UNL     1      39.181  36.379  26.794  1.00  0.00     0.000 C 
BRANCH  12  13
ATOM     13  C   UNL     1      39.214  35.160  25.860  1.00  0.00     0.006 C 
BRANCH  13  14
ATOM     14  C   UNL     1      39.187  33.835  26.632  1.00  0.00     0.053 C 
BRANCH  14  15
ATOM     15  C   UNL     1      40.378  32.983  26.318  1.00  0.00     0.041 C 
ATOM     16  O   UNL     1      40.326  32.135  25.389  1.00  0.00    -0.550 OA
ATOM     17  O   UNL     1      41.540  33.112  27.067  1.00  0.00    -0.550 OA
ENDBRANCH  14  15
ENDBRANCH  13  14
ENDBRANCH  12  13
ENDBRANCH  11  12
ENDBRANCH  10  11
ENDBRANCH   9  10
ENDBRANCH   8   9
ENDBRANCH   7   8
ENDBRANCH   6   7
ENDBRANCH   5   6
ENDBRANCH   4   5
ENDBRANCH   3   4
ENDBRANCH   2   3
ENDBRANCH   1   2
BRANCH   1  18
ATOM     18  C   UNL     1      33.742  32.012  23.302  1.00  0.00     0.000 C 
BRANCH  18  19
ATOM     19  C   UNL     1      34.419  30.668  23.602  1.00  0.00     0.000 C 
BRANCH  19  20
ATOM     20  C   UNL     1      35.674  30.473  22.737  1.00  0.00     0.000 C 
BRANCH  20  21
ATOM     21  C   UNL     1      36.971  30.770  23.507  1.00  0.00     0.000 C 
BRANCH  21  22
ATOM     22  C   UNL     1      37.423  32.232  23.364  1.00  0.00     0.000 C 
BRANCH  22  23
ATOM     23  C   UNL     1      37.237  32.725  21.925  1.00  0.00     0.000 C 
BRANCH  23  24
ATOM     24  C   UNL     1      36.383  34.002  21.885  1.00  0.00    -0.000 C 
BRANCH  24  25
ATOM     25  C   UNL     1      35.885  34.338  20.462  1.00  0.00    -0.000 C 
BRANCH  25  26
ATOM     26  C   UNL     1      34.381  34.071  20.247  1.00  0.00    -0.000 C 
BRANCH  26  27
ATOM     27  C   UNL     1      34.001  32.594  20.055  1.00  0.00    -0.000 C 
BRANCH  27  28
ATOM     28  C   UNL     1      34.933  31.802  19.116  1.00  0.00    -0.000 C 
BRANCH  28  29
ATOM     29  C   UNL     1      34.294  30.515  18.545  1.00  0.00    -0.000 C 
BRANCH  29  30
ATOM     30  C   UNL     1      32.987  30.092  19.248  1.00  0.00    -0.000 C 
BRANCH  30  31
ATOM     31  C   UNL     1      33.137  28.919  20.236  1.00  0.00    -0.003 C 
ATOM     32  C   UNL     1      32.049  28.895  21.311  1.00  0.00     0.004 C 
ENDBRANCH  30  31
ENDBRANCH  29  30
ENDBRANCH  28  29
ENDBRANCH  27  28
ENDBRANCH  26  27
ENDBRANCH  25  26
ENDBRANCH  24  25
ENDBRANCH  23  24
ENDBRANCH  22  23
ENDBRANCH  21  22
ENDBRANCH  20  21
ENDBRANCH  19  20
ENDBRANCH  18  19
ENDBRANCH   1  18
TORSDOF 28
ENDMDL
MODEL 3
REMARK VINA RESULT:    -4.037      3.018      8.026
REMARK INTER + INTRA:         -16.358
REMARK INTER:                 -11.146
REMARK INTRA:                  -5.212
REMARK UNBOUND:                -5.714
REMARK SMILES CCCCCCCCCCCCCCCCCCCCCCCCCCCCCC(=O)[O-]
REMARK SMILES IDX 16 1 17 2 18 3 19 4 20 5 21 6 22 7 23 8 24 9 25 10 26 11
REMARK SMILES IDX 27 12 28 13 29 14 30 15 31 16 32 17 15 18 14 19 13 20 12 21
REMARK SMILES IDX 11 22 10 23 9 24 8 25 7 26 6 27 5 28 4 29 3 30 2 31 1 32
REMARK H PARENT
REMARK Flexibility Score: inf
ROOT
ATOM      1  C   UNL     1      33.207  32.383  22.637  1.00  0.00     0.000 C 
ENDROOT
BRANCH   1   2
ATOM      2  C   UNL     1      32.971  31.382  21.496  1.00  0.00     0.000 C 
BRANCH   2   3
ATOM      3  C   UNL     1      32.844  29.934  21.998  1.00  0.00     0.000 C 
BRANCH   3   4
ATOM      4  C   UNL     1      32.305  28.984  20.914  1.00  0.00     0.000 C 
BRANCH   4   5
ATOM      5  C   UNL     1      33.398  28.536  19.928  1.00  0.00     0.000 C 
BRANCH   5   6
ATOM      6  C   UNL     1      33.094  28.951  18.477  1.00  0.00     0.000 C 
BRANCH   6   7
ATOM      7  C   UNL     1      33.057  30.472  18.228  1.00  0.00     0.000 C 
BRANCH   7   8
ATOM      8  C   UNL     1      34.296  31.052  17.516  1.00  0.00     0.000 C 
BRANCH   8   9
ATOM      9  C   UNL     1      35.650  30.559  18.058  1.00  0.00     0.000 C 
BRANCH   9  10
ATOM     10  C   UNL     1      36.024  31.200  19.407  1.00  0.00     0.000 C 
BRANCH  10  11
ATOM     11  C   UNL     1      36.411  30.147  20.467  1.00  0.00     0.000 C 
BRANCH  11  12
ATOM     12  C   UNL     1      36.855  30.752  21.810  1.00  0.00     0.000 C 
BRANCH  12  13
ATOM     13  C   UNL     1      37.405  29.700  22.785  1.00  0.00     0.006 C 
BRANCH  13  14
ATOM     14  C   UNL     1      38.647  30.198  23.538  1.00  0.00     0.053 C 
BRANCH  14  15
ATOM     15  C   UNL     1      39.886  29.477  23.105  1.00  0.00     0.041 C 
ATOM     16  O   UNL     1      40.654  28.965  23.961  1.00  0.00    -0.550 OA
ATOM     17  O   UNL     1      40.203  29.390  21.757  1.00  0.00    -0.550 OA
ENDBRANCH  14  15
ENDBRANCH  13  14
ENDBRANCH  12  13
ENDBRANCH  11  12
ENDBRANCH  10  11
ENDBRANCH   9  10
ENDBRANCH   8   9
ENDBRANCH   7   8
ENDBRANCH   6   7
ENDBRANCH   5   6
ENDBRANCH   4   5
ENDBRANCH   3   4
ENDBRANCH   2   3
ENDBRANCH   1   2
BRANCH   1  18
ATOM     18  C   UNL     1      34.161  31.845  23.715  1.00  0.00     0.000 C 
BRANCH  18  19
ATOM     19  C   UNL     1      33.958  32.588  25.042  1.00  0.00     0.000 C 
BRANCH  19  20
ATOM     20  C   UNL     1      35.119  32.319  26.012  1.00  0.00     0.000 C 
BRANCH  20  21
ATOM     21  C   UNL     1      36.490  32.620  25.386  1.00  0.00     0.000 C 
BRANCH  21  22
ATOM     22  C   UNL     1      37.597  32.790  26.439  1.00  0.00     0.000 C 
BRANCH  22  23
ATOM     23  C   UNL     1      38.313  34.135  26.270  1.00  0.00     0.000 C 
BRANCH  23  24
ATOM     24  C   UNL     1      38.224  34.973  27.554  1.00  0.00    -0.000 C 
BRANCH  24  25
ATOM     25  C   UNL     1      36.896  34.759  28.311  1.00  0.00    -0.000 C 
BRANCH  25  26
ATOM     26  C   UNL     1      35.864  35.885  28.094  1.00  0.00    -0.000 C 
BRANCH  26  27
ATOM     27  C   UNL     1      35.023  35.762  26.812  1.00  0.00    -0.000 C 
BRANCH  27  28
ATOM     28  C   UNL     1      35.536  36.591  25.619  1.00  0.00    -0.000 C 
BRANCH  28  29
ATOM     29  C   UNL     1      34.503  36.747  24.479  1.00  0.00    -0.000 C 
BRANCH  29  30
ATOM     30  C   UNL     1      34.658  35.717  23.341  1.00  0.00    -0.000 C 
BRANCH  30  31
ATOM     31  C   UNL     1      36.032  35.727  22.643  1.00  0.00    -0.003 C 
ATOM     32  C   UNL     1      36.473  34.345  22.159  1.00  0.00     0.004 C 
ENDBRANCH  30  31
ENDBRANCH  29  30
ENDBRANCH  28  29
ENDBRANCH  27  28
ENDBRANCH  26  27
ENDBRANCH  25  26
ENDBRANCH  24  25
ENDBRANCH  23  24
ENDBRANCH  22  23
ENDBRANCH  21  22
ENDBRANCH  20  21
ENDBRANCH  19  20
ENDBRANCH  18  19
ENDBRANCH   1  18
TORSDOF 28
ENDMDL
MODEL 4
REMARK VINA RESULT:    -4.032      1.679      4.830
REMARK INTER + INTRA:         -16.346
REMARK INTER:                 -10.667
REMARK INTRA:                  -5.679
REMARK UNBOUND:                -5.714
REMARK SMILES CCCCCCCCCCCCCCCCCCCCCCCCCCCCCC(=O)[O-]
REMARK SMILES IDX 16 1 17 2 18 3 19 4 20 5 21 6 22 7 23 8 24 9 25 10 26 11
REMARK SMILES IDX 27 12 28 13 29 14 30 15 31 16 32 17 15 18 14 19 13 20 12 21
REMARK SMILES IDX 11 22 10 23 9 24 8 25 7 26 6 27 5 28 4 29 3 30 2 31 1 32
REMARK H PARENT
REMARK Flexibility Score: inf
ROOT
ATOM      1  C   UNL     1      33.988  30.783  22.903  1.00  0.00     0.000 C 
ENDROOT
BRANCH   1   2
ATOM      2  C   UNL     1      33.233  31.970  22.288  1.00  0.00     0.000 C 
BRANCH   2   3
ATOM      3  C   UNL     1      33.895  33.321  22.607  1.00  0.00     0.000 C 
BRANCH   3   4
ATOM      4  C   UNL     1      33.309  34.473  21.772  1.00  0.00     0.000 C 
BRANCH   4   5
ATOM      5  C   UNL     1      34.399  35.358  21.144  1.00  0.00     0.000 C 
BRANCH   5   6
ATOM      6  C   UNL     1      35.797  35.081  21.727  1.00  0.00     0.000 C 
BRANCH   6   7
ATOM      7  C   UNL     1      36.313  36.144  22.718  1.00  0.00     0.000 C 
BRANCH   7   8
ATOM      8  C   UNL     1      35.300  37.247  23.086  1.00  0.00     0.000 C 
BRANCH   8   9
ATOM      9  C   UNL     1      34.587  37.052  24.437  1.00  0.00     0.000 C 
BRANCH   9  10
ATOM     10  C   UNL     1      35.011  35.759  25.157  1.00  0.00     0.000 C 
BRANCH  10  11
ATOM     11  C   UNL     1      35.125  35.952  26.684  1.00  0.00     0.000 C 
BRANCH  11  12
ATOM     12  C   UNL     1      36.487  35.534  27.264  1.00  0.00     0.000 C 
BRANCH  12  13
ATOM     13  C   UNL     1      36.406  35.122  28.741  1.00  0.00     0.006 C 
BRANCH  13  14
ATOM     14  C   UNL     1      36.333  36.334  29.679  1.00  0.00     0.053 C 
BRANCH  14  15
ATOM     15  C   UNL     1      37.423  37.322  29.399  1.00  0.00     0.041 C 
ATOM     16  O   UNL     1      37.142  38.492  29.029  1.00  0.00    -0.550 OA
ATOM     17  O   UNL     1      38.753  36.941  29.525  1.00  0.00    -0.550 OA
ENDBRANCH  14  15
ENDBRANCH  13  14
ENDBRANCH  12  13
ENDBRANCH  11  12
ENDBRANCH  10  11
ENDBRANCH   9  10
ENDBRANCH   8   9
ENDBRANCH   7   8
ENDBRANCH   6   7
ENDBRANCH   5   6
ENDBRANCH   4   5
ENDBRANCH   3   4
ENDBRANCH   2   3
ENDBRANCH   1   2
BRANCH   1  18
ATOM     18  C   UNL     1      33.446  29.423  22.434  1.00  0.00     0.000 C 
BRANCH  18  19
ATOM     19  C   UNL     1      32.470  29.600  21.264  1.00  0.00     0.000 C 
BRANCH  19  20
ATOM     20  C   UNL     1      32.790  28.625  20.120  1.00  0.00     0.000 C 
BRANCH  20  21
ATOM     21  C   UNL     1      33.712  29.245  19.059  1.00  0.00     0.000 C 
BRANCH  21  22
ATOM     22  C   UNL     1      33.284  30.667  18.661  1.00  0.00     0.000 C 
BRANCH  22  23
ATOM     23  C   UNL     1      34.415  31.671  18.912  1.00  0.00     0.000 C 
BRANCH  23  24
ATOM     24  C   UNL     1      35.629  30.985  19.557  1.00  0.00    -0.000 C 
BRANCH  24  25
ATOM     25  C   UNL     1      36.733  31.987  19.957  1.00  0.00    -0.000 C 
BRANCH  25  26
ATOM     26  C   UNL     1      37.296  31.764  21.375  1.00  0.00    -0.000 C 
BRANCH  26  27
ATOM     27  C   UNL     1      37.416  30.292  21.806  1.00  0.00    -0.000 C 
BRANCH  27  28
ATOM     28  C   UNL     1      37.519  30.070  23.328  1.00  0.00    -0.000 C 
BRANCH  28  29
ATOM     29  C   UNL     1      38.555  30.984  24.022  1.00  0.00    -0.000 C 
BRANCH  29  30
ATOM     30  C   UNL     1      37.992  31.784  25.215  1.00  0.00    -0.000 C 
BRANCH  30  31
ATOM     31  C   UNL     1      36.727  32.605  24.903  1.00  0.00    -0.003 C 
ATOM     32  C   UNL     1      35.553  32.280  25.829  1.00  0.00     0.004 C 
ENDBRANCH  30  31
ENDBRANCH  29  30
ENDBRANCH  28  29
ENDBRANCH  27  28
ENDBRANCH  26  27
ENDBRANCH  25  26
ENDBRANCH  24  25
ENDBRANCH  23  24
ENDBRANCH  22  23
ENDBRANCH  21  22
ENDBRANCH  20  21
ENDBRANCH  19  20
ENDBRANCH  18  19
ENDBRANCH   1  18
TORSDOF 28
ENDMDL
MODEL 5
REMARK VINA RESULT:    -4.021      2.879      8.326
REMARK INTER + INTRA:         -16.316
REMARK INTER:                 -10.418
REMARK INTRA:                  -5.897
REMARK UNBOUND:                -5.714
REMARK SMILES CCCCCCCCCCCCCCCCCCCCCCCCCCCCCC(=O)[O-]
REMARK SMILES IDX 16 1 17 2 18 3 19 4 20 5 21 6 22 7 23 8 24 9 25 10 26 11
REMARK SMILES IDX 27 12 28 13 29 14 30 15 31 16 32 17 15 18 14 19 13 20 12 21
REMARK SMILES IDX 11 22 10 23 9 24 8 25 7 26 6 27 5 28 4 29 3 30 2 31 1 32
REMARK H PARENT
REMARK Flexibility Score: inf
ROOT
ATOM      1  C   UNL     1      35.927  33.887  26.725  1.00  0.00     0.000 C 
ENDROOT
BRANCH   1   2
ATOM      2  C   UNL     1      35.734  32.530  26.031  1.00  0.00     0.000 C 
BRANCH   2   3
ATOM      3  C   UNL     1      34.274  32.283  25.612  1.00  0.00     0.000 C 
BRANCH   3   4
ATOM      4  C   UNL     1      34.162  31.735  24.179  1.00  0.00     0.000 C 
BRANCH   4   5
ATOM      5  C   UNL     1      33.274  32.614  23.281  1.00  0.00     0.000 C 
BRANCH   5   6
ATOM      6  C   UNL     1      33.190  32.090  21.836  1.00  0.00     0.000 C 
BRANCH   6   7
ATOM      7  C   UNL     1      32.480  30.732  21.675  1.00  0.00     0.000 C 
BRANCH   7   8
ATOM      8  C   UNL     1      33.249  29.680  20.850  1.00  0.00     0.000 C 
BRANCH   8   9
ATOM      9  C   UNL     1      33.798  30.184  19.502  1.00  0.00     0.000 C 
BRANCH   9  10
ATOM     10  C   UNL     1      35.039  29.404  19.032  1.00  0.00     0.000 C 
BRANCH  10  11
ATOM     11  C   UNL     1      36.354  30.141  19.367  1.00  0.00     0.000 C 
BRANCH  11  12
ATOM     12  C   UNL     1      36.959  29.746  20.725  1.00  0.00     0.000 C 
BRANCH  12  13
ATOM     13  C   UNL     1      36.831  30.854  21.781  1.00  0.00     0.006 C 
BRANCH  13  14
ATOM     14  C   UNL     1      37.477  30.462  23.116  1.00  0.00     0.053 C 
BRANCH  14  15
ATOM     15  C   UNL     1      38.958  30.278  22.985  1.00  0.00     0.041 C 
ATOM     16  O   UNL     1      39.515  29.249  23.449  1.00  0.00    -0.550 OA
ATOM     17  O   UNL     1      39.726  31.256  22.367  1.00  0.00    -0.550 OA
ENDBRANCH  14  15
ENDBRANCH  13  14
ENDBRANCH  12  13
ENDBRANCH  11  12
ENDBRANCH  10  11
ENDBRANCH   9  10
ENDBRANCH   8   9
ENDBRANCH   7   8
ENDBRANCH   6   7
ENDBRANCH   5   6
ENDBRANCH   4   5
ENDBRANCH   3   4
ENDBRANCH   2   3
ENDBRANCH   1   2
BRANCH   1  18
ATOM     18  C   UNL     1      34.876  34.927  26.305  1.00  0.00     0.000 C 
BRANCH  18  19
ATOM     19  C   UNL     1      35.520  36.306  26.114  1.00  0.00     0.000 C 
BRANCH  19  20
ATOM     20  C   UNL     1      35.045  36.965  24.810  1.00  0.00     0.000 C 
BRANCH  20  21
ATOM     21  C   UNL     1      34.588  35.936  23.764  1.00  0.00     0.000 C 
BRANCH  21  22
ATOM     22  C   UNL     1      35.644  35.690  22.675  1.00  0.00     0.000 C 
BRANCH  22  23
ATOM     23  C   UNL     1      36.416  34.393  22.942  1.00  0.00     0.000 C 
BRANCH  23  24
ATOM     24  C   UNL     1      37.933  34.628  22.871  1.00  0.00    -0.000 C 
BRANCH  24  25
ATOM     25  C   UNL     1      38.673  34.103  24.120  1.00  0.00    -0.000 C 
BRANCH  25  26
ATOM     26  C   UNL     1      38.978  35.191  25.169  1.00  0.00    -0.000 C 
BRANCH  26  27
ATOM     27  C   UNL     1      39.469  34.667  26.529  1.00  0.00    -0.000 C 
BRANCH  27  28
ATOM     28  C   UNL     1      39.836  35.762  27.551  1.00  0.00    -0.000 C 
BRANCH  28  29
ATOM     29  C   UNL     1      38.781  36.887  27.662  1.00  0.00    -0.000 C 
BRANCH  29  30
ATOM     30  C   UNL     1      38.095  36.976  29.041  1.00  0.00    -0.000 C 
BRANCH  30  31
ATOM     31  C   UNL     1      37.295  35.723  29.446  1.00  0.00    -0.003 C 
ATOM     32  C   UNL     1      35.831  36.023  29.776  1.00  0.00     0.004 C 
ENDBRANCH  30  31
ENDBRANCH  29  30
ENDBRANCH  28  29
ENDBRANCH  27  28
ENDBRANCH  26  27
ENDBRANCH  25  26
ENDBRANCH  24  25
ENDBRANCH  23  24
ENDBRANCH  22  23
ENDBRANCH  21  22
ENDBRANCH  20  21
ENDBRANCH  19  20
ENDBRANCH  18  19
ENDBRANCH   1  18
TORSDOF 28
ENDMDL
MODEL 6
REMARK VINA RESULT:    -4.009      2.736      7.618
REMARK INTER + INTRA:         -16.285
REMARK INTER:                 -10.467
REMARK INTRA:                  -5.817
REMARK UNBOUND:                -5.714
REMARK SMILES CCCCCCCCCCCCCCCCCCCCCCCCCCCCCC(=O)[O-]
REMARK SMILES IDX 16 1 17 2 18 3 19 4 20 5 21 6 22 7 23 8 24 9 25 10 26 11
REMARK SMILES IDX 27 12 28 13 29 14 30 15 31 16 32 17 15 18 14 19 13 20 12 21
REMARK SMILES IDX 11 22 10 23 9 24 8 25 7 26 6 27 5 28 4 29 3 30 2 31 1 32
REMARK H PARENT
REMARK Flexibility Score: inf
ROOT
ATOM      1  C   UNL     1      34.625  30.635  23.423  1.00  0.00     0.000 C 
ENDROOT
BRANCH   1   2
ATOM      2  C   UNL     1      34.274  30.402  21.946  1.00  0.00     0.000 C 
BRANCH   2   3
ATOM      3  C   UNL     1      32.800  30.710  21.632  1.00  0.00     0.000 C 
BRANCH   3   4
ATOM      4  C   UNL     1      32.068  29.504  21.019  1.00  0.00     0.000 C 
BRANCH   4   5
ATOM      5  C   UNL     1      33.027  28.531  20.310  1.00  0.00     0.000 C 
BRANCH   5   6
ATOM      6  C   UNL     1      33.086  28.760  18.789  1.00  0.00     0.000 C 
BRANCH   6   7
ATOM      7  C   UNL     1      34.451  29.235  18.254  1.00  0.00     0.000 C 
BRANCH   7   8
ATOM      8  C   UNL     1      34.430  30.583  17.502  1.00  0.00     0.000 C 
BRANCH   8   9
ATOM      9  C   UNL     1      33.608  31.694  18.180  1.00  0.00     0.000 C 
BRANCH   9  10
ATOM     10  C   UNL     1      34.415  32.985  18.402  1.00  0.00     0.000 C 
BRANCH  10  11
ATOM     11  C   UNL     1      35.326  32.899  19.645  1.00  0.00     0.000 C 
BRANCH  11  12
ATOM     12  C   UNL     1      35.111  34.041  20.654  1.00  0.00     0.000 C 
BRANCH  12  13
ATOM     13  C   UNL     1      33.652  34.156  21.122  1.00  0.00     0.006 C 
BRANCH  13  14
ATOM     14  C   UNL     1      33.279  35.592  21.514  1.00  0.00     0.053 C 
BRANCH  14  15
ATOM     15  C   UNL     1      32.975  36.435  20.313  1.00  0.00     0.041 C 
ATOM     16  O   UNL     1      32.550  35.902  19.254  1.00  0.00    -0.550 OA
ATOM     17  O   UNL     1      33.181  37.807  20.358  1.00  0.00    -0.550 OA
ENDBRANCH  14  15
ENDBRANCH  13  14
ENDBRANCH  12  13
ENDBRANCH  11  12
ENDBRANCH  10  11
ENDBRANCH   9  10
ENDBRANCH   8   9
ENDBRANCH   7   8
ENDBRANCH   6   7
ENDBRANCH   5   6
ENDBRANCH   4   5
ENDBRANCH   3   4
ENDBRANCH   2   3
ENDBRANCH   1   2
BRANCH   1  18
ATOM     18  C   UNL     1      34.041  31.944  23.976  1.00  0.00     0.000 C 
BRANCH  18  19
ATOM     19  C   UNL     1      34.170  31.997  25.503  1.00  0.00     0.000 C 
BRANCH  19  20
ATOM     20  C   UNL     1      34.355  33.441  25.996  1.00  0.00     0.000 C 
BRANCH  20  21
ATOM     21  C   UNL     1      34.933  34.363  24.910  1.00  0.00     0.000 C 
BRANCH  21  22
ATOM     22  C   UNL     1      35.254  35.770  25.438  1.00  0.00     0.000 C 
BRANCH  22  23
ATOM     23  C   UNL     1      35.062  35.844  26.957  1.00  0.00     0.000 C 
BRANCH  23  24
ATOM     24  C   UNL     1      36.389  36.150  27.667  1.00  0.00    -0.000 C 
BRANCH  24  25
ATOM     25  C   UNL     1      37.197  34.875  27.989  1.00  0.00    -0.000 C 
BRANCH  25  26
ATOM     26  C   UNL     1      38.529  34.768  27.219  1.00  0.00    -0.000 C 
BRANCH  26  27
ATOM     27  C   UNL     1      38.480  33.904  25.947  1.00  0.00    -0.000 C 
BRANCH  27  28
ATOM     28  C   UNL     1      38.007  32.453  26.168  1.00  0.00    -0.000 C 
BRANCH  28  29
ATOM     29  C   UNL     1      37.794  31.662  24.857  1.00  0.00    -0.000 C 
BRANCH  29  30
ATOM     30  C   UNL     1      37.857  32.525  23.580  1.00  0.00    -0.000 C 
BRANCH  30  31
ATOM     31  C   UNL     1      37.886  31.727  22.262  1.00  0.00    -0.003 C 
ATOM     32  C   UNL     1      38.774  32.364  21.191  1.00  0.00     0.004 C 
ENDBRANCH  30  31
ENDBRANCH  29  30
ENDBRANCH  28  29
ENDBRANCH  27  28
ENDBRANCH  26  27
ENDBRANCH  25  26
ENDBRANCH  24  25
ENDBRANCH  23  24
ENDBRANCH  22  23
ENDBRANCH  21  22
ENDBRANCH  20  21
ENDBRANCH  19  20
ENDBRANCH  18  19
ENDBRANCH   1  18
TORSDOF 28
ENDMDL
MODEL 7
REMARK VINA RESULT:    -3.956      1.464      3.584
REMARK INTER + INTRA:         -16.144
REMARK INTER:                 -10.136
REMARK INTRA:                  -6.008
REMARK UNBOUND:                -5.714
REMARK SMILES CCCCCCCCCCCCCCCCCCCCCCCCCCCCCC(=O)[O-]
REMARK SMILES IDX 16 1 17 2 18 3 19 4 20 5 21 6 22 7 23 8 24 9 25 10 26 11
REMARK SMILES IDX 27 12 28 13 29 14 30 15 31 16 32 17 15 18 14 19 13 20 12 21
REMARK SMILES IDX 11 22 10 23 9 24 8 25 7 26 6 27 5 28 4 29 3 30 2 31 1 32
REMARK H PARENT
REMARK Flexibility Score: inf
ROOT
ATOM      1  C   UNL     1      36.054  35.040  23.951  1.00  0.00     0.000 C 
ENDROOT
BRANCH   1   2
ATOM      2  C   UNL     1      35.801  34.790  22.457  1.00  0.00     0.000 C 
BRANCH   2   3
ATOM      3  C   UNL     1      36.668  33.651  21.893  1.00  0.00     0.000 C 
BRANCH   3   4
ATOM      4  C   UNL     1      37.846  33.299  22.818  1.00  0.00     0.000 C 
BRANCH   4   5
ATOM      5  C   UNL     1      38.025  31.781  22.991  1.00  0.00     0.000 C 
BRANCH   5   6
ATOM      6  C   UNL     1      38.212  31.370  24.463  1.00  0.00     0.000 C 
BRANCH   6   7
ATOM      7  C   UNL     1      39.483  31.924  25.138  1.00  0.00     0.000 C 
BRANCH   7   8
ATOM      8  C   UNL     1      39.236  32.832  26.360  1.00  0.00     0.000 C 
BRANCH   8   9
ATOM      9  C   UNL     1      37.756  33.103  26.682  1.00  0.00     0.000 C 
BRANCH   9  10
ATOM     10  C   UNL     1      37.546  34.393  27.495  1.00  0.00     0.000 C 
BRANCH  10  11
ATOM     11  C   UNL     1      38.690  35.409  27.284  1.00  0.00     0.000 C 
BRANCH  11  12
ATOM     12  C   UNL     1      38.312  36.591  26.375  1.00  0.00     0.000 C 
BRANCH  12  13
ATOM     13  C   UNL     1      37.118  37.396  26.907  1.00  0.00     0.006 C 
BRANCH  13  14
ATOM     14  C   UNL     1      37.553  38.529  27.846  1.00  0.00     0.053 C 
BRANCH  14  15
ATOM     15  C   UNL     1      37.392  38.150  29.286  1.00  0.00     0.041 C 
ATOM     16  O   UNL     1      38.109  38.690  30.169  1.00  0.00    -0.550 OA
ATOM     17  O   UNL     1      36.465  37.183  29.650  1.00  0.00    -0.550 OA
ENDBRANCH  14  15
ENDBRANCH  13  14
ENDBRANCH  12  13
ENDBRANCH  11  12
ENDBRANCH  10  11
ENDBRANCH   9  10
ENDBRANCH   8   9
ENDBRANCH   7   8
ENDBRANCH   6   7
ENDBRANCH   5   6
ENDBRANCH   4   5
ENDBRANCH   3   4
ENDBRANCH   2   3
ENDBRANCH   1   2
BRANCH   1  18
ATOM     18  C   UNL     1      34.758  35.249  24.749  1.00  0.00     0.000 C 
BRANCH  18  19
ATOM     19  C   UNL     1      34.462  34.035  25.639  1.00  0.00     0.000 C 
BRANCH  19  20
ATOM     20  C   UNL     1      33.753  32.926  24.847  1.00  0.00     0.000 C 
BRANCH  20  21
ATOM     21  C   UNL     1      34.572  31.626  24.792  1.00  0.00     0.000 C 
BRANCH  21  22
ATOM     22  C   UNL     1      34.475  30.923  23.429  1.00  0.00     0.000 C 
BRANCH  22  23
ATOM     23  C   UNL     1      33.619  31.735  22.451  1.00  0.00     0.000 C 
BRANCH  23  24
ATOM     24  C   UNL     1      32.528  30.861  21.813  1.00  0.00    -0.000 C 
BRANCH  24  25
ATOM     25  C   UNL     1      32.883  29.358  21.839  1.00  0.00    -0.000 C 
BRANCH  25  26
ATOM     26  C   UNL     1      32.941  28.706  20.443  1.00  0.00    -0.000 C 
BRANCH  26  27
ATOM     27  C   UNL     1      32.519  29.616  19.278  1.00  0.00    -0.000 C 
BRANCH  27  28
ATOM     28  C   UNL     1      33.656  29.999  18.311  1.00  0.00    -0.000 C 
BRANCH  28  29
ATOM     29  C   UNL     1      34.096  31.478  18.421  1.00  0.00    -0.000 C 
BRANCH  29  30
ATOM     30  C   UNL     1      35.428  31.687  19.171  1.00  0.00    -0.000 C 
BRANCH  30  31
ATOM     31  C   UNL     1      36.381  30.476  19.143  1.00  0.00    -0.003 C 
ATOM     32  C   UNL     1      36.515  29.783  20.500  1.00  0.00     0.004 C 
ENDBRANCH  30  31
ENDBRANCH  29  30
ENDBRANCH  28  29
ENDBRANCH  27  28
ENDBRANCH  26  27
ENDBRANCH  25  26
ENDBRANCH  24  25
ENDBRANCH  23  24
ENDBRANCH  22  23
ENDBRANCH  21  22
ENDBRANCH  20  21
ENDBRANCH  19  20
ENDBRANCH  18  19
ENDBRANCH   1  18
TORSDOF 28
ENDMDL
MODEL 8
REMARK VINA RESULT:    -3.949      2.050      4.313
REMARK INTER + INTRA:         -16.127
REMARK INTER:                 -11.692
REMARK INTRA:                  -4.434
REMARK UNBOUND:                -5.714
REMARK SMILES CCCCCCCCCCCCCCCCCCCCCCCCCCCCCC(=O)[O-]
REMARK SMILES IDX 16 1 17 2 18 3 19 4 20 5 21 6 22 7 23 8 24 9 25 10 26 11
REMARK SMILES IDX 27 12 28 13 29 14 30 15 31 16 32 17 15 18 14 19 13 20 12 21
REMARK SMILES IDX 11 22 10 23 9 24 8 25 7 26 6 27 5 28 4 29 3 30 2 31 1 32
REMARK H PARENT
REMARK Flexibility Score: inf
ROOT
ATOM      1  C   UNL     1      33.473  34.502  22.385  1.00  0.00     0.000 C 
ENDROOT
BRANCH   1   2
ATOM      2  C   UNL     1      34.838  34.717  23.056  1.00  0.00     0.000 C 
BRANCH   2   3
ATOM      3  C   UNL     1      34.763  34.627  24.590  1.00  0.00     0.000 C 
BRANCH   3   4
ATOM      4  C   UNL     1      34.061  33.344  25.067  1.00  0.00     0.000 C 
BRANCH   4   5
ATOM      5  C   UNL     1      34.954  32.490  25.984  1.00  0.00     0.000 C 
BRANCH   5   6
ATOM      6  C   UNL     1      36.392  32.354  25.452  1.00  0.00     0.000 C 
BRANCH   6   7
ATOM      7  C   UNL     1      37.499  32.659  26.481  1.00  0.00     0.000 C 
BRANCH   7   8
ATOM      8  C   UNL     1      37.645  34.144  26.870  1.00  0.00     0.000 C 
BRANCH   8   9
ATOM      9  C   UNL     1      37.017  34.529  28.222  1.00  0.00     0.000 C 
BRANCH   9  10
ATOM     10  C   UNL     1      35.924  35.604  28.090  1.00  0.00     0.000 C 
BRANCH  10  11
ATOM     11  C   UNL     1      35.814  36.483  29.354  1.00  0.00     0.000 C 
BRANCH  11  12
ATOM     12  C   UNL     1      36.931  37.533  29.480  1.00  0.00     0.000 C 
BRANCH  12  13
ATOM     13  C   UNL     1      37.393  38.079  28.121  1.00  0.00     0.006 C 
BRANCH  13  14
ATOM     14  C   UNL     1      37.710  39.579  28.175  1.00  0.00     0.053 C 
BRANCH  14  15
ATOM     15  C   UNL     1      38.371  39.962  29.464  1.00  0.00     0.041 C 
ATOM     16  O   UNL     1      37.824  40.791  30.237  1.00  0.00    -0.550 OA
ATOM     17  O   UNL     1      39.605  39.420  29.798  1.00  0.00    -0.550 OA
ENDBRANCH  14  15
ENDBRANCH  13  14
ENDBRANCH  12  13
ENDBRANCH  11  12
ENDBRANCH  10  11
ENDBRANCH   9  10
ENDBRANCH   8   9
ENDBRANCH   7   8
ENDBRANCH   6   7
ENDBRANCH   5   6
ENDBRANCH   4   5
ENDBRANCH   3   4
ENDBRANCH   2   3
ENDBRANCH   1   2
BRANCH   1  18
ATOM     18  C   UNL     1      33.592  34.134  20.897  1.00  0.00     0.000 C 
BRANCH  18  19
ATOM     19  C   UNL     1      35.063  33.983  20.489  1.00  0.00     0.000 C 
BRANCH  19  20
ATOM     20  C   UNL     1      35.188  33.501  19.035  1.00  0.00     0.000 C 
BRANCH  20  21
ATOM     21  C   UNL     1      34.779  32.029  18.866  1.00  0.00     0.000 C 
BRANCH  21  22
ATOM     22  C   UNL     1      33.479  31.865  18.062  1.00  0.00     0.000 C 
BRANCH  22  23
ATOM     23  C   UNL     1      32.925  30.442  18.199  1.00  0.00     0.000 C 
BRANCH  23  24
ATOM     24  C   UNL     1      33.689  29.653  19.274  1.00  0.00    -0.000 C 
BRANCH  24  25
ATOM     25  C   UNL     1      32.772  28.711  20.082  1.00  0.00    -0.000 C 
BRANCH  25  26
ATOM     26  C   UNL     1      32.709  29.039  21.588  1.00  0.00    -0.000 C 
BRANCH  26  27
ATOM     27  C   UNL     1      33.142  30.466  21.964  1.00  0.00    -0.000 C 
BRANCH  27  28
ATOM     28  C   UNL     1      34.354  30.546  22.913  1.00  0.00    -0.000 C 
BRANCH  28  29
ATOM     29  C   UNL     1      35.674  30.929  22.205  1.00  0.00    -0.000 C 
BRANCH  29  30
ATOM     30  C   UNL     1      36.375  29.752  21.496  1.00  0.00    -0.000 C 
BRANCH  30  31
ATOM     31  C   UNL     1      37.823  29.492  21.955  1.00  0.00    -0.003 C 
ATOM     32  C   UNL     1      38.016  29.658  23.463  1.00  0.00     0.004 C 
ENDBRANCH  30  31
ENDBRANCH  29  30
ENDBRANCH  28  29
ENDBRANCH  27  28
ENDBRANCH  26  27
ENDBRANCH  25  26
ENDBRANCH  24  25
ENDBRANCH  23  24
ENDBRANCH  22  23
ENDBRANCH  21  22
ENDBRANCH  20  21
ENDBRANCH  19  20
ENDBRANCH  18  19
ENDBRANCH   1  18
TORSDOF 28
ENDMDL
MODEL 9
REMARK VINA RESULT:    -3.946      4.062      8.667
REMARK INTER + INTRA:         -16.118
REMARK INTER:                  -9.357
REMARK INTRA:                  -6.761
REMARK UNBOUND:                -5.714
REMARK SMILES CCCCCCCCCCCCCCCCCCCCCCCCCCCCCC(=O)[O-]
REMARK SMILES IDX 16 1 17 2 18 3 19 4 20 5 21 6 22 7 23 8 24 9 25 10 26 11
REMARK SMILES IDX 27 12 28 13 29 14 30 15 31 16 32 17 15 18 14 19 13 20 12 21
REMARK SMILES IDX 11 22 10 23 9 24 8 25 7 26 6 27 5 28 4 29 3 30 2 31 1 32
REMARK H PARENT
REMARK Flexibility Score: inf
ROOT
ATOM      1  C   UNL     1      37.889  31.610  23.112  1.00  0.00     0.000 C 
ENDROOT
BRANCH   1   2
ATOM      2  C   UNL     1      37.413  30.406  22.285  1.00  0.00     0.000 C 
BRANCH   2   3
ATOM      3  C   UNL     1      36.804  30.821  20.935  1.00  0.00     0.000 C 
BRANCH   3   4
ATOM      4  C   UNL     1      36.656  32.346  20.803  1.00  0.00     0.000 C 
BRANCH   4   5
ATOM      5  C   UNL     1      35.322  32.754  20.153  1.00  0.00     0.000 C 
BRANCH   5   6
ATOM      6  C   UNL     1      34.488  33.689  21.047  1.00  0.00     0.000 C 
BRANCH   6   7
ATOM      7  C   UNL     1      34.615  33.428  22.561  1.00  0.00     0.000 C 
BRANCH   7   8
ATOM      8  C   UNL     1      33.549  32.486  23.158  1.00  0.00     0.000 C 
BRANCH   8   9
ATOM      9  C   UNL     1      34.056  31.082  23.532  1.00  0.00     0.000 C 
BRANCH   9  10
ATOM     10  C   UNL     1      33.634  30.003  22.519  1.00  0.00     0.000 C 
BRANCH  10  11
ATOM     11  C   UNL     1      32.565  30.517  21.530  1.00  0.00     0.000 C 
BRANCH  11  12
ATOM     12  C   UNL     1      32.791  30.059  20.078  1.00  0.00     0.000 C 
BRANCH  12  13
ATOM     13  C   UNL     1      33.458  28.678  19.985  1.00  0.00     0.006 C 
BRANCH  13  14
ATOM     14  C   UNL     1      34.497  28.610  18.857  1.00  0.00     0.053 C 
BRANCH  14  15
ATOM     15  C   UNL     1      34.107  27.622  17.801  1.00  0.00     0.041 C 
ATOM     16  O   UNL     1      34.951  26.802  17.355  1.00  0.00    -0.550 OA
ATOM     17  O   UNL     1      32.815  27.624  17.293  1.00  0.00    -0.550 OA
ENDBRANCH  14  15
ENDBRANCH  13  14
ENDBRANCH  12  13
ENDBRANCH  11  12
ENDBRANCH  10  11
ENDBRANCH   9  10
ENDBRANCH   8   9
ENDBRANCH   7   8
ENDBRANCH   6   7
ENDBRANCH   5   6
ENDBRANCH   4   5
ENDBRANCH   3   4
ENDBRANCH   2   3
ENDBRANCH   1   2
BRANCH   1  18
ATOM     18  C   UNL     1      38.721  31.200  24.337  1.00  0.00     0.000 C 
BRANCH  18  19
ATOM     19  C   UNL     1      38.210  31.899  25.603  1.00  0.00     0.000 C 
BRANCH  19  20
ATOM     20  C   UNL     1      36.735  32.305  25.456  1.00  0.00     0.000 C 
BRANCH  20  21
ATOM     21  C   UNL     1      36.258  33.212  26.601  1.00  0.00     0.000 C 
BRANCH  21  22
ATOM     22  C   UNL     1      35.083  34.115  26.191  1.00  0.00     0.000 C 
BRANCH  22  23
ATOM     23  C   UNL     1      35.131  35.452  26.940  1.00  0.00     0.000 C 
BRANCH  23  24
ATOM     24  C   UNL     1      35.412  36.615  25.976  1.00  0.00    -0.000 C 
BRANCH  24  25
ATOM     25  C   UNL     1      34.739  36.420  24.600  1.00  0.00    -0.000 C 
BRANCH  25  26
ATOM     26  C   UNL     1      35.314  37.323  23.490  1.00  0.00    -0.000 C 
BRANCH  26  27
ATOM     27  C   UNL     1      36.837  37.231  23.297  1.00  0.00    -0.000 C 
BRANCH  27  28
ATOM     28  C   UNL     1      37.347  35.857  22.820  1.00  0.00    -0.000 C 
BRANCH  28  29
ATOM     29  C   UNL     1      38.287  35.158  23.830  1.00  0.00    -0.000 C 
BRANCH  29  30
ATOM     30  C   UNL     1      38.821  36.084  24.942  1.00  0.00    -0.000 C 
BRANCH  30  31
ATOM     31  C   UNL     1      39.319  35.356  26.205  1.00  0.00    -0.003 C 
ATOM     32  C   UNL     1      38.783  35.963  27.502  1.00  0.00     0.004 C 
ENDBRANCH  30  31
ENDBRANCH  29  30
ENDBRANCH  28  29
ENDBRANCH  27  28
ENDBRANCH  26  27
ENDBRANCH  25  26
ENDBRANCH  24  25
ENDBRANCH  23  24
ENDBRANCH  22  23
ENDBRANCH  21  22
ENDBRANCH  20  21
ENDBRANCH  19  20
ENDBRANCH  18  19
ENDBRANCH   1  18
TORSDOF 28
ENDMDL
