MODEL 1
REMARK VINA RESULT:    -7.504      0.000      0.000
REMARK INTER + INTRA:         -14.621
REMARK INTER:                 -12.988
REMARK INTRA:                  -1.633
REMARK UNBOUND:                -1.633
REMARK SMILES OC[C@@H]1O[C@H](O)[C@H](O)[C@@H](O)[C@@H]1O[C@H]1O[C@H](CO)[C@H](O[C@H]2O[C@H](CO)[C@@H](O)[C@H](O)[C@H]2O)[C@@H](O)[C@H]1O
REMARK SMILES IDX 18 1 15 2 14 3 13 4 33 5 31 6 19 7 20 8 22 9 25 10 21 11
REMARK SMILES IDX 27 12 29 13 23 14 24 15 26 17 28 19 30 21 16 23 17 24 32 26
REMARK SMILES IDX 34 28 12 30 11 31 3 32 9 33 4 34 7 35 5 36 2 37 1 38 10 40
REMARK SMILES IDX 8 42 6 44
REMARK H PARENT 24 16 26 18 28 20 30 22 17 25 32 27 34 29 1 39 10 41 8 43 6 45
REMARK Flexibility Score: inf
ROOT
ATOM      1  C   UNL     1     235.695 238.561 233.866  1.00  0.00     0.184 C 
ATOM      2  C   UNL     1     236.505 239.360 234.947  1.00  0.00     0.178 C 
ATOM      3  O   UNL     1     236.106 239.003 236.267  1.00  0.00    -0.341 OA
ATOM      4  C   UNL     1     234.772 239.412 236.549  1.00  0.00     0.282 C 
ATOM      5  C   UNL     1     233.752 238.916 235.475  1.00  0.00     0.202 C 
ATOM      6  C   UNL     1     234.412 237.953 234.468  1.00  0.00     0.180 C 
ENDROOT
BRANCH   1   7
ATOM      7  O   UNL     1     235.336 239.391 232.764  1.00  0.00    -0.341 OA
BRANCH   7   8
ATOM      8  C   UNL     1     235.322 238.732 231.500  1.00  0.00     0.282 C 
ATOM      9  C   UNL     1     234.254 238.559 229.390  1.00  0.00     0.178 C 
ATOM     10  C   UNL     1     235.603 238.321 228.654  1.00  0.00     0.177 C 
ATOM     11  O   UNL     1     234.406 239.323 230.579  1.00  0.00    -0.341 OA
ATOM     12  C   UNL     1     236.732 237.849 229.599  1.00  0.00     0.179 C 
ATOM     13  C   UNL     1     236.744 238.654 230.917  1.00  0.00     0.202 C 
BRANCH   9  14
ATOM     14  C   UNL     1     233.433 237.269 229.617  1.00  0.00     0.191 C 
BRANCH  14  15
ATOM     15  O   UNL     1     232.183 237.578 230.175  1.00  0.00    -0.394 OA
ATOM     16  H   UNL     1     231.810 238.321 229.634  1.00  0.00     0.210 HD
ENDBRANCH  14  15
ENDBRANCH   9  14
BRANCH  10  17
ATOM     17  O   UNL     1     235.988 239.470 227.936  1.00  0.00    -0.387 OA
ATOM     18  H   UNL     1     236.829 239.269 227.438  1.00  0.00     0.211 HD
ENDBRANCH  10  17
BRANCH  12  19
ATOM     19  O   UNL     1     236.577 236.484 229.901  1.00  0.00    -0.387 OA
ATOM     20  H   UNL     1     235.732 236.184 229.481  1.00  0.00     0.211 HD
ENDBRANCH  12  19
BRANCH  13  21
ATOM     21  O   UNL     1     237.251 239.948 230.718  1.00  0.00    -0.385 OA
ATOM     22  H   UNL     1     236.543 240.461 230.247  1.00  0.00     0.211 HD
ENDBRANCH  13  21
ENDBRANCH   7   8
ENDBRANCH   1   7
BRANCH   2  23
ATOM     23  C   UNL     1     236.521 240.903 234.749  1.00  0.00     0.191 C 
BRANCH  23  24
ATOM     24  O   UNL     1     237.833 241.382 234.735  1.00  0.00    -0.394 OA
ATOM     25  H   UNL     1     238.420 240.618 234.971  1.00  0.00     0.210 HD
ENDBRANCH  23  24
ENDBRANCH   2  23
BRANCH   6  26
ATOM     26  O   UNL     1     234.717 236.729 235.088  1.00  0.00    -0.387 OA
ATOM     27  H   UNL     1     233.926 236.470 235.625  1.00  0.00     0.211 HD
ENDBRANCH   6  26
BRANCH   5  28
ATOM     28  O   UNL     1     232.617 238.338 236.056  1.00  0.00    -0.385 OA
ATOM     29  H   UNL     1     232.891 237.452 236.411  1.00  0.00     0.211 HD
ENDBRANCH   5  28
BRANCH   4  30
ATOM     30  O   UNL     1     234.408 239.126 237.898  1.00  0.00    -0.341 OA
BRANCH  30  31
ATOM     31  C   UNL     1     234.114 240.266 238.701  1.00  0.00     0.184 C 
ATOM     32  C   UNL     1     235.013 240.229 239.971  1.00  0.00     0.178 C 
ATOM     33  C   UNL     1     232.606 240.303 239.113  1.00  0.00     0.180 C 
ATOM     34  O   UNL     1     234.733 239.130 240.827  1.00  0.00    -0.342 OA
ATOM     35  C   UNL     1     232.395 240.000 240.605  1.00  0.00     0.201 C 
ATOM     36  C   UNL     1     233.350 238.857 241.032  1.00  0.00     0.279 C 
BRANCH  32  37
ATOM     37  C   UNL     1     236.511 240.204 239.630  1.00  0.00     0.191 C 
BRANCH  37  38
ATOM     38  O   UNL     1     236.810 241.041 238.546  1.00  0.00    -0.394 OA
ATOM     39  H   UNL     1     237.410 240.526 237.948  1.00  0.00     0.210 HD
ENDBRANCH  37  38
ENDBRANCH  32  37
BRANCH  33  40
ATOM     40  O   UNL     1     232.077 241.574 238.816  1.00  0.00    -0.387 OA
ATOM     41  H   UNL     1     231.877 241.582 237.843  1.00  0.00     0.211 HD
ENDBRANCH  33  40
BRANCH  35  42
ATOM     42  O   UNL     1     231.056 239.646 240.836  1.00  0.00    -0.385 OA
ATOM     43  H   UNL     1     230.501 240.412 240.532  1.00  0.00     0.211 HD
ENDBRANCH  35  42
BRANCH  36  44
ATOM     44  O   UNL     1     233.024 237.669 240.359  1.00  0.00    -0.366 OA
ATOM     45  H   UNL     1     232.250 237.262 240.828  1.00  0.00     0.213 HD
ENDBRANCH  36  44
ENDBRANCH  30  31
ENDBRANCH   4  30
TORSDOF 18
ENDMDL
MODEL 2
REMARK VINA RESULT:    -7.450      0.899      1.958
REMARK INTER + INTRA:         -14.526
REMARK INTER:                 -12.671
REMARK INTRA:                  -1.856
REMARK UNBOUND:                -1.633
REMARK SMILES OC[C@@H]1O[C@H](O)[C@H](O)[C@@H](O)[C@@H]1O[C@H]1O[C@H](CO)[C@H](O[C@H]2O[C@H](CO)[C@@H](O)[C@H](O)[C@H]2O)[C@@H](O)[C@H]1O
REMARK SMILES IDX 18 1 15 2 14 3 13 4 33 5 31 6 19 7 20 8 22 9 25 10 21 11
REMARK SMILES IDX 27 12 29 13 23 14 24 15 26 17 28 19 30 21 16 23 17 24 32 26
REMARK SMILES IDX 34 28 12 30 11 31 3 32 9 33 4 34 7 35 5 36 2 37 1 38 10 40
REMARK SMILES IDX 8 42 6 44
REMARK H PARENT 24 16 26 18 28 20 30 22 17 25 32 27 34 29 1 39 10 41 8 43 6 45
REMARK Flexibility Score: inf
ROOT
ATOM      1  C   UNL     1     235.529 238.562 234.043  1.00  0.00     0.184 C 
ATOM      2  C   UNL     1     236.318 239.411 235.102  1.00  0.00     0.178 C 
ATOM      3  O   UNL     1     235.929 239.079 236.431  1.00  0.00    -0.341 OA
ATOM      4  C   UNL     1     234.585 239.462 236.704  1.00  0.00     0.282 C 
ATOM      5  C   UNL     1     233.578 238.910 235.645  1.00  0.00     0.202 C 
ATOM      6  C   UNL     1     234.262 237.938 234.663  1.00  0.00     0.180 C 
ENDROOT
BRANCH   1   7
ATOM      7  O   UNL     1     235.147 239.353 232.920  1.00  0.00    -0.341 OA
BRANCH   7   8
ATOM      8  C   UNL     1     235.423 238.761 231.653  1.00  0.00     0.282 C 
ATOM      9  C   UNL     1     236.224 236.839 230.519  1.00  0.00     0.178 C 
ATOM     10  C   UNL     1     235.186 237.003 229.372  1.00  0.00     0.177 C 
ATOM     11  O   UNL     1     235.769 237.381 231.752  1.00  0.00    -0.341 OA
ATOM     12  C   UNL     1     234.600 238.431 229.288  1.00  0.00     0.179 C 
ATOM     13  C   UNL     1     234.248 238.986 230.685  1.00  0.00     0.202 C 
BRANCH   9  14
ATOM     14  C   UNL     1     237.643 237.326 230.147  1.00  0.00     0.191 C 
BRANCH  14  15
ATOM     15  O   UNL     1     237.814 237.311 228.754  1.00  0.00    -0.394 OA
ATOM     16  H   UNL     1     238.372 236.515 228.548  1.00  0.00     0.210 HD
ENDBRANCH  14  15
ENDBRANCH   9  14
BRANCH  10  17
ATOM     17  O   UNL     1     234.163 236.041 229.486  1.00  0.00    -0.387 OA
ATOM     18  H   UNL     1     233.725 236.143 230.377  1.00  0.00     0.211 HD
ENDBRANCH  10  17
BRANCH  12  19
ATOM     19  O   UNL     1     235.520 239.300 228.672  1.00  0.00    -0.387 OA
ATOM     20  H   UNL     1     236.371 238.804 228.572  1.00  0.00     0.211 HD
ENDBRANCH  12  19
BRANCH  13  21
ATOM     21  O   UNL     1     233.087 238.382 231.194  1.00  0.00    -0.385 OA
ATOM     22  H   UNL     1     232.710 239.011 231.863  1.00  0.00     0.211 HD
ENDBRANCH  13  21
ENDBRANCH   7   8
ENDBRANCH   1   7
BRANCH   2  23
ATOM     23  C   UNL     1     236.294 240.948 234.863  1.00  0.00     0.191 C 
BRANCH  23  24
ATOM     24  O   UNL     1     237.591 241.439 234.700  1.00  0.00    -0.394 OA
ATOM     25  H   UNL     1     238.185 240.871 235.255  1.00  0.00     0.210 HD
ENDBRANCH  23  24
ENDBRANCH   2  23
BRANCH   6  26
ATOM     26  O   UNL     1     234.599 236.740 235.316  1.00  0.00    -0.387 OA
ATOM     27  H   UNL     1     233.922 236.065 235.054  1.00  0.00     0.211 HD
ENDBRANCH   6  26
BRANCH   5  28
ATOM     28  O   UNL     1     232.458 238.319 236.242  1.00  0.00    -0.385 OA
ATOM     29  H   UNL     1     232.592 238.370 237.224  1.00  0.00     0.211 HD
ENDBRANCH   5  28
BRANCH   4  30
ATOM     30  O   UNL     1     234.230 239.202 238.060  1.00  0.00    -0.341 OA
BRANCH  30  31
ATOM     31  C   UNL     1     233.914 240.357 238.835  1.00  0.00     0.184 C 
ATOM     32  C   UNL     1     234.811 240.366 240.107  1.00  0.00     0.178 C 
ATOM     33  C   UNL     1     232.405 240.376 239.244  1.00  0.00     0.180 C 
ATOM     34  O   UNL     1     234.549 239.283 240.989  1.00  0.00    -0.342 OA
ATOM     35  C   UNL     1     232.196 240.107 240.743  1.00  0.00     0.201 C 
ATOM     36  C   UNL     1     233.170 238.991 241.198  1.00  0.00     0.279 C 
BRANCH  32  37
ATOM     37  C   UNL     1     236.310 240.359 239.769  1.00  0.00     0.191 C 
BRANCH  37  38
ATOM     38  O   UNL     1     236.595 241.173 238.663  1.00  0.00    -0.394 OA
ATOM     39  H   UNL     1     237.582 241.175 238.561  1.00  0.00     0.210 HD
ENDBRANCH  37  38
ENDBRANCH  32  37
BRANCH  33  40
ATOM     40  O   UNL     1     231.854 241.631 238.915  1.00  0.00    -0.387 OA
ATOM     41  H   UNL     1     232.329 241.949 238.103  1.00  0.00     0.211 HD
ENDBRANCH  33  40
BRANCH  35  42
ATOM     42  O   UNL     1     230.864 239.734 240.980  1.00  0.00    -0.385 OA
ATOM     43  H   UNL     1     230.432 240.498 241.447  1.00  0.00     0.211 HD
ENDBRANCH  35  42
BRANCH  36  44
ATOM     44  O   UNL     1     232.867 237.782 240.554  1.00  0.00    -0.366 OA
ATOM     45  H   UNL     1     233.377 237.760 239.703  1.00  0.00     0.213 HD
ENDBRANCH  36  44
ENDBRANCH  30  31
ENDBRANCH   4  30
TORSDOF 18
ENDMDL
MODEL 3
REMARK VINA RESULT:    -7.044      1.854      8.763
REMARK INTER + INTRA:         -13.825
REMARK INTER:                 -12.442
REMARK INTRA:                  -1.384
REMARK UNBOUND:                -1.633
REMARK SMILES OC[C@@H]1O[C@H](O)[C@H](O)[C@@H](O)[C@@H]1O[C@H]1O[C@H](CO)[C@H](O[C@H]2O[C@H](CO)[C@@H](O)[C@H](O)[C@H]2O)[C@@H](O)[C@H]1O
REMARK SMILES IDX 18 1 15 2 14 3 13 4 33 5 31 6 19 7 20 8 22 9 25 10 21 11
REMARK SMILES IDX 27 12 29 13 23 14 24 15 26 17 28 19 30 21 16 23 17 24 32 26
REMARK SMILES IDX 34 28 12 30 11 31 3 32 9 33 4 34 7 35 5 36 2 37 1 38 10 40
REMARK SMILES IDX 8 42 6 44
REMARK H PARENT 24 16 26 18 28 20 30 22 17 25 32 27 34 29 1 39 10 41 8 43 6 45
REMARK Flexibility Score: inf
ROOT
ATOM      1  C   UNL     1     235.132 238.852 236.007  1.00  0.00     0.184 C 
ATOM      2  C   UNL     1     235.214 239.858 234.803  1.00  0.00     0.178 C 
ATOM      3  O   UNL     1     234.748 239.264 233.596  1.00  0.00    -0.341 OA
ATOM      4  C   UNL     1     235.604 238.217 233.151  1.00  0.00     0.282 C 
ATOM      5  C   UNL     1     235.873 237.151 234.260  1.00  0.00     0.202 C 
ATOM      6  C   UNL     1     235.003 237.398 235.509  1.00  0.00     0.180 C 
ENDROOT
BRANCH   1   7
ATOM      7  O   UNL     1     236.280 238.949 236.846  1.00  0.00    -0.341 OA
BRANCH   7   8
ATOM      8  C   UNL     1     236.045 238.636 238.217  1.00  0.00     0.282 C 
ATOM      9  C   UNL     1     236.519 237.143 239.997  1.00  0.00     0.178 C 
ATOM     10  C   UNL     1     236.538 238.293 241.043  1.00  0.00     0.177 C 
ATOM     11  O   UNL     1     236.879 237.581 238.693  1.00  0.00    -0.341 OA
ATOM     12  C   UNL     1     235.813 239.568 240.553  1.00  0.00     0.179 C 
ATOM     13  C   UNL     1     236.170 239.898 239.088  1.00  0.00     0.202 C 
BRANCH   9  14
ATOM     14  C   UNL     1     235.211 236.319 240.003  1.00  0.00     0.191 C 
BRANCH  14  15
ATOM     15  O   UNL     1     235.476 234.979 239.679  1.00  0.00    -0.394 OA
ATOM     16  H   UNL     1     236.265 234.711 240.219  1.00  0.00     0.210 HD
ENDBRANCH  14  15
ENDBRANCH   9  14
BRANCH  10  17
ATOM     17  O   UNL     1     237.858 238.582 241.441  1.00  0.00    -0.387 OA
ATOM     18  H   UNL     1     237.974 238.303 242.392  1.00  0.00     0.211 HD
ENDBRANCH  10  17
BRANCH  12  19
ATOM     19  O   UNL     1     234.419 239.406 240.656  1.00  0.00    -0.387 OA
ATOM     20  H   UNL     1     234.246 238.445 240.820  1.00  0.00     0.211 HD
ENDBRANCH  12  19
BRANCH  13  21
ATOM     21  O   UNL     1     237.470 240.422 238.987  1.00  0.00    -0.385 OA
ATOM     22  H   UNL     1     237.396 241.397 239.157  1.00  0.00     0.211 HD
ENDBRANCH  13  21
ENDBRANCH   7   8
ENDBRANCH   1   7
BRANCH   2  23
ATOM     23  C   UNL     1     236.598 240.541 234.611  1.00  0.00     0.191 C 
BRANCH  23  24
ATOM     24  O   UNL     1     236.465 241.931 234.630  1.00  0.00    -0.394 OA
ATOM     25  H   UNL     1     237.313 242.296 234.995  1.00  0.00     0.210 HD
ENDBRANCH  23  24
ENDBRANCH   2  23
BRANCH   6  26
ATOM     26  O   UNL     1     233.654 237.115 235.230  1.00  0.00    -0.387 OA
ATOM     27  H   UNL     1     233.147 237.956 235.361  1.00  0.00     0.211 HD
ENDBRANCH   6  26
BRANCH   5  28
ATOM     28  O   UNL     1     235.711 235.844 233.784  1.00  0.00    -0.385 OA
ATOM     29  H   UNL     1     235.996 235.232 234.511  1.00  0.00     0.211 HD
ENDBRANCH   5  28
BRANCH   4  30
ATOM     30  O   UNL     1     235.176 237.684 231.899  1.00  0.00    -0.341 OA
BRANCH  30  31
ATOM     31  C   UNL     1     234.685 238.646 230.969  1.00  0.00     0.184 C 
ATOM     32  C   UNL     1     234.479 237.948 229.592  1.00  0.00     0.178 C 
ATOM     33  C   UNL     1     235.669 239.851 230.816  1.00  0.00     0.180 C 
ATOM     34  O   UNL     1     235.691 237.495 229.004  1.00  0.00    -0.342 OA
ATOM     35  C   UNL     1     236.389 239.857 229.459  1.00  0.00     0.201 C 
ATOM     36  C   UNL     1     236.783 238.406 229.087  1.00  0.00     0.279 C 
BRANCH  32  37
ATOM     37  C   UNL     1     233.510 236.759 229.674  1.00  0.00     0.191 C 
BRANCH  37  38
ATOM     38  O   UNL     1     234.192 235.535 229.708  1.00  0.00    -0.394 OA
ATOM     39  H   UNL     1     235.112 235.733 230.022  1.00  0.00     0.210 HD
ENDBRANCH  37  38
ENDBRANCH  32  37
BRANCH  33  40
ATOM     40  O   UNL     1     234.951 241.054 230.968  1.00  0.00    -0.387 OA
ATOM     41  H   UNL     1     235.397 241.729 230.392  1.00  0.00     0.211 HD
ENDBRANCH  33  40
BRANCH  35  42
ATOM     42  O   UNL     1     237.523 240.682 229.524  1.00  0.00    -0.385 OA
ATOM     43  H   UNL     1     237.464 241.311 228.756  1.00  0.00     0.211 HD
ENDBRANCH  35  42
BRANCH  36  44
ATOM     44  O   UNL     1     237.717 237.901 230.005  1.00  0.00    -0.366 OA
ATOM     45  H   UNL     1     238.338 238.639 230.237  1.00  0.00     0.213 HD
ENDBRANCH  36  44
ENDBRANCH  30  31
ENDBRANCH   4  30
TORSDOF 18
ENDMDL
MODEL 4
REMARK VINA RESULT:    -7.026      1.701      3.079
REMARK INTER + INTRA:         -13.794
REMARK INTER:                 -11.729
REMARK INTRA:                  -2.065
REMARK UNBOUND:                -1.633
REMARK SMILES OC[C@@H]1O[C@H](O)[C@H](O)[C@@H](O)[C@@H]1O[C@H]1O[C@H](CO)[C@H](O[C@H]2O[C@H](CO)[C@@H](O)[C@H](O)[C@H]2O)[C@@H](O)[C@H]1O
REMARK SMILES IDX 18 1 15 2 14 3 13 4 33 5 31 6 19 7 20 8 22 9 25 10 21 11
REMARK SMILES IDX 27 12 29 13 23 14 24 15 26 17 28 19 30 21 16 23 17 24 32 26
REMARK SMILES IDX 34 28 12 30 11 31 3 32 9 33 4 34 7 35 5 36 2 37 1 38 10 40
REMARK SMILES IDX 8 42 6 44
REMARK H PARENT 24 16 26 18 28 20 30 22 17 25 32 27 34 29 1 39 10 41 8 43 6 45
REMARK Flexibility Score: inf
ROOT
ATOM      1  C   UNL     1     235.273 237.569 233.463  1.00  0.00     0.184 C 
ATOM      2  C   UNL     1     235.763 236.748 234.708  1.00  0.00     0.178 C 
ATOM      3  O   UNL     1     235.387 237.378 235.928  1.00  0.00    -0.341 OA
ATOM      4  C   UNL     1     236.064 238.616 236.119  1.00  0.00     0.282 C 
ATOM      5  C   UNL     1     235.915 239.576 234.896  1.00  0.00     0.202 C 
ATOM      6  C   UNL     1     234.924 239.019 233.855  1.00  0.00     0.180 C 
ENDROOT
BRANCH   1   7
ATOM      7  O   UNL     1     236.262 237.597 232.435  1.00  0.00    -0.341 OA
BRANCH   7   8
ATOM      8  C   UNL     1     235.748 237.486 231.110  1.00  0.00     0.282 C 
ATOM      9  C   UNL     1     234.222 238.358 229.519  1.00  0.00     0.178 C 
ATOM     10  C   UNL     1     235.218 238.135 228.345  1.00  0.00     0.177 C 
ATOM     11  O   UNL     1     234.879 238.562 230.764  1.00  0.00    -0.341 OA
ATOM     12  C   UNL     1     236.327 237.111 228.680  1.00  0.00     0.179 C 
ATOM     13  C   UNL     1     236.897 237.333 230.098  1.00  0.00     0.202 C 
BRANCH   9  14
ATOM     14  C   UNL     1     233.112 237.285 229.605  1.00  0.00     0.191 C 
BRANCH  14  15
ATOM     15  O   UNL     1     231.979 237.806 230.248  1.00  0.00    -0.394 OA
ATOM     16  H   UNL     1     231.807 238.694 229.839  1.00  0.00     0.210 HD
ENDBRANCH  14  15
ENDBRANCH   9  14
BRANCH  10  17
ATOM     17  O   UNL     1     235.768 239.359 227.920  1.00  0.00    -0.387 OA
ATOM     18  H   UNL     1     236.752 239.341 228.085  1.00  0.00     0.211 HD
ENDBRANCH  10  17
BRANCH  12  19
ATOM     19  O   UNL     1     235.823 235.800 228.593  1.00  0.00    -0.387 OA
ATOM     20  H   UNL     1     236.398 235.226 229.158  1.00  0.00     0.211 HD
ENDBRANCH  12  19
BRANCH  13  21
ATOM     21  O   UNL     1     237.726 238.467 230.141  1.00  0.00    -0.385 OA
ATOM     22  H   UNL     1     238.459 238.258 230.776  1.00  0.00     0.211 HD
ENDBRANCH  13  21
ENDBRANCH   7   8
ENDBRANCH   1   7
BRANCH   2  23
ATOM     23  C   UNL     1     237.272 236.371 234.696  1.00  0.00     0.191 C 
BRANCH  23  24
ATOM     24  O   UNL     1     237.521 235.373 233.753  1.00  0.00    -0.394 OA
ATOM     25  H   UNL     1     236.799 234.700 233.849  1.00  0.00     0.210 HD
ENDBRANCH  23  24
ENDBRANCH   2  23
BRANCH   6  26
ATOM     26  O   UNL     1     233.611 239.068 234.354  1.00  0.00    -0.387 OA
ATOM     27  H   UNL     1     233.511 239.934 234.826  1.00  0.00     0.211 HD
ENDBRANCH   6  26
BRANCH   5  28
ATOM     28  O   UNL     1     235.563 240.873 235.286  1.00  0.00    -0.385 OA
ATOM     29  H   UNL     1     234.995 241.249 234.564  1.00  0.00     0.211 HD
ENDBRANCH   5  28
BRANCH   4  30
ATOM     30  O   UNL     1     235.745 239.200 237.381  1.00  0.00    -0.341 OA
BRANCH  30  31
ATOM     31  C   UNL     1     235.204 238.300 238.345  1.00  0.00     0.184 C 
ATOM     32  C   UNL     1     234.033 239.008 239.087  1.00  0.00     0.178 C 
ATOM     33  C   UNL     1     236.290 237.842 239.373  1.00  0.00     0.180 C 
ATOM     34  O   UNL     1     234.449 240.125 239.860  1.00  0.00    -0.342 OA
ATOM     35  C   UNL     1     236.075 238.449 240.769  1.00  0.00     0.201 C 
ATOM     36  C   UNL     1     235.640 239.929 240.617  1.00  0.00     0.279 C 
BRANCH  32  37
ATOM     37  C   UNL     1     232.926 239.473 238.128  1.00  0.00     0.191 C 
BRANCH  37  38
ATOM     38  O   UNL     1     232.764 238.586 237.054  1.00  0.00    -0.394 OA
ATOM     39  H   UNL     1     233.480 237.904 237.140  1.00  0.00     0.210 HD
ENDBRANCH  37  38
ENDBRANCH  32  37
BRANCH  33  40
ATOM     40  O   UNL     1     236.269 236.436 239.469  1.00  0.00    -0.387 OA
ATOM     41  H   UNL     1     235.568 236.116 238.843  1.00  0.00     0.211 HD
ENDBRANCH  33  40
BRANCH  35  42
ATOM     42  O   UNL     1     237.256 238.350 241.520  1.00  0.00    -0.385 OA
ATOM     43  H   UNL     1     236.986 238.113 242.447  1.00  0.00     0.211 HD
ENDBRANCH  35  42
BRANCH  36  44
ATOM     44  O   UNL     1     236.670 240.684 240.033  1.00  0.00    -0.366 OA
ATOM     45  H   UNL     1     237.492 240.128 240.043  1.00  0.00     0.213 HD
ENDBRANCH  36  44
ENDBRANCH  30  31
ENDBRANCH   4  30
TORSDOF 18
ENDMDL
MODEL 5
REMARK VINA RESULT:    -7.000      1.486      8.751
REMARK INTER + INTRA:         -13.748
REMARK INTER:                 -11.346
REMARK INTRA:                  -2.403
REMARK UNBOUND:                -1.633
REMARK SMILES OC[C@@H]1O[C@H](O)[C@H](O)[C@@H](O)[C@@H]1O[C@H]1O[C@H](CO)[C@H](O[C@H]2O[C@H](CO)[C@@H](O)[C@H](O)[C@H]2O)[C@@H](O)[C@H]1O
REMARK SMILES IDX 18 1 15 2 14 3 13 4 33 5 31 6 19 7 20 8 22 9 25 10 21 11
REMARK SMILES IDX 27 12 29 13 23 14 24 15 26 17 28 19 30 21 16 23 17 24 32 26
REMARK SMILES IDX 34 28 12 30 11 31 3 32 9 33 4 34 7 35 5 36 2 37 1 38 10 40
REMARK SMILES IDX 8 42 6 44
REMARK H PARENT 24 16 26 18 28 20 30 22 17 25 32 27 34 29 1 39 10 41 8 43 6 45
REMARK Flexibility Score: inf
ROOT
ATOM      1  C   UNL     1     235.579 239.051 235.404  1.00  0.00     0.184 C 
ATOM      2  C   UNL     1     236.277 237.819 234.725  1.00  0.00     0.178 C 
ATOM      3  O   UNL     1     236.941 238.194 233.523  1.00  0.00    -0.341 OA
ATOM      4  C   UNL     1     236.024 238.595 232.511  1.00  0.00     0.282 C 
ATOM      5  C   UNL     1     235.036 239.701 233.001  1.00  0.00     0.202 C 
ATOM      6  C   UNL     1     235.409 240.214 234.405  1.00  0.00     0.180 C 
ENDROOT
BRANCH   1   7
ATOM      7  O   UNL     1     234.298 238.703 235.924  1.00  0.00    -0.341 OA
BRANCH   7   8
ATOM      8  C   UNL     1     234.090 239.064 237.288  1.00  0.00     0.282 C 
ATOM      9  C   UNL     1     232.510 239.263 239.045  1.00  0.00     0.178 C 
ATOM     10  C   UNL     1     233.539 238.790 240.111  1.00  0.00     0.177 C 
ATOM     11  O   UNL     1     232.780 238.738 237.751  1.00  0.00    -0.341 OA
ATOM     12  C   UNL     1     235.004 238.927 239.638  1.00  0.00     0.179 C 
ATOM     13  C   UNL     1     235.180 238.447 238.181  1.00  0.00     0.202 C 
BRANCH   9  14
ATOM     14  C   UNL     1     232.291 240.794 239.028  1.00  0.00     0.191 C 
BRANCH  14  15
ATOM     15  O   UNL     1     232.385 241.314 240.328  1.00  0.00    -0.394 OA
ATOM     16  H   UNL     1     231.458 241.362 240.679  1.00  0.00     0.210 HD
ENDBRANCH  14  15
ENDBRANCH   9  14
BRANCH  10  17
ATOM     17  O   UNL     1     233.258 237.473 240.522  1.00  0.00    -0.387 OA
ATOM     18  H   UNL     1     233.389 237.412 241.510  1.00  0.00     0.211 HD
ENDBRANCH  10  17
BRANCH  12  19
ATOM     19  O   UNL     1     235.423 240.267 239.729  1.00  0.00    -0.387 OA
ATOM     20  H   UNL     1     234.936 240.775 239.033  1.00  0.00     0.211 HD
ENDBRANCH  12  19
BRANCH  13  21
ATOM     21  O   UNL     1     235.129 237.045 238.098  1.00  0.00    -0.385 OA
ATOM     22  H   UNL     1     234.169 236.797 238.067  1.00  0.00     0.211 HD
ENDBRANCH  13  21
ENDBRANCH   7   8
ENDBRANCH   1   7
BRANCH   2  23
ATOM     23  C   UNL     1     235.362 236.579 234.514  1.00  0.00     0.191 C 
BRANCH  23  24
ATOM     24  O   UNL     1     235.282 235.824 235.686  1.00  0.00    -0.394 OA
ATOM     25  H   UNL     1     235.650 234.927 235.475  1.00  0.00     0.210 HD
ENDBRANCH  23  24
ENDBRANCH   2  23
BRANCH   6  26
ATOM     26  O   UNL     1     236.597 240.965 234.353  1.00  0.00    -0.387 OA
ATOM     27  H   UNL     1     236.346 241.915 234.487  1.00  0.00     0.211 HD
ENDBRANCH   6  26
BRANCH   5  28
ATOM     28  O   UNL     1     234.934 240.757 232.088  1.00  0.00    -0.385 OA
ATOM     29  H   UNL     1     235.123 241.593 232.589  1.00  0.00     0.211 HD
ENDBRANCH   5  28
BRANCH   4  30
ATOM     30  O   UNL     1     236.691 238.889 231.284  1.00  0.00    -0.341 OA
BRANCH  30  31
ATOM     31  C   UNL     1     236.959 237.760 230.456  1.00  0.00     0.184 C 
ATOM     32  C   UNL     1     236.962 238.221 228.969  1.00  0.00     0.178 C 
ATOM     33  C   UNL     1     235.897 236.632 230.664  1.00  0.00     0.180 C 
ATOM     34  O   UNL     1     235.695 238.679 228.519  1.00  0.00    -0.342 OA
ATOM     35  C   UNL     1     234.953 236.480 229.460  1.00  0.00     0.201 C 
ATOM     36  C   UNL     1     234.583 237.886 228.925  1.00  0.00     0.279 C 
BRANCH  32  37
ATOM     37  C   UNL     1     237.997 239.325 228.698  1.00  0.00     0.191 C 
BRANCH  37  38
ATOM     38  O   UNL     1     237.585 240.560 229.217  1.00  0.00    -0.394 OA
ATOM     39  H   UNL     1     237.181 240.374 230.103  1.00  0.00     0.210 HD
ENDBRANCH  37  38
ENDBRANCH  32  37
BRANCH  33  40
ATOM     40  O   UNL     1     236.561 235.410 230.892  1.00  0.00    -0.387 OA
ATOM     41  H   UNL     1     237.418 235.630 231.343  1.00  0.00     0.211 HD
ENDBRANCH  33  40
BRANCH  35  42
ATOM     42  O   UNL     1     233.803 235.772 229.841  1.00  0.00    -0.385 OA
ATOM     43  H   UNL     1     233.473 236.192 230.679  1.00  0.00     0.211 HD
ENDBRANCH  35  42
BRANCH  36  44
ATOM     44  O   UNL     1     233.852 238.600 229.887  1.00  0.00    -0.366 OA
ATOM     45  H   UNL     1     233.790 238.032 230.698  1.00  0.00     0.213 HD
ENDBRANCH  36  44
ENDBRANCH  30  31
ENDBRANCH   4  30
TORSDOF 18
ENDMDL
MODEL 6
REMARK VINA RESULT:    -6.963      1.261      1.968
REMARK INTER + INTRA:         -13.684
REMARK INTER:                 -11.502
REMARK INTRA:                  -2.182
REMARK UNBOUND:                -1.633
REMARK SMILES OC[C@@H]1O[C@H](O)[C@H](O)[C@@H](O)[C@@H]1O[C@H]1O[C@H](CO)[C@H](O[C@H]2O[C@H](CO)[C@@H](O)[C@H](O)[C@H]2O)[C@@H](O)[C@H]1O
REMARK SMILES IDX 18 1 15 2 14 3 13 4 33 5 31 6 19 7 20 8 22 9 25 10 21 11
REMARK SMILES IDX 27 12 29 13 23 14 24 15 26 17 28 19 30 21 16 23 17 24 32 26
REMARK SMILES IDX 34 28 12 30 11 31 3 32 9 33 4 34 7 35 5 36 2 37 1 38 10 40
REMARK SMILES IDX 8 42 6 44
REMARK H PARENT 24 16 26 18 28 20 30 22 17 25 32 27 34 29 1 39 10 41 8 43 6 45
REMARK Flexibility Score: inf
ROOT
ATOM      1  C   UNL     1     235.855 238.479 233.752  1.00  0.00     0.184 C 
ATOM      2  C   UNL     1     236.628 239.330 234.821  1.00  0.00     0.178 C 
ATOM      3  O   UNL     1     236.181 239.039 236.141  1.00  0.00    -0.341 OA
ATOM      4  C   UNL     1     234.839 239.464 236.355  1.00  0.00     0.282 C 
ATOM      5  C   UNL     1     233.856 238.917 235.272  1.00  0.00     0.202 C 
ATOM      6  C   UNL     1     234.548 237.905 234.337  1.00  0.00     0.180 C 
ENDROOT
BRANCH   1   7
ATOM      7  O   UNL     1     235.538 239.255 232.598  1.00  0.00    -0.341 OA
BRANCH   7   8
ATOM      8  C   UNL     1     235.680 238.566 231.359  1.00  0.00     0.282 C 
ATOM      9  C   UNL     1     234.559 237.701 229.456  1.00  0.00     0.178 C 
ATOM     10  C   UNL     1     235.728 238.095 228.508  1.00  0.00     0.177 C 
ATOM     11  O   UNL     1     234.472 238.543 230.599  1.00  0.00    -0.341 OA
ATOM     12  C   UNL     1     237.060 238.328 229.257  1.00  0.00     0.179 C 
ATOM     13  C   UNL     1     236.851 239.148 230.549  1.00  0.00     0.202 C 
BRANCH   9  14
ATOM     14  C   UNL     1     234.536 236.200 229.825  1.00  0.00     0.191 C 
BRANCH  14  15
ATOM     15  O   UNL     1     235.326 235.466 228.927  1.00  0.00    -0.394 OA
ATOM     16  H   UNL     1     234.779 234.687 228.643  1.00  0.00     0.210 HD
ENDBRANCH  14  15
ENDBRANCH   9  14
BRANCH  10  17
ATOM     17  O   UNL     1     235.380 239.216 227.729  1.00  0.00    -0.387 OA
ATOM     18  H   UNL     1     234.465 239.074 227.356  1.00  0.00     0.211 HD
ENDBRANCH  10  17
BRANCH  12  19
ATOM     19  O   UNL     1     237.654 237.097 229.590  1.00  0.00    -0.387 OA
ATOM     20  H   UNL     1     237.053 236.382 229.262  1.00  0.00     0.211 HD
ENDBRANCH  12  19
BRANCH  13  21
ATOM     21  O   UNL     1     236.608 240.500 230.259  1.00  0.00    -0.385 OA
ATOM     22  H   UNL     1     236.428 240.554 229.285  1.00  0.00     0.211 HD
ENDBRANCH  13  21
ENDBRANCH   7   8
ENDBRANCH   1   7
BRANCH   2  23
ATOM     23  C   UNL     1     236.657 240.861 234.548  1.00  0.00     0.191 C 
BRANCH  23  24
ATOM     24  O   UNL     1     237.941 241.371 234.749  1.00  0.00    -0.394 OA
ATOM     25  H   UNL     1     238.248 241.728 233.875  1.00  0.00     0.210 HD
ENDBRANCH  23  24
ENDBRANCH   2  23
BRANCH   6  26
ATOM     26  O   UNL     1     234.827 236.712 235.028  1.00  0.00    -0.387 OA
ATOM     27  H   UNL     1     234.438 236.803 235.934  1.00  0.00     0.211 HD
ENDBRANCH   6  26
BRANCH   5  28
ATOM     28  O   UNL     1     232.699 238.370 235.839  1.00  0.00    -0.385 OA
ATOM     29  H   UNL     1     232.692 237.405 235.610  1.00  0.00     0.211 HD
ENDBRANCH   5  28
BRANCH   4  30
ATOM     30  O   UNL     1     234.427 239.245 237.703  1.00  0.00    -0.341 OA
BRANCH  30  31
ATOM     31  C   UNL     1     235.483 239.196 238.659  1.00  0.00     0.184 C 
ATOM     32  C   UNL     1     235.295 237.931 239.546  1.00  0.00     0.178 C 
ATOM     33  C   UNL     1     235.507 240.479 239.553  1.00  0.00     0.180 C 
ATOM     34  O   UNL     1     234.119 237.971 240.342  1.00  0.00    -0.342 OA
ATOM     35  C   UNL     1     235.055 240.201 240.996  1.00  0.00     0.201 C 
ATOM     36  C   UNL     1     233.854 239.221 240.972  1.00  0.00     0.279 C 
BRANCH  32  37
ATOM     37  C   UNL     1     235.276 236.633 238.724  1.00  0.00     0.191 C 
BRANCH  37  38
ATOM     38  O   UNL     1     236.225 236.660 237.691  1.00  0.00    -0.394 OA
ATOM     39  H   UNL     1     236.843 235.902 237.855  1.00  0.00     0.210 HD
ENDBRANCH  37  38
ENDBRANCH  32  37
BRANCH  33  40
ATOM     40  O   UNL     1     236.813 241.007 239.568  1.00  0.00    -0.387 OA
ATOM     41  H   UNL     1     236.723 241.995 239.544  1.00  0.00     0.211 HD
ENDBRANCH  33  40
BRANCH  35  42
ATOM     42  O   UNL     1     234.705 241.404 241.627  1.00  0.00    -0.385 OA
ATOM     43  H   UNL     1     234.073 241.873 241.020  1.00  0.00     0.211 HD
ENDBRANCH  35  42
BRANCH  36  44
ATOM     44  O   UNL     1     232.750 239.814 240.341  1.00  0.00    -0.366 OA
ATOM     45  H   UNL     1     232.395 240.511 240.951  1.00  0.00     0.213 HD
ENDBRANCH  36  44
ENDBRANCH  30  31
ENDBRANCH   4  30
TORSDOF 18
ENDMDL
MODEL 7
REMARK VINA RESULT:    -6.915      1.379      8.800
REMARK INTER + INTRA:         -13.601
REMARK INTER:                 -11.486
REMARK INTRA:                  -2.115
REMARK UNBOUND:                -1.633
REMARK SMILES OC[C@@H]1O[C@H](O)[C@H](O)[C@@H](O)[C@@H]1O[C@H]1O[C@H](CO)[C@H](O[C@H]2O[C@H](CO)[C@@H](O)[C@H](O)[C@H]2O)[C@@H](O)[C@H]1O
REMARK SMILES IDX 18 1 15 2 14 3 13 4 33 5 31 6 19 7 20 8 22 9 25 10 21 11
REMARK SMILES IDX 27 12 29 13 23 14 24 15 26 17 28 19 30 21 16 23 17 24 32 26
REMARK SMILES IDX 34 28 12 30 11 31 3 32 9 33 4 34 7 35 5 36 2 37 1 38 10 40
REMARK SMILES IDX 8 42 6 44
REMARK H PARENT 24 16 26 18 28 20 30 22 17 25 32 27 34 29 1 39 10 41 8 43 6 45
REMARK Flexibility Score: inf
ROOT
ATOM      1  C   UNL     1     234.947 239.532 235.539  1.00  0.00     0.184 C 
ATOM      2  C   UNL     1     235.713 240.363 234.449  1.00  0.00     0.178 C 
ATOM      3  O   UNL     1     235.544 239.801 233.152  1.00  0.00    -0.341 OA
ATOM      4  C   UNL     1     236.175 238.530 233.036  1.00  0.00     0.282 C 
ATOM      5  C   UNL     1     235.740 237.539 234.162  1.00  0.00     0.202 C 
ATOM      6  C   UNL     1     234.599 238.121 235.021  1.00  0.00     0.180 C 
ENDROOT
BRANCH   1   7
ATOM      7  O   UNL     1     235.716 239.404 236.733  1.00  0.00    -0.341 OA
BRANCH   7   8
ATOM      8  C   UNL     1     234.971 239.545 237.940  1.00  0.00     0.282 C 
ATOM      9  C   UNL     1     232.823 239.456 238.940  1.00  0.00     0.178 C 
ATOM     10  C   UNL     1     233.386 238.828 240.247  1.00  0.00     0.177 C 
ATOM     11  O   UNL     1     233.610 239.143 237.798  1.00  0.00    -0.341 OA
ATOM     12  C   UNL     1     234.907 239.046 240.416  1.00  0.00     0.179 C 
ATOM     13  C   UNL     1     235.667 238.802 239.094  1.00  0.00     0.202 C 
BRANCH   9  14
ATOM     14  C   UNL     1     232.525 240.969 239.056  1.00  0.00     0.191 C 
BRANCH  14  15
ATOM     15  O   UNL     1     232.288 241.318 240.394  1.00  0.00    -0.394 OA
ATOM     16  H   UNL     1     231.822 240.545 240.808  1.00  0.00     0.210 HD
ENDBRANCH  14  15
ENDBRANCH   9  14
BRANCH  10  17
ATOM     17  O   UNL     1     233.057 237.460 240.323  1.00  0.00    -0.387 OA
ATOM     18  H   UNL     1     233.901 236.927 240.291  1.00  0.00     0.211 HD
ENDBRANCH  10  17
BRANCH  12  19
ATOM     19  O   UNL     1     235.166 240.358 240.853  1.00  0.00    -0.387 OA
ATOM     20  H   UNL     1     235.181 240.340 241.843  1.00  0.00     0.211 HD
ENDBRANCH  12  19
BRANCH  13  21
ATOM     21  O   UNL     1     235.748 237.431 238.800  1.00  0.00    -0.385 OA
ATOM     22  H   UNL     1     236.714 237.208 238.751  1.00  0.00     0.211 HD
ENDBRANCH  13  21
ENDBRANCH   7   8
ENDBRANCH   1   7
BRANCH   2  23
ATOM     23  C   UNL     1     237.211 240.641 234.766  1.00  0.00     0.191 C 
BRANCH  23  24
ATOM     24  O   UNL     1     237.502 241.997 234.604  1.00  0.00    -0.394 OA
ATOM     25  H   UNL     1     236.859 242.498 235.169  1.00  0.00     0.210 HD
ENDBRANCH  23  24
ENDBRANCH   2  23
BRANCH   6  26
ATOM     26  O   UNL     1     233.406 238.174 234.279  1.00  0.00    -0.387 OA
ATOM     27  H   UNL     1     232.861 238.911 234.657  1.00  0.00     0.211 HD
ENDBRANCH   6  26
BRANCH   5  28
ATOM     28  O   UNL     1     235.397 236.282 233.653  1.00  0.00    -0.385 OA
ATOM     29  H   UNL     1     234.491 236.366 233.256  1.00  0.00     0.211 HD
ENDBRANCH   5  28
BRANCH   4  30
ATOM     30  O   UNL     1     236.074 238.012 231.711  1.00  0.00    -0.341 OA
BRANCH  30  31
ATOM     31  C   UNL     1     235.767 238.975 230.706  1.00  0.00     0.184 C 
ATOM     32  C   UNL     1     234.564 238.455 229.866  1.00  0.00     0.178 C 
ATOM     33  C   UNL     1     236.994 239.242 229.774  1.00  0.00     0.180 C 
ATOM     34  O   UNL     1     234.859 237.277 229.129  1.00  0.00    -0.342 OA
ATOM     35  C   UNL     1     236.803 238.660 228.365  1.00  0.00     0.201 C 
ATOM     36  C   UNL     1     236.125 237.271 228.476  1.00  0.00     0.279 C 
BRANCH  32  37
ATOM     37  C   UNL     1     233.319 238.185 230.726  1.00  0.00     0.191 C 
BRANCH  37  38
ATOM     38  O   UNL     1     233.118 239.195 231.678  1.00  0.00    -0.394 OA
ATOM     39  H   UNL     1     234.003 239.380 232.086  1.00  0.00     0.210 HD
ENDBRANCH  37  38
ENDBRANCH  32  37
BRANCH  33  40
ATOM     40  O   UNL     1     237.208 240.631 229.680  1.00  0.00    -0.387 OA
ATOM     41  H   UNL     1     236.601 240.967 228.970  1.00  0.00     0.211 HD
ENDBRANCH  33  40
BRANCH  35  42
ATOM     42  O   UNL     1     238.044 238.560 227.717  1.00  0.00    -0.385 OA
ATOM     43  H   UNL     1     238.126 237.622 227.399  1.00  0.00     0.211 HD
ENDBRANCH  35  42
BRANCH  36  44
ATOM     44  O   UNL     1     236.967 236.367 229.144  1.00  0.00    -0.366 OA
ATOM     45  H   UNL     1     236.463 236.006 229.919  1.00  0.00     0.213 HD
ENDBRANCH  36  44
ENDBRANCH  30  31
ENDBRANCH   4  30
TORSDOF 18
ENDMDL
MODEL 8
REMARK VINA RESULT:    -6.810      2.084      8.944
REMARK INTER + INTRA:         -13.419
REMARK INTER:                 -10.666
REMARK INTRA:                  -2.753
REMARK UNBOUND:                -1.633
REMARK SMILES OC[C@@H]1O[C@H](O)[C@H](O)[C@@H](O)[C@@H]1O[C@H]1O[C@H](CO)[C@H](O[C@H]2O[C@H](CO)[C@@H](O)[C@H](O)[C@H]2O)[C@@H](O)[C@H]1O
REMARK SMILES IDX 18 1 15 2 14 3 13 4 33 5 31 6 19 7 20 8 22 9 25 10 21 11
REMARK SMILES IDX 27 12 29 13 23 14 24 15 26 17 28 19 30 21 16 23 17 24 32 26
REMARK SMILES IDX 34 28 12 30 11 31 3 32 9 33 4 34 7 35 5 36 2 37 1 38 10 40
REMARK SMILES IDX 8 42 6 44
REMARK H PARENT 24 16 26 18 28 20 30 22 17 25 32 27 34 29 1 39 10 41 8 43 6 45
REMARK Flexibility Score: inf
ROOT
ATOM      1  C   UNL     1     236.065 238.369 235.993  1.00  0.00     0.184 C 
ATOM      2  C   UNL     1     236.708 237.375 234.963  1.00  0.00     0.178 C 
ATOM      3  O   UNL     1     236.432 237.764 233.621  1.00  0.00    -0.341 OA
ATOM      4  C   UNL     1     235.049 237.644 233.306  1.00  0.00     0.282 C 
ATOM      5  C   UNL     1     234.134 238.388 234.330  1.00  0.00     0.202 C 
ATOM      6  C   UNL     1     234.961 239.219 235.331  1.00  0.00     0.180 C 
ENDROOT
BRANCH   1   7
ATOM      7  O   UNL     1     235.504 237.676 237.106  1.00  0.00    -0.341 OA
BRANCH   7   8
ATOM      8  C   UNL     1     235.857 238.209 238.380  1.00  0.00     0.282 C 
ATOM      9  C   UNL     1     235.215 238.456 240.650  1.00  0.00     0.178 C 
ATOM     10  C   UNL     1     236.679 238.296 241.149  1.00  0.00     0.177 C 
ATOM     11  O   UNL     1     234.978 237.782 239.420  1.00  0.00    -0.341 OA
ATOM     12  C   UNL     1     237.727 238.558 240.042  1.00  0.00     0.179 C 
ATOM     13  C   UNL     1     237.326 237.890 238.709  1.00  0.00     0.202 C 
BRANCH   9  14
ATOM     14  C   UNL     1     234.723 239.921 240.625  1.00  0.00     0.191 C 
BRANCH  14  15
ATOM     15  O   UNL     1     235.488 240.707 241.500  1.00  0.00    -0.394 OA
ATOM     16  H   UNL     1     234.955 241.525 241.682  1.00  0.00     0.210 HD
ENDBRANCH  14  15
ENDBRANCH   9  14
BRANCH  10  17
ATOM     17  O   UNL     1     236.868 237.031 241.738  1.00  0.00    -0.387 OA
ATOM     18  H   UNL     1     236.105 236.848 242.355  1.00  0.00     0.211 HD
ENDBRANCH  10  17
BRANCH  12  19
ATOM     19  O   UNL     1     237.877 239.941 239.831  1.00  0.00    -0.387 OA
ATOM     20  H   UNL     1     237.391 240.166 238.999  1.00  0.00     0.211 HD
ENDBRANCH  12  19
BRANCH  13  21
ATOM     21  O   UNL     1     237.513 236.499 238.761  1.00  0.00    -0.385 OA
ATOM     22  H   UNL     1     236.609 236.090 238.734  1.00  0.00     0.211 HD
ENDBRANCH  13  21
ENDBRANCH   7   8
ENDBRANCH   1   7
BRANCH   2  23
ATOM     23  C   UNL     1     236.382 235.873 235.206  1.00  0.00     0.191 C 
BRANCH  23  24
ATOM     24  O   UNL     1     237.222 235.341 236.186  1.00  0.00    -0.394 OA
ATOM     25  H   UNL     1     236.933 235.727 237.052  1.00  0.00     0.210 HD
ENDBRANCH  23  24
ENDBRANCH   2  23
BRANCH   6  26
ATOM     26  O   UNL     1     235.543 240.325 234.687  1.00  0.00    -0.387 OA
ATOM     27  H   UNL     1     236.494 240.100 234.525  1.00  0.00     0.211 HD
ENDBRANCH   6  26
BRANCH   5  28
ATOM     28  O   UNL     1     233.168 239.178 233.696  1.00  0.00    -0.385 OA
ATOM     29  H   UNL     1     233.496 240.115 233.721  1.00  0.00     0.211 HD
ENDBRANCH   5  28
BRANCH   4  30
ATOM     30  O   UNL     1     234.792 237.955 231.938  1.00  0.00    -0.341 OA
BRANCH  30  31
ATOM     31  C   UNL     1     235.933 238.362 231.186  1.00  0.00     0.184 C 
ATOM     32  C   UNL     1     235.480 239.394 230.111  1.00  0.00     0.178 C 
ATOM     33  C   UNL     1     236.629 237.143 230.497  1.00  0.00     0.180 C 
ATOM     34  O   UNL     1     234.608 238.844 229.135  1.00  0.00    -0.342 OA
ATOM     35  C   UNL     1     236.430 237.133 228.973  1.00  0.00     0.201 C 
ATOM     36  C   UNL     1     234.975 237.556 228.648  1.00  0.00     0.279 C 
BRANCH  32  37
ATOM     37  C   UNL     1     234.797 240.624 230.729  1.00  0.00     0.191 C 
BRANCH  37  38
ATOM     38  O   UNL     1     235.221 240.844 232.047  1.00  0.00    -0.394 OA
ATOM     39  H   UNL     1     235.292 239.952 232.475  1.00  0.00     0.210 HD
ENDBRANCH  37  38
ENDBRANCH  32  37
BRANCH  33  40
ATOM     40  O   UNL     1     238.008 237.176 230.786  1.00  0.00    -0.387 OA
ATOM     41  H   UNL     1     238.092 237.236 231.774  1.00  0.00     0.211 HD
ENDBRANCH  33  40
BRANCH  35  42
ATOM     42  O   UNL     1     236.704 235.854 228.464  1.00  0.00    -0.385 OA
ATOM     43  H   UNL     1     236.779 235.949 227.477  1.00  0.00     0.211 HD
ENDBRANCH  35  42
BRANCH  36  44
ATOM     44  O   UNL     1     234.066 236.612 229.152  1.00  0.00    -0.366 OA
ATOM     45  H   UNL     1     233.261 237.105 229.457  1.00  0.00     0.213 HD
ENDBRANCH  36  44
ENDBRANCH  30  31
ENDBRANCH   4  30
TORSDOF 18
ENDMDL
MODEL 9
REMARK VINA RESULT:    -6.795      5.578      8.331
REMARK INTER + INTRA:         -13.393
REMARK INTER:                 -11.346
REMARK INTRA:                  -2.048
REMARK UNBOUND:                -1.633
REMARK SMILES OC[C@@H]1O[C@H](O)[C@H](O)[C@@H](O)[C@@H]1O[C@H]1O[C@H](CO)[C@H](O[C@H]2O[C@H](CO)[C@@H](O)[C@H](O)[C@H]2O)[C@@H](O)[C@H]1O
REMARK SMILES IDX 18 1 15 2 14 3 13 4 33 5 31 6 19 7 20 8 22 9 25 10 21 11
REMARK SMILES IDX 27 12 29 13 23 14 24 15 26 17 28 19 30 21 16 23 17 24 32 26
REMARK SMILES IDX 34 28 12 30 11 31 3 32 9 33 4 34 7 35 5 36 2 37 1 38 10 40
REMARK SMILES IDX 8 42 6 44
REMARK H PARENT 24 16 26 18 28 20 30 22 17 25 32 27 34 29 1 39 10 41 8 43 6 45
REMARK Flexibility Score: inf
ROOT
ATOM      1  C   UNL     1     238.717 234.976 240.884  1.00  0.00     0.184 C 
ATOM      2  C   UNL     1     239.077 236.350 240.215  1.00  0.00     0.178 C 
ATOM      3  O   UNL     1     237.989 237.266 240.288  1.00  0.00    -0.341 OA
ATOM      4  C   UNL     1     236.885 236.844 239.494  1.00  0.00     0.282 C 
ATOM      5  C   UNL     1     236.439 235.382 239.814  1.00  0.00     0.202 C 
ATOM      6  C   UNL     1     237.190 234.815 241.035  1.00  0.00     0.180 C 
ENDROOT
BRANCH   1   7
ATOM      7  O   UNL     1     239.220 233.879 240.124  1.00  0.00    -0.341 OA
BRANCH   7   8
ATOM      8  C   UNL     1     238.307 232.796 239.963  1.00  0.00     0.282 C 
ATOM      9  C   UNL     1     237.071 231.487 238.420  1.00  0.00     0.178 C 
ATOM     10  C   UNL     1     237.296 230.187 239.244  1.00  0.00     0.177 C 
ATOM     11  O   UNL     1     238.116 232.435 238.596  1.00  0.00    -0.341 OA
ATOM     12  C   UNL     1     237.694 230.463 240.712  1.00  0.00     0.179 C 
ATOM     13  C   UNL     1     238.743 231.591 240.814  1.00  0.00     0.202 C 
BRANCH   9  14
ATOM     14  C   UNL     1     235.669 232.110 238.612  1.00  0.00     0.191 C 
BRANCH  14  15
ATOM     15  O   UNL     1     234.803 231.185 239.217  1.00  0.00    -0.394 OA
ATOM     16  H   UNL     1     235.095 231.104 240.162  1.00  0.00     0.210 HD
ENDBRANCH  14  15
ENDBRANCH   9  14
BRANCH  10  17
ATOM     17  O   UNL     1     238.238 229.353 238.610  1.00  0.00    -0.387 OA
ATOM     18  H   UNL     1     239.042 229.276 239.198  1.00  0.00     0.211 HD
ENDBRANCH  10  17
BRANCH  12  19
ATOM     19  O   UNL     1     236.561 230.825 241.464  1.00  0.00    -0.387 OA
ATOM     20  H   UNL     1     236.868 231.014 242.386  1.00  0.00     0.211 HD
ENDBRANCH  12  19
BRANCH  13  21
ATOM     21  O   UNL     1     240.010 231.146 240.401  1.00  0.00    -0.385 OA
ATOM     22  H   UNL     1     240.472 230.814 241.214  1.00  0.00     0.211 HD
ENDBRANCH  13  21
ENDBRANCH   7   8
ENDBRANCH   1   7
BRANCH   2  23
ATOM     23  C   UNL     1     239.650 236.250 238.773  1.00  0.00     0.191 C 
BRANCH  23  24
ATOM     24  O   UNL     1     240.987 235.850 238.803  1.00  0.00    -0.394 OA
ATOM     25  H   UNL     1     241.340 236.093 239.697  1.00  0.00     0.210 HD
ENDBRANCH  23  24
ENDBRANCH   2  23
BRANCH   6  26
ATOM     26  O   UNL     1     236.765 235.454 242.213  1.00  0.00    -0.387 OA
ATOM     27  H   UNL     1     235.788 235.598 242.129  1.00  0.00     0.211 HD
ENDBRANCH   6  26
BRANCH   5  28
ATOM     28  O   UNL     1     235.054 235.279 239.982  1.00  0.00    -0.385 OA
ATOM     29  H   UNL     1     234.740 234.558 239.376  1.00  0.00     0.211 HD
ENDBRANCH   5  28
BRANCH   4  30
ATOM     30  O   UNL     1     235.832 237.807 239.505  1.00  0.00    -0.341 OA
BRANCH  30  31
ATOM     31  C   UNL     1     235.827 238.711 238.403  1.00  0.00     0.184 C 
ATOM     32  C   UNL     1     235.364 240.109 238.905  1.00  0.00     0.178 C 
ATOM     33  C   UNL     1     234.884 238.213 237.259  1.00  0.00     0.180 C 
ATOM     34  O   UNL     1     234.019 240.125 239.364  1.00  0.00    -0.342 OA
ATOM     35  C   UNL     1     233.610 239.064 237.132  1.00  0.00     0.201 C 
ATOM     36  C   UNL     1     233.091 239.415 238.550  1.00  0.00     0.279 C 
BRANCH  32  37
ATOM     37  C   UNL     1     236.261 240.659 240.025  1.00  0.00     0.191 C 
BRANCH  37  38
ATOM     38  O   UNL     1     237.558 240.131 239.955  1.00  0.00    -0.394 OA
ATOM     39  H   UNL     1     237.753 239.740 240.846  1.00  0.00     0.210 HD
ENDBRANCH  37  38
ENDBRANCH  32  37
BRANCH  33  40
ATOM     40  O   UNL     1     235.586 238.241 236.038  1.00  0.00    -0.387 OA
ATOM     41  H   UNL     1     235.838 237.303 235.830  1.00  0.00     0.211 HD
ENDBRANCH  33  40
BRANCH  35  42
ATOM     42  O   UNL     1     232.637 238.363 236.403  1.00  0.00    -0.385 OA
ATOM     43  H   UNL     1     232.829 237.395 236.529  1.00  0.00     0.211 HD
ENDBRANCH  35  42
BRANCH  36  44
ATOM     44  O   UNL     1     232.699 238.252 239.230  1.00  0.00    -0.366 OA
ATOM     45  H   UNL     1     233.329 237.529 238.974  1.00  0.00     0.213 HD
ENDBRANCH  36  44
ENDBRANCH  30  31
ENDBRANCH   4  30
TORSDOF 18
ENDMDL
