MODEL 1
REMARK VINA RESULT:    -3.078      0.000      0.000
REMARK INTER + INTRA:          -3.458
REMARK INTER:                  -3.438
REMARK INTRA:                  -0.020
REMARK UNBOUND:                -0.020
REMARK SMILES CCCC(=O)[O-]
REMARK SMILES IDX 3 1 4 2 5 3 6 4 2 5 1 6
REMARK H PARENT
REMARK Flexibility Score: inf
ROOT
ATOM      1  C   UNL     1      37.972  41.252  61.980  1.00  0.00     0.052 C 
ENDROOT
BRANCH   1   2
ATOM      2  C   UNL     1      38.428  40.017  61.270  1.00  0.00     0.041 C 
ATOM      3  O   UNL     1      37.764  38.950  61.363  1.00  0.00    -0.550 OA
ATOM      4  O   UNL     1      39.612  40.029  60.545  1.00  0.00    -0.550 OA
ENDBRANCH   1   2
BRANCH   1   5
ATOM      5  C   UNL     1      39.155  41.943  62.664  1.00  0.00     0.003 C 
ATOM      6  C   UNL     1      39.023  43.461  62.587  1.00  0.00     0.004 C 
ENDBRANCH   1   5
TORSDOF 2
ENDMDL
MODEL 2
REMARK VINA RESULT:    -2.988     20.885     21.708
REMARK INTER + INTRA:          -3.357
REMARK INTER:                  -3.292
REMARK INTRA:                  -0.065
REMARK UNBOUND:                -0.020
REMARK SMILES CCCC(=O)[O-]
REMARK SMILES IDX 3 1 4 2 5 3 6 4 2 5 1 6
REMARK H PARENT
REMARK Flexibility Score: inf
ROOT
ATOM      1  C   UNL     1      23.863  23.996  62.040  1.00  0.00     0.052 C 
ENDROOT
BRANCH   1   2
ATOM      2  C   UNL     1      24.817  25.076  61.637  1.00  0.00     0.041 C 
ATOM      3  O   UNL     1      25.967  25.127  62.147  1.00  0.00    -0.550 OA
ATOM      4  O   UNL     1      24.420  26.054  60.735  1.00  0.00    -0.550 OA
ENDBRANCH   1   2
BRANCH   1   5
ATOM      5  C   UNL     1      23.731  23.940  63.564  1.00  0.00     0.003 C 
ATOM      6  C   UNL     1      22.847  25.071  64.081  1.00  0.00     0.004 C 
ENDBRANCH   1   5
TORSDOF 2
ENDMDL
MODEL 3
REMARK VINA RESULT:    -2.893     18.239     18.647
REMARK INTER + INTRA:          -3.252
REMARK INTER:                  -3.215
REMARK INTRA:                  -0.037
REMARK UNBOUND:                -0.020
REMARK SMILES CCCC(=O)[O-]
REMARK SMILES IDX 3 1 4 2 5 3 6 4 2 5 1 6
REMARK H PARENT
REMARK Flexibility Score: inf
ROOT
ATOM      1  C   UNL     1      33.766  26.205  71.280  1.00  0.00     0.052 C 
ENDROOT
BRANCH   1   2
ATOM      2  C   UNL     1      32.353  25.943  70.864  1.00  0.00     0.041 C 
ATOM      3  O   UNL     1      32.109  25.168  69.901  1.00  0.00    -0.550 OA
ATOM      4  O   UNL     1      31.307  26.590  71.509  1.00  0.00    -0.550 OA
ENDBRANCH   1   2
BRANCH   1   5
ATOM      5  C   UNL     1      34.735  25.792  70.169  1.00  0.00     0.003 C 
ATOM      6  C   UNL     1      35.706  24.720  70.658  1.00  0.00     0.004 C 
ENDBRANCH   1   5
TORSDOF 2
ENDMDL
MODEL 4
REMARK VINA RESULT:    -2.847     17.904     18.742
REMARK INTER + INTRA:          -3.200
REMARK INTER:                  -3.176
REMARK INTRA:                  -0.025
REMARK UNBOUND:                -0.020
REMARK SMILES CCCC(=O)[O-]
REMARK SMILES IDX 3 1 4 2 5 3 6 4 2 5 1 6
REMARK H PARENT
REMARK Flexibility Score: inf
ROOT
ATOM      1  C   UNL     1      35.666  24.237  70.971  1.00  0.00     0.052 C 
ENDROOT
BRANCH   1   2
ATOM      2  C   UNL     1      37.132  24.199  70.675  1.00  0.00     0.041 C 
ATOM      3  O   UNL     1      37.540  24.251  69.485  1.00  0.00    -0.550 OA
ATOM      4  O   UNL     1      38.047  24.059  71.711  1.00  0.00    -0.550 OA
ENDBRANCH   1   2
BRANCH   1   5
ATOM      5  C   UNL     1      34.980  25.322  70.136  1.00  0.00     0.003 C 
ATOM      6  C   UNL     1      34.583  26.514  71.003  1.00  0.00     0.004 C 
ENDBRANCH   1   5
TORSDOF 2
ENDMDL
MODEL 5
REMARK VINA RESULT:    -2.806     18.103     19.071
REMARK INTER + INTRA:          -3.154
REMARK INTER:                  -3.148
REMARK INTRA:                  -0.006
REMARK UNBOUND:                -0.020
REMARK SMILES CCCC(=O)[O-]
REMARK SMILES IDX 3 1 4 2 5 3 6 4 2 5 1 6
REMARK H PARENT
REMARK Flexibility Score: inf
ROOT
ATOM      1  C   UNL     1      32.176  26.071  70.994  1.00  0.00     0.052 C 
ENDROOT
BRANCH   1   2
ATOM      2  C   UNL     1      31.270  24.977  70.524  1.00  0.00     0.041 C 
ATOM      3  O   UNL     1      30.712  24.216  71.358  1.00  0.00    -0.550 OA
ATOM      4  O   UNL     1      31.080  24.767  69.165  1.00  0.00    -0.550 OA
ENDBRANCH   1   2
BRANCH   1   5
ATOM      5  C   UNL     1      33.642  25.658  70.831  1.00  0.00     0.003 C 
ATOM      6  C   UNL     1      34.568  26.867  70.932  1.00  0.00     0.004 C 
ENDBRANCH   1   5
TORSDOF 2
ENDMDL
MODEL 6
REMARK VINA RESULT:    -2.800     16.128     16.617
REMARK INTER + INTRA:          -3.147
REMARK INTER:                  -3.138
REMARK INTRA:                  -0.009
REMARK UNBOUND:                -0.020
REMARK SMILES CCCC(=O)[O-]
REMARK SMILES IDX 3 1 4 2 5 3 6 4 2 5 1 6
REMARK H PARENT
REMARK Flexibility Score: inf
ROOT
ATOM      1  C   UNL     1      31.312  26.969  63.031  1.00  0.00     0.052 C 
ENDROOT
BRANCH   1   2
ATOM      2  C   UNL     1      32.233  25.880  63.481  1.00  0.00     0.041 C 
ATOM      3  O   UNL     1      32.204  25.479  64.674  1.00  0.00    -0.550 OA
ATOM      4  O   UNL     1      33.156  25.339  62.595  1.00  0.00    -0.550 OA
ENDBRANCH   1   2
BRANCH   1   5
ATOM      5  C   UNL     1      29.864  26.473  63.015  1.00  0.00     0.003 C 
ATOM      6  C   UNL     1      28.882  27.641  63.059  1.00  0.00     0.004 C 
ENDBRANCH   1   5
TORSDOF 2
ENDMDL
MODEL 7
REMARK VINA RESULT:    -2.770      2.209      3.262
REMARK INTER + INTRA:          -3.114
REMARK INTER:                  -3.105
REMARK INTRA:                  -0.009
REMARK UNBOUND:                -0.020
REMARK SMILES CCCC(=O)[O-]
REMARK SMILES IDX 3 1 4 2 5 3 6 4 2 5 1 6
REMARK H PARENT
REMARK Flexibility Score: inf
ROOT
ATOM      1  C   UNL     1      40.000  40.338  60.853  1.00  0.00     0.052 C 
ENDROOT
BRANCH   1   2
ATOM      2  C   UNL     1      38.658  40.271  61.510  1.00  0.00     0.041 C 
ATOM      3  O   UNL     1      38.285  41.191  62.285  1.00  0.00    -0.550 OA
ATOM      4  O   UNL     1      37.838  39.169  61.305  1.00  0.00    -0.550 OA
ENDBRANCH   1   2
BRANCH   1   5
ATOM      5  C   UNL     1      39.851  40.337  59.330  1.00  0.00     0.003 C 
ATOM      6  C   UNL     1      41.146  39.901  58.651  1.00  0.00     0.004 C 
ENDBRANCH   1   5
TORSDOF 2
ENDMDL
MODEL 8
REMARK VINA RESULT:    -2.744     17.786     18.698
REMARK INTER + INTRA:          -3.085
REMARK INTER:                  -3.017
REMARK INTRA:                  -0.068
REMARK UNBOUND:                -0.020
REMARK SMILES CCCC(=O)[O-]
REMARK SMILES IDX 3 1 4 2 5 3 6 4 2 5 1 6
REMARK H PARENT
REMARK Flexibility Score: inf
ROOT
ATOM      1  C   UNL     1      35.129  24.143  70.975  1.00  0.00     0.052 C 
ENDROOT
BRANCH   1   2
ATOM      2  C   UNL     1      36.547  24.250  70.509  1.00  0.00     0.041 C 
ATOM      3  O   UNL     1      37.491  24.240  71.342  1.00  0.00    -0.550 OA
ATOM      4  O   UNL     1      36.824  24.407  69.157  1.00  0.00    -0.550 OA
ENDBRANCH   1   2
BRANCH   1   5
ATOM      5  C   UNL     1      34.279  25.258  70.361  1.00  0.00     0.003 C 
ATOM      6  C   UNL     1      34.575  26.602  71.020  1.00  0.00     0.004 C 
ENDBRANCH   1   5
TORSDOF 2
ENDMDL
MODEL 9
REMARK VINA RESULT:    -2.737     18.114     18.735
REMARK INTER + INTRA:          -3.077
REMARK INTER:                  -3.041
REMARK INTRA:                  -0.037
REMARK UNBOUND:                -0.020
REMARK SMILES CCCC(=O)[O-]
REMARK SMILES IDX 3 1 4 2 5 3 6 4 2 5 1 6
REMARK H PARENT
REMARK Flexibility Score: inf
ROOT
ATOM      1  C   UNL     1      34.791  24.471  70.920  1.00  0.00     0.052 C 
ENDROOT
BRANCH   1   2
ATOM      2  C   UNL     1      34.112  25.804  70.960  1.00  0.00     0.041 C 
ATOM      3  O   UNL     1      34.787  26.854  71.125  1.00  0.00    -0.550 OA
ATOM      4  O   UNL     1      32.729  25.883  70.863  1.00  0.00    -0.550 OA
ENDBRANCH   1   2
BRANCH   1   5
ATOM      5  C   UNL     1      36.106  24.564  70.140  1.00  0.00     0.003 C 
ATOM      6  C   UNL     1      37.285  24.111  70.996  1.00  0.00     0.004 C 
ENDBRANCH   1   5
TORSDOF 2
ENDMDL
