MODEL 1
REMARK VINA RESULT:    -3.793      0.000      0.000
REMARK INTER + INTRA:          -4.480
REMARK INTER:                  -4.458
REMARK INTRA:                  -0.022
REMARK UNBOUND:                -0.022
REMARK SMILES CCCCC(=O)[O-]
REMARK SMILES IDX 4 1 5 2 6 3 7 4 3 5 2 6 1 7
REMARK H PARENT
REMARK Flexibility Score: inf
ROOT
ATOM      1  C   UNL     1      25.341   7.579   5.717  1.00  0.00     0.053 C 
ENDROOT
BRANCH   1   2
ATOM      2  C   UNL     1      23.919   8.040   5.785  1.00  0.00     0.041 C 
ATOM      3  O   UNL     1      23.003   7.228   6.081  1.00  0.00    -0.550 OA
ATOM      4  O   UNL     1      23.599   9.354   5.471  1.00  0.00    -0.550 OA
ENDBRANCH   1   2
BRANCH   1   5
ATOM      5  C   UNL     1      25.471   6.161   6.286  1.00  0.00     0.006 C 
BRANCH   5   6
ATOM      6  C   UNL     1      26.893   5.596   6.140  1.00  0.00    -0.003 C 
ATOM      7  C   UNL     1      27.061   4.239   6.823  1.00  0.00     0.004 C 
ENDBRANCH   5   6
ENDBRANCH   1   5
TORSDOF 3
ENDMDL
MODEL 2
REMARK VINA RESULT:    -3.700      0.703      1.407
REMARK INTER + INTRA:          -4.371
REMARK INTER:                  -4.345
REMARK INTRA:                  -0.026
REMARK UNBOUND:                -0.022
REMARK SMILES CCCCC(=O)[O-]
REMARK SMILES IDX 4 1 5 2 6 3 7 4 3 5 2 6 1 7
REMARK H PARENT
REMARK Flexibility Score: inf
ROOT
ATOM      1  C   UNL     1      25.565   7.402   6.403  1.00  0.00     0.053 C 
ENDROOT
BRANCH   1   2
ATOM      2  C   UNL     1      24.104   7.522   6.103  1.00  0.00     0.041 C 
ATOM      3  O   UNL     1      23.649   8.574   5.581  1.00  0.00    -0.550 OA
ATOM      4  O   UNL     1      23.237   6.492   6.446  1.00  0.00    -0.550 OA
ENDBRANCH   1   2
BRANCH   1   5
ATOM      5  C   UNL     1      26.160   6.181   5.690  1.00  0.00     0.006 C 
BRANCH   5   6
ATOM      6  C   UNL     1      27.290   5.521   6.495  1.00  0.00    -0.003 C 
ATOM      7  C   UNL     1      26.984   4.069   6.861  1.00  0.00     0.004 C 
ENDBRANCH   5   6
ENDBRANCH   1   5
TORSDOF 3
ENDMDL
MODEL 3
REMARK VINA RESULT:    -3.437      3.099      4.435
REMARK INTER + INTRA:          -4.062
REMARK INTER:                  -4.041
REMARK INTRA:                  -0.020
REMARK UNBOUND:                -0.022
REMARK SMILES CCCCC(=O)[O-]
REMARK SMILES IDX 4 1 5 2 6 3 7 4 3 5 2 6 1 7
REMARK H PARENT
REMARK Flexibility Score: inf
ROOT
ATOM      1  C   UNL     1      26.248   5.937   6.132  1.00  0.00     0.053 C 
ENDROOT
BRANCH   1   2
ATOM      2  C   UNL     1      26.826   4.938   7.084  1.00  0.00     0.041 C 
ATOM      3  O   UNL     1      27.226   5.303   8.221  1.00  0.00    -0.550 OA
ATOM      4  O   UNL     1      26.972   3.612   6.697  1.00  0.00    -0.550 OA
ENDBRANCH   1   2
BRANCH   1   5
ATOM      5  C   UNL     1      25.346   6.927   6.879  1.00  0.00     0.006 C 
BRANCH   5   6
ATOM      6  C   UNL     1      24.024   7.192   6.143  1.00  0.00    -0.003 C 
ATOM      7  C   UNL     1      23.925   8.618   5.601  1.00  0.00     0.004 C 
ENDBRANCH   5   6
ENDBRANCH   1   5
TORSDOF 3
ENDMDL
MODEL 4
REMARK VINA RESULT:    -3.265     12.518     13.201
REMARK INTER + INTRA:          -3.860
REMARK INTER:                  -3.804
REMARK INTRA:                  -0.056
REMARK UNBOUND:                -0.022
REMARK SMILES CCCCC(=O)[O-]
REMARK SMILES IDX 4 1 5 2 6 3 7 4 3 5 2 6 1 7
REMARK H PARENT
REMARK Flexibility Score: inf
ROOT
ATOM      1  C   UNL     1      16.185   2.625  -0.574  1.00  0.00     0.053 C 
ENDROOT
BRANCH   1   2
ATOM      2  C   UNL     1      15.181   3.710  -0.801  1.00  0.00     0.041 C 
ATOM      3  O   UNL     1      14.589   4.240   0.177  1.00  0.00    -0.550 OA
ATOM      4  O   UNL     1      14.859   4.101  -2.094  1.00  0.00    -0.550 OA
ENDBRANCH   1   2
BRANCH   1   5
ATOM      5  C   UNL     1      16.187   1.643  -1.751  1.00  0.00     0.006 C 
BRANCH   5   6
ATOM      6  C   UNL     1      15.042   0.621  -1.669  1.00  0.00    -0.003 C 
ATOM      7  C   UNL     1      15.000  -0.317  -2.875  1.00  0.00     0.004 C 
ENDBRANCH   5   6
ENDBRANCH   1   5
TORSDOF 3
ENDMDL
MODEL 5
REMARK VINA RESULT:    -3.225      3.218      4.039
REMARK INTER + INTRA:          -3.813
REMARK INTER:                  -3.777
REMARK INTRA:                  -0.036
REMARK UNBOUND:                -0.022
REMARK SMILES CCCCC(=O)[O-]
REMARK SMILES IDX 4 1 5 2 6 3 7 4 3 5 2 6 1 7
REMARK H PARENT
REMARK Flexibility Score: inf
ROOT
ATOM      1  C   UNL     1      25.672   8.629   7.627  1.00  0.00     0.053 C 
ENDROOT
BRANCH   1   2
ATOM      2  C   UNL     1      26.131   8.610   9.050  1.00  0.00     0.041 C 
ATOM      3  O   UNL     1      27.017   7.794   9.420  1.00  0.00    -0.550 OA
ATOM      4  O   UNL     1      25.546   9.458   9.981  1.00  0.00    -0.550 OA
ENDBRANCH   1   2
BRANCH   1   5
ATOM      5  C   UNL     1      25.390   7.203   7.137  1.00  0.00     0.006 C 
BRANCH   5   6
ATOM      6  C   UNL     1      24.210   7.140   6.155  1.00  0.00    -0.003 C 
ATOM      7  C   UNL     1      23.810   8.516   5.623  1.00  0.00     0.004 C 
ENDBRANCH   5   6
ENDBRANCH   1   5
TORSDOF 3
ENDMDL
MODEL 6
REMARK VINA RESULT:    -3.204     11.959     12.319
REMARK INTER + INTRA:          -3.788
REMARK INTER:                  -3.770
REMARK INTRA:                  -0.018
REMARK UNBOUND:                -0.022
REMARK SMILES CCCCC(=O)[O-]
REMARK SMILES IDX 4 1 5 2 6 3 7 4 3 5 2 6 1 7
REMARK H PARENT
REMARK Flexibility Score: inf
ROOT
ATOM      1  C   UNL     1      15.418   3.795   0.043  1.00  0.00     0.053 C 
ENDROOT
BRANCH   1   2
ATOM      2  C   UNL     1      15.333   3.387  -1.394  1.00  0.00     0.041 C 
ATOM      3  O   UNL     1      15.963   2.376  -1.804  1.00  0.00    -0.550 OA
ATOM      4  O   UNL     1      14.599   4.152  -2.291  1.00  0.00    -0.550 OA
ENDBRANCH   1   2
BRANCH   1   5
ATOM      5  C   UNL     1      15.242   2.576   0.957  1.00  0.00     0.006 C 
BRANCH   5   6
ATOM      6  C   UNL     1      15.090   2.964   2.436  1.00  0.00    -0.003 C 
ATOM      7  C   UNL     1      15.105   1.754   3.368  1.00  0.00     0.004 C 
ENDBRANCH   5   6
ENDBRANCH   1   5
TORSDOF 3
ENDMDL
MODEL 7
REMARK VINA RESULT:    -3.161     11.902     12.787
REMARK INTER + INTRA:          -3.737
REMARK INTER:                  -3.650
REMARK INTRA:                  -0.087
REMARK UNBOUND:                -0.022
REMARK SMILES CCCCC(=O)[O-]
REMARK SMILES IDX 4 1 5 2 6 3 7 4 3 5 2 6 1 7
REMARK H PARENT
REMARK Flexibility Score: inf
ROOT
ATOM      1  C   UNL     1      15.207   2.709  -1.498  1.00  0.00     0.053 C 
ENDROOT
BRANCH   1   2
ATOM      2  C   UNL     1      16.217   1.633  -1.741  1.00  0.00     0.041 C 
ATOM      3  O   UNL     1      17.400   1.770  -1.330  1.00  0.00    -0.550 OA
ATOM      4  O   UNL     1      15.867   0.501  -2.465  1.00  0.00    -0.550 OA
ENDBRANCH   1   2
BRANCH   1   5
ATOM      5  C   UNL     1      15.776   3.774  -0.553  1.00  0.00     0.006 C 
BRANCH   5   6
ATOM      6  C   UNL     1      14.910   3.975   0.700  1.00  0.00    -0.003 C 
ATOM      7  C   UNL     1      15.143   2.896   1.757  1.00  0.00     0.004 C 
ENDBRANCH   5   6
ENDBRANCH   1   5
TORSDOF 3
ENDMDL
MODEL 8
REMARK VINA RESULT:    -3.085     13.270     14.500
REMARK INTER + INTRA:          -3.648
REMARK INTER:                  -3.535
REMARK INTRA:                  -0.112
REMARK UNBOUND:                -0.022
REMARK SMILES CCCCC(=O)[O-]
REMARK SMILES IDX 4 1 5 2 6 3 7 4 3 5 2 6 1 7
REMARK H PARENT
REMARK Flexibility Score: inf
ROOT
ATOM      1  C   UNL     1      17.310  16.010  -0.925  1.00  0.00     0.053 C 
ENDROOT
BRANCH   1   2
ATOM      2  C   UNL     1      18.168  16.661   0.113  1.00  0.00     0.041 C 
ATOM      3  O   UNL     1      19.212  16.088   0.523  1.00  0.00    -0.550 OA
ATOM      4  O   UNL     1      17.788  17.876   0.667  1.00  0.00    -0.550 OA
ENDBRANCH   1   2
BRANCH   1   5
ATOM      5  C   UNL     1      15.986  16.769  -1.079  1.00  0.00     0.006 C 
BRANCH   5   6
ATOM      6  C   UNL     1      14.805  16.032  -0.428  1.00  0.00    -0.003 C 
ATOM      7  C   UNL     1      14.477  16.560   0.968  1.00  0.00     0.004 C 
ENDBRANCH   5   6
ENDBRANCH   1   5
TORSDOF 3
ENDMDL
MODEL 9
REMARK VINA RESULT:    -3.064     11.763     12.487
REMARK INTER + INTRA:          -3.624
REMARK INTER:                  -3.503
REMARK INTRA:                  -0.121
REMARK UNBOUND:                -0.022
REMARK SMILES CCCCC(=O)[O-]
REMARK SMILES IDX 4 1 5 2 6 3 7 4 3 5 2 6 1 7
REMARK H PARENT
REMARK Flexibility Score: inf
ROOT
ATOM      1  C   UNL     1      15.746   4.056  -0.276  1.00  0.00     0.053 C 
ENDROOT
BRANCH   1   2
ATOM      2  C   UNL     1      14.914   3.797   0.940  1.00  0.00     0.041 C 
ATOM      3  O   UNL     1      13.877   4.479   1.155  1.00  0.00    -0.550 OA
ATOM      4  O   UNL     1      15.309   2.837   1.862  1.00  0.00    -0.550 OA
ENDBRANCH   1   2
BRANCH   1   5
ATOM      5  C   UNL     1      14.998   3.617  -1.540  1.00  0.00     0.006 C 
BRANCH   5   6
ATOM      6  C   UNL     1      14.960   2.090  -1.703  1.00  0.00    -0.003 C 
ATOM      7  C   UNL     1      16.355   1.465  -1.736  1.00  0.00     0.004 C 
ENDBRANCH   5   6
ENDBRANCH   1   5
TORSDOF 3
ENDMDL
