MODEL 1
REMARK VINA RESULT:    -5.909      0.000      0.000
REMARK INTER + INTRA:          -7.492
REMARK INTER:                  -7.118
REMARK INTRA:                  -0.374
REMARK UNBOUND:                -0.374
REMARK SMILES O=c1c(O)c(-c2ccc(O)cc2O)oc2cc(O)cc(O)c12
REMARK SMILES IDX 5 1 3 2 2 3 1 4 22 5 20 6 19 7 17 8 16 9 15 10 14 11 6 12
REMARK SMILES IDX 8 13 7 14 9 15 11 16 12 17 10 18 13 20 4 22 21 24 18 26
REMARK H PARENT 10 19 13 21 4 23 21 25 18 27
REMARK Flexibility Score: inf
ROOT
ATOM      1  C   UNL     1      16.200  -6.734 -31.719  1.00  0.00     0.184 A 
ATOM      2  C   UNL     1      15.806  -5.451 -31.302  1.00  0.00     0.208 A 
ATOM      3  C   UNL     1      14.917  -5.333 -30.222  1.00  0.00     0.238 A 
ATOM      4  O   UNL     1      14.559  -4.187 -29.837  1.00  0.00    -0.285 OA
ATOM      5  C   UNL     1      14.436  -6.496 -29.586  1.00  0.00     0.111 A 
ATOM      6  C   UNL     1      13.537  -6.465 -28.494  1.00  0.00     0.134 A 
ATOM      7  C   UNL     1      13.101  -7.667 -27.917  1.00  0.00     0.093 A 
ATOM      8  C   UNL     1      13.544  -8.896 -28.410  1.00  0.00     0.123 A 
ATOM      9  C   UNL     1      14.434  -8.934 -29.490  1.00  0.00     0.094 A 
ATOM     10  C   UNL     1      14.881  -7.747 -30.077  1.00  0.00     0.146 A 
ATOM     11  O   UNL     1      15.726  -7.810 -31.100  1.00  0.00    -0.451 OA
ENDROOT
BRANCH   1  12
ATOM     12  C   UNL     1      17.148  -6.921 -32.839  1.00  0.00     0.063 A 
ATOM     13  C   UNL     1      17.561  -6.955 -35.237  1.00  0.00     0.047 A 
ATOM     14  C   UNL     1      16.679  -6.836 -34.161  1.00  0.00     0.020 A 
ATOM     15  C   UNL     1      18.926  -7.152 -35.008  1.00  0.00     0.119 A 
ATOM     16  C   UNL     1      19.404  -7.237 -33.696  1.00  0.00     0.093 A 
ATOM     17  C   UNL     1      18.528  -7.131 -32.609  1.00  0.00     0.130 A 
BRANCH  15  18
ATOM     18  O   UNL     1      19.795  -7.263 -36.091  1.00  0.00    -0.508 OA
ATOM     19  H   UNL     1      20.718  -7.668 -35.989  1.00  0.00     0.293 HD
ENDBRANCH  15  18
BRANCH  17  20
ATOM     20  O   UNL     1      19.055  -7.258 -31.322  1.00  0.00    -0.507 OA
ATOM     21  H   UNL     1      18.557  -6.967 -30.490  1.00  0.00     0.293 HD
ENDBRANCH  17  20
ENDBRANCH   1  12
BRANCH   2  22
ATOM     22  O   UNL     1      16.284  -4.320 -31.969  1.00  0.00    -0.502 OA
ATOM     23  H   UNL     1      16.338  -3.412 -31.523  1.00  0.00     0.293 HD
ENDBRANCH   2  22
BRANCH   6  24
ATOM     24  O   UNL     1      13.073  -5.254 -27.979  1.00  0.00    -0.507 OA
ATOM     25  H   UNL     1      13.632  -4.409 -28.018  1.00  0.00     0.293 HD
ENDBRANCH   6  24
BRANCH   8  26
ATOM     26  O   UNL     1      13.096 -10.076 -27.820  1.00  0.00    -0.508 OA
ATOM     27  H   UNL     1      13.313 -10.983 -28.216  1.00  0.00     0.293 HD
ENDBRANCH   8  26
TORSDOF 6
ENDMDL
MODEL 2
REMARK VINA RESULT:    -5.795      1.840      6.714
REMARK INTER + INTRA:          -7.356
REMARK INTER:                  -7.036
REMARK INTRA:                  -0.319
REMARK UNBOUND:                -0.374
REMARK SMILES O=c1c(O)c(-c2ccc(O)cc2O)oc2cc(O)cc(O)c12
REMARK SMILES IDX 5 1 3 2 2 3 1 4 22 5 20 6 19 7 17 8 16 9 15 10 14 11 6 12
REMARK SMILES IDX 8 13 7 14 9 15 11 16 12 17 10 18 13 20 4 22 21 24 18 26
REMARK H PARENT 10 19 13 21 4 23 21 25 18 27
REMARK Flexibility Score: inf
ROOT
ATOM      1  C   UNL     1      14.912  -7.301 -31.495  1.00  0.00     0.184 A 
ATOM      2  C   UNL     1      14.226  -7.077 -32.702  1.00  0.00     0.208 A 
ATOM      3  C   UNL     1      14.965  -6.943 -33.887  1.00  0.00     0.238 A 
ATOM      4  O   UNL     1      14.362  -6.745 -34.976  1.00  0.00    -0.285 OA
ATOM      5  C   UNL     1      16.373  -7.029 -33.843  1.00  0.00     0.111 A 
ATOM      6  C   UNL     1      17.193  -6.902 -34.990  1.00  0.00     0.134 A 
ATOM      7  C   UNL     1      18.586  -6.996 -34.863  1.00  0.00     0.093 A 
ATOM      8  C   UNL     1      19.175  -7.212 -33.615  1.00  0.00     0.123 A 
ATOM      9  C   UNL     1      18.371  -7.338 -32.477  1.00  0.00     0.094 A 
ATOM     10  C   UNL     1      16.980  -7.249 -32.583  1.00  0.00     0.146 A 
ATOM     11  O   UNL     1      16.238  -7.374 -31.489  1.00  0.00    -0.451 OA
ENDROOT
BRANCH   1  12
ATOM     12  C   UNL     1      14.186  -7.469 -30.218  1.00  0.00     0.063 A 
ATOM     13  C   UNL     1      12.663  -6.560 -28.551  1.00  0.00     0.047 A 
ATOM     14  C   UNL     1      13.402  -6.410 -29.726  1.00  0.00     0.020 A 
ATOM     15  C   UNL     1      12.690  -7.771 -27.854  1.00  0.00     0.119 A 
ATOM     16  C   UNL     1      13.466  -8.832 -28.334  1.00  0.00     0.093 A 
ATOM     17  C   UNL     1      14.220  -8.691 -29.506  1.00  0.00     0.130 A 
BRANCH  15  18
ATOM     18  O   UNL     1      11.944  -7.908 -26.686  1.00  0.00    -0.508 OA
ATOM     19  H   UNL     1      11.783  -7.123 -26.065  1.00  0.00     0.293 HD
ENDBRANCH  15  18
BRANCH  17  20
ATOM     20  O   UNL     1      15.003  -9.770 -29.921  1.00  0.00    -0.507 OA
ATOM     21  H   UNL     1      14.748 -10.373 -30.692  1.00  0.00     0.293 HD
ENDBRANCH  17  20
ENDBRANCH   1  12
BRANCH   2  22
ATOM     22  O   UNL     1      12.833  -6.975 -32.707  1.00  0.00    -0.502 OA
ATOM     23  H   UNL     1      12.347  -6.230 -33.192  1.00  0.00     0.293 HD
ENDBRANCH   2  22
BRANCH   6  24
ATOM     24  O   UNL     1      16.635  -6.684 -36.251  1.00  0.00    -0.507 OA
ATOM     25  H   UNL     1      15.670  -6.916 -36.454  1.00  0.00     0.293 HD
ENDBRANCH   6  24
BRANCH   8  26
ATOM     26  O   UNL     1      20.562  -7.300 -33.516  1.00  0.00    -0.508 OA
ATOM     27  H   UNL     1      21.125  -6.509 -33.227  1.00  0.00     0.293 HD
ENDBRANCH   8  26
TORSDOF 6
ENDMDL
MODEL 3
REMARK VINA RESULT:    -5.610      1.789      3.251
REMARK INTER + INTRA:          -7.132
REMARK INTER:                  -6.768
REMARK INTRA:                  -0.364
REMARK UNBOUND:                -0.374
REMARK SMILES O=c1c(O)c(-c2ccc(O)cc2O)oc2cc(O)cc(O)c12
REMARK SMILES IDX 5 1 3 2 2 3 1 4 22 5 20 6 19 7 17 8 16 9 15 10 14 11 6 12
REMARK SMILES IDX 8 13 7 14 9 15 11 16 12 17 10 18 13 20 4 22 21 24 18 26
REMARK H PARENT 10 19 13 21 4 23 21 25 18 27
REMARK Flexibility Score: inf
ROOT
ATOM      1  C   UNL     1      16.304  -6.328 -31.441  1.00  0.00     0.184 A 
ATOM      2  C   UNL     1      15.181  -7.009 -30.940  1.00  0.00     0.208 A 
ATOM      3  C   UNL     1      14.586  -6.554 -29.753  1.00  0.00     0.238 A 
ATOM      4  O   UNL     1      13.577  -7.154 -29.295  1.00  0.00    -0.285 OA
ATOM      5  C   UNL     1      15.127  -5.433 -29.089  1.00  0.00     0.111 A 
ATOM      6  C   UNL     1      14.591  -4.912 -27.887  1.00  0.00     0.134 A 
ATOM      7  C   UNL     1      15.189  -3.796 -27.285  1.00  0.00     0.093 A 
ATOM      8  C   UNL     1      16.311  -3.192 -27.857  1.00  0.00     0.123 A 
ATOM      9  C   UNL     1      16.846  -3.703 -29.045  1.00  0.00     0.094 A 
ATOM     10  C   UNL     1      16.264  -4.814 -29.662  1.00  0.00     0.146 A 
ATOM     11  O   UNL     1      16.790  -5.278 -30.789  1.00  0.00    -0.451 OA
ENDROOT
BRANCH   1  12
ATOM     12  C   UNL     1      16.962  -6.750 -32.697  1.00  0.00     0.063 A 
ATOM     13  C   UNL     1      16.873  -6.995 -35.117  1.00  0.00     0.047 A 
ATOM     14  C   UNL     1      16.258  -6.655 -33.910  1.00  0.00     0.020 A 
ATOM     15  C   UNL     1      18.202  -7.428 -35.130  1.00  0.00     0.119 A 
ATOM     16  C   UNL     1      18.913  -7.525 -33.928  1.00  0.00     0.093 A 
ATOM     17  C   UNL     1      18.304  -7.197 -32.711  1.00  0.00     0.130 A 
BRANCH  15  18
ATOM     18  O   UNL     1      18.804  -7.759 -36.342  1.00  0.00    -0.508 OA
ATOM     19  H   UNL     1      18.370  -7.530 -37.228  1.00  0.00     0.293 HD
ENDBRANCH  15  18
BRANCH  17  20
ATOM     20  O   UNL     1      19.048  -7.347 -31.539  1.00  0.00    -0.507 OA
ATOM     21  H   UNL     1      19.622  -6.609 -31.152  1.00  0.00     0.293 HD
ENDBRANCH  17  20
ENDBRANCH   1  12
BRANCH   2  22
ATOM     22  O   UNL     1      14.684  -8.129 -31.611  1.00  0.00    -0.502 OA
ATOM     23  H   UNL     1      14.973  -8.370 -32.551  1.00  0.00     0.293 HD
ENDBRANCH   2  22
BRANCH   6  24
ATOM     24  O   UNL     1      13.472  -5.493 -27.289  1.00  0.00    -0.507 OA
ATOM     25  H   UNL     1      13.281  -5.388 -26.300  1.00  0.00     0.293 HD
ENDBRANCH   6  24
BRANCH   8  26
ATOM     26  O   UNL     1      16.887  -2.085 -27.239  1.00  0.00    -0.508 OA
ATOM     27  H   UNL     1      16.467  -1.165 -27.300  1.00  0.00     0.293 HD
ENDBRANCH   8  26
TORSDOF 6
ENDMDL
MODEL 4
REMARK VINA RESULT:    -5.523      1.536      6.554
REMARK INTER + INTRA:          -7.028
REMARK INTER:                  -6.818
REMARK INTRA:                  -0.210
REMARK UNBOUND:                -0.374
REMARK SMILES O=c1c(O)c(-c2ccc(O)cc2O)oc2cc(O)cc(O)c12
REMARK SMILES IDX 5 1 3 2 2 3 1 4 22 5 20 6 19 7 17 8 16 9 15 10 14 11 6 12
REMARK SMILES IDX 8 13 7 14 9 15 11 16 12 17 10 18 13 20 4 22 21 24 18 26
REMARK H PARENT 10 19 13 21 4 23 21 25 18 27
REMARK Flexibility Score: inf
ROOT
ATOM      1  C   UNL     1      16.159  -6.889 -30.845  1.00  0.00     0.184 A 
ATOM      2  C   UNL     1      16.912  -5.773 -30.444  1.00  0.00     0.208 A 
ATOM      3  C   UNL     1      17.825  -5.210 -31.349  1.00  0.00     0.238 A 
ATOM      4  O   UNL     1      18.504  -4.206 -31.002  1.00  0.00    -0.285 OA
ATOM      5  C   UNL     1      17.972  -5.776 -32.633  1.00  0.00     0.111 A 
ATOM      6  C   UNL     1      18.870  -5.273 -33.604  1.00  0.00     0.134 A 
ATOM      7  C   UNL     1      18.961  -5.896 -34.857  1.00  0.00     0.093 A 
ATOM      8  C   UNL     1      18.173  -7.009 -35.158  1.00  0.00     0.123 A 
ATOM      9  C   UNL     1      17.283  -7.512 -34.203  1.00  0.00     0.094 A 
ATOM     10  C   UNL     1      17.177  -6.905 -32.949  1.00  0.00     0.146 A 
ATOM     11  O   UNL     1      16.323  -7.400 -32.060  1.00  0.00    -0.451 OA
ENDROOT
BRANCH   1  12
ATOM     12  C   UNL     1      15.169  -7.513 -29.941  1.00  0.00     0.063 A 
ATOM     13  C   UNL     1      14.461  -9.444 -28.639  1.00  0.00     0.047 A 
ATOM     14  C   UNL     1      15.350  -8.847 -29.535  1.00  0.00     0.020 A 
ATOM     15  C   UNL     1      13.382  -8.717 -28.131  1.00  0.00     0.119 A 
ATOM     16  C   UNL     1      13.191  -7.388 -28.528  1.00  0.00     0.093 A 
ATOM     17  C   UNL     1      14.070  -6.781 -29.433  1.00  0.00     0.130 A 
BRANCH  15  18
ATOM     18  O   UNL     1      12.505  -9.324 -27.235  1.00  0.00    -0.508 OA
ATOM     19  H   UNL     1      12.281  -8.898 -26.343  1.00  0.00     0.293 HD
ENDBRANCH  15  18
BRANCH  17  20
ATOM     20  O   UNL     1      13.813  -5.465 -29.821  1.00  0.00    -0.507 OA
ATOM     21  H   UNL     1      13.849  -4.683 -29.181  1.00  0.00     0.293 HD
ENDBRANCH  17  20
ENDBRANCH   1  12
BRANCH   2  22
ATOM     22  O   UNL     1      16.759  -5.249 -29.158  1.00  0.00    -0.502 OA
ATOM     23  H   UNL     1      16.094  -4.515 -28.948  1.00  0.00     0.293 HD
ENDBRANCH   2  22
BRANCH   6  24
ATOM     24  O   UNL     1      19.672  -4.163 -33.333  1.00  0.00    -0.507 OA
ATOM     25  H   UNL     1      20.581  -4.044 -33.764  1.00  0.00     0.293 HD
ENDBRANCH   6  24
BRANCH   8  26
ATOM     26  O   UNL     1      18.282  -7.610 -36.411  1.00  0.00    -0.508 OA
ATOM     27  H   UNL     1      18.953  -8.348 -36.588  1.00  0.00     0.293 HD
ENDBRANCH   8  26
TORSDOF 6
ENDMDL
MODEL 5
REMARK VINA RESULT:    -5.498      1.814      6.498
REMARK INTER + INTRA:          -6.997
REMARK INTER:                  -6.607
REMARK INTRA:                  -0.390
REMARK UNBOUND:                -0.374
REMARK SMILES O=c1c(O)c(-c2ccc(O)cc2O)oc2cc(O)cc(O)c12
REMARK SMILES IDX 5 1 3 2 2 3 1 4 22 5 20 6 19 7 17 8 16 9 15 10 14 11 6 12
REMARK SMILES IDX 8 13 7 14 9 15 11 16 12 17 10 18 13 20 4 22 21 24 18 26
REMARK H PARENT 10 19 13 21 4 23 21 25 18 27
REMARK Flexibility Score: inf
ROOT
ATOM      1  C   UNL     1      16.467  -6.739 -31.770  1.00  0.00     0.184 A 
ATOM      2  C   UNL     1      16.395  -5.359 -31.513  1.00  0.00     0.208 A 
ATOM      3  C   UNL     1      17.310  -4.503 -32.144  1.00  0.00     0.238 A 
ATOM      4  O   UNL     1      17.253  -3.263 -31.924  1.00  0.00    -0.285 OA
ATOM      5  C   UNL     1      18.282  -5.041 -33.012  1.00  0.00     0.111 A 
ATOM      6  C   UNL     1      19.243  -4.250 -33.686  1.00  0.00     0.134 A 
ATOM      7  C   UNL     1      20.181  -4.862 -34.531  1.00  0.00     0.093 A 
ATOM      8  C   UNL     1      20.177  -6.246 -34.715  1.00  0.00     0.123 A 
ATOM      9  C   UNL     1      19.230  -7.034 -34.053  1.00  0.00     0.094 A 
ATOM     10  C   UNL     1      18.287  -6.444 -33.207  1.00  0.00     0.146 A 
ATOM     11  O   UNL     1      17.397  -7.214 -32.592  1.00  0.00    -0.451 OA
ENDROOT
BRANCH   1  12
ATOM     12  C   UNL     1      15.518  -7.688 -31.149  1.00  0.00     0.063 A 
ATOM     13  C   UNL     1      14.881  -9.044 -29.231  1.00  0.00     0.047 A 
ATOM     14  C   UNL     1      15.787  -8.190 -29.863  1.00  0.00     0.020 A 
ATOM     15  C   UNL     1      13.692  -9.404 -29.869  1.00  0.00     0.119 A 
ATOM     16  C   UNL     1      13.413  -8.910 -31.149  1.00  0.00     0.093 A 
ATOM     17  C   UNL     1      14.318  -8.061 -31.798  1.00  0.00     0.130 A 
BRANCH  15  18
ATOM     18  O   UNL     1      12.796 -10.253 -29.224  1.00  0.00    -0.508 OA
ATOM     19  H   UNL     1      13.107 -10.921 -28.529  1.00  0.00     0.293 HD
ENDBRANCH  15  18
BRANCH  17  20
ATOM     20  O   UNL     1      14.006  -7.626 -33.087  1.00  0.00    -0.507 OA
ATOM     21  H   UNL     1      14.144  -6.673 -33.397  1.00  0.00     0.293 HD
ENDBRANCH  17  20
ENDBRANCH   1  12
BRANCH   2  22
ATOM     22  O   UNL     1      15.434  -4.860 -30.630  1.00  0.00    -0.502 OA
ATOM     23  H   UNL     1      15.680  -4.299 -29.823  1.00  0.00     0.293 HD
ENDBRANCH   2  22
BRANCH   6  24
ATOM     24  O   UNL     1      19.274  -2.864 -33.522  1.00  0.00    -0.507 OA
ATOM     25  H   UNL     1      18.484  -2.280 -33.768  1.00  0.00     0.293 HD
ENDBRANCH   6  24
BRANCH   8  26
ATOM     26  O   UNL     1      21.119  -6.830 -35.559  1.00  0.00    -0.508 OA
ATOM     27  H   UNL     1      21.437  -6.364 -36.401  1.00  0.00     0.293 HD
ENDBRANCH   8  26
TORSDOF 6
ENDMDL
MODEL 6
REMARK VINA RESULT:    -5.413      1.490      1.977
REMARK INTER + INTRA:          -6.895
REMARK INTER:                  -6.640
REMARK INTRA:                  -0.255
REMARK UNBOUND:                -0.374
REMARK SMILES O=c1c(O)c(-c2ccc(O)cc2O)oc2cc(O)cc(O)c12
REMARK SMILES IDX 5 1 3 2 2 3 1 4 22 5 20 6 19 7 17 8 16 9 15 10 14 11 6 12
REMARK SMILES IDX 8 13 7 14 9 15 11 16 12 17 10 18 13 20 4 22 21 24 18 26
REMARK H PARENT 10 19 13 21 4 23 21 25 18 27
REMARK Flexibility Score: inf
ROOT
ATOM      1  C   UNL     1      15.300  -7.552 -30.948  1.00  0.00     0.184 A 
ATOM      2  C   UNL     1      14.196  -6.734 -30.653  1.00  0.00     0.208 A 
ATOM      3  C   UNL     1      13.397  -7.046 -29.542  1.00  0.00     0.238 A 
ATOM      4  O   UNL     1      12.407  -6.317 -29.265  1.00  0.00    -0.285 OA
ATOM      5  C   UNL     1      13.712  -8.172 -28.753  1.00  0.00     0.111 A 
ATOM      6  C   UNL     1      12.959  -8.559 -27.619  1.00  0.00     0.134 A 
ATOM      7  C   UNL     1      13.335  -9.695 -26.888  1.00  0.00     0.093 A 
ATOM      8  C   UNL     1      14.446 -10.451 -27.268  1.00  0.00     0.123 A 
ATOM      9  C   UNL     1      15.195 -10.074 -28.387  1.00  0.00     0.094 A 
ATOM     10  C   UNL     1      14.838  -8.945 -29.128  1.00  0.00     0.146 A 
ATOM     11  O   UNL     1      15.567  -8.607 -30.186  1.00  0.00    -0.451 OA
ENDROOT
BRANCH   1  12
ATOM     12  C   UNL     1      16.188  -7.262 -32.094  1.00  0.00     0.063 A 
ATOM     13  C   UNL     1      16.443  -6.826 -34.475  1.00  0.00     0.047 A 
ATOM     14  C   UNL     1      15.637  -7.152 -33.383  1.00  0.00     0.020 A 
ATOM     15  C   UNL     1      17.810  -6.597 -34.295  1.00  0.00     0.119 A 
ATOM     16  C   UNL     1      18.369  -6.702 -33.016  1.00  0.00     0.093 A 
ATOM     17  C   UNL     1      17.573  -7.039 -31.915  1.00  0.00     0.130 A 
BRANCH  15  18
ATOM     18  O   UNL     1      18.601  -6.266 -35.392  1.00  0.00    -0.508 OA
ATOM     19  H   UNL     1      19.314  -5.549 -35.334  1.00  0.00     0.293 HD
ENDBRANCH  15  18
BRANCH  17  20
ATOM     20  O   UNL     1      18.189  -7.164 -30.668  1.00  0.00    -0.507 OA
ATOM     21  H   UNL     1      18.174  -8.019 -30.128  1.00  0.00     0.293 HD
ENDBRANCH  17  20
ENDBRANCH   1  12
BRANCH   2  22
ATOM     22  O   UNL     1      13.898  -5.638 -31.468  1.00  0.00    -0.502 OA
ATOM     23  H   UNL     1      13.053  -5.092 -31.353  1.00  0.00     0.293 HD
ENDBRANCH   2  22
BRANCH   6  24
ATOM     24  O   UNL     1      11.842  -7.826 -27.215  1.00  0.00    -0.507 OA
ATOM     25  H   UNL     1      11.413  -7.965 -26.308  1.00  0.00     0.293 HD
ENDBRANCH   6  24
BRANCH   8  26
ATOM     26  O   UNL     1      14.798 -11.576 -26.525  1.00  0.00    -0.508 OA
ATOM     27  H   UNL     1      15.489 -12.237 -26.859  1.00  0.00     0.293 HD
ENDBRANCH   8  26
TORSDOF 6
ENDMDL
MODEL 7
REMARK VINA RESULT:    -5.303      1.730      6.713
REMARK INTER + INTRA:          -6.763
REMARK INTER:                  -6.365
REMARK INTRA:                  -0.398
REMARK UNBOUND:                -0.374
REMARK SMILES O=c1c(O)c(-c2ccc(O)cc2O)oc2cc(O)cc(O)c12
REMARK SMILES IDX 5 1 3 2 2 3 1 4 22 5 20 6 19 7 17 8 16 9 15 10 14 11 6 12
REMARK SMILES IDX 8 13 7 14 9 15 11 16 12 17 10 18 13 20 4 22 21 24 18 26
REMARK H PARENT 10 19 13 21 4 23 21 25 18 27
REMARK Flexibility Score: inf
ROOT
ATOM      1  C   UNL     1      15.371  -7.558 -31.417  1.00  0.00     0.184 A 
ATOM      2  C   UNL     1      16.732  -7.231 -31.292  1.00  0.00     0.208 A 
ATOM      3  C   UNL     1      17.441  -6.830 -32.435  1.00  0.00     0.238 A 
ATOM      4  O   UNL     1      18.662  -6.531 -32.334  1.00  0.00    -0.285 OA
ATOM      5  C   UNL     1      16.779  -6.769 -33.678  1.00  0.00     0.111 A 
ATOM      6  C   UNL     1      17.420  -6.378 -34.878  1.00  0.00     0.134 A 
ATOM      7  C   UNL     1      16.693  -6.346 -36.077  1.00  0.00     0.093 A 
ATOM      8  C   UNL     1      15.342  -6.698 -36.101  1.00  0.00     0.123 A 
ATOM      9  C   UNL     1      14.702  -7.086 -34.918  1.00  0.00     0.094 A 
ATOM     10  C   UNL     1      15.409  -7.123 -33.713  1.00  0.00     0.146 A 
ATOM     11  O   UNL     1      14.778  -7.492 -32.604  1.00  0.00    -0.451 OA
ENDROOT
BRANCH   1  12
ATOM     12  C   UNL     1      14.568  -7.969 -30.246  1.00  0.00     0.063 A 
ATOM     13  C   UNL     1      13.839  -9.731 -28.733  1.00  0.00     0.047 A 
ATOM     14  C   UNL     1      14.545  -9.323 -29.866  1.00  0.00     0.020 A 
ATOM     15  C   UNL     1      13.152  -8.793 -27.957  1.00  0.00     0.119 A 
ATOM     16  C   UNL     1      13.169  -7.443 -28.324  1.00  0.00     0.093 A 
ATOM     17  C   UNL     1      13.864  -7.022 -29.465  1.00  0.00     0.130 A 
BRANCH  15  18
ATOM     18  O   UNL     1      12.457  -9.214 -26.826  1.00  0.00    -0.508 OA
ATOM     19  H   UNL     1      12.801  -9.025 -25.892  1.00  0.00     0.293 HD
ENDBRANCH  15  18
BRANCH  17  20
ATOM     20  O   UNL     1      13.818  -5.669 -29.804  1.00  0.00    -0.507 OA
ATOM     21  H   UNL     1      13.995  -4.926 -29.140  1.00  0.00     0.293 HD
ENDBRANCH  17  20
ENDBRANCH   1  12
BRANCH   2  22
ATOM     22  O   UNL     1      17.363  -7.324 -30.049  1.00  0.00    -0.502 OA
ATOM     23  H   UNL     1      17.997  -6.610 -29.709  1.00  0.00     0.293 HD
ENDBRANCH   2  22
BRANCH   6  24
ATOM     24  O   UNL     1      18.769  -6.021 -34.889  1.00  0.00    -0.507 OA
ATOM     25  H   UNL     1      19.224  -5.633 -34.071  1.00  0.00     0.293 HD
ENDBRANCH   6  24
BRANCH   8  26
ATOM     26  O   UNL     1      14.642  -6.660 -37.305  1.00  0.00    -0.508 OA
ATOM     27  H   UNL     1      14.410  -7.506 -37.811  1.00  0.00     0.293 HD
ENDBRANCH   8  26
TORSDOF 6
ENDMDL
MODEL 8
REMARK VINA RESULT:    -5.235      2.053      3.751
REMARK INTER + INTRA:          -6.680
REMARK INTER:                  -6.328
REMARK INTRA:                  -0.352
REMARK UNBOUND:                -0.374
REMARK SMILES O=c1c(O)c(-c2ccc(O)cc2O)oc2cc(O)cc(O)c12
REMARK SMILES IDX 5 1 3 2 2 3 1 4 22 5 20 6 19 7 17 8 16 9 15 10 14 11 6 12
REMARK SMILES IDX 8 13 7 14 9 15 11 16 12 17 10 18 13 20 4 22 21 24 18 26
REMARK H PARENT 10 19 13 21 4 23 21 25 18 27
REMARK Flexibility Score: inf
ROOT
ATOM      1  C   UNL     1      15.132  -6.606 -30.657  1.00  0.00     0.184 A 
ATOM      2  C   UNL     1      14.655  -7.604 -29.790  1.00  0.00     0.208 A 
ATOM      3  C   UNL     1      13.464  -7.377 -29.084  1.00  0.00     0.238 A 
ATOM      4  O   UNL     1      13.025  -8.267 -28.306  1.00  0.00    -0.285 OA
ATOM      5  C   UNL     1      12.778  -6.157 -29.251  1.00  0.00     0.111 A 
ATOM      6  C   UNL     1      11.573  -5.846 -28.575  1.00  0.00     0.134 A 
ATOM      7  C   UNL     1      10.953  -4.607 -28.792  1.00  0.00     0.093 A 
ATOM      8  C   UNL     1      11.511  -3.674 -29.669  1.00  0.00     0.123 A 
ATOM      9  C   UNL     1      12.701  -3.975 -30.340  1.00  0.00     0.094 A 
ATOM     10  C   UNL     1      13.334  -5.204 -30.138  1.00  0.00     0.146 A 
ATOM     11  O   UNL     1      14.462  -5.466 -30.789  1.00  0.00    -0.451 OA
ENDROOT
BRANCH   1  12
ATOM     12  C   UNL     1      16.370  -6.796 -31.442  1.00  0.00     0.063 A 
ATOM     13  C   UNL     1      18.780  -7.139 -31.484  1.00  0.00     0.047 A 
ATOM     14  C   UNL     1      17.602  -6.905 -30.772  1.00  0.00     0.020 A 
ATOM     15  C   UNL     1      18.745  -7.275 -32.874  1.00  0.00     0.119 A 
ATOM     16  C   UNL     1      17.525  -7.169 -33.552  1.00  0.00     0.093 A 
ATOM     17  C   UNL     1      16.338  -6.924 -32.850  1.00  0.00     0.130 A 
BRANCH  15  18
ATOM     18  O   UNL     1      19.927  -7.513 -33.571  1.00  0.00    -0.508 OA
ATOM     19  H   UNL     1      19.941  -7.586 -34.581  1.00  0.00     0.293 HD
ENDBRANCH  15  18
BRANCH  17  20
ATOM     20  O   UNL     1      15.155  -6.793 -33.580  1.00  0.00    -0.507 OA
ATOM     21  H   UNL     1      14.456  -6.090 -33.377  1.00  0.00     0.293 HD
ENDBRANCH  17  20
ENDBRANCH   1  12
BRANCH   2  22
ATOM     22  O   UNL     1      15.371  -8.794 -29.631  1.00  0.00    -0.502 OA
ATOM     23  H   UNL     1      16.379  -8.810 -29.537  1.00  0.00     0.293 HD
ENDBRANCH   2  22
BRANCH   6  24
ATOM     24  O   UNL     1      10.991  -6.756 -27.691  1.00  0.00    -0.507 OA
ATOM     25  H   UNL     1      11.286  -7.724 -27.653  1.00  0.00     0.293 HD
ENDBRANCH   6  24
BRANCH   8  26
ATOM     26  O   UNL     1      10.875  -2.451 -29.867  1.00  0.00    -0.508 OA
ATOM     27  H   UNL     1       9.943  -2.274 -29.513  1.00  0.00     0.293 HD
ENDBRANCH   8  26
TORSDOF 6
ENDMDL
MODEL 9
REMARK VINA RESULT:    -5.139      1.994      6.757
REMARK INTER + INTRA:          -6.565
REMARK INTER:                  -6.188
REMARK INTRA:                  -0.377
REMARK UNBOUND:                -0.374
REMARK SMILES O=c1c(O)c(-c2ccc(O)cc2O)oc2cc(O)cc(O)c12
REMARK SMILES IDX 5 1 3 2 2 3 1 4 22 5 20 6 19 7 17 8 16 9 15 10 14 11 6 12
REMARK SMILES IDX 8 13 7 14 9 15 11 16 12 17 10 18 13 20 4 22 21 24 18 26
REMARK H PARENT 10 19 13 21 4 23 21 25 18 27
REMARK Flexibility Score: inf
ROOT
ATOM      1  C   UNL     1      15.253  -7.075 -31.265  1.00  0.00     0.184 A 
ATOM      2  C   UNL     1      14.953  -7.408 -32.597  1.00  0.00     0.208 A 
ATOM      3  C   UNL     1      15.716  -6.837 -33.628  1.00  0.00     0.238 A 
ATOM      4  O   UNL     1      15.458  -7.130 -34.826  1.00  0.00    -0.285 OA
ATOM      5  C   UNL     1      16.758  -5.942 -33.308  1.00  0.00     0.111 A 
ATOM      6  C   UNL     1      17.572  -5.320 -34.284  1.00  0.00     0.134 A 
ATOM      7  C   UNL     1      18.587  -4.438 -33.886  1.00  0.00     0.093 A 
ATOM      8  C   UNL     1      18.802  -4.164 -32.533  1.00  0.00     0.123 A 
ATOM      9  C   UNL     1      18.001  -4.775 -31.563  1.00  0.00     0.094 A 
ATOM     10  C   UNL     1      16.985  -5.658 -31.939  1.00  0.00     0.146 A 
ATOM     11  O   UNL     1      16.240  -6.226 -30.999  1.00  0.00    -0.451 OA
ENDROOT
BRANCH   1  12
ATOM     12  C   UNL     1      14.496  -7.659 -30.137  1.00  0.00     0.063 A 
ATOM     13  C   UNL     1      13.956  -9.601 -28.772  1.00  0.00     0.047 A 
ATOM     14  C   UNL     1      14.616  -9.033 -29.864  1.00  0.00     0.020 A 
ATOM     15  C   UNL     1      13.172  -8.804 -27.933  1.00  0.00     0.119 A 
ATOM     16  C   UNL     1      13.046  -7.435 -28.195  1.00  0.00     0.093 A 
ATOM     17  C   UNL     1      13.695  -6.856 -29.293  1.00  0.00     0.130 A 
BRANCH  15  18
ATOM     18  O   UNL     1      12.523  -9.383 -26.845  1.00  0.00    -0.508 OA
ATOM     19  H   UNL     1      11.734 -10.006 -26.970  1.00  0.00     0.293 HD
ENDBRANCH  15  18
BRANCH  17  20
ATOM     20  O   UNL     1      13.507  -5.492 -29.527  1.00  0.00    -0.507 OA
ATOM     21  H   UNL     1      14.217  -4.796 -29.340  1.00  0.00     0.293 HD
ENDBRANCH  17  20
ENDBRANCH   1  12
BRANCH   2  22
ATOM     22  O   UNL     1      13.899  -8.281 -32.881  1.00  0.00    -0.502 OA
ATOM     23  H   UNL     1      12.956  -7.954 -33.050  1.00  0.00     0.293 HD
ENDBRANCH   2  22
BRANCH   6  24
ATOM     24  O   UNL     1      17.381  -5.572 -35.644  1.00  0.00    -0.507 OA
ATOM     25  H   UNL     1      16.457  -5.695 -36.038  1.00  0.00     0.293 HD
ENDBRANCH   6  24
BRANCH   8  26
ATOM     26  O   UNL     1      19.816  -3.283 -32.163  1.00  0.00    -0.508 OA
ATOM     27  H   UNL     1      20.700  -3.616 -31.797  1.00  0.00     0.293 HD
ENDBRANCH   8  26
TORSDOF 6
ENDMDL
