MODEL 1
REMARK VINA RESULT:    -3.439      0.000      0.000
REMARK INTER + INTRA:          -5.175
REMARK INTER:                  -4.645
REMARK INTRA:                  -0.530
REMARK UNBOUND:                -0.530
REMARK SMILES [NH3+]CCCC[C@H]([NH3+])C(=O)[O-]
REMARK SMILES IDX 4 1 3 2 2 3 1 4 5 8 6 9 7 10 8 14 9 15 10 16
REMARK H PARENT 1 5 1 6 1 7 7 11 7 12 7 13
REMARK Flexibility Score: inf
ROOT
ATOM      1  C   UNL     1      15.544  25.769  24.936  1.00  0.00     0.012 C 
ENDROOT
BRANCH   1   2
ATOM      2  C   UNL     1      16.132  26.880  24.052  1.00  0.00     0.061 C 
BRANCH   2   3
ATOM      3  C   UNL     1      15.254  28.141  24.026  1.00  0.00     0.258 C 
BRANCH   3   4
ATOM      4  N   UNL     1      14.416  28.208  22.827  1.00  0.00    -0.358 N 
ATOM      5  H   UNL     1      14.946  28.640  22.037  1.00  0.00     0.344 HD
ATOM      6  H   UNL     1      14.086  27.253  22.558  1.00  0.00     0.344 HD
ATOM      7  H   UNL     1      13.583  28.806  23.029  1.00  0.00     0.344 HD
ENDBRANCH   3   4
ENDBRANCH   2   3
ENDBRANCH   1   2
BRANCH   1   8
ATOM      8  C   UNL     1      14.542  26.346  25.948  1.00  0.00     0.072 C 
BRANCH   8   9
ATOM      9  C   UNL     1      13.240  25.519  26.034  1.00  0.00     0.227 C 
BRANCH   9  10
ATOM     10  N   UNL     1      13.505  24.121  26.402  1.00  0.00    -0.350 N 
ATOM     11  H   UNL     1      14.280  24.061  27.102  1.00  0.00     0.345 HD
ATOM     12  H   UNL     1      13.771  23.574  25.552  1.00  0.00     0.345 HD
ATOM     13  H   UNL     1      12.643  23.684  26.799  1.00  0.00     0.345 HD
ENDBRANCH   9  10
BRANCH   9  14
ATOM     14  C   UNL     1      12.523  25.575  24.710  1.00  0.00     0.099 C 
ATOM     15  O   UNL     1      12.069  26.668  24.281  1.00  0.00    -0.544 OA
ATOM     16  O   UNL     1      12.380  24.425  23.943  1.00  0.00    -0.544 OA
ENDBRANCH   9  14
ENDBRANCH   8   9
ENDBRANCH   1   8
TORSDOF 7
ENDMDL
MODEL 2
REMARK VINA RESULT:    -3.415      8.169      8.935
REMARK INTER + INTRA:          -5.142
REMARK INTER:                  -4.628
REMARK INTRA:                  -0.514
REMARK UNBOUND:                -0.530
REMARK SMILES [NH3+]CCCC[C@H]([NH3+])C(=O)[O-]
REMARK SMILES IDX 4 1 3 2 2 3 1 4 5 8 6 9 7 10 8 14 9 15 10 16
REMARK H PARENT 1 5 1 6 1 7 7 11 7 12 7 13
REMARK Flexibility Score: inf
ROOT
ATOM      1  C   UNL     1      19.412  27.969  29.579  1.00  0.00     0.012 C 
ENDROOT
BRANCH   1   2
ATOM      2  C   UNL     1      17.958  28.069  29.092  1.00  0.00     0.061 C 
BRANCH   2   3
ATOM      3  C   UNL     1      17.046  27.012  29.736  1.00  0.00     0.258 C 
BRANCH   3   4
ATOM      4  N   UNL     1      15.838  27.602  30.316  1.00  0.00    -0.358 N 
ATOM      5  H   UNL     1      15.063  27.606  29.615  1.00  0.00     0.344 HD
ATOM      6  H   UNL     1      15.546  27.074  31.170  1.00  0.00     0.344 HD
ATOM      7  H   UNL     1      16.040  28.591  30.586  1.00  0.00     0.344 HD
ENDBRANCH   3   4
ENDBRANCH   2   3
ENDBRANCH   1   2
BRANCH   1   8
ATOM      8  C   UNL     1      19.468  27.675  31.086  1.00  0.00     0.072 C 
BRANCH   8   9
ATOM      9  C   UNL     1      19.618  28.955  31.938  1.00  0.00     0.227 C 
BRANCH   9  10
ATOM     10  N   UNL     1      20.848  28.934  32.742  1.00  0.00    -0.350 N 
ATOM     11  H   UNL     1      20.847  28.123  33.403  1.00  0.00     0.345 HD
ATOM     12  H   UNL     1      20.929  29.821  33.291  1.00  0.00     0.345 HD
ATOM     13  H   UNL     1      21.684  28.874  32.119  1.00  0.00     0.345 HD
ENDBRANCH   9  10
BRANCH   9  14
ATOM     14  C   UNL     1      18.419  29.101  32.837  1.00  0.00     0.099 C 
ATOM     15  O   UNL     1      18.541  28.961  34.083  1.00  0.00    -0.544 OA
ATOM     16  O   UNL     1      17.175  29.414  32.302  1.00  0.00    -0.544 OA
ENDBRANCH   9  14
ENDBRANCH   8   9
ENDBRANCH   1   8
TORSDOF 7
ENDMDL
MODEL 3
REMARK VINA RESULT:    -3.410      1.784      2.014
REMARK INTER + INTRA:          -5.136
REMARK INTER:                  -4.987
REMARK INTRA:                  -0.150
REMARK UNBOUND:                -0.530
REMARK SMILES [NH3+]CCCC[C@H]([NH3+])C(=O)[O-]
REMARK SMILES IDX 4 1 3 2 2 3 1 4 5 8 6 9 7 10 8 14 9 15 10 16
REMARK H PARENT 1 5 1 6 1 7 7 11 7 12 7 13
REMARK Flexibility Score: inf
ROOT
ATOM      1  C   UNL     1      15.549  25.928  24.461  1.00  0.00     0.012 C 
ENDROOT
BRANCH   1   2
ATOM      2  C   UNL     1      16.049  27.366  24.253  1.00  0.00     0.061 C 
BRANCH   2   3
ATOM      3  C   UNL     1      15.066  28.221  23.438  1.00  0.00     0.258 C 
BRANCH   3   4
ATOM      4  N   UNL     1      15.491  28.376  22.045  1.00  0.00    -0.358 N 
ATOM      5  H   UNL     1      16.533  28.361  21.979  1.00  0.00     0.344 HD
ATOM      6  H   UNL     1      15.082  27.618  21.451  1.00  0.00     0.344 HD
ATOM      7  H   UNL     1      15.153  29.299  21.688  1.00  0.00     0.344 HD
ENDBRANCH   3   4
ENDBRANCH   2   3
ENDBRANCH   1   2
BRANCH   1   8
ATOM      8  C   UNL     1      14.238  25.913  25.264  1.00  0.00     0.072 C 
BRANCH   8   9
ATOM      9  C   UNL     1      13.074  25.254  24.491  1.00  0.00     0.227 C 
BRANCH   9  10
ATOM     10  N   UNL     1      12.066  26.240  24.077  1.00  0.00    -0.350 N 
ATOM     11  H   UNL     1      12.223  26.540  23.088  1.00  0.00     0.345 HD
ATOM     12  H   UNL     1      12.115  27.080  24.699  1.00  0.00     0.345 HD
ATOM     13  H   UNL     1      11.108  25.837  24.171  1.00  0.00     0.345 HD
ENDBRANCH   9  10
BRANCH   9  14
ATOM     14  C   UNL     1      12.435  24.197  25.354  1.00  0.00     0.099 C 
ATOM     15  O   UNL     1      11.917  23.178  24.827  1.00  0.00    -0.544 OA
ATOM     16  O   UNL     1      12.433  24.330  26.737  1.00  0.00    -0.544 OA
ENDBRANCH   9  14
ENDBRANCH   8   9
ENDBRANCH   1   8
TORSDOF 7
ENDMDL
MODEL 4
REMARK VINA RESULT:    -3.374      2.693      4.722
REMARK INTER + INTRA:          -5.087
REMARK INTER:                  -5.009
REMARK INTRA:                  -0.078
REMARK UNBOUND:                -0.530
REMARK SMILES [NH3+]CCCC[C@H]([NH3+])C(=O)[O-]
REMARK SMILES IDX 4 1 3 2 2 3 1 4 5 8 6 9 7 10 8 14 9 15 10 16
REMARK H PARENT 1 5 1 6 1 7 7 11 7 12 7 13
REMARK Flexibility Score: inf
ROOT
ATOM      1  C   UNL     1      12.995  25.975  24.691  1.00  0.00     0.012 C 
ENDROOT
BRANCH   1   2
ATOM      2  C   UNL     1      12.454  24.615  24.222  1.00  0.00     0.061 C 
BRANCH   2   3
ATOM      3  C   UNL     1      11.893  23.772  25.380  1.00  0.00     0.258 C 
BRANCH   3   4
ATOM      4  N   UNL     1      11.783  22.355  25.029  1.00  0.00    -0.358 N 
ATOM      5  H   UNL     1      11.658  21.776  25.889  1.00  0.00     0.344 HD
ATOM      6  H   UNL     1      10.982  22.201  24.374  1.00  0.00     0.344 HD
ATOM      7  H   UNL     1      12.665  22.053  24.556  1.00  0.00     0.344 HD
ENDBRANCH   3   4
ENDBRANCH   2   3
ENDBRANCH   1   2
BRANCH   1   8
ATOM      8  C   UNL     1      14.487  26.120  24.349  1.00  0.00     0.072 C 
BRANCH   8   9
ATOM      9  C   UNL     1      14.897  27.586  24.086  1.00  0.00     0.227 C 
BRANCH   9  10
ATOM     10  N   UNL     1      14.157  28.165  22.956  1.00  0.00    -0.350 N 
ATOM     11  H   UNL     1      14.743  28.867  22.448  1.00  0.00     0.345 HD
ATOM     12  H   UNL     1      13.289  28.634  23.303  1.00  0.00     0.345 HD
ATOM     13  H   UNL     1      13.864  27.412  22.294  1.00  0.00     0.345 HD
ENDBRANCH   9  10
BRANCH   9  14
ATOM     14  C   UNL     1      16.378  27.651  23.819  1.00  0.00     0.099 C 
ATOM     15  O   UNL     1      16.835  28.483  22.991  1.00  0.00    -0.544 OA
ATOM     16  O   UNL     1      17.251  26.811  24.499  1.00  0.00    -0.544 OA
ENDBRANCH   9  14
ENDBRANCH   8   9
ENDBRANCH   1   8
TORSDOF 7
ENDMDL
MODEL 5
REMARK VINA RESULT:    -3.351      1.908      2.389
REMARK INTER + INTRA:          -5.056
REMARK INTER:                  -4.466
REMARK INTRA:                  -0.590
REMARK UNBOUND:                -0.530
REMARK SMILES [NH3+]CCCC[C@H]([NH3+])C(=O)[O-]
REMARK SMILES IDX 4 1 3 2 2 3 1 4 5 8 6 9 7 10 8 14 9 15 10 16
REMARK H PARENT 1 5 1 6 1 7 7 11 7 12 7 13
REMARK Flexibility Score: inf
ROOT
ATOM      1  C   UNL     1      16.927  27.942  25.596  1.00  0.00     0.012 C 
ENDROOT
BRANCH   1   2
ATOM      2  C   UNL     1      16.633  29.085  24.612  1.00  0.00     0.061 C 
BRANCH   2   3
ATOM      3  C   UNL     1      16.950  28.708  23.156  1.00  0.00     0.258 C 
BRANCH   3   4
ATOM      4  N   UNL     1      15.738  28.447  22.376  1.00  0.00    -0.358 N 
ATOM      5  H   UNL     1      15.139  27.741  22.860  1.00  0.00     0.344 HD
ATOM      6  H   UNL     1      15.202  29.331  22.227  1.00  0.00     0.344 HD
ATOM      7  H   UNL     1      16.012  28.060  21.445  1.00  0.00     0.344 HD
ENDBRANCH   3   4
ENDBRANCH   2   3
ENDBRANCH   1   2
BRANCH   1   8
ATOM      8  C   UNL     1      15.625  27.286  26.081  1.00  0.00     0.072 C 
BRANCH   8   9
ATOM      9  C   UNL     1      15.356  25.924  25.403  1.00  0.00     0.227 C 
BRANCH   9  10
ATOM     10  N   UNL     1      16.495  25.490  24.581  1.00  0.00    -0.350 N 
ATOM     11  H   UNL     1      17.247  26.217  24.572  1.00  0.00     0.345 HD
ATOM     12  H   UNL     1      16.178  25.316  23.599  1.00  0.00     0.345 HD
ATOM     13  H   UNL     1      16.883  24.593  24.948  1.00  0.00     0.345 HD
ENDBRANCH   9  10
BRANCH   9  14
ATOM     14  C   UNL     1      14.117  26.025  24.552  1.00  0.00     0.099 C 
ATOM     15  O   UNL     1      13.507  24.982  24.197  1.00  0.00    -0.544 OA
ATOM     16  O   UNL     1      13.626  27.268  24.174  1.00  0.00    -0.544 OA
ENDBRANCH   9  14
ENDBRANCH   8   9
ENDBRANCH   1   8
TORSDOF 7
ENDMDL
MODEL 6
REMARK VINA RESULT:    -3.347      2.408      3.668
REMARK INTER + INTRA:          -5.050
REMARK INTER:                  -4.600
REMARK INTRA:                  -0.450
REMARK UNBOUND:                -0.530
REMARK SMILES [NH3+]CCCC[C@H]([NH3+])C(=O)[O-]
REMARK SMILES IDX 4 1 3 2 2 3 1 4 5 8 6 9 7 10 8 14 9 15 10 16
REMARK H PARENT 1 5 1 6 1 7 7 11 7 12 7 13
REMARK Flexibility Score: inf
ROOT
ATOM      1  C   UNL     1      13.539  25.897  26.311  1.00  0.00     0.012 C 
ENDROOT
BRANCH   1   2
ATOM      2  C   UNL     1      13.235  24.493  25.766  1.00  0.00     0.061 C 
BRANCH   2   3
ATOM      3  C   UNL     1      12.359  24.526  24.503  1.00  0.00     0.258 C 
BRANCH   3   4
ATOM      4  N   UNL     1      12.006  25.892  24.110  1.00  0.00    -0.358 N 
ATOM      5  H   UNL     1      11.129  25.892  23.543  1.00  0.00     0.344 HD
ATOM      6  H   UNL     1      11.887  26.496  24.955  1.00  0.00     0.344 HD
ATOM      7  H   UNL     1      12.776  26.285  23.523  1.00  0.00     0.344 HD
ENDBRANCH   3   4
ENDBRANCH   2   3
ENDBRANCH   1   2
BRANCH   1   8
ATOM      8  C   UNL     1      15.039  26.216  26.199  1.00  0.00     0.072 C 
BRANCH   8   9
ATOM      9  C   UNL     1      15.543  26.203  24.739  1.00  0.00     0.227 C 
BRANCH   9  10
ATOM     10  N   UNL     1      16.961  25.825  24.656  1.00  0.00    -0.350 N 
ATOM     11  H   UNL     1      17.063  24.811  24.422  1.00  0.00     0.345 HD
ATOM     12  H   UNL     1      17.433  26.012  25.571  1.00  0.00     0.345 HD
ATOM     13  H   UNL     1      17.445  26.399  23.930  1.00  0.00     0.345 HD
ENDBRANCH   9  10
BRANCH   9  14
ATOM     14  C   UNL     1      15.338  27.564  24.126  1.00  0.00     0.099 C 
ATOM     15  O   UNL     1      14.242  27.852  23.578  1.00  0.00    -0.544 OA
ATOM     16  O   UNL     1      16.347  28.517  24.182  1.00  0.00    -0.544 OA
ENDBRANCH   9  14
ENDBRANCH   8   9
ENDBRANCH   1   8
TORSDOF 7
ENDMDL
MODEL 7
REMARK VINA RESULT:    -3.327      6.956      7.789
REMARK INTER + INTRA:          -5.024
REMARK INTER:                  -4.434
REMARK INTRA:                  -0.590
REMARK UNBOUND:                -0.530
REMARK SMILES [NH3+]CCCC[C@H]([NH3+])C(=O)[O-]
REMARK SMILES IDX 4 1 3 2 2 3 1 4 5 8 6 9 7 10 8 14 9 15 10 16
REMARK H PARENT 1 5 1 6 1 7 7 11 7 12 7 13
REMARK Flexibility Score: inf
ROOT
ATOM      1  C   UNL     1      19.383  28.955  31.526  1.00  0.00     0.012 C 
ENDROOT
BRANCH   1   2
ATOM      2  C   UNL     1      18.164  28.835  32.453  1.00  0.00     0.061 C 
BRANCH   2   3
ATOM      3  C   UNL     1      16.936  29.588  31.916  1.00  0.00     0.258 C 
BRANCH   3   4
ATOM      4  N   UNL     1      15.800  28.696  31.676  1.00  0.00    -0.358 N 
ATOM      5  H   UNL     1      16.052  27.713  31.923  1.00  0.00     0.344 HD
ATOM      6  H   UNL     1      14.970  29.004  32.232  1.00  0.00     0.344 HD
ATOM      7  H   UNL     1      15.553  28.726  30.661  1.00  0.00     0.344 HD
ENDBRANCH   3   4
ENDBRANCH   2   3
ENDBRANCH   1   2
BRANCH   1   8
ATOM      8  C   UNL     1      19.463  27.757  30.566  1.00  0.00     0.072 C 
BRANCH   8   9
ATOM      9  C   UNL     1      19.096  28.134  29.113  1.00  0.00     0.227 C 
BRANCH   9  10
ATOM     10  N   UNL     1      18.974  29.588  28.941  1.00  0.00    -0.350 N 
ATOM     11  H   UNL     1      19.871  30.069  29.181  1.00  0.00     0.345 HD
ATOM     12  H   UNL     1      18.214  29.957  29.559  1.00  0.00     0.345 HD
ATOM     13  H   UNL     1      18.712  29.814  27.955  1.00  0.00     0.345 HD
ENDBRANCH   9  10
BRANCH   9  14
ATOM     14  C   UNL     1      17.803  27.461  28.733  1.00  0.00     0.099 C 
ATOM     15  O   UNL     1      17.410  27.476  27.536  1.00  0.00    -0.544 OA
ATOM     16  O   UNL     1      17.049  26.799  29.694  1.00  0.00    -0.544 OA
ENDBRANCH   9  14
ENDBRANCH   8   9
ENDBRANCH   1   8
TORSDOF 7
ENDMDL
MODEL 8
REMARK VINA RESULT:    -3.283      1.720      2.198
REMARK INTER + INTRA:          -4.965
REMARK INTER:                  -4.518
REMARK INTRA:                  -0.447
REMARK UNBOUND:                -0.530
REMARK SMILES [NH3+]CCCC[C@H]([NH3+])C(=O)[O-]
REMARK SMILES IDX 4 1 3 2 2 3 1 4 5 8 6 9 7 10 8 14 9 15 10 16
REMARK H PARENT 1 5 1 6 1 7 7 11 7 12 7 13
REMARK Flexibility Score: inf
ROOT
ATOM      1  C   UNL     1      14.050  26.110  27.088  1.00  0.00     0.012 C 
ENDROOT
BRANCH   1   2
ATOM      2  C   UNL     1      15.321  26.354  26.259  1.00  0.00     0.061 C 
BRANCH   2   3
ATOM      3  C   UNL     1      15.012  26.803  24.822  1.00  0.00     0.258 C 
BRANCH   3   4
ATOM      4  N   UNL     1      15.422  25.805  23.831  1.00  0.00    -0.358 N 
ATOM      5  H   UNL     1      16.361  26.044  23.442  1.00  0.00     0.344 HD
ATOM      6  H   UNL     1      15.443  24.852  24.259  1.00  0.00     0.344 HD
ATOM      7  H   UNL     1      14.732  25.804  23.046  1.00  0.00     0.344 HD
ENDBRANCH   3   4
ENDBRANCH   2   3
ENDBRANCH   1   2
BRANCH   1   8
ATOM      8  C   UNL     1      13.525  24.680  26.880  1.00  0.00     0.072 C 
BRANCH   8   9
ATOM      9  C   UNL     1      12.078  24.649  26.340  1.00  0.00     0.227 C 
BRANCH   9  10
ATOM     10  N   UNL     1      11.168  23.952  27.259  1.00  0.00    -0.350 N 
ATOM     11  H   UNL     1      11.608  23.833  28.200  1.00  0.00     0.345 HD
ATOM     12  H   UNL     1      10.928  23.009  26.874  1.00  0.00     0.345 HD
ATOM     13  H   UNL     1      10.276  24.486  27.357  1.00  0.00     0.345 HD
ENDBRANCH   9  10
BRANCH   9  14
ATOM     14  C   UNL     1      12.061  23.978  24.991  1.00  0.00     0.099 C 
ATOM     15  O   UNL     1      12.556  24.558  23.990  1.00  0.00    -0.544 OA
ATOM     16  O   UNL     1      11.519  22.706  24.849  1.00  0.00    -0.544 OA
ENDBRANCH   9  14
ENDBRANCH   8   9
ENDBRANCH   1   8
TORSDOF 7
ENDMDL
MODEL 9
REMARK VINA RESULT:    -3.278      1.776      3.944
REMARK INTER + INTRA:          -4.957
REMARK INTER:                  -4.490
REMARK INTRA:                  -0.467
REMARK UNBOUND:                -0.530
REMARK SMILES [NH3+]CCCC[C@H]([NH3+])C(=O)[O-]
REMARK SMILES IDX 4 1 3 2 2 3 1 4 5 8 6 9 7 10 8 14 9 15 10 16
REMARK H PARENT 1 5 1 6 1 7 7 11 7 12 7 13
REMARK Flexibility Score: inf
ROOT
ATOM      1  C   UNL     1      13.532  24.752  27.152  1.00  0.00     0.012 C 
ENDROOT
BRANCH   1   2
ATOM      2  C   UNL     1      12.607  25.439  28.169  1.00  0.00     0.061 C 
BRANCH   2   3
ATOM      3  C   UNL     1      11.183  24.859  28.157  1.00  0.00     0.258 C 
BRANCH   3   4
ATOM      4  N   UNL     1      10.701  24.602  26.798  1.00  0.00    -0.358 N 
ATOM      5  H   UNL     1      10.039  23.794  26.794  1.00  0.00     0.344 HD
ATOM      6  H   UNL     1      10.233  25.452  26.409  1.00  0.00     0.344 HD
ATOM      7  H   UNL     1      11.517  24.361  26.191  1.00  0.00     0.344 HD
ENDBRANCH   3   4
ENDBRANCH   2   3
ENDBRANCH   1   2
BRANCH   1   8
ATOM      8  C   UNL     1      14.280  25.791  26.302  1.00  0.00     0.072 C 
BRANCH   8   9
ATOM      9  C   UNL     1      14.171  25.509  24.787  1.00  0.00     0.227 C 
BRANCH   9  10
ATOM     10  N   UNL     1      14.861  26.535  23.991  1.00  0.00    -0.350 N 
ATOM     11  H   UNL     1      14.201  27.297  23.713  1.00  0.00     0.345 HD
ATOM     12  H   UNL     1      15.264  26.103  23.127  1.00  0.00     0.345 HD
ATOM     13  H   UNL     1      15.653  26.942  24.537  1.00  0.00     0.345 HD
ENDBRANCH   9  10
BRANCH   9  14
ATOM     14  C   UNL     1      12.719  25.444  24.393  1.00  0.00     0.099 C 
ATOM     15  O   UNL     1      12.227  24.368  23.963  1.00  0.00    -0.544 OA
ATOM     16  O   UNL     1      11.907  26.564  24.523  1.00  0.00    -0.544 OA
ENDBRANCH   9  14
ENDBRANCH   8   9
ENDBRANCH   1   8
TORSDOF 7
ENDMDL
