MODEL 1
REMARK VINA RESULT:    -6.124      0.000      0.000
REMARK INTER + INTRA:          -7.411
REMARK INTER:                  -7.198
REMARK INTRA:                  -0.213
REMARK UNBOUND:                -0.213
REMARK SMILES O=c1c(O)c(-c2ccc(O)cc2)oc2cc(O)cc(O)c12
REMARK SMILES IDX 5 1 3 2 2 3 1 4 21 5 19 6 18 7 16 8 15 9 14 10 13 11 6 12
REMARK SMILES IDX 7 13 8 14 9 15 12 16 11 17 10 18 4 20 20 22 17 24
REMARK H PARENT 10 19 4 21 20 23 17 25
REMARK Flexibility Score: inf
ROOT
ATOM      1  C   UNL     1      -1.838   7.385  -4.338  1.00  0.00     0.180 A 
ATOM      2  C   UNL     1      -1.884   6.902  -5.656  1.00  0.00     0.208 A 
ATOM      3  C   UNL     1      -0.780   6.198  -6.164  1.00  0.00     0.238 A 
ATOM      4  O   UNL     1      -0.859   5.705  -7.319  1.00  0.00    -0.285 OA
ATOM      5  C   UNL     1       0.378   6.032  -5.366  1.00  0.00     0.111 A 
ATOM      6  C   UNL     1       1.572   5.375  -5.792  1.00  0.00     0.134 A 
ATOM      7  C   UNL     1       2.615   5.177  -4.880  1.00  0.00     0.093 A 
ATOM      8  C   UNL     1       2.535   5.669  -3.575  1.00  0.00     0.123 A 
ATOM      9  C   UNL     1       1.397   6.360  -3.166  1.00  0.00     0.094 A 
ATOM     10  C   UNL     1       0.323   6.540  -4.041  1.00  0.00     0.146 A 
ATOM     11  O   UNL     1      -0.750   7.186  -3.601  1.00  0.00    -0.452 OA
ENDROOT
BRANCH   1  12
ATOM     12  C   UNL     1      -2.967   8.124  -3.727  1.00  0.00     0.021 A 
ATOM     13  C   UNL     1      -3.266   9.446  -4.103  1.00  0.00     0.016 A 
ATOM     14  C   UNL     1      -4.352  10.115  -3.531  1.00  0.00     0.047 A 
ATOM     15  C   UNL     1      -5.159   9.468  -2.586  1.00  0.00     0.115 A 
ATOM     16  C   UNL     1      -3.793   7.475  -2.795  1.00  0.00     0.016 A 
ATOM     17  C   UNL     1      -4.878   8.148  -2.223  1.00  0.00     0.047 A 
BRANCH  15  18
ATOM     18  O   UNL     1      -6.243  10.125  -2.008  1.00  0.00    -0.508 OA
ATOM     19  H   UNL     1      -6.544   9.916  -1.063  1.00  0.00     0.293 HD
ENDBRANCH  15  18
ENDBRANCH   1  12
BRANCH   2  20
ATOM     20  O   UNL     1      -3.006   7.143  -6.455  1.00  0.00    -0.502 OA
ATOM     21  H   UNL     1      -3.169   6.653  -7.326  1.00  0.00     0.293 HD
ENDBRANCH   2  20
BRANCH   6  22
ATOM     22  O   UNL     1       1.793   4.921  -7.096  1.00  0.00    -0.507 OA
ATOM     23  H   UNL     1       2.664   5.006  -7.598  1.00  0.00     0.293 HD
ENDBRANCH   6  22
BRANCH   8  24
ATOM     24  O   UNL     1       3.586   5.484  -2.680  1.00  0.00    -0.508 OA
ATOM     25  H   UNL     1       4.123   6.265  -2.323  1.00  0.00     0.293 HD
ENDBRANCH   8  24
TORSDOF 5
ENDMDL
MODEL 2
REMARK VINA RESULT:    -6.081      3.161      3.898
REMARK INTER + INTRA:          -7.361
REMARK INTER:                  -7.153
REMARK INTRA:                  -0.207
REMARK UNBOUND:                -0.213
REMARK SMILES O=c1c(O)c(-c2ccc(O)cc2)oc2cc(O)cc(O)c12
REMARK SMILES IDX 5 1 3 2 2 3 1 4 21 5 19 6 18 7 16 8 15 9 14 10 13 11 6 12
REMARK SMILES IDX 7 13 8 14 9 15 12 16 11 17 10 18 4 20 20 22 17 24
REMARK H PARENT 10 19 4 21 20 23 17 25
REMARK Flexibility Score: inf
ROOT
ATOM      1  C   UNL     1      -0.467   6.541  -6.640  1.00  0.00     0.180 A 
ATOM      2  C   UNL     1      -0.007   5.336  -7.198  1.00  0.00     0.208 A 
ATOM      3  C   UNL     1       0.902   4.552  -6.470  1.00  0.00     0.238 A 
ATOM      4  O   UNL     1       1.251   3.439  -6.943  1.00  0.00    -0.285 OA
ATOM      5  C   UNL     1       1.383   5.007  -5.219  1.00  0.00     0.111 A 
ATOM      6  C   UNL     1       2.340   4.316  -4.415  1.00  0.00     0.134 A 
ATOM      7  C   UNL     1       2.662   4.812  -3.146  1.00  0.00     0.093 A 
ATOM      8  C   UNL     1       2.111   6.007  -2.676  1.00  0.00     0.123 A 
ATOM      9  C   UNL     1       1.219   6.716  -3.475  1.00  0.00     0.094 A 
ATOM     10  C   UNL     1       0.848   6.229  -4.731  1.00  0.00     0.146 A 
ATOM     11  O   UNL     1      -0.023   6.928  -5.450  1.00  0.00    -0.452 OA
ENDROOT
BRANCH   1  12
ATOM     12  C   UNL     1      -1.436   7.415  -7.340  1.00  0.00     0.021 A 
ATOM     13  C   UNL     1      -2.766   7.539  -6.896  1.00  0.00     0.016 A 
ATOM     14  C   UNL     1      -3.656   8.389  -7.558  1.00  0.00     0.047 A 
ATOM     15  C   UNL     1      -3.226   9.136  -8.662  1.00  0.00     0.115 A 
ATOM     16  C   UNL     1      -1.008   8.184  -8.434  1.00  0.00     0.016 A 
ATOM     17  C   UNL     1      -1.901   9.034  -9.096  1.00  0.00     0.047 A 
BRANCH  15  18
ATOM     18  O   UNL     1      -4.104   9.987  -9.331  1.00  0.00    -0.508 OA
ATOM     19  H   UNL     1      -4.145  10.977  -9.119  1.00  0.00     0.293 HD
ENDBRANCH  15  18
ENDBRANCH   1  12
BRANCH   2  20
ATOM     20  O   UNL     1      -0.435   4.940  -8.468  1.00  0.00    -0.502 OA
ATOM     21  H   UNL     1      -1.377   4.617  -8.649  1.00  0.00     0.293 HD
ENDBRANCH   2  20
BRANCH   6  22
ATOM     22  O   UNL     1       3.017   3.163  -4.822  1.00  0.00    -0.507 OA
ATOM     23  H   UNL     1       3.241   2.931  -5.778  1.00  0.00     0.293 HD
ENDBRANCH   6  22
BRANCH   8  24
ATOM     24  O   UNL     1       2.451   6.500  -1.419  1.00  0.00    -0.508 OA
ATOM     25  H   UNL     1       2.199   6.008  -0.570  1.00  0.00     0.293 HD
ENDBRANCH   8  24
TORSDOF 5
ENDMDL
MODEL 3
REMARK VINA RESULT:    -5.928      3.229      6.369
REMARK INTER + INTRA:          -7.181
REMARK INTER:                  -6.889
REMARK INTRA:                  -0.292
REMARK UNBOUND:                -0.213
REMARK SMILES O=c1c(O)c(-c2ccc(O)cc2)oc2cc(O)cc(O)c12
REMARK SMILES IDX 5 1 3 2 2 3 1 4 21 5 19 6 18 7 16 8 15 9 14 10 13 11 6 12
REMARK SMILES IDX 7 13 8 14 9 15 12 16 11 17 10 18 4 20 20 22 17 24
REMARK H PARENT 10 19 4 21 20 23 17 25
REMARK Flexibility Score: inf
ROOT
ATOM      1  C   UNL     1       1.169   5.367  -4.863  1.00  0.00     0.180 A 
ATOM      2  C   UNL     1       2.260   4.821  -4.166  1.00  0.00     0.208 A 
ATOM      3  C   UNL     1       2.615   5.364  -2.921  1.00  0.00     0.238 A 
ATOM      4  O   UNL     1       3.545   4.821  -2.270  1.00  0.00    -0.285 OA
ATOM      5  C   UNL     1       1.912   6.482  -2.413  1.00  0.00     0.111 A 
ATOM      6  C   UNL     1       2.214   7.143  -1.184  1.00  0.00     0.134 A 
ATOM      7  C   UNL     1       1.381   8.174  -0.731  1.00  0.00     0.093 A 
ATOM      8  C   UNL     1       0.296   8.612  -1.494  1.00  0.00     0.123 A 
ATOM      9  C   UNL     1       0.026   8.011  -2.720  1.00  0.00     0.094 A 
ATOM     10  C   UNL     1       0.815   6.955  -3.181  1.00  0.00     0.146 A 
ATOM     11  O   UNL     1       0.507   6.397  -4.346  1.00  0.00    -0.452 OA
ENDROOT
BRANCH   1  12
ATOM     12  C   UNL     1       0.725   4.841  -6.174  1.00  0.00     0.021 A 
ATOM     13  C   UNL     1      -0.150   3.742  -6.264  1.00  0.00     0.016 A 
ATOM     14  C   UNL     1      -0.574   3.278  -7.513  1.00  0.00     0.047 A 
ATOM     15  C   UNL     1      -0.142   3.913  -8.684  1.00  0.00     0.115 A 
ATOM     16  C   UNL     1       1.136   5.485  -7.352  1.00  0.00     0.016 A 
ATOM     17  C   UNL     1       0.710   5.017  -8.600  1.00  0.00     0.047 A 
BRANCH  15  18
ATOM     18  O   UNL     1      -0.558   3.459  -9.934  1.00  0.00    -0.508 OA
ATOM     19  H   UNL     1      -0.621   4.083 -10.729  1.00  0.00     0.293 HD
ENDBRANCH  15  18
ENDBRANCH   1  12
BRANCH   2  20
ATOM     20  O   UNL     1       2.991   3.766  -4.720  1.00  0.00    -0.502 OA
ATOM     21  H   UNL     1       3.318   3.774  -5.678  1.00  0.00     0.293 HD
ENDBRANCH   2  20
BRANCH   6  22
ATOM     22  O   UNL     1       3.323   6.845  -0.387  1.00  0.00    -0.507 OA
ATOM     23  H   UNL     1       4.012   7.516  -0.081  1.00  0.00     0.293 HD
ENDBRANCH   6  22
BRANCH   8  24
ATOM     24  O   UNL     1      -0.516   9.651  -1.043  1.00  0.00    -0.508 OA
ATOM     25  H   UNL     1      -1.147  10.139  -1.667  1.00  0.00     0.293 HD
ENDBRANCH   8  24
TORSDOF 5
ENDMDL
MODEL 4
REMARK VINA RESULT:    -5.843      2.855      6.577
REMARK INTER + INTRA:          -7.081
REMARK INTER:                  -6.793
REMARK INTRA:                  -0.288
REMARK UNBOUND:                -0.213
REMARK SMILES O=c1c(O)c(-c2ccc(O)cc2)oc2cc(O)cc(O)c12
REMARK SMILES IDX 5 1 3 2 2 3 1 4 21 5 19 6 18 7 16 8 15 9 14 10 13 11 6 12
REMARK SMILES IDX 7 13 8 14 9 15 12 16 11 17 10 18 4 20 20 22 17 24
REMARK H PARENT 10 19 4 21 20 23 17 25
REMARK Flexibility Score: inf
ROOT
ATOM      1  C   UNL     1       1.140   5.427  -5.099  1.00  0.00     0.180 A 
ATOM      2  C   UNL     1       2.117   4.989  -4.190  1.00  0.00     0.208 A 
ATOM      3  C   UNL     1       2.231   5.635  -2.948  1.00  0.00     0.238 A 
ATOM      4  O   UNL     1       3.058   5.188  -2.111  1.00  0.00    -0.285 OA
ATOM      5  C   UNL     1       1.405   6.746  -2.652  1.00  0.00     0.111 A 
ATOM      6  C   UNL     1       1.465   7.504  -1.443  1.00  0.00     0.134 A 
ATOM      7  C   UNL     1       0.525   8.517  -1.217  1.00  0.00     0.093 A 
ATOM      8  C   UNL     1      -0.431   8.843  -2.182  1.00  0.00     0.123 A 
ATOM      9  C   UNL     1      -0.462   8.146  -3.387  1.00  0.00     0.094 A 
ATOM     10  C   UNL     1       0.437   7.104  -3.627  1.00  0.00     0.146 A 
ATOM     11  O   UNL     1       0.357   6.452  -4.781  1.00  0.00    -0.452 OA
ENDROOT
BRANCH   1  12
ATOM     12  C   UNL     1       0.948   4.789  -6.422  1.00  0.00     0.021 A 
ATOM     13  C   UNL     1       1.638   5.243  -7.561  1.00  0.00     0.016 A 
ATOM     14  C   UNL     1       1.459   4.608  -8.794  1.00  0.00     0.047 A 
ATOM     15  C   UNL     1       0.601   3.506  -8.901  1.00  0.00     0.115 A 
ATOM     16  C   UNL     1       0.107   3.670  -6.533  1.00  0.00     0.016 A 
ATOM     17  C   UNL     1      -0.072   3.039  -7.769  1.00  0.00     0.047 A 
BRANCH  15  18
ATOM     18  O   UNL     1       0.414   2.867 -10.125  1.00  0.00    -0.508 OA
ATOM     19  H   UNL     1       0.709   3.294 -10.995  1.00  0.00     0.293 HD
ENDBRANCH  15  18
ENDBRANCH   1  12
BRANCH   2  20
ATOM     20  O   UNL     1       2.975   3.940  -4.531  1.00  0.00    -0.502 OA
ATOM     21  H   UNL     1       3.959   3.942  -4.293  1.00  0.00     0.293 HD
ENDBRANCH   2  20
BRANCH   6  22
ATOM     22  O   UNL     1       2.433   7.322  -0.452  1.00  0.00    -0.507 OA
ATOM     23  H   UNL     1       2.263   7.385   0.541  1.00  0.00     0.293 HD
ENDBRANCH   6  22
BRANCH   8  24
ATOM     24  O   UNL     1      -1.350   9.864  -1.954  1.00  0.00    -0.508 OA
ATOM     25  H   UNL     1      -2.245   9.685  -1.514  1.00  0.00     0.293 HD
ENDBRANCH   8  24
TORSDOF 5
ENDMDL
MODEL 5
REMARK VINA RESULT:    -5.594      2.471      7.038
REMARK INTER + INTRA:          -6.788
REMARK INTER:                  -6.807
REMARK INTRA:                   0.020
REMARK UNBOUND:                -0.213
REMARK SMILES O=c1c(O)c(-c2ccc(O)cc2)oc2cc(O)cc(O)c12
REMARK SMILES IDX 5 1 3 2 2 3 1 4 21 5 19 6 18 7 16 8 15 9 14 10 13 11 6 12
REMARK SMILES IDX 7 13 8 14 9 15 12 16 11 17 10 18 4 20 20 22 17 24
REMARK H PARENT 10 19 4 21 20 23 17 25
REMARK Flexibility Score: inf
ROOT
ATOM      1  C   UNL     1       0.985   5.092  -5.692  1.00  0.00     0.180 A 
ATOM      2  C   UNL     1       1.834   5.030  -4.573  1.00  0.00     0.208 A 
ATOM      3  C   UNL     1       1.602   5.898  -3.493  1.00  0.00     0.238 A 
ATOM      4  O   UNL     1       2.319   5.785  -2.465  1.00  0.00    -0.285 OA
ATOM      5  C   UNL     1       0.561   6.854  -3.567  1.00  0.00     0.111 A 
ATOM      6  C   UNL     1       0.264   7.813  -2.552  1.00  0.00     0.134 A 
ATOM      7  C   UNL     1      -0.858   8.639  -2.689  1.00  0.00     0.093 A 
ATOM      8  C   UNL     1      -1.657   8.587  -3.834  1.00  0.00     0.123 A 
ATOM      9  C   UNL     1      -1.343   7.693  -4.855  1.00  0.00     0.094 A 
ATOM     10  C   UNL     1      -0.253   6.829  -4.731  1.00  0.00     0.146 A 
ATOM     11  O   UNL     1      -0.004   5.978  -5.719  1.00  0.00    -0.452 OA
ENDROOT
BRANCH   1  12
ATOM     12  C   UNL     1       1.156   4.202  -6.862  1.00  0.00     0.021 A 
ATOM     13  C   UNL     1       1.303   4.720  -8.162  1.00  0.00     0.016 A 
ATOM     14  C   UNL     1       1.488   3.860  -9.249  1.00  0.00     0.047 A 
ATOM     15  C   UNL     1       1.541   2.475  -9.049  1.00  0.00     0.115 A 
ATOM     16  C   UNL     1       1.232   2.813  -6.669  1.00  0.00     0.016 A 
ATOM     17  C   UNL     1       1.415   1.955  -7.758  1.00  0.00     0.047 A 
BRANCH  15  18
ATOM     18  O   UNL     1       1.723   1.608 -10.125  1.00  0.00    -0.508 OA
ATOM     19  H   UNL     1       1.771   1.950 -11.077  1.00  0.00     0.293 HD
ENDBRANCH  15  18
ENDBRANCH   1  12
BRANCH   2  20
ATOM     20  O   UNL     1       2.905   4.132  -4.551  1.00  0.00    -0.502 OA
ATOM     21  H   UNL     1       3.184   3.598  -5.364  1.00  0.00     0.293 HD
ENDBRANCH   2  20
BRANCH   6  22
ATOM     22  O   UNL     1       1.045   8.010  -1.409  1.00  0.00    -0.507 OA
ATOM     23  H   UNL     1       1.024   7.427  -0.587  1.00  0.00     0.293 HD
ENDBRANCH   6  22
BRANCH   8  24
ATOM     24  O   UNL     1      -2.761   9.426  -3.969  1.00  0.00    -0.508 OA
ATOM     25  H   UNL     1      -2.718  10.404  -3.709  1.00  0.00     0.293 HD
ENDBRANCH   8  24
TORSDOF 5
ENDMDL
MODEL 6
REMARK VINA RESULT:    -5.496      1.808      2.307
REMARK INTER + INTRA:          -6.673
REMARK INTER:                  -6.494
REMARK INTRA:                  -0.179
REMARK UNBOUND:                -0.213
REMARK SMILES O=c1c(O)c(-c2ccc(O)cc2)oc2cc(O)cc(O)c12
REMARK SMILES IDX 5 1 3 2 2 3 1 4 21 5 19 6 18 7 16 8 15 9 14 10 13 11 6 12
REMARK SMILES IDX 7 13 8 14 9 15 12 16 11 17 10 18 4 20 20 22 17 24
REMARK H PARENT 10 19 4 21 20 23 17 25
REMARK Flexibility Score: inf
ROOT
ATOM      1  C   UNL     1      -1.950   7.522  -4.548  1.00  0.00     0.180 A 
ATOM      2  C   UNL     1      -2.375   7.810  -5.856  1.00  0.00     0.208 A 
ATOM      3  C   UNL     1      -1.779   7.131  -6.931  1.00  0.00     0.238 A 
ATOM      4  O   UNL     1      -2.217   7.339  -8.093  1.00  0.00    -0.285 OA
ATOM      5  C   UNL     1      -0.727   6.214  -6.691  1.00  0.00     0.111 A 
ATOM      6  C   UNL     1      -0.020   5.503  -7.707  1.00  0.00     0.134 A 
ATOM      7  C   UNL     1       0.931   4.541  -7.343  1.00  0.00     0.093 A 
ATOM      8  C   UNL     1       1.247   4.311  -6.002  1.00  0.00     0.123 A 
ATOM      9  C   UNL     1       0.603   5.039  -5.006  1.00  0.00     0.094 A 
ATOM     10  C   UNL     1      -0.378   5.978  -5.335  1.00  0.00     0.146 A 
ATOM     11  O   UNL     1      -0.983   6.633  -4.351  1.00  0.00    -0.452 OA
ENDROOT
BRANCH   1  12
ATOM     12  C   UNL     1      -2.539   8.186  -3.363  1.00  0.00     0.021 A 
ATOM     13  C   UNL     1      -3.874   7.959  -2.984  1.00  0.00     0.016 A 
ATOM     14  C   UNL     1      -4.401   8.578  -1.846  1.00  0.00     0.047 A 
ATOM     15  C   UNL     1      -3.597   9.419  -1.067  1.00  0.00     0.115 A 
ATOM     16  C   UNL     1      -1.734   9.014  -2.564  1.00  0.00     0.016 A 
ATOM     17  C   UNL     1      -2.264   9.633  -1.427  1.00  0.00     0.047 A 
BRANCH  15  18
ATOM     18  O   UNL     1      -4.111  10.043   0.068  1.00  0.00    -0.508 OA
ATOM     19  H   UNL     1      -4.630  10.911   0.005  1.00  0.00     0.293 HD
ENDBRANCH  15  18
ENDBRANCH   1  12
BRANCH   2  20
ATOM     20  O   UNL     1      -3.361   8.775  -6.079  1.00  0.00    -0.502 OA
ATOM     21  H   UNL     1      -3.327   9.695  -5.659  1.00  0.00     0.293 HD
ENDBRANCH   2  20
BRANCH   6  22
ATOM     22  O   UNL     1      -0.194   5.717  -9.078  1.00  0.00    -0.507 OA
ATOM     23  H   UNL     1       0.554   5.828  -9.745  1.00  0.00     0.293 HD
ENDBRANCH   6  22
BRANCH   8  24
ATOM     24  O   UNL     1       2.207   3.365  -5.651  1.00  0.00    -0.508 OA
ATOM     25  H   UNL     1       3.185   3.489  -5.888  1.00  0.00     0.293 HD
ENDBRANCH   8  24
TORSDOF 5
ENDMDL
MODEL 7
REMARK VINA RESULT:    -5.348      2.991      6.244
REMARK INTER + INTRA:          -6.498
REMARK INTER:                  -6.807
REMARK INTRA:                   0.308
REMARK UNBOUND:                -0.213
REMARK SMILES O=c1c(O)c(-c2ccc(O)cc2)oc2cc(O)cc(O)c12
REMARK SMILES IDX 5 1 3 2 2 3 1 4 21 5 19 6 18 7 16 8 15 9 14 10 13 11 6 12
REMARK SMILES IDX 7 13 8 14 9 15 12 16 11 17 10 18 4 20 20 22 17 24
REMARK H PARENT 10 19 4 21 20 23 17 25
REMARK Flexibility Score: inf
ROOT
ATOM      1  C   UNL     1       0.657   5.095  -5.643  1.00  0.00     0.180 A 
ATOM      2  C   UNL     1      -0.404   5.990  -5.425  1.00  0.00     0.208 A 
ATOM      3  C   UNL     1      -0.369   6.827  -4.299  1.00  0.00     0.238 A 
ATOM      4  O   UNL     1      -1.285   7.677  -4.151  1.00  0.00    -0.285 OA
ATOM      5  C   UNL     1       0.697   6.721  -3.374  1.00  0.00     0.111 A 
ATOM      6  C   UNL     1       0.813   7.487  -2.174  1.00  0.00     0.134 A 
ATOM      7  C   UNL     1       1.967   7.372  -1.390  1.00  0.00     0.093 A 
ATOM      8  C   UNL     1       2.981   6.472  -1.725  1.00  0.00     0.123 A 
ATOM      9  C   UNL     1       2.853   5.680  -2.864  1.00  0.00     0.094 A 
ATOM     10  C   UNL     1       1.731   5.799  -3.688  1.00  0.00     0.146 A 
ATOM     11  O   UNL     1       1.661   5.040  -4.775  1.00  0.00    -0.452 OA
ENDROOT
BRANCH   1  12
ATOM     12  C   UNL     1       0.699   4.191  -6.815  1.00  0.00     0.021 A 
ATOM     13  C   UNL     1       0.054   4.522  -8.021  1.00  0.00     0.016 A 
ATOM     14  C   UNL     1       0.129   3.663  -9.121  1.00  0.00     0.047 A 
ATOM     15  C   UNL     1       0.859   2.471  -9.035  1.00  0.00     0.115 A 
ATOM     16  C   UNL     1       1.447   3.004  -6.744  1.00  0.00     0.016 A 
ATOM     17  C   UNL     1       1.519   2.145  -7.847  1.00  0.00     0.047 A 
BRANCH  15  18
ATOM     18  O   UNL     1       0.939   1.606 -10.125  1.00  0.00    -0.508 OA
ATOM     19  H   UNL     1       0.539   0.676 -10.092  1.00  0.00     0.293 HD
ENDBRANCH  15  18
ENDBRANCH   1  12
BRANCH   2  20
ATOM     20  O   UNL     1      -1.487   6.026  -6.309  1.00  0.00    -0.502 OA
ATOM     21  H   UNL     1      -2.439   6.167  -5.997  1.00  0.00     0.293 HD
ENDBRANCH   2  20
BRANCH   6  22
ATOM     22  O   UNL     1      -0.179   8.351  -1.698  1.00  0.00    -0.507 OA
ATOM     23  H   UNL     1      -0.132   9.358  -1.732  1.00  0.00     0.293 HD
ENDBRANCH   6  22
BRANCH   8  24
ATOM     24  O   UNL     1       4.117   6.351  -0.929  1.00  0.00    -0.508 OA
ATOM     25  H   UNL     1       5.047   6.478  -1.309  1.00  0.00     0.293 HD
ENDBRANCH   8  24
TORSDOF 5
ENDMDL
MODEL 8
REMARK VINA RESULT:    -5.290      2.296      6.076
REMARK INTER + INTRA:          -6.431
REMARK INTER:                  -6.146
REMARK INTRA:                  -0.285
REMARK UNBOUND:                -0.213
REMARK SMILES O=c1c(O)c(-c2ccc(O)cc2)oc2cc(O)cc(O)c12
REMARK SMILES IDX 5 1 3 2 2 3 1 4 21 5 19 6 18 7 16 8 15 9 14 10 13 11 6 12
REMARK SMILES IDX 7 13 8 14 9 15 12 16 11 17 10 18 4 20 20 22 17 24
REMARK H PARENT 10 19 4 21 20 23 17 25
REMARK Flexibility Score: inf
ROOT
ATOM      1  C   UNL     1      -0.678   6.466  -5.330  1.00  0.00     0.180 A 
ATOM      2  C   UNL     1      -1.882   7.121  -5.638  1.00  0.00     0.208 A 
ATOM      3  C   UNL     1      -2.353   8.123  -4.774  1.00  0.00     0.238 A 
ATOM      4  O   UNL     1      -3.392   8.756  -5.096  1.00  0.00    -0.285 OA
ATOM      5  C   UNL     1      -1.645   8.420  -3.585  1.00  0.00     0.111 A 
ATOM      6  C   UNL     1      -2.054   9.384  -2.614  1.00  0.00     0.134 A 
ATOM      7  C   UNL     1      -1.217   9.668  -1.528  1.00  0.00     0.093 A 
ATOM      8  C   UNL     1      -0.017   8.978  -1.342  1.00  0.00     0.123 A 
ATOM      9  C   UNL     1       0.364   7.996  -2.253  1.00  0.00     0.094 A 
ATOM     10  C   UNL     1      -0.431   7.716  -3.368  1.00  0.00     0.146 A 
ATOM     11  O   UNL     1      -0.018   6.788  -4.223  1.00  0.00    -0.452 OA
ENDROOT
BRANCH   1  12
ATOM     12  C   UNL     1      -0.109   5.409  -6.197  1.00  0.00     0.021 A 
ATOM     13  C   UNL     1       0.879   5.700  -7.156  1.00  0.00     0.016 A 
ATOM     14  C   UNL     1       1.418   4.682  -7.947  1.00  0.00     0.047 A 
ATOM     15  C   UNL     1       0.988   3.359  -7.780  1.00  0.00     0.115 A 
ATOM     16  C   UNL     1      -0.518   4.077  -6.022  1.00  0.00     0.016 A 
ATOM     17  C   UNL     1       0.022   3.060  -6.815  1.00  0.00     0.047 A 
BRANCH  15  18
ATOM     18  O   UNL     1       1.518   2.335  -8.563  1.00  0.00    -0.508 OA
ATOM     19  H   UNL     1       2.252   2.512  -9.238  1.00  0.00     0.293 HD
ENDBRANCH  15  18
ENDBRANCH   1  12
BRANCH   2  20
ATOM     20  O   UNL     1      -2.607   6.760  -6.777  1.00  0.00    -0.502 OA
ATOM     21  H   UNL     1      -2.331   5.994  -7.378  1.00  0.00     0.293 HD
ENDBRANCH   2  20
BRANCH   6  22
ATOM     22  O   UNL     1      -3.272  10.068  -2.656  1.00  0.00    -0.507 OA
ATOM     23  H   UNL     1      -4.181   9.631  -2.674  1.00  0.00     0.293 HD
ENDBRANCH   6  22
BRANCH   8  24
ATOM     24  O   UNL     1       0.799   9.255  -0.248  1.00  0.00    -0.508 OA
ATOM     25  H   UNL     1       0.454   9.767   0.555  1.00  0.00     0.293 HD
ENDBRANCH   8  24
TORSDOF 5
ENDMDL
