MODEL 1
REMARK VINA RESULT:    -5.012      0.000      0.000
REMARK INTER + INTRA:          -5.012
REMARK INTER:                  -5.012
REMARK INTRA:                   0.000
REMARK UNBOUND:                 0.000
REMARK SMILES CC1=CC=CC(C)(C)[C@H]1C
REMARK SMILES IDX 10 1 9 2 2 3 3 4 4 5 5 6 6 7 7 8 8 9 1 10
REMARK H PARENT
REMARK Flexibility Score: inf
ROOT
ATOM      1  C   UNL     1       9.068   6.754  29.717  1.00  0.00     0.013 C 
ATOM      2  C   UNL     1      10.368   6.021  29.336  1.00  0.00     0.021 C 
ATOM      3  C   UNL     1      10.227   4.559  29.733  1.00  0.00    -0.070 C 
ATOM      4  C   UNL     1       9.717   3.674  28.860  1.00  0.00    -0.001 C 
ATOM      5  C   UNL     1       9.406   4.073  27.475  1.00  0.00    -0.004 C 
ATOM      6  C   UNL     1       9.834   5.243  26.988  1.00  0.00    -0.020 C 
ATOM      7  C   UNL     1      10.735   6.147  27.812  1.00  0.00    -0.011 C 
ATOM      8  C   UNL     1      10.603   7.600  27.305  1.00  0.00     0.016 C 
ATOM      9  C   UNL     1      12.197   5.698  27.598  1.00  0.00     0.016 C 
ATOM     10  C   UNL     1      10.572   4.114  31.125  1.00  0.00     0.040 C 
ENDROOT
TORSDOF 0
ENDMDL
MODEL 2
REMARK VINA RESULT:    -4.735     14.119     15.956
REMARK INTER + INTRA:          -4.735
REMARK INTER:                  -4.735
REMARK INTRA:                   0.000
REMARK UNBOUND:                 0.000
REMARK SMILES CC1=CC=CC(C)(C)[C@H]1C
REMARK SMILES IDX 10 1 9 2 2 3 3 4 4 5 5 6 6 7 7 8 8 9 1 10
REMARK H PARENT
REMARK Flexibility Score: inf
ROOT
ATOM      1  C   UNL     1       8.602   7.875  14.612  1.00  0.00     0.013 C 
ATOM      2  C   UNL     1       7.277   7.814  13.827  1.00  0.00     0.021 C 
ATOM      3  C   UNL     1       7.602   7.774  12.341  1.00  0.00    -0.070 C 
ATOM      4  C   UNL     1       7.780   6.592  11.727  1.00  0.00    -0.001 C 
ATOM      5  C   UNL     1       7.541   5.325  12.443  1.00  0.00    -0.004 C 
ATOM      6  C   UNL     1       6.926   5.316  13.630  1.00  0.00    -0.020 C 
ATOM      7  C   UNL     1       6.367   6.596  14.227  1.00  0.00    -0.011 C 
ATOM      8  C   UNL     1       6.254   6.440  15.760  1.00  0.00     0.016 C 
ATOM      9  C   UNL     1       4.945   6.812  13.665  1.00  0.00     0.016 C 
ATOM     10  C   UNL     1       7.814   9.048  11.575  1.00  0.00     0.040 C 
ENDROOT
TORSDOF 0
ENDMDL
MODEL 3
REMARK VINA RESULT:    -4.704     14.099     15.695
REMARK INTER + INTRA:          -4.704
REMARK INTER:                  -4.704
REMARK INTRA:                   0.000
REMARK UNBOUND:                 0.000
REMARK SMILES CC1=CC=CC(C)(C)[C@H]1C
REMARK SMILES IDX 10 1 9 2 2 3 3 4 4 5 5 6 6 7 7 8 8 9 1 10
REMARK H PARENT
REMARK Flexibility Score: inf
ROOT
ATOM      1  C   UNL     1       4.587   6.662  13.382  1.00  0.00     0.013 C 
ATOM      2  C   UNL     1       5.995   7.265  13.547  1.00  0.00     0.021 C 
ATOM      3  C   UNL     1       6.592   6.737  14.844  1.00  0.00    -0.070 C 
ATOM      4  C   UNL     1       7.306   5.599  14.838  1.00  0.00    -0.001 C 
ATOM      5  C   UNL     1       7.627   4.916  13.572  1.00  0.00    -0.004 C 
ATOM      6  C   UNL     1       7.424   5.521  12.397  1.00  0.00    -0.020 C 
ATOM      7  C   UNL     1       6.951   6.964  12.336  1.00  0.00    -0.011 C 
ATOM      8  C   UNL     1       6.261   7.220  10.979  1.00  0.00     0.016 C 
ATOM      9  C   UNL     1       8.190   7.883  12.421  1.00  0.00     0.016 C 
ATOM     10  C   UNL     1       6.315   7.433  16.146  1.00  0.00     0.040 C 
ENDROOT
TORSDOF 0
ENDMDL
MODEL 4
REMARK VINA RESULT:    -4.688     13.982     15.768
REMARK INTER + INTRA:          -4.688
REMARK INTER:                  -4.688
REMARK INTRA:                   0.000
REMARK UNBOUND:                 0.000
REMARK SMILES CC1=CC=CC(C)(C)[C@H]1C
REMARK SMILES IDX 10 1 9 2 2 3 3 4 4 5 5 6 6 7 7 8 8 9 1 10
REMARK H PARENT
REMARK Flexibility Score: inf
ROOT
ATOM      1  C   UNL     1       8.180   8.386  13.042  1.00  0.00     0.013 C 
ATOM      2  C   UNL     1       6.831   7.643  13.001  1.00  0.00     0.021 C 
ATOM      3  C   UNL     1       7.057   6.276  12.370  1.00  0.00    -0.070 C 
ATOM      4  C   UNL     1       7.376   5.226  13.144  1.00  0.00    -0.001 C 
ATOM      5  C   UNL     1       7.390   5.347  14.613  1.00  0.00    -0.004 C 
ATOM      6  C   UNL     1       6.866   6.420  15.216  1.00  0.00    -0.020 C 
ATOM      7  C   UNL     1       6.155   7.494  14.412  1.00  0.00    -0.011 C 
ATOM      8  C   UNL     1       6.172   8.821  15.203  1.00  0.00     0.016 C 
ATOM      9  C   UNL     1       4.681   7.068  14.232  1.00  0.00     0.016 C 
ATOM     10  C   UNL     1       7.011   6.113  10.878  1.00  0.00     0.040 C 
ENDROOT
TORSDOF 0
ENDMDL
MODEL 5
REMARK VINA RESULT:    -4.660     14.306     16.082
REMARK INTER + INTRA:          -4.660
REMARK INTER:                  -4.660
REMARK INTRA:                   0.000
REMARK UNBOUND:                 0.000
REMARK SMILES CC1=CC=CC(C)(C)[C@H]1C
REMARK SMILES IDX 10 1 9 2 2 3 3 4 4 5 5 6 6 7 7 8 8 9 1 10
REMARK H PARENT
REMARK Flexibility Score: inf
ROOT
ATOM      1  C   UNL     1       7.790   4.937  13.900  1.00  0.00     0.013 C 
ATOM      2  C   UNL     1       7.576   6.155  12.981  1.00  0.00     0.021 C 
ATOM      3  C   UNL     1       6.311   5.923  12.166  1.00  0.00    -0.070 C 
ATOM      4  C   UNL     1       5.124   6.335  12.641  1.00  0.00    -0.001 C 
ATOM      5  C   UNL     1       5.041   7.122  13.886  1.00  0.00    -0.004 C 
ATOM      6  C   UNL     1       6.141   7.641  14.442  1.00  0.00    -0.020 C 
ATOM      7  C   UNL     1       7.491   7.519  13.756  1.00  0.00    -0.011 C 
ATOM      8  C   UNL     1       8.613   7.655  14.809  1.00  0.00     0.016 C 
ATOM      9  C   UNL     1       7.633   8.688  12.756  1.00  0.00     0.016 C 
ATOM     10  C   UNL     1       6.369   5.158  10.875  1.00  0.00     0.040 C 
ENDROOT
TORSDOF 0
ENDMDL
MODEL 6
REMARK VINA RESULT:    -4.589      0.928      3.343
REMARK INTER + INTRA:          -4.589
REMARK INTER:                  -4.589
REMARK INTRA:                   0.000
REMARK UNBOUND:                 0.000
REMARK SMILES CC1=CC=CC(C)(C)[C@H]1C
REMARK SMILES IDX 10 1 9 2 2 3 3 4 4 5 5 6 6 7 7 8 8 9 1 10
REMARK H PARENT
REMARK Flexibility Score: inf
ROOT
ATOM      1  C   UNL     1      12.579   5.261  28.026  1.00  0.00     0.013 C 
ATOM      2  C   UNL     1      11.327   5.856  28.697  1.00  0.00     0.021 C 
ATOM      3  C   UNL     1      10.262   6.059  27.629  1.00  0.00    -0.070 C 
ATOM      4  C   UNL     1       9.392   5.073  27.356  1.00  0.00    -0.001 C 
ATOM      5  C   UNL     1       9.372   3.839  28.162  1.00  0.00    -0.004 C 
ATOM      6  C   UNL     1      10.046   3.764  29.315  1.00  0.00    -0.020 C 
ATOM      7  C   UNL     1      10.768   4.977  29.874  1.00  0.00    -0.011 C 
ATOM      8  C   UNL     1      11.890   4.510  30.828  1.00  0.00     0.016 C 
ATOM      9  C   UNL     1       9.757   5.805  30.698  1.00  0.00     0.016 C 
ATOM     10  C   UNL     1      10.232   7.322  26.816  1.00  0.00     0.040 C 
ENDROOT
TORSDOF 0
ENDMDL
MODEL 7
REMARK VINA RESULT:    -4.513     13.466     15.086
REMARK INTER + INTRA:          -4.513
REMARK INTER:                  -4.513
REMARK INTRA:                   0.000
REMARK UNBOUND:                 0.000
REMARK SMILES CC1=CC=CC(C)(C)[C@H]1C
REMARK SMILES IDX 10 1 9 2 2 3 3 4 4 5 5 6 6 7 7 8 8 9 1 10
REMARK H PARENT
REMARK Flexibility Score: inf
ROOT
ATOM      1  C   UNL     1       7.423   9.009  13.834  1.00  0.00     0.013 C 
ATOM      2  C   UNL     1       7.422   7.576  14.401  1.00  0.00     0.021 C 
ATOM      3  C   UNL     1       6.374   7.498  15.502  1.00  0.00    -0.070 C 
ATOM      4  C   UNL     1       5.111   7.157  15.200  1.00  0.00    -0.001 C 
ATOM      5  C   UNL     1       4.748   6.735  13.835  1.00  0.00    -0.004 C 
ATOM      6  C   UNL     1       5.693   6.457  12.931  1.00  0.00    -0.020 C 
ATOM      7  C   UNL     1       7.164   6.472  13.313  1.00  0.00    -0.011 C 
ATOM      8  C   UNL     1       8.019   6.698  12.047  1.00  0.00     0.016 C 
ATOM      9  C   UNL     1       7.527   5.087  13.891  1.00  0.00     0.016 C 
ATOM     10  C   UNL     1       6.722   7.885  16.910  1.00  0.00     0.040 C 
ENDROOT
TORSDOF 0
ENDMDL
MODEL 8
REMARK VINA RESULT:    -4.454     13.202     14.962
REMARK INTER + INTRA:          -4.454
REMARK INTER:                  -4.454
REMARK INTRA:                   0.000
REMARK UNBOUND:                 0.000
REMARK SMILES CC1=CC=CC(C)(C)[C@H]1C
REMARK SMILES IDX 10 1 9 2 2 3 3 4 4 5 5 6 6 7 7 8 8 9 1 10
REMARK H PARENT
REMARK Flexibility Score: inf
ROOT
ATOM      1  C   UNL     1       5.058   6.638  13.280  1.00  0.00     0.013 C 
ATOM      2  C   UNL     1       5.992   6.650  14.506  1.00  0.00     0.021 C 
ATOM      3  C   UNL     1       7.394   6.278  14.043  1.00  0.00    -0.070 C 
ATOM      4  C   UNL     1       8.244   7.238  13.646  1.00  0.00    -0.001 C 
ATOM      5  C   UNL     1       7.885   8.663  13.768  1.00  0.00    -0.004 C 
ATOM      6  C   UNL     1       6.819   9.041  14.482  1.00  0.00    -0.020 C 
ATOM      7  C   UNL     1       6.008   8.024  15.268  1.00  0.00    -0.011 C 
ATOM      8  C   UNL     1       4.583   8.574  15.497  1.00  0.00     0.016 C 
ATOM      9  C   UNL     1       6.675   7.837  16.649  1.00  0.00     0.016 C 
ATOM     10  C   UNL     1       7.803   4.836  13.944  1.00  0.00     0.040 C 
ENDROOT
TORSDOF 0
ENDMDL
MODEL 9
REMARK VINA RESULT:    -4.445     14.548     16.305
REMARK INTER + INTRA:          -4.445
REMARK INTER:                  -4.445
REMARK INTRA:                   0.000
REMARK UNBOUND:                 0.000
REMARK SMILES CC1=CC=CC(C)(C)[C@H]1C
REMARK SMILES IDX 10 1 9 2 2 3 3 4 4 5 5 6 6 7 7 8 8 9 1 10
REMARK H PARENT
REMARK Flexibility Score: inf
ROOT
ATOM      1  C   UNL     1       7.454   5.285  14.177  1.00  0.00     0.013 C 
ATOM      2  C   UNL     1       6.482   6.235  13.450  1.00  0.00     0.021 C 
ATOM      3  C   UNL     1       6.486   7.572  14.177  1.00  0.00    -0.070 C 
ATOM      4  C   UNL     1       7.359   8.527  13.817  1.00  0.00    -0.001 C 
ATOM      5  C   UNL     1       8.235   8.347  12.645  1.00  0.00    -0.004 C 
ATOM      6  C   UNL     1       8.025   7.348  11.781  1.00  0.00    -0.020 C 
ATOM      7  C   UNL     1       6.821   6.432  11.928  1.00  0.00    -0.011 C 
ATOM      8  C   UNL     1       7.111   5.090  11.222  1.00  0.00     0.016 C 
ATOM      9  C   UNL     1       5.620   7.095  11.217  1.00  0.00     0.016 C 
ATOM     10  C   UNL     1       5.578   7.799  15.351  1.00  0.00     0.040 C 
ENDROOT
TORSDOF 0
ENDMDL
