MODEL 1
REMARK VINA RESULT:    -6.786      0.000      0.000
REMARK INTER + INTRA:         -12.502
REMARK INTER:                 -10.356
REMARK INTRA:                  -2.146
REMARK UNBOUND:                -2.146
REMARK SMILES CC(=O)CCC=C(C)CCC=C(C)CCC=C(C)C
REMARK SMILES IDX 10 1 11 2 12 3 13 4 14 5 15 6 16 7 18 8 17 9 19 10 9 11 7 12
REMARK SMILES IDX 6 13 8 14 5 15 4 16 2 17 3 18 1 19
REMARK H PARENT
REMARK Flexibility Score: inf
ROOT
ATOM      1  C   UNL     1      -3.883  -9.876  30.076  1.00  0.00     0.032 C 
ENDROOT
BRANCH   1   2
ATOM      2  C   UNL     1      -3.362 -10.362  28.746  1.00  0.00    -0.028 C 
ATOM      3  C   UNL     1      -3.825 -11.431  28.058  1.00  0.00    -0.077 C 
ATOM      4  C   UNL     1      -3.150 -11.788  26.758  1.00  0.00     0.039 C 
BRANCH   3   5
ATOM      5  C   UNL     1      -4.997 -12.272  28.525  1.00  0.00     0.034 C 
BRANCH   5   6
ATOM      6  C   UNL     1      -4.868 -13.736  28.082  1.00  0.00     0.032 C 
BRANCH   6   7
ATOM      7  C   UNL     1      -6.226 -14.383  27.938  1.00  0.00    -0.028 C 
ATOM      8  C   UNL     1      -6.422 -14.945  30.373  1.00  0.00     0.039 C 
ATOM      9  C   UNL     1      -6.946 -14.903  28.957  1.00  0.00    -0.080 C 
ATOM     10  C   UNL     1      -8.316 -15.455  28.659  1.00  0.00     0.039 C 
ENDBRANCH   6   7
ENDBRANCH   5   6
ENDBRANCH   3   5
ENDBRANCH   1   2
BRANCH   1  11
ATOM     11  C   UNL     1      -3.128 -10.513  31.258  1.00  0.00     0.034 C 
BRANCH  11  12
ATOM     12  C   UNL     1      -4.007 -11.424  32.100  1.00  0.00    -0.077 C 
ATOM     13  C   UNL     1      -3.959 -12.777  32.047  1.00  0.00    -0.028 C 
ATOM     14  C   UNL     1      -4.892 -10.802  33.154  1.00  0.00     0.039 C 
BRANCH  13  15
ATOM     15  C   UNL     1      -3.020 -13.602  31.198  1.00  0.00     0.035 C 
BRANCH  15  16
ATOM     16  C   UNL     1      -1.584 -13.633  31.733  1.00  0.00     0.079 C 
BRANCH  16  17
ATOM     17  C   UNL     1      -0.591 -13.089  30.739  1.00  0.00     0.130 C 
ATOM     18  O   UNL     1       0.405 -12.501  31.131  1.00  0.00    -0.300 OA
ATOM     19  C   UNL     1      -0.793 -13.304  29.270  1.00  0.00     0.087 C 
ENDBRANCH  16  17
ENDBRANCH  15  16
ENDBRANCH  13  15
ENDBRANCH  11  12
ENDBRANCH   1  11
TORSDOF 9
ENDMDL
MODEL 2
REMARK VINA RESULT:    -6.737      1.914      5.590
REMARK INTER + INTRA:         -12.428
REMARK INTER:                 -10.827
REMARK INTRA:                  -1.600
REMARK UNBOUND:                -2.146
REMARK SMILES CC(=O)CCC=C(C)CCC=C(C)CCC=C(C)C
REMARK SMILES IDX 10 1 11 2 12 3 13 4 14 5 15 6 16 7 18 8 17 9 19 10 9 11 7 12
REMARK SMILES IDX 6 13 8 14 5 15 4 16 2 17 3 18 1 19
REMARK H PARENT
REMARK Flexibility Score: inf
ROOT
ATOM      1  C   UNL     1      -4.813 -11.010  29.025  1.00  0.00     0.032 C 
ENDROOT
BRANCH   1   2
ATOM      2  C   UNL     1      -4.679 -10.513  30.443  1.00  0.00    -0.028 C 
ATOM      3  C   UNL     1      -4.559 -11.289  31.545  1.00  0.00    -0.077 C 
ATOM      4  C   UNL     1      -4.474 -10.609  32.889  1.00  0.00     0.039 C 
BRANCH   3   5
ATOM      5  C   UNL     1      -4.490 -12.802  31.489  1.00  0.00     0.034 C 
BRANCH   5   6
ATOM      6  C   UNL     1      -3.081 -13.327  31.798  1.00  0.00     0.032 C 
BRANCH   6   7
ATOM      7  C   UNL     1      -2.327 -13.645  30.529  1.00  0.00    -0.028 C 
ATOM      8  C   UNL     1      -0.198 -12.576  31.309  1.00  0.00     0.039 C 
ATOM      9  C   UNL     1      -1.028 -13.341  30.306  1.00  0.00    -0.080 C 
ATOM     10  C   UNL     1      -0.400 -13.786  29.010  1.00  0.00     0.039 C 
ENDBRANCH   6   7
ENDBRANCH   5   6
ENDBRANCH   3   5
ENDBRANCH   1   2
BRANCH   1  11
ATOM     11  C   UNL     1      -3.441 -11.236  28.362  1.00  0.00     0.034 C 
BRANCH  11  12
ATOM     12  C   UNL     1      -3.532 -12.030  27.068  1.00  0.00    -0.077 C 
ATOM     13  C   UNL     1      -4.094 -13.258  26.975  1.00  0.00    -0.028 C 
ATOM     14  C   UNL     1      -3.096 -11.367  25.783  1.00  0.00     0.039 C 
BRANCH  13  15
ATOM     15  C   UNL     1      -4.754 -14.022  28.100  1.00  0.00     0.035 C 
BRANCH  15  16
ATOM     16  C   UNL     1      -6.068 -14.697  27.690  1.00  0.00     0.079 C 
BRANCH  16  17
ATOM     17  C   UNL     1      -6.924 -15.051  28.879  1.00  0.00     0.130 C 
ATOM     18  O   UNL     1      -6.436 -15.068  29.998  1.00  0.00    -0.300 OA
ATOM     19  C   UNL     1      -8.384 -15.339  28.702  1.00  0.00     0.087 C 
ENDBRANCH  16  17
ENDBRANCH  15  16
ENDBRANCH  13  15
ENDBRANCH  11  12
ENDBRANCH   1  11
TORSDOF 9
ENDMDL
MODEL 3
REMARK VINA RESULT:    -6.601      2.002      5.528
REMARK INTER + INTRA:         -12.220
REMARK INTER:                 -10.216
REMARK INTRA:                  -2.004
REMARK UNBOUND:                -2.146
REMARK SMILES CC(=O)CCC=C(C)CCC=C(C)CCC=C(C)C
REMARK SMILES IDX 10 1 11 2 12 3 13 4 14 5 15 6 16 7 18 8 17 9 19 10 9 11 7 12
REMARK SMILES IDX 6 13 8 14 5 15 4 16 2 17 3 18 1 19
REMARK H PARENT
REMARK Flexibility Score: inf
ROOT
ATOM      1  C   UNL     1      -1.800 -13.393  28.369  1.00  0.00     0.032 C 
ENDROOT
BRANCH   1   2
ATOM      2  C   UNL     1      -0.863 -13.034  29.496  1.00  0.00    -0.028 C 
ATOM      3  C   UNL     1      -1.157 -13.086  30.815  1.00  0.00    -0.077 C 
ATOM      4  C   UNL     1      -0.099 -12.650  31.798  1.00  0.00     0.039 C 
BRANCH   3   5
ATOM      5  C   UNL     1      -2.488 -13.577  31.349  1.00  0.00     0.034 C 
BRANCH   5   6
ATOM      6  C   UNL     1      -3.244 -12.479  32.110  1.00  0.00     0.032 C 
BRANCH   6   7
ATOM      7  C   UNL     1      -4.267 -11.807  31.225  1.00  0.00    -0.028 C 
ATOM      8  C   UNL     1      -2.775  -9.875  30.655  1.00  0.00     0.039 C 
ATOM      9  C   UNL     1      -4.063 -10.657  30.544  1.00  0.00    -0.080 C 
ATOM     10  C   UNL     1      -5.163 -10.149  29.648  1.00  0.00     0.039 C 
ENDBRANCH   6   7
ENDBRANCH   5   6
ENDBRANCH   3   5
ENDBRANCH   1   2
BRANCH   1  11
ATOM     11  C   UNL     1      -2.560 -12.162  27.837  1.00  0.00     0.034 C 
BRANCH  11  12
ATOM     12  C   UNL     1      -3.444 -12.483  26.642  1.00  0.00    -0.077 C 
ATOM     13  C   UNL     1      -4.392 -13.450  26.644  1.00  0.00    -0.028 C 
ATOM     14  C   UNL     1      -3.362 -11.592  25.425  1.00  0.00     0.039 C 
BRANCH  13  15
ATOM     15  C   UNL     1      -4.761 -14.331  27.814  1.00  0.00     0.035 C 
BRANCH  15  16
ATOM     16  C   UNL     1      -5.805 -13.702  28.745  1.00  0.00     0.079 C 
BRANCH  16  17
ATOM     17  C   UNL     1      -6.665 -14.737  29.423  1.00  0.00     0.130 C 
ATOM     18  O   UNL     1      -6.389 -15.116  30.550  1.00  0.00    -0.300 OA
ATOM     19  C   UNL     1      -7.887 -15.273  28.739  1.00  0.00     0.087 C 
ENDBRANCH  16  17
ENDBRANCH  15  16
ENDBRANCH  13  15
ENDBRANCH  11  12
ENDBRANCH   1  11
TORSDOF 9
ENDMDL
MODEL 4
REMARK VINA RESULT:    -6.529      1.902      4.942
REMARK INTER + INTRA:         -12.110
REMARK INTER:                 -10.336
REMARK INTRA:                  -1.774
REMARK UNBOUND:                -2.146
REMARK SMILES CC(=O)CCC=C(C)CCC=C(C)CCC=C(C)C
REMARK SMILES IDX 10 1 11 2 12 3 13 4 14 5 15 6 16 7 18 8 17 9 19 10 9 11 7 12
REMARK SMILES IDX 6 13 8 14 5 15 4 16 2 17 3 18 1 19
REMARK H PARENT
REMARK Flexibility Score: inf
ROOT
ATOM      1  C   UNL     1      -4.721 -14.491  27.543  1.00  0.00     0.032 C 
ENDROOT
BRANCH   1   2
ATOM      2  C   UNL     1      -4.074 -13.526  26.580  1.00  0.00    -0.028 C 
ATOM      3  C   UNL     1      -3.718 -12.251  26.859  1.00  0.00    -0.077 C 
ATOM      4  C   UNL     1      -3.115 -11.422  25.753  1.00  0.00     0.039 C 
BRANCH   3   5
ATOM      5  C   UNL     1      -3.880 -11.627  28.231  1.00  0.00     0.034 C 
BRANCH   5   6
ATOM      6  C   UNL     1      -2.564 -11.035  28.755  1.00  0.00     0.032 C 
BRANCH   6   7
ATOM      7  C   UNL     1      -2.138 -11.707  30.039  1.00  0.00    -0.028 C 
ATOM      8  C   UNL     1      -0.873 -13.534  28.880  1.00  0.00     0.039 C 
ATOM      9  C   UNL     1      -1.357 -12.809  30.113  1.00  0.00    -0.080 C 
ATOM     10  C   UNL     1      -0.965 -13.319  31.475  1.00  0.00     0.039 C 
ENDBRANCH   6   7
ENDBRANCH   5   6
ENDBRANCH   3   5
ENDBRANCH   1   2
BRANCH   1  11
ATOM     11  C   UNL     1      -6.158 -14.067  27.905  1.00  0.00     0.034 C 
BRANCH  11  12
ATOM     12  C   UNL     1      -6.715 -14.824  29.100  1.00  0.00    -0.077 C 
ATOM     13  C   UNL     1      -6.140 -14.825  30.327  1.00  0.00    -0.028 C 
ATOM     14  C   UNL     1      -8.054 -15.509  28.961  1.00  0.00     0.039 C 
BRANCH  13  15
ATOM     15  C   UNL     1      -4.902 -14.059  30.729  1.00  0.00     0.035 C 
BRANCH  15  16
ATOM     16  C   UNL     1      -4.560 -14.191  32.218  1.00  0.00     0.079 C 
BRANCH  16  17
ATOM     17  C   UNL     1      -5.021 -13.000  33.019  1.00  0.00     0.130 C 
ATOM     18  O   UNL     1      -5.712 -13.165  34.012  1.00  0.00    -0.300 OA
ATOM     19  C   UNL     1      -4.599 -11.616  32.630  1.00  0.00     0.087 C 
ENDBRANCH  16  17
ENDBRANCH  15  16
ENDBRANCH  13  15
ENDBRANCH  11  12
ENDBRANCH   1  11
TORSDOF 9
ENDMDL
MODEL 5
REMARK VINA RESULT:    -6.487      2.149      4.164
REMARK INTER + INTRA:         -12.047
REMARK INTER:                  -9.545
REMARK INTRA:                  -2.501
REMARK UNBOUND:                -2.146
REMARK SMILES CC(=O)CCC=C(C)CCC=C(C)CCC=C(C)C
REMARK SMILES IDX 10 1 11 2 12 3 13 4 14 5 15 6 16 7 18 8 17 9 19 10 9 11 7 12
REMARK SMILES IDX 6 13 8 14 5 15 4 16 2 17 3 18 1 19
REMARK H PARENT
REMARK Flexibility Score: inf
ROOT
ATOM      1  C   UNL     1      -5.198 -10.943  29.437  1.00  0.00     0.032 C 
ENDROOT
BRANCH   1   2
ATOM      2  C   UNL     1      -4.320 -10.756  28.224  1.00  0.00    -0.028 C 
ATOM      3  C   UNL     1      -3.828 -11.747  27.444  1.00  0.00    -0.077 C 
ATOM      4  C   UNL     1      -2.932 -11.366  26.292  1.00  0.00     0.039 C 
BRANCH   3   5
ATOM      5  C   UNL     1      -4.148 -13.212  27.665  1.00  0.00     0.034 C 
BRANCH   5   6
ATOM      6  C   UNL     1      -2.889 -14.040  27.955  1.00  0.00     0.032 C 
BRANCH   6   7
ATOM      7  C   UNL     1      -2.218 -13.583  29.230  1.00  0.00    -0.028 C 
ATOM      8  C   UNL     1       0.079 -14.243  28.474  1.00  0.00     0.039 C 
ATOM      9  C   UNL     1      -0.888 -13.641  29.466  1.00  0.00    -0.080 C 
ATOM     10  C   UNL     1      -0.365 -13.083  30.764  1.00  0.00     0.039 C 
ENDBRANCH   6   7
ENDBRANCH   5   6
ENDBRANCH   3   5
ENDBRANCH   1   2
BRANCH   1  11
ATOM     11  C   UNL     1      -4.746 -10.061  30.616  1.00  0.00     0.034 C 
BRANCH  11  12
ATOM     12  C   UNL     1      -3.442 -10.532  31.242  1.00  0.00    -0.077 C 
ATOM     13  C   UNL     1      -3.349 -11.590  32.082  1.00  0.00    -0.028 C 
ATOM     14  C   UNL     1      -2.154  -9.875  30.806  1.00  0.00     0.039 C 
BRANCH  13  15
ATOM     15  C   UNL     1      -4.483 -12.496  32.502  1.00  0.00     0.035 C 
BRANCH  15  16
ATOM     16  C   UNL     1      -4.191 -13.984  32.276  1.00  0.00     0.079 C 
BRANCH  16  17
ATOM     17  C   UNL     1      -5.402 -14.737  31.791  1.00  0.00     0.130 C 
ATOM     18  O   UNL     1      -5.969 -15.523  32.535  1.00  0.00    -0.300 OA
ATOM     19  C   UNL     1      -5.945 -14.496  30.415  1.00  0.00     0.087 C 
ENDBRANCH  16  17
ENDBRANCH  15  16
ENDBRANCH  13  15
ENDBRANCH  11  12
ENDBRANCH   1  11
TORSDOF 9
ENDMDL
MODEL 6
REMARK VINA RESULT:    -6.406      1.136      3.438
REMARK INTER + INTRA:         -11.923
REMARK INTER:                 -10.071
REMARK INTRA:                  -1.852
REMARK UNBOUND:                -2.146
REMARK SMILES CC(=O)CCC=C(C)CCC=C(C)CCC=C(C)C
REMARK SMILES IDX 10 1 11 2 12 3 13 4 14 5 15 6 16 7 18 8 17 9 19 10 9 11 7 12
REMARK SMILES IDX 6 13 8 14 5 15 4 16 2 17 3 18 1 19
REMARK H PARENT
REMARK Flexibility Score: inf
ROOT
ATOM      1  C   UNL     1      -4.727 -11.165  29.342  1.00  0.00     0.032 C 
ENDROOT
BRANCH   1   2
ATOM      2  C   UNL     1      -4.911 -10.868  30.810  1.00  0.00    -0.028 C 
ATOM      3  C   UNL     1      -4.816 -11.768  31.816  1.00  0.00    -0.077 C 
ATOM      4  C   UNL     1      -5.071 -11.290  33.224  1.00  0.00     0.039 C 
BRANCH   3   5
ATOM      5  C   UNL     1      -4.452 -13.223  31.596  1.00  0.00     0.034 C 
BRANCH   5   6
ATOM      6  C   UNL     1      -5.557 -13.989  30.858  1.00  0.00     0.032 C 
BRANCH   6   7
ATOM      7  C   UNL     1      -5.172 -14.253  29.421  1.00  0.00    -0.028 C 
ATOM      8  C   UNL     1      -7.516 -14.769  28.695  1.00  0.00     0.039 C 
ATOM      9  C   UNL     1      -6.040 -14.575  28.435  1.00  0.00    -0.080 C 
ATOM     10  C   UNL     1      -5.507 -14.742  27.036  1.00  0.00     0.039 C 
ENDBRANCH   6   7
ENDBRANCH   5   6
ENDBRANCH   3   5
ENDBRANCH   1   2
BRANCH   1  11
ATOM     11  C   UNL     1      -3.286 -10.886  28.874  1.00  0.00     0.034 C 
BRANCH  11  12
ATOM     12  C   UNL     1      -2.817 -11.849  27.795  1.00  0.00    -0.077 C 
ATOM     13  C   UNL     1      -2.112 -12.978  28.047  1.00  0.00    -0.028 C 
ATOM     14  C   UNL     1      -3.270 -11.616  26.373  1.00  0.00     0.039 C 
BRANCH  13  15
ATOM     15  C   UNL     1      -1.714 -13.493  29.410  1.00  0.00     0.035 C 
BRANCH  15  16
ATOM     16  C   UNL     1      -0.247 -13.220  29.760  1.00  0.00     0.079 C 
BRANCH  16  17
ATOM     17  C   UNL     1      -0.087 -12.633  31.139  1.00  0.00     0.130 C 
ATOM     18  O   UNL     1       1.003 -12.659  31.690  1.00  0.00    -0.300 OA
ATOM     19  C   UNL     1      -1.248 -11.975  31.823  1.00  0.00     0.087 C 
ENDBRANCH  16  17
ENDBRANCH  15  16
ENDBRANCH  13  15
ENDBRANCH  11  12
ENDBRANCH   1  11
TORSDOF 9
ENDMDL
MODEL 7
REMARK VINA RESULT:    -6.384      1.493      4.111
REMARK INTER + INTRA:         -11.889
REMARK INTER:                  -9.953
REMARK INTRA:                  -1.935
REMARK UNBOUND:                -2.146
REMARK SMILES CC(=O)CCC=C(C)CCC=C(C)CCC=C(C)C
REMARK SMILES IDX 10 1 11 2 12 3 13 4 14 5 15 6 16 7 18 8 17 9 19 10 9 11 7 12
REMARK SMILES IDX 6 13 8 14 5 15 4 16 2 17 3 18 1 19
REMARK H PARENT
REMARK Flexibility Score: inf
ROOT
ATOM      1  C   UNL     1      -4.542 -14.113  26.643  1.00  0.00     0.032 C 
ENDROOT
BRANCH   1   2
ATOM      2  C   UNL     1      -5.575 -14.780  27.519  1.00  0.00    -0.028 C 
ATOM      3  C   UNL     1      -6.222 -14.204  28.557  1.00  0.00    -0.077 C 
ATOM      4  C   UNL     1      -7.197 -15.044  29.343  1.00  0.00     0.039 C 
BRANCH   3   5
ATOM      5  C   UNL     1      -6.025 -12.754  28.955  1.00  0.00     0.034 C 
BRANCH   5   6
ATOM      6  C   UNL     1      -4.919 -12.589  30.005  1.00  0.00     0.032 C 
BRANCH   6   7
ATOM      7  C   UNL     1      -4.761 -13.843  30.833  1.00  0.00    -0.028 C 
ATOM      8  C   UNL     1      -4.954 -12.641  33.024  1.00  0.00     0.039 C 
ATOM      9  C   UNL     1      -4.803 -13.887  32.184  1.00  0.00    -0.080 C 
ATOM     10  C   UNL     1      -4.696 -15.229  32.861  1.00  0.00     0.039 C 
ENDBRANCH   6   7
ENDBRANCH   5   6
ENDBRANCH   3   5
ENDBRANCH   1   2
BRANCH   1  11
ATOM     11  C   UNL     1      -3.135 -14.169  27.268  1.00  0.00     0.034 C 
BRANCH  11  12
ATOM     12  C   UNL     1      -2.575 -12.793  27.593  1.00  0.00    -0.077 C 
ATOM     13  C   UNL     1      -1.550 -12.580  28.453  1.00  0.00    -0.028 C 
ATOM     14  C   UNL     1      -3.093 -11.603  26.821  1.00  0.00     0.039 C 
BRANCH  13  15
ATOM     15  C   UNL     1      -0.771 -13.644  29.189  1.00  0.00     0.035 C 
BRANCH  15  16
ATOM     16  C   UNL     1      -1.144 -13.756  30.672  1.00  0.00     0.079 C 
BRANCH  16  17
ATOM     17  C   UNL     1      -0.569 -12.631  31.493  1.00  0.00     0.130 C 
ATOM     18  O   UNL     1       0.635 -12.574  31.691  1.00  0.00    -0.300 OA
ATOM     19  C   UNL     1      -1.460 -11.554  32.032  1.00  0.00     0.087 C 
ENDBRANCH  16  17
ENDBRANCH  15  16
ENDBRANCH  13  15
ENDBRANCH  11  12
ENDBRANCH   1  11
TORSDOF 9
ENDMDL
MODEL 8
REMARK VINA RESULT:    -6.289      1.455      3.556
REMARK INTER + INTRA:         -11.744
REMARK INTER:                  -9.484
REMARK INTRA:                  -2.260
REMARK UNBOUND:                -2.146
REMARK SMILES CC(=O)CCC=C(C)CCC=C(C)CCC=C(C)C
REMARK SMILES IDX 10 1 11 2 12 3 13 4 14 5 15 6 16 7 18 8 17 9 19 10 9 11 7 12
REMARK SMILES IDX 6 13 8 14 5 15 4 16 2 17 3 18 1 19
REMARK H PARENT
REMARK Flexibility Score: inf
ROOT
ATOM      1  C   UNL     1      -3.050 -11.834  31.430  1.00  0.00     0.032 C 
ENDROOT
BRANCH   1   2
ATOM      2  C   UNL     1      -4.062 -11.837  32.549  1.00  0.00    -0.028 C 
ATOM      3  C   UNL     1      -4.854 -12.878  32.895  1.00  0.00    -0.077 C 
ATOM      4  C   UNL     1      -5.837 -12.681  34.022  1.00  0.00     0.039 C 
BRANCH   3   5
ATOM      5  C   UNL     1      -4.786 -14.232  32.217  1.00  0.00     0.034 C 
BRANCH   5   6
ATOM      6  C   UNL     1      -5.940 -14.441  31.228  1.00  0.00     0.032 C 
BRANCH   6   7
ATOM      7  C   UNL     1      -5.445 -14.425  29.801  1.00  0.00    -0.028 C 
ATOM      8  C   UNL     1      -7.654 -15.110  28.833  1.00  0.00     0.039 C 
ATOM      9  C   UNL     1      -6.206 -14.694  28.716  1.00  0.00    -0.080 C 
ATOM     10  C   UNL     1      -5.579 -14.570  27.352  1.00  0.00     0.039 C 
ENDBRANCH   6   7
ENDBRANCH   5   6
ENDBRANCH   3   5
ENDBRANCH   1   2
BRANCH   1  11
ATOM     11  C   UNL     1      -3.264 -10.653  30.463  1.00  0.00     0.034 C 
BRANCH  11  12
ATOM     12  C   UNL     1      -4.185 -10.998  29.303  1.00  0.00    -0.077 C 
ATOM     13  C   UNL     1      -3.779 -11.642  28.183  1.00  0.00    -0.028 C 
ATOM     14  C   UNL     1      -5.664 -10.732  29.453  1.00  0.00     0.039 C 
BRANCH  13  15
ATOM     15  C   UNL     1      -2.386 -12.160  27.911  1.00  0.00     0.035 C 
BRANCH  15  16
ATOM     16  C   UNL     1      -2.163 -13.597  28.398  1.00  0.00     0.079 C 
BRANCH  16  17
ATOM     17  C   UNL     1      -0.753 -13.826  28.879  1.00  0.00     0.130 C 
ATOM     18  O   UNL     1       0.042 -14.424  28.170  1.00  0.00    -0.300 OA
ATOM     19  C   UNL     1      -0.306 -13.287  30.204  1.00  0.00     0.087 C 
ENDBRANCH  16  17
ENDBRANCH  15  16
ENDBRANCH  13  15
ENDBRANCH  11  12
ENDBRANCH   1  11
TORSDOF 9
ENDMDL
MODEL 9
REMARK VINA RESULT:    -6.253      1.272      2.531
REMARK INTER + INTRA:         -11.689
REMARK INTER:                  -9.275
REMARK INTRA:                  -2.414
REMARK UNBOUND:                -2.146
REMARK SMILES CC(=O)CCC=C(C)CCC=C(C)CCC=C(C)C
REMARK SMILES IDX 10 1 11 2 12 3 13 4 14 5 15 6 16 7 18 8 17 9 19 10 9 11 7 12
REMARK SMILES IDX 6 13 8 14 5 15 4 16 2 17 3 18 1 19
REMARK H PARENT
REMARK Flexibility Score: inf
ROOT
ATOM      1  C   UNL     1      -5.154 -11.318  32.326  1.00  0.00     0.032 C 
ENDROOT
BRANCH   1   2
ATOM      2  C   UNL     1      -3.879 -10.745  31.758  1.00  0.00    -0.028 C 
ATOM      3  C   UNL     1      -3.675 -10.398  30.466  1.00  0.00    -0.077 C 
ATOM      4  C   UNL     1      -2.315  -9.875  30.076  1.00  0.00     0.039 C 
BRANCH   3   5
ATOM      5  C   UNL     1      -4.751 -10.494  29.402  1.00  0.00     0.034 C 
BRANCH   5   6
ATOM      6  C   UNL     1      -4.633 -11.783  28.578  1.00  0.00     0.032 C 
BRANCH   6   7
ATOM      7  C   UNL     1      -5.621 -12.824  29.048  1.00  0.00    -0.028 C 
ATOM      8  C   UNL     1      -5.008 -14.477  27.266  1.00  0.00     0.039 C 
ATOM      9  C   UNL     1      -5.781 -14.045  28.490  1.00  0.00    -0.080 C 
ATOM     10  C   UNL     1      -6.765 -14.997  29.119  1.00  0.00     0.039 C 
ENDBRANCH   6   7
ENDBRANCH   5   6
ENDBRANCH   3   5
ENDBRANCH   1   2
BRANCH   1  11
ATOM     11  C   UNL     1      -4.884 -12.525  33.245  1.00  0.00     0.034 C 
BRANCH  11  12
ATOM     12  C   UNL     1      -4.900 -13.851  32.501  1.00  0.00    -0.077 C 
ATOM     13  C   UNL     1      -3.865 -14.311  31.758  1.00  0.00    -0.028 C 
ATOM     14  C   UNL     1      -6.076 -14.777  32.701  1.00  0.00     0.039 C 
BRANCH  13  15
ATOM     15  C   UNL     1      -2.529 -13.630  31.575  1.00  0.00     0.035 C 
BRANCH  15  16
ATOM     16  C   UNL     1      -2.007 -13.687  30.135  1.00  0.00     0.079 C 
BRANCH  16  17
ATOM     17  C   UNL     1      -0.558 -13.286  30.035  1.00  0.00     0.130 C 
ATOM     18  O   UNL     1       0.053 -13.463  28.992  1.00  0.00    -0.300 OA
ATOM     19  C   UNL     1       0.128 -12.627  31.193  1.00  0.00     0.087 C 
ENDBRANCH  16  17
ENDBRANCH  15  16
ENDBRANCH  13  15
ENDBRANCH  11  12
ENDBRANCH   1  11
TORSDOF 9
ENDMDL
