MODEL 1
REMARK VINA RESULT:    -2.125      0.000      0.000
REMARK INTER + INTRA:          -2.125
REMARK INTER:                  -2.125
REMARK INTRA:                   0.000
REMARK UNBOUND:                 0.000
REMARK SMILES CC(=O)[O-]
REMARK SMILES IDX 1 1 2 2 3 3 4 4
REMARK H PARENT
REMARK Flexibility Score: inf
ROOT
ATOM      1  C   UNL     1     -95.956 -29.545  85.474  1.00  0.00     0.063 C 
ATOM      2  C   UNL     1     -96.370 -28.378  84.645  1.00  0.00     0.038 C 
ATOM      3  O   UNL     1     -96.838 -27.347  85.196  1.00  0.00    -0.550 OA
ATOM      4  O   UNL     1     -96.293 -28.445  83.260  1.00  0.00    -0.550 OA
ENDROOT
TORSDOF 0
ENDMDL
MODEL 2
REMARK VINA RESULT:    -2.108      0.150      1.621
REMARK INTER + INTRA:          -2.108
REMARK INTER:                  -2.108
REMARK INTRA:                   0.000
REMARK UNBOUND:                 0.000
REMARK SMILES CC(=O)[O-]
REMARK SMILES IDX 1 1 2 2 3 3 4 4
REMARK H PARENT
REMARK Flexibility Score: inf
ROOT
ATOM      1  C   UNL     1     -95.979 -29.481  85.417  1.00  0.00     0.063 C 
ATOM      2  C   UNL     1     -96.444 -28.358  84.553  1.00  0.00     0.038 C 
ATOM      3  O   UNL     1     -96.244 -28.392  83.311  1.00  0.00    -0.550 OA
ATOM      4  O   UNL     1     -97.049 -27.246  85.124  1.00  0.00    -0.550 OA
ENDROOT
TORSDOF 0
ENDMDL
MODEL 3
REMARK VINA RESULT:    -2.040      1.540      1.855
REMARK INTER + INTRA:          -2.040
REMARK INTER:                  -2.040
REMARK INTRA:                   0.000
REMARK UNBOUND:                 0.000
REMARK SMILES CC(=O)[O-]
REMARK SMILES IDX 1 1 2 2 3 3 4 4
REMARK H PARENT
REMARK Flexibility Score: inf
ROOT
ATOM      1  C   UNL     1     -96.679 -28.295  83.591  1.00  0.00     0.063 C 
ATOM      2  C   UNL     1     -96.283 -28.524  85.010  1.00  0.00     0.038 C 
ATOM      3  O   UNL     1     -96.005 -27.548  85.754  1.00  0.00    -0.550 OA
ATOM      4  O   UNL     1     -96.164 -29.819  85.499  1.00  0.00    -0.550 OA
ENDROOT
TORSDOF 0
ENDMDL
MODEL 4
REMARK VINA RESULT:    -2.023     11.769     12.130
REMARK INTER + INTRA:          -2.023
REMARK INTER:                  -2.023
REMARK INTRA:                   0.000
REMARK UNBOUND:                 0.000
REMARK SMILES CC(=O)[O-]
REMARK SMILES IDX 1 1 2 2 3 3 4 4
REMARK H PARENT
REMARK Flexibility Score: inf
ROOT
ATOM      1  C   UNL     1     -97.182 -40.857  87.503  1.00  0.00     0.063 C 
ATOM      2  C   UNL     1     -97.408 -39.790  88.519  1.00  0.00     0.038 C 
ATOM      3  O   UNL     1     -98.188 -39.994  89.485  1.00  0.00    -0.550 OA
ATOM      4  O   UNL     1     -96.801 -38.549  88.372  1.00  0.00    -0.550 OA
ENDROOT
TORSDOF 0
ENDMDL
MODEL 5
REMARK VINA RESULT:    -1.925     11.703     12.096
REMARK INTER + INTRA:          -1.925
REMARK INTER:                  -1.925
REMARK INTRA:                   0.000
REMARK UNBOUND:                 0.000
REMARK SMILES CC(=O)[O-]
REMARK SMILES IDX 1 1 2 2 3 3 4 4
REMARK H PARENT
REMARK Flexibility Score: inf
ROOT
ATOM      1  C   UNL     1     -98.027 -40.245  89.592  1.00  0.00     0.063 C 
ATOM      2  C   UNL     1     -97.266 -39.810  88.386  1.00  0.00     0.038 C 
ATOM      3  O   UNL     1     -96.829 -38.632  88.306  1.00  0.00    -0.550 OA
ATOM      4  O   UNL     1     -97.084 -40.687  87.324  1.00  0.00    -0.550 OA
ENDROOT
TORSDOF 0
ENDMDL
MODEL 6
REMARK VINA RESULT:    -1.815     13.184     13.481
REMARK INTER + INTRA:          -1.815
REMARK INTER:                  -1.815
REMARK INTRA:                   0.000
REMARK UNBOUND:                 0.000
REMARK SMILES CC(=O)[O-]
REMARK SMILES IDX 1 1 2 2 3 3 4 4
REMARK H PARENT
REMARK Flexibility Score: inf
ROOT
ATOM      1  C   UNL     1     -97.196 -40.119  87.999  1.00  0.00     0.063 C 
ATOM      2  C   UNL     1     -97.084 -41.499  87.446  1.00  0.00     0.038 C 
ATOM      3  O   UNL     1     -95.977 -42.097  87.460  1.00  0.00    -0.550 OA
ATOM      4  O   UNL     1     -98.190 -42.107  86.865  1.00  0.00    -0.550 OA
ENDROOT
TORSDOF 0
ENDMDL
MODEL 7
REMARK VINA RESULT:    -1.812      1.397      2.151
REMARK INTER + INTRA:          -1.812
REMARK INTER:                  -1.812
REMARK INTRA:                   0.000
REMARK UNBOUND:                 0.000
REMARK SMILES CC(=O)[O-]
REMARK SMILES IDX 1 1 2 2 3 3 4 4
REMARK H PARENT
REMARK Flexibility Score: inf
ROOT
ATOM      1  C   UNL     1     -97.323 -27.160  84.803  1.00  0.00     0.063 C 
ATOM      2  C   UNL     1     -96.505 -28.302  84.303  1.00  0.00     0.038 C 
ATOM      3  O   UNL     1     -96.195 -28.371  83.085  1.00  0.00    -0.550 OA
ATOM      4  O   UNL     1     -96.129 -29.320  85.170  1.00  0.00    -0.550 OA
ENDROOT
TORSDOF 0
ENDMDL
MODEL 8
REMARK VINA RESULT:    -1.799      1.184      1.944
REMARK INTER + INTRA:          -1.799
REMARK INTER:                  -1.799
REMARK INTRA:                   0.000
REMARK UNBOUND:                 0.000
REMARK SMILES CC(=O)[O-]
REMARK SMILES IDX 1 1 2 2 3 3 4 4
REMARK H PARENT
REMARK Flexibility Score: inf
ROOT
ATOM      1  C   UNL     1     -96.258 -28.642  84.976  1.00  0.00     0.063 C 
ATOM      2  C   UNL     1     -96.793 -27.338  84.492  1.00  0.00     0.038 C 
ATOM      3  O   UNL     1     -96.299 -26.792  83.471  1.00  0.00    -0.550 OA
ATOM      4  O   UNL     1     -97.802 -26.694  85.198  1.00  0.00    -0.550 OA
ENDROOT
TORSDOF 0
ENDMDL
MODEL 9
REMARK VINA RESULT:    -1.779      1.419      1.766
REMARK INTER + INTRA:          -1.779
REMARK INTER:                  -1.779
REMARK INTRA:                   0.000
REMARK UNBOUND:                 0.000
REMARK SMILES CC(=O)[O-]
REMARK SMILES IDX 1 1 2 2 3 3 4 4
REMARK H PARENT
REMARK Flexibility Score: inf
ROOT
ATOM      1  C   UNL     1     -97.330 -27.159  84.813  1.00  0.00     0.063 C 
ATOM      2  C   UNL     1     -96.520 -28.253  84.206  1.00  0.00     0.038 C 
ATOM      3  O   UNL     1     -96.051 -29.169  84.933  1.00  0.00    -0.550 OA
ATOM      4  O   UNL     1     -96.233 -28.237  82.847  1.00  0.00    -0.550 OA
ENDROOT
TORSDOF 0
ENDMDL
