MODEL 1
REMARK VINA RESULT:    -4.703      0.000      0.000
REMARK INTER + INTRA:          -9.191
REMARK INTER:                  -8.001
REMARK INTRA:                  -1.189
REMARK UNBOUND:                -1.189
REMARK SMILES CCCCCCCCCCCCCC(=O)[O-]
REMARK SMILES IDX 8 1 9 2 10 3 11 4 12 5 13 6 14 7 15 8 16 9 7 10 6 11 5 12
REMARK SMILES IDX 4 13 3 14 2 15 1 16
REMARK H PARENT
REMARK Flexibility Score: inf
ROOT
ATOM      1  C   UNL     1      53.728  23.705  48.789  1.00  0.00     0.000 C 
ENDROOT
BRANCH   1   2
ATOM      2  C   UNL     1      53.363  24.469  50.073  1.00  0.00     0.000 C 
BRANCH   2   3
ATOM      3  C   UNL     1      53.539  23.613  51.340  1.00  0.00     0.000 C 
BRANCH   3   4
ATOM      4  C   UNL     1      54.506  22.434  51.122  1.00  0.00     0.000 C 
BRANCH   4   5
ATOM      5  C   UNL     1      54.804  21.665  52.419  1.00  0.00     0.006 C 
BRANCH   5   6
ATOM      6  C   UNL     1      56.305  21.420  52.633  1.00  0.00     0.053 C 
BRANCH   6   7
ATOM      7  C   UNL     1      56.727  21.880  53.994  1.00  0.00     0.041 C 
ATOM      8  O   UNL     1      57.066  23.080  54.181  1.00  0.00    -0.550 OA
ATOM      9  O   UNL     1      56.763  20.980  55.055  1.00  0.00    -0.550 OA
ENDBRANCH   6   7
ENDBRANCH   5   6
ENDBRANCH   4   5
ENDBRANCH   3   4
ENDBRANCH   2   3
ENDBRANCH   1   2
BRANCH   1  10
ATOM     10  C   UNL     1      53.746  24.652  47.579  1.00  0.00     0.000 C 
BRANCH  10  11
ATOM     11  C   UNL     1      55.152  24.822  46.971  1.00  0.00    -0.000 C 
BRANCH  11  12
ATOM     12  C   UNL     1      56.298  24.180  47.780  1.00  0.00    -0.000 C 
BRANCH  12  13
ATOM     13  C   UNL     1      57.332  23.408  46.941  1.00  0.00    -0.000 C 
BRANCH  13  14
ATOM     14  C   UNL     1      57.234  21.886  47.129  1.00  0.00    -0.000 C 
BRANCH  14  15
ATOM     15  C   UNL     1      56.442  21.499  48.388  1.00  0.00    -0.003 C 
ATOM     16  C   UNL     1      56.369  19.985  48.593  1.00  0.00     0.004 C 
ENDBRANCH  14  15
ENDBRANCH  13  14
ENDBRANCH  12  13
ENDBRANCH  11  12
ENDBRANCH  10  11
ENDBRANCH   1  10
TORSDOF 12
ENDMDL
MODEL 2
REMARK VINA RESULT:    -4.660      1.598      2.241
REMARK INTER + INTRA:          -9.118
REMARK INTER:                  -7.898
REMARK INTRA:                  -1.220
REMARK UNBOUND:                -1.189
REMARK SMILES CCCCCCCCCCCCCC(=O)[O-]
REMARK SMILES IDX 8 1 9 2 10 3 11 4 12 5 13 6 14 7 15 8 16 9 7 10 6 11 5 12
REMARK SMILES IDX 4 13 3 14 2 15 1 16
REMARK H PARENT
REMARK Flexibility Score: inf
ROOT
ATOM      1  C   UNL     1      53.798  24.380  47.549  1.00  0.00     0.000 C 
ENDROOT
BRANCH   1   2
ATOM      2  C   UNL     1      53.486  25.085  48.879  1.00  0.00     0.000 C 
BRANCH   2   3
ATOM      3  C   UNL     1      53.475  24.116  50.075  1.00  0.00     0.000 C 
BRANCH   3   4
ATOM      4  C   UNL     1      53.961  24.783  51.375  1.00  0.00     0.000 C 
BRANCH   4   5
ATOM      5  C   UNL     1      54.035  23.799  52.553  1.00  0.00     0.006 C 
BRANCH   5   6
ATOM      6  C   UNL     1      53.941  22.332  52.109  1.00  0.00     0.053 C 
BRANCH   6   7
ATOM      7  C   UNL     1      53.635  21.444  53.276  1.00  0.00     0.041 C 
ATOM      8  O   UNL     1      54.468  21.322  54.214  1.00  0.00    -0.550 OA
ATOM      9  O   UNL     1      52.437  20.737  53.320  1.00  0.00    -0.550 OA
ENDBRANCH   6   7
ENDBRANCH   5   6
ENDBRANCH   4   5
ENDBRANCH   3   4
ENDBRANCH   2   3
ENDBRANCH   1   2
BRANCH   1  10
ATOM     10  C   UNL     1      55.067  24.964  46.907  1.00  0.00     0.000 C 
BRANCH  10  11
ATOM     11  C   UNL     1      56.342  24.667  47.718  1.00  0.00    -0.000 C 
BRANCH  11  12
ATOM     12  C   UNL     1      57.237  23.549  47.145  1.00  0.00    -0.000 C 
BRANCH  12  13
ATOM     13  C   UNL     1      56.828  22.120  47.545  1.00  0.00    -0.000 C 
BRANCH  13  14
ATOM     14  C   UNL     1      56.144  22.060  48.920  1.00  0.00    -0.000 C 
BRANCH  14  15
ATOM     15  C   UNL     1      55.837  20.621  49.362  1.00  0.00    -0.003 C 
ATOM     16  C   UNL     1      56.723  19.590  48.660  1.00  0.00     0.004 C 
ENDBRANCH  14  15
ENDBRANCH  13  14
ENDBRANCH  12  13
ENDBRANCH  11  12
ENDBRANCH  10  11
ENDBRANCH   1  10
TORSDOF 12
ENDMDL
MODEL 3
REMARK VINA RESULT:    -4.574      2.250      2.597
REMARK INTER + INTRA:          -8.971
REMARK INTER:                  -7.767
REMARK INTRA:                  -1.204
REMARK UNBOUND:                -1.189
REMARK SMILES CCCCCCCCCCCCCC(=O)[O-]
REMARK SMILES IDX 8 1 9 2 10 3 11 4 12 5 13 6 14 7 15 8 16 9 7 10 6 11 5 12
REMARK SMILES IDX 4 13 3 14 2 15 1 16
REMARK H PARENT
REMARK Flexibility Score: inf
ROOT
ATOM      1  C   UNL     1      53.745  23.620  49.169  1.00  0.00     0.000 C 
ENDROOT
BRANCH   1   2
ATOM      2  C   UNL     1      53.347  24.642  50.247  1.00  0.00     0.000 C 
BRANCH   2   3
ATOM      3  C   UNL     1      53.951  24.315  51.624  1.00  0.00     0.000 C 
BRANCH   3   4
ATOM      4  C   UNL     1      54.650  22.943  51.647  1.00  0.00     0.000 C 
BRANCH   4   5
ATOM      5  C   UNL     1      53.902  21.912  52.506  1.00  0.00     0.006 C 
BRANCH   5   6
ATOM      6  C   UNL     1      52.709  22.519  53.260  1.00  0.00     0.053 C 
BRANCH   6   7
ATOM      7  C   UNL     1      51.799  21.443  53.766  1.00  0.00     0.041 C 
ATOM      8  O   UNL     1      50.673  21.741  54.248  1.00  0.00    -0.550 OA
ATOM      9  O   UNL     1      52.200  20.111  53.722  1.00  0.00    -0.550 OA
ENDBRANCH   6   7
ENDBRANCH   5   6
ENDBRANCH   4   5
ENDBRANCH   3   4
ENDBRANCH   2   3
ENDBRANCH   1   2
BRANCH   1  10
ATOM     10  C   UNL     1      53.673  24.249  47.769  1.00  0.00     0.000 C 
BRANCH  10  11
ATOM     11  C   UNL     1      55.047  24.703  47.243  1.00  0.00    -0.000 C 
BRANCH  11  12
ATOM     12  C   UNL     1      56.262  24.111  47.988  1.00  0.00    -0.000 C 
BRANCH  12  13
ATOM     13  C   UNL     1      57.265  23.355  47.098  1.00  0.00    -0.000 C 
BRANCH  13  14
ATOM     14  C   UNL     1      57.156  21.828  47.244  1.00  0.00    -0.000 C 
BRANCH  14  15
ATOM     15  C   UNL     1      56.368  21.413  48.496  1.00  0.00    -0.003 C 
ATOM     16  C   UNL     1      56.279  19.894  48.655  1.00  0.00     0.004 C 
ENDBRANCH  14  15
ENDBRANCH  13  14
ENDBRANCH  12  13
ENDBRANCH  11  12
ENDBRANCH  10  11
ENDBRANCH   1  10
TORSDOF 12
ENDMDL
MODEL 4
REMARK VINA RESULT:    -4.534      2.797      3.324
REMARK INTER + INTRA:          -8.903
REMARK INTER:                  -7.592
REMARK INTRA:                  -1.312
REMARK UNBOUND:                -1.189
REMARK SMILES CCCCCCCCCCCCCC(=O)[O-]
REMARK SMILES IDX 8 1 9 2 10 3 11 4 12 5 13 6 14 7 15 8 16 9 7 10 6 11 5 12
REMARK SMILES IDX 4 13 3 14 2 15 1 16
REMARK H PARENT
REMARK Flexibility Score: inf
ROOT
ATOM      1  C   UNL     1      53.471  23.760  50.919  1.00  0.00     0.000 C 
ENDROOT
BRANCH   1   2
ATOM      2  C   UNL     1      54.761  23.799  51.754  1.00  0.00     0.000 C 
BRANCH   2   3
ATOM      3  C   UNL     1      54.567  23.228  53.169  1.00  0.00     0.000 C 
BRANCH   3   4
ATOM      4  C   UNL     1      54.528  21.688  53.180  1.00  0.00     0.000 C 
BRANCH   4   5
ATOM      5  C   UNL     1      53.515  21.128  54.191  1.00  0.00     0.006 C 
BRANCH   5   6
ATOM      6  C   UNL     1      52.179  20.741  53.542  1.00  0.00     0.053 C 
BRANCH   6   7
ATOM      7  C   UNL     1      51.150  21.805  53.771  1.00  0.00     0.041 C 
ATOM      8  O   UNL     1      51.326  22.674  54.667  1.00  0.00    -0.550 OA
ATOM      9  O   UNL     1      49.989  21.829  53.005  1.00  0.00    -0.550 OA
ENDBRANCH   6   7
ENDBRANCH   5   6
ENDBRANCH   4   5
ENDBRANCH   3   4
ENDBRANCH   2   3
ENDBRANCH   1   2
BRANCH   1  10
ATOM     10  C   UNL     1      53.635  24.573  49.624  1.00  0.00     0.000 C 
BRANCH  10  11
ATOM     11  C   UNL     1      53.824  23.687  48.378  1.00  0.00    -0.000 C 
BRANCH  11  12
ATOM     12  C   UNL     1      55.228  23.745  47.741  1.00  0.00    -0.000 C 
BRANCH  12  13
ATOM     13  C   UNL     1      56.312  22.939  48.480  1.00  0.00    -0.000 C 
BRANCH  13  14
ATOM     14  C   UNL     1      56.687  21.639  47.750  1.00  0.00    -0.000 C 
BRANCH  14  15
ATOM     15  C   UNL     1      56.452  20.390  48.615  1.00  0.00    -0.003 C 
ATOM     16  C   UNL     1      55.609  20.687  49.857  1.00  0.00     0.004 C 
ENDBRANCH  14  15
ENDBRANCH  13  14
ENDBRANCH  12  13
ENDBRANCH  11  12
ENDBRANCH  10  11
ENDBRANCH   1  10
TORSDOF 12
ENDMDL
MODEL 5
REMARK VINA RESULT:    -4.499      1.322      1.726
REMARK INTER + INTRA:          -8.845
REMARK INTER:                  -7.327
REMARK INTRA:                  -1.518
REMARK UNBOUND:                -1.189
REMARK SMILES CCCCCCCCCCCCCC(=O)[O-]
REMARK SMILES IDX 8 1 9 2 10 3 11 4 12 5 13 6 14 7 15 8 16 9 7 10 6 11 5 12
REMARK SMILES IDX 4 13 3 14 2 15 1 16
REMARK H PARENT
REMARK Flexibility Score: inf
ROOT
ATOM      1  C   UNL     1      53.383  24.934  49.928  1.00  0.00     0.000 C 
ENDROOT
BRANCH   1   2
ATOM      2  C   UNL     1      54.127  25.036  51.270  1.00  0.00     0.000 C 
BRANCH   2   3
ATOM      3  C   UNL     1      54.901  23.751  51.615  1.00  0.00     0.000 C 
BRANCH   3   4
ATOM      4  C   UNL     1      56.384  24.027  51.926  1.00  0.00     0.000 C 
BRANCH   4   5
ATOM      5  C   UNL     1      56.995  22.979  52.871  1.00  0.00     0.006 C 
BRANCH   5   6
ATOM      6  C   UNL     1      56.132  21.715  52.995  1.00  0.00     0.053 C 
BRANCH   6   7
ATOM      7  C   UNL     1      55.693  21.511  54.412  1.00  0.00     0.041 C 
ATOM      8  O   UNL     1      56.482  20.999  55.252  1.00  0.00    -0.550 OA
ATOM      9  O   UNL     1      54.407  21.870  54.803  1.00  0.00    -0.550 OA
ENDBRANCH   6   7
ENDBRANCH   5   6
ENDBRANCH   4   5
ENDBRANCH   3   4
ENDBRANCH   2   3
ENDBRANCH   1   2
BRANCH   1  10
ATOM     10  C   UNL     1      53.826  23.682  49.153  1.00  0.00     0.000 C 
BRANCH  10  11
ATOM     11  C   UNL     1      54.265  23.993  47.710  1.00  0.00    -0.000 C 
BRANCH  11  12
ATOM     12  C   UNL     1      55.777  23.850  47.439  1.00  0.00    -0.000 C 
BRANCH  12  13
ATOM     13  C   UNL     1      56.505  22.837  48.341  1.00  0.00    -0.000 C 
BRANCH  13  14
ATOM     14  C   UNL     1      56.799  21.508  47.626  1.00  0.00    -0.000 C 
BRANCH  14  15
ATOM     15  C   UNL     1      56.537  20.288  48.523  1.00  0.00    -0.003 C 
ATOM     16  C   UNL     1      55.573  20.598  49.670  1.00  0.00     0.004 C 
ENDBRANCH  14  15
ENDBRANCH  13  14
ENDBRANCH  12  13
ENDBRANCH  11  12
ENDBRANCH  10  11
ENDBRANCH   1  10
TORSDOF 12
ENDMDL
MODEL 6
REMARK VINA RESULT:    -4.395      1.305      2.267
REMARK INTER + INTRA:          -8.668
REMARK INTER:                  -7.455
REMARK INTRA:                  -1.213
REMARK UNBOUND:                -1.189
REMARK SMILES CCCCCCCCCCCCCC(=O)[O-]
REMARK SMILES IDX 8 1 9 2 10 3 11 4 12 5 13 6 14 7 15 8 16 9 7 10 6 11 5 12
REMARK SMILES IDX 4 13 3 14 2 15 1 16
REMARK H PARENT
REMARK Flexibility Score: inf
ROOT
ATOM      1  C   UNL     1      54.302  24.849  51.378  1.00  0.00     0.000 C 
ENDROOT
BRANCH   1   2
ATOM      2  C   UNL     1      55.617  24.074  51.561  1.00  0.00     0.000 C 
BRANCH   2   3
ATOM      3  C   UNL     1      55.582  23.127  52.774  1.00  0.00     0.000 C 
BRANCH   3   4
ATOM      4  C   UNL     1      56.162  21.738  52.450  1.00  0.00     0.000 C 
BRANCH   4   5
ATOM      5  C   UNL     1      56.812  21.069  53.672  1.00  0.00     0.006 C 
BRANCH   5   6
ATOM      6  C   UNL     1      56.064  21.364  54.980  1.00  0.00     0.053 C 
BRANCH   6   7
ATOM      7  C   UNL     1      56.989  21.955  55.998  1.00  0.00     0.041 C 
ATOM      8  O   UNL     1      57.324  21.287  57.013  1.00  0.00    -0.550 OA
ATOM      9  O   UNL     1      57.470  23.250  55.835  1.00  0.00    -0.550 OA
ENDBRANCH   6   7
ENDBRANCH   5   6
ENDBRANCH   4   5
ENDBRANCH   3   4
ENDBRANCH   2   3
ENDBRANCH   1   2
BRANCH   1  10
ATOM     10  C   UNL     1      53.432  24.196  50.293  1.00  0.00     0.000 C 
BRANCH  10  11
ATOM     11  C   UNL     1      53.736  24.726  48.879  1.00  0.00    -0.000 C 
BRANCH  11  12
ATOM     12  C   UNL     1      54.387  23.706  47.922  1.00  0.00    -0.000 C 
BRANCH  12  13
ATOM     13  C   UNL     1      55.920  23.800  47.818  1.00  0.00    -0.000 C 
BRANCH  13  14
ATOM     14  C   UNL     1      56.604  22.423  47.846  1.00  0.00    -0.000 C 
BRANCH  14  15
ATOM     15  C   UNL     1      55.963  21.469  48.866  1.00  0.00    -0.003 C 
ATOM     16  C   UNL     1      56.370  20.011  48.642  1.00  0.00     0.004 C 
ENDBRANCH  14  15
ENDBRANCH  13  14
ENDBRANCH  12  13
ENDBRANCH  11  12
ENDBRANCH  10  11
ENDBRANCH   1  10
TORSDOF 12
ENDMDL
MODEL 7
REMARK VINA RESULT:    -4.370      1.188      3.151
REMARK INTER + INTRA:          -8.625
REMARK INTER:                  -7.389
REMARK INTRA:                  -1.235
REMARK UNBOUND:                -1.189
REMARK SMILES CCCCCCCCCCCCCC(=O)[O-]
REMARK SMILES IDX 8 1 9 2 10 3 11 4 12 5 13 6 14 7 15 8 16 9 7 10 6 11 5 12
REMARK SMILES IDX 4 13 3 14 2 15 1 16
REMARK H PARENT
REMARK Flexibility Score: inf
ROOT
ATOM      1  C   UNL     1      56.401  20.522  48.762  1.00  0.00     0.000 C 
ENDROOT
BRANCH   1   2
ATOM      2  C   UNL     1      55.239  21.052  49.618  1.00  0.00     0.000 C 
BRANCH   2   3
ATOM      3  C   UNL     1      55.663  21.363  51.064  1.00  0.00     0.000 C 
BRANCH   3   4
ATOM      4  C   UNL     1      54.466  21.394  52.032  1.00  0.00     0.000 C 
BRANCH   4   5
ATOM      5  C   UNL     1      54.805  22.067  53.372  1.00  0.00     0.006 C 
BRANCH   5   6
ATOM      6  C   UNL     1      55.470  23.440  53.196  1.00  0.00     0.053 C 
BRANCH   6   7
ATOM      7  C   UNL     1      56.843  23.444  53.793  1.00  0.00     0.041 C 
ATOM      8  O   UNL     1      57.800  23.986  53.177  1.00  0.00    -0.550 OA
ATOM      9  O   UNL     1      57.071  22.836  55.024  1.00  0.00    -0.550 OA
ENDBRANCH   6   7
ENDBRANCH   5   6
ENDBRANCH   4   5
ENDBRANCH   3   4
ENDBRANCH   2   3
ENDBRANCH   1   2
BRANCH   1  10
ATOM     10  C   UNL     1      56.774  21.531  47.664  1.00  0.00     0.000 C 
BRANCH  10  11
ATOM     11  C   UNL     1      56.723  22.993  48.150  1.00  0.00    -0.000 C 
BRANCH  11  12
ATOM     12  C   UNL     1      56.652  24.052  47.030  1.00  0.00    -0.000 C 
BRANCH  12  13
ATOM     13  C   UNL     1      55.354  24.880  47.001  1.00  0.00    -0.000 C 
BRANCH  13  14
ATOM     14  C   UNL     1      54.200  24.204  47.758  1.00  0.00    -0.000 C 
BRANCH  14  15
ATOM     15  C   UNL     1      53.589  25.115  48.834  1.00  0.00    -0.003 C 
ATOM     16  C   UNL     1      53.426  24.406  50.180  1.00  0.00     0.004 C 
ENDBRANCH  14  15
ENDBRANCH  13  14
ENDBRANCH  12  13
ENDBRANCH  11  12
ENDBRANCH  10  11
ENDBRANCH   1  10
TORSDOF 12
ENDMDL
MODEL 8
REMARK VINA RESULT:    -4.317      1.911      3.541
REMARK INTER + INTRA:          -8.535
REMARK INTER:                  -6.999
REMARK INTRA:                  -1.536
REMARK UNBOUND:                -1.189
REMARK SMILES CCCCCCCCCCCCCC(=O)[O-]
REMARK SMILES IDX 8 1 9 2 10 3 11 4 12 5 13 6 14 7 15 8 16 9 7 10 6 11 5 12
REMARK SMILES IDX 4 13 3 14 2 15 1 16
REMARK H PARENT
REMARK Flexibility Score: inf
ROOT
ATOM      1  C   UNL     1      56.395  20.693  48.794  1.00  0.00     0.000 C 
ENDROOT
BRANCH   1   2
ATOM      2  C   UNL     1      55.265  21.271  49.661  1.00  0.00     0.000 C 
BRANCH   2   3
ATOM      3  C   UNL     1      55.613  21.274  51.160  1.00  0.00     0.000 C 
BRANCH   3   4
ATOM      4  C   UNL     1      56.012  22.673  51.666  1.00  0.00     0.000 C 
BRANCH   4   5
ATOM      5  C   UNL     1      55.529  22.943  53.100  1.00  0.00     0.006 C 
BRANCH   5   6
ATOM      6  C   UNL     1      54.971  21.688  53.786  1.00  0.00     0.053 C 
BRANCH   6   7
ATOM      7  C   UNL     1      53.520  21.865  54.115  1.00  0.00     0.041 C 
ATOM      8  O   UNL     1      53.170  22.181  55.284  1.00  0.00    -0.550 OA
ATOM      9  O   UNL     1      52.553  21.665  53.135  1.00  0.00    -0.550 OA
ENDBRANCH   6   7
ENDBRANCH   5   6
ENDBRANCH   4   5
ENDBRANCH   3   4
ENDBRANCH   2   3
ENDBRANCH   1   2
BRANCH   1  10
ATOM     10  C   UNL     1      56.762  21.664  47.660  1.00  0.00     0.000 C 
BRANCH  10  11
ATOM     11  C   UNL     1      56.636  23.143  48.072  1.00  0.00    -0.000 C 
BRANCH  11  12
ATOM     12  C   UNL     1      56.211  24.104  46.941  1.00  0.00    -0.000 C 
BRANCH  12  13
ATOM     13  C   UNL     1      54.928  24.907  47.219  1.00  0.00    -0.000 C 
BRANCH  13  14
ATOM     14  C   UNL     1      53.946  24.161  48.137  1.00  0.00    -0.000 C 
BRANCH  14  15
ATOM     15  C   UNL     1      53.680  24.914  49.449  1.00  0.00    -0.003 C 
ATOM     16  C   UNL     1      52.887  24.078  50.455  1.00  0.00     0.004 C 
ENDBRANCH  14  15
ENDBRANCH  13  14
ENDBRANCH  12  13
ENDBRANCH  11  12
ENDBRANCH  10  11
ENDBRANCH   1  10
TORSDOF 12
ENDMDL
MODEL 9
REMARK VINA RESULT:    -4.232      2.030      2.272
REMARK INTER + INTRA:          -8.390
REMARK INTER:                  -7.118
REMARK INTRA:                  -1.272
REMARK UNBOUND:                -1.189
REMARK SMILES CCCCCCCCCCCCCC(=O)[O-]
REMARK SMILES IDX 8 1 9 2 10 3 11 4 12 5 13 6 14 7 15 8 16 9 7 10 6 11 5 12
REMARK SMILES IDX 4 13 3 14 2 15 1 16
REMARK H PARENT
REMARK Flexibility Score: inf
ROOT
ATOM      1  C   UNL     1      53.384  24.762  50.011  1.00  0.00     0.000 C 
ENDROOT
BRANCH   1   2
ATOM      2  C   UNL     1      53.904  24.365  51.402  1.00  0.00     0.000 C 
BRANCH   2   3
ATOM      3  C   UNL     1      53.688  22.872  51.710  1.00  0.00     0.000 C 
BRANCH   3   4
ATOM      4  C   UNL     1      54.816  22.284  52.578  1.00  0.00     0.000 C 
BRANCH   4   5
ATOM      5  C   UNL     1      54.296  21.676  53.891  1.00  0.00     0.006 C 
BRANCH   5   6
ATOM      6  C   UNL     1      54.790  22.431  55.133  1.00  0.00     0.053 C 
BRANCH   6   7
ATOM      7  C   UNL     1      53.721  23.336  55.663  1.00  0.00     0.041 C 
ATOM      8  O   UNL     1      53.316  24.310  54.973  1.00  0.00    -0.550 OA
ATOM      9  O   UNL     1      53.182  23.114  56.927  1.00  0.00    -0.550 OA
ENDBRANCH   6   7
ENDBRANCH   5   6
ENDBRANCH   4   5
ENDBRANCH   3   4
ENDBRANCH   2   3
ENDBRANCH   1   2
BRANCH   1  10
ATOM     10  C   UNL     1      53.613  23.627  49.000  1.00  0.00     0.000 C 
BRANCH  10  11
ATOM     11  C   UNL     1      54.170  24.125  47.653  1.00  0.00    -0.000 C 
BRANCH  11  12
ATOM     12  C   UNL     1      55.706  24.064  47.516  1.00  0.00    -0.000 C 
BRANCH  12  13
ATOM     13  C   UNL     1      56.393  22.998  48.388  1.00  0.00    -0.000 C 
BRANCH  13  14
ATOM     14  C   UNL     1      56.813  21.755  47.588  1.00  0.00    -0.000 C 
BRANCH  14  15
ATOM     15  C   UNL     1      56.699  20.461  48.408  1.00  0.00    -0.003 C 
ATOM     16  C   UNL     1      55.633  20.552  49.502  1.00  0.00     0.004 C 
ENDBRANCH  14  15
ENDBRANCH  13  14
ENDBRANCH  12  13
ENDBRANCH  11  12
ENDBRANCH  10  11
ENDBRANCH   1  10
TORSDOF 12
ENDMDL
