MODEL 1
REMARK VINA RESULT:    -4.737      0.000      0.000
REMARK INTER + INTRA:          -5.291
REMARK INTER:                  -5.291
REMARK INTRA:                   0.000
REMARK UNBOUND:                 0.000
REMARK SMILES Oc1cc(O)c2c(c1)CCc1cc(O)c(O)cc1-2
REMARK SMILES IDX 10 1 9 2 7 3 6 4 18 5 17 6 15 7 13 8 12 9 11 10 4 11 3 12
REMARK SMILES IDX 2 13 8 14 14 15 5 17 1 19 16 21
REMARK H PARENT 14 16 5 18 1 20 16 22
REMARK Flexibility Score: inf
ROOT
ATOM      1  C   UNL     1      54.735  41.689 123.396  1.00  0.00     0.041 C 
ATOM      2  C   UNL     1      54.048  40.723 124.367  1.00  0.00     0.041 C 
ATOM      3  C   UNL     1      54.529  39.311 124.138  1.00  0.00    -0.032 A 
ATOM      4  C   UNL     1      55.877  39.071 123.774  1.00  0.00     0.027 A 
ATOM      5  C   UNL     1      56.794  40.250 123.658  1.00  0.00    -0.007 A 
ATOM      6  C   UNL     1      58.188  40.145 123.831  1.00  0.00     0.059 A 
ATOM      7  C   UNL     1      59.020  41.266 123.713  1.00  0.00     0.158 A 
ATOM      8  C   UNL     1      58.452  42.529 123.433  1.00  0.00     0.157 A 
ATOM      9  C   UNL     1      57.064  42.650 123.325  1.00  0.00     0.054 A 
ATOM     10  C   UNL     1      56.233  41.530 123.469  1.00  0.00    -0.036 A 
ATOM     11  C   UNL     1      56.273  37.746 123.468  1.00  0.00     0.127 A 
ATOM     12  C   UNL     1      55.372  36.687 123.651  1.00  0.00     0.093 A 
ATOM     13  C   UNL     1      54.066  36.929 124.089  1.00  0.00     0.119 A 
ATOM     14  C   UNL     1      53.646  38.237 124.323  1.00  0.00     0.050 A 
ENDROOT
BRANCH   8  15
ATOM     15  O   UNL     1      59.222  43.682 123.267  1.00  0.00    -0.504 OA
ATOM     16  H   UNL     1      59.770  43.881 122.443  1.00  0.00     0.293 HD
ENDBRANCH   8  15
BRANCH  11  17
ATOM     17  O   UNL     1      57.535  37.475 122.943  1.00  0.00    -0.507 OA
ATOM     18  H   UNL     1      58.341  37.324 123.538  1.00  0.00     0.293 HD
ENDBRANCH  11  17
BRANCH  13  19
ATOM     19  O   UNL     1      53.175  35.876 124.278  1.00  0.00    -0.508 OA
ATOM     20  H   UNL     1      52.985  35.203 123.545  1.00  0.00     0.293 HD
ENDBRANCH  13  19
BRANCH   7  21
ATOM     21  O   UNL     1      60.392  41.080 123.890  1.00  0.00    -0.504 OA
ATOM     22  H   UNL     1      60.828  40.177 124.018  1.00  0.00     0.293 HD
ENDBRANCH   7  21
TORSDOF 4
ENDMDL
MODEL 2
REMARK VINA RESULT:    -4.479      2.734      4.826
REMARK INTER + INTRA:          -5.003
REMARK INTER:                  -5.003
REMARK INTRA:                   0.000
REMARK UNBOUND:                 0.000
REMARK SMILES Oc1cc(O)c2c(c1)CCc1cc(O)c(O)cc1-2
REMARK SMILES IDX 10 1 9 2 7 3 6 4 18 5 17 6 15 7 13 8 12 9 11 10 4 11 3 12
REMARK SMILES IDX 2 13 8 14 14 15 5 17 1 19 16 21
REMARK H PARENT 14 16 5 18 1 20 16 22
REMARK Flexibility Score: inf
ROOT
ATOM      1  C   UNL     1      54.595  41.467 122.875  1.00  0.00     0.041 C 
ATOM      2  C   UNL     1      53.482  41.967 123.802  1.00  0.00     0.041 C 
ATOM      3  C   UNL     1      52.257  41.094 123.677  1.00  0.00    -0.032 A 
ATOM      4  C   UNL     1      52.398  39.700 123.467  1.00  0.00     0.027 A 
ATOM      5  C   UNL     1      53.784  39.135 123.407  1.00  0.00    -0.007 A 
ATOM      6  C   UNL     1      54.070  37.794 123.730  1.00  0.00     0.059 A 
ATOM      7  C   UNL     1      55.377  37.295 123.661  1.00  0.00     0.158 A 
ATOM      8  C   UNL     1      56.432  38.153 123.277  1.00  0.00     0.157 A 
ATOM      9  C   UNL     1      56.163  39.499 123.018  1.00  0.00     0.054 A 
ATOM     10  C   UNL     1      54.858  40.002 123.113  1.00  0.00    -0.036 A 
ATOM     11  C   UNL     1      51.233  38.923 123.253  1.00  0.00     0.127 A 
ATOM     12  C   UNL     1      49.967  39.513 123.378  1.00  0.00     0.093 A 
ATOM     13  C   UNL     1      49.840  40.876 123.665  1.00  0.00     0.119 A 
ATOM     14  C   UNL     1      50.982  41.663 123.806  1.00  0.00     0.050 A 
ENDROOT
BRANCH   8  15
ATOM     15  O   UNL     1      57.753  37.716 123.152  1.00  0.00    -0.504 OA
ATOM     16  H   UNL     1      58.203  37.088 123.801  1.00  0.00     0.293 HD
ENDBRANCH   8  15
BRANCH  11  17
ATOM     17  O   UNL     1      51.319  37.585 122.875  1.00  0.00    -0.507 OA
ATOM     18  H   UNL     1      50.618  36.906 123.146  1.00  0.00     0.293 HD
ENDBRANCH  11  17
BRANCH  13  19
ATOM     19  O   UNL     1      48.582  41.459 123.797  1.00  0.00    -0.508 OA
ATOM     20  H   UNL     1      48.250  42.159 123.143  1.00  0.00     0.293 HD
ENDBRANCH  13  19
BRANCH   7  21
ATOM     21  O   UNL     1      55.580  35.953 123.989  1.00  0.00    -0.504 OA
ATOM     22  H   UNL     1      54.840  35.266 124.038  1.00  0.00     0.293 HD
ENDBRANCH   7  21
TORSDOF 4
ENDMDL
MODEL 3
REMARK VINA RESULT:    -4.443      2.596      6.261
REMARK INTER + INTRA:          -4.962
REMARK INTER:                  -4.962
REMARK INTRA:                   0.000
REMARK UNBOUND:                 0.000
REMARK SMILES Oc1cc(O)c2c(c1)CCc1cc(O)c(O)cc1-2
REMARK SMILES IDX 10 1 9 2 7 3 6 4 18 5 17 6 15 7 13 8 12 9 11 10 4 11 3 12
REMARK SMILES IDX 2 13 8 14 14 15 5 17 1 19 16 21
REMARK H PARENT 14 16 5 18 1 20 16 22
REMARK Flexibility Score: inf
ROOT
ATOM      1  C   UNL     1      52.694  40.986 123.820  1.00  0.00     0.041 C 
ATOM      2  C   UNL     1      53.907  40.885 122.888  1.00  0.00     0.041 C 
ATOM      3  C   UNL     1      54.619  39.569 123.086  1.00  0.00    -0.032 A 
ATOM      4  C   UNL     1      53.877  38.397 123.372  1.00  0.00     0.027 A 
ATOM      5  C   UNL     1      52.385  38.509 123.437  1.00  0.00    -0.007 A 
ATOM      6  C   UNL     1      51.532  37.416 123.185  1.00  0.00     0.059 A 
ATOM      7  C   UNL     1      50.140  37.552 123.257  1.00  0.00     0.158 A 
ATOM      8  C   UNL     1      49.577  38.809 123.571  1.00  0.00     0.157 A 
ATOM      9  C   UNL     1      50.416  39.910 123.758  1.00  0.00     0.054 A 
ATOM     10  C   UNL     1      51.808  39.777 123.660  1.00  0.00    -0.036 A 
ATOM     11  C   UNL     1      54.579  37.199 123.653  1.00  0.00     0.127 A 
ATOM     12  C   UNL     1      55.975  37.160 123.519  1.00  0.00     0.093 A 
ATOM     13  C   UNL     1      56.690  38.306 123.158  1.00  0.00     0.119 A 
ATOM     14  C   UNL     1      56.013  39.507 122.950  1.00  0.00     0.050 A 
ENDROOT
BRANCH   8  15
ATOM     15  O   UNL     1      48.200  39.010 123.694  1.00  0.00    -0.504 OA
ATOM     16  H   UNL     1      47.574  38.361 124.148  1.00  0.00     0.293 HD
ENDBRANCH   8  15
BRANCH  11  17
ATOM     17  O   UNL     1      53.912  36.062 124.104  1.00  0.00    -0.507 OA
ATOM     18  H   UNL     1      54.184  35.131 123.812  1.00  0.00     0.293 HD
ENDBRANCH  11  17
BRANCH  13  19
ATOM     19  O   UNL     1      58.075  38.263 123.018  1.00  0.00    -0.508 OA
ATOM     20  H   UNL     1      58.512  38.045 122.130  1.00  0.00     0.293 HD
ENDBRANCH  13  19
BRANCH   7  21
ATOM     21  O   UNL     1      49.361  36.421 123.001  1.00  0.00    -0.504 OA
ATOM     22  H   UNL     1      49.448  35.550 123.506  1.00  0.00     0.293 HD
ENDBRANCH   7  21
TORSDOF 4
ENDMDL
MODEL 4
REMARK VINA RESULT:    -4.244     13.383     15.184
REMARK INTER + INTRA:          -4.740
REMARK INTER:                  -4.740
REMARK INTRA:                   0.000
REMARK UNBOUND:                 0.000
REMARK SMILES Oc1cc(O)c2c(c1)CCc1cc(O)c(O)cc1-2
REMARK SMILES IDX 10 1 9 2 7 3 6 4 18 5 17 6 15 7 13 8 12 9 11 10 4 11 3 12
REMARK SMILES IDX 2 13 8 14 14 15 5 17 1 19 16 21
REMARK H PARENT 14 16 5 18 1 20 16 22
REMARK Flexibility Score: inf
ROOT
ATOM      1  C   UNL     1      51.153  39.747 134.998  1.00  0.00     0.041 C 
ATOM      2  C   UNL     1      50.564  41.153 135.156  1.00  0.00     0.041 C 
ATOM      3  C   UNL     1      49.059  41.110 135.056  1.00  0.00    -0.032 A 
ATOM      4  C   UNL     1      48.344  40.007 135.582  1.00  0.00     0.027 A 
ATOM      5  C   UNL     1      49.125  38.920 136.256  1.00  0.00    -0.007 A 
ATOM      6  C   UNL     1      48.566  38.085 137.242  1.00  0.00     0.059 A 
ATOM      7  C   UNL     1      49.322  37.076 137.852  1.00  0.00     0.158 A 
ATOM      8  C   UNL     1      50.675  36.900 137.485  1.00  0.00     0.157 A 
ATOM      9  C   UNL     1      51.252  37.767 136.554  1.00  0.00     0.054 A 
ATOM     10  C   UNL     1      50.500  38.793 135.965  1.00  0.00    -0.036 A 
ATOM     11  C   UNL     1      46.943  39.946 135.384  1.00  0.00     0.127 A 
ATOM     12  C   UNL     1      46.274  41.027 134.791  1.00  0.00     0.093 A 
ATOM     13  C   UNL     1      46.983  42.148 134.347  1.00  0.00     0.119 A 
ATOM     14  C   UNL     1      48.370  42.184 134.473  1.00  0.00     0.050 A 
ENDROOT
BRANCH   8  15
ATOM     15  O   UNL     1      51.478  35.893 138.025  1.00  0.00    -0.504 OA
ATOM     16  H   UNL     1      52.402  35.667 137.688  1.00  0.00     0.293 HD
ENDBRANCH   8  15
BRANCH  11  17
ATOM     17  O   UNL     1      46.215  38.810 135.729  1.00  0.00    -0.507 OA
ATOM     18  H   UNL     1      45.202  38.815 135.772  1.00  0.00     0.293 HD
ENDBRANCH  11  17
BRANCH  13  19
ATOM     19  O   UNL     1      46.316  43.225 133.766  1.00  0.00    -0.508 OA
ATOM     20  H   UNL     1      45.522  43.088 133.152  1.00  0.00     0.293 HD
ENDBRANCH  13  19
BRANCH   7  21
ATOM     21  O   UNL     1      48.694  36.284 138.816  1.00  0.00    -0.504 OA
ATOM     22  H   UNL     1      49.117  35.471 139.241  1.00  0.00     0.293 HD
ENDBRANCH   7  21
TORSDOF 4
ENDMDL
MODEL 5
REMARK VINA RESULT:    -4.183      3.174      5.007
REMARK INTER + INTRA:          -4.672
REMARK INTER:                  -4.672
REMARK INTRA:                   0.000
REMARK UNBOUND:                 0.000
REMARK SMILES Oc1cc(O)c2c(c1)CCc1cc(O)c(O)cc1-2
REMARK SMILES IDX 10 1 9 2 7 3 6 4 18 5 17 6 15 7 13 8 12 9 11 10 4 11 3 12
REMARK SMILES IDX 2 13 8 14 14 15 5 17 1 19 16 21
REMARK H PARENT 14 16 5 18 1 20 16 22
REMARK Flexibility Score: inf
ROOT
ATOM      1  C   UNL     1      55.559  42.939 124.475  1.00  0.00     0.041 C 
ATOM      2  C   UNL     1      56.432  42.137 123.504  1.00  0.00     0.041 C 
ATOM      3  C   UNL     1      55.951  40.710 123.414  1.00  0.00    -0.032 A 
ATOM      4  C   UNL     1      54.566  40.422 123.486  1.00  0.00     0.027 A 
ATOM      5  C   UNL     1      53.615  41.572 123.619  1.00  0.00    -0.007 A 
ATOM      6  C   UNL     1      52.278  41.504 123.183  1.00  0.00     0.059 A 
ATOM      7  C   UNL     1      51.413  42.596 123.326  1.00  0.00     0.158 A 
ATOM      8  C   UNL     1      51.891  43.795 123.900  1.00  0.00     0.157 A 
ATOM      9  C   UNL     1      53.234  43.889 124.275  1.00  0.00     0.054 A 
ATOM     10  C   UNL     1      54.104  42.802 124.108  1.00  0.00    -0.036 A 
ATOM     11  C   UNL     1      54.152  39.067 123.501  1.00  0.00     0.127 A 
ATOM     12  C   UNL     1      55.096  38.046 123.317  1.00  0.00     0.093 A 
ATOM     13  C   UNL     1      56.453  38.348 123.168  1.00  0.00     0.119 A 
ATOM     14  C   UNL     1      56.878  39.674 123.224  1.00  0.00     0.050 A 
ENDROOT
BRANCH   8  15
ATOM     15  O   UNL     1      51.077  44.911 124.106  1.00  0.00    -0.504 OA
ATOM     16  H   UNL     1      50.181  45.045 123.661  1.00  0.00     0.293 HD
ENDBRANCH   8  15
BRANCH  11  17
ATOM     17  O   UNL     1      52.823  38.723 123.739  1.00  0.00    -0.507 OA
ATOM     18  H   UNL     1      52.486  38.501 124.668  1.00  0.00     0.293 HD
ENDBRANCH  11  17
BRANCH  13  19
ATOM     19  O   UNL     1      57.389  37.333 122.977  1.00  0.00    -0.508 OA
ATOM     20  H   UNL     1      57.235  36.397 123.332  1.00  0.00     0.293 HD
ENDBRANCH  13  19
BRANCH   7  21
ATOM     21  O   UNL     1      50.099  42.449 122.876  1.00  0.00    -0.504 OA
ATOM     22  H   UNL     1      49.420  41.838 123.307  1.00  0.00     0.293 HD
ENDBRANCH   7  21
TORSDOF 4
ENDMDL
MODEL 6
REMARK VINA RESULT:    -4.116     13.211     14.958
REMARK INTER + INTRA:          -4.598
REMARK INTER:                  -4.598
REMARK INTRA:                   0.000
REMARK UNBOUND:                 0.000
REMARK SMILES Oc1cc(O)c2c(c1)CCc1cc(O)c(O)cc1-2
REMARK SMILES IDX 10 1 9 2 7 3 6 4 18 5 17 6 15 7 13 8 12 9 11 10 4 11 3 12
REMARK SMILES IDX 2 13 8 14 14 15 5 17 1 19 16 21
REMARK H PARENT 14 16 5 18 1 20 16 22
REMARK Flexibility Score: inf
ROOT
ATOM      1  C   UNL     1      50.767  40.756 135.165  1.00  0.00     0.041 C 
ATOM      2  C   UNL     1      51.757  39.589 135.071  1.00  0.00     0.041 C 
ATOM      3  C   UNL     1      51.514  38.598 136.182  1.00  0.00    -0.032 A 
ATOM      4  C   UNL     1      50.194  38.340 136.627  1.00  0.00     0.027 A 
ATOM      5  C   UNL     1      49.070  39.054 135.942  1.00  0.00    -0.007 A 
ATOM      6  C   UNL     1      47.760  38.537 135.896  1.00  0.00     0.059 A 
ATOM      7  C   UNL     1      46.729  39.231 135.250  1.00  0.00     0.158 A 
ATOM      8  C   UNL     1      47.007  40.463 134.617  1.00  0.00     0.157 A 
ATOM      9  C   UNL     1      48.317  40.948 134.604  1.00  0.00     0.054 A 
ATOM     10  C   UNL     1      49.352  40.239 135.230  1.00  0.00    -0.036 A 
ATOM     11  C   UNL     1      50.007  37.482 137.738  1.00  0.00     0.127 A 
ATOM     12  C   UNL     1      51.104  36.807 138.293  1.00  0.00     0.093 A 
ATOM     13  C   UNL     1      52.393  37.009 137.792  1.00  0.00     0.119 A 
ATOM     14  C   UNL     1      52.596  37.907 136.746  1.00  0.00     0.050 A 
ENDROOT
BRANCH   8  15
ATOM     15  O   UNL     1      46.023  41.226 133.985  1.00  0.00    -0.504 OA
ATOM     16  H   UNL     1      46.080  42.225 133.856  1.00  0.00     0.293 HD
ENDBRANCH   8  15
BRANCH  11  17
ATOM     17  O   UNL     1      48.752  37.325 138.323  1.00  0.00    -0.507 OA
ATOM     18  H   UNL     1      47.933  37.807 137.972  1.00  0.00     0.293 HD
ENDBRANCH  11  17
BRANCH  13  19
ATOM     19  O   UNL     1      53.481  36.332 138.339  1.00  0.00    -0.508 OA
ATOM     20  H   UNL     1      54.087  35.754 137.769  1.00  0.00     0.293 HD
ENDBRANCH  13  19
BRANCH   7  21
ATOM     21  O   UNL     1      45.456  38.657 135.254  1.00  0.00    -0.504 OA
ATOM     22  H   UNL     1      44.629  39.121 135.604  1.00  0.00     0.293 HD
ENDBRANCH   7  21
TORSDOF 4
ENDMDL
MODEL 7
REMARK VINA RESULT:    -4.071      2.981      5.185
REMARK INTER + INTRA:          -4.547
REMARK INTER:                  -4.547
REMARK INTRA:                   0.000
REMARK UNBOUND:                 0.000
REMARK SMILES Oc1cc(O)c2c(c1)CCc1cc(O)c(O)cc1-2
REMARK SMILES IDX 10 1 9 2 7 3 6 4 18 5 17 6 15 7 13 8 12 9 11 10 4 11 3 12
REMARK SMILES IDX 2 13 8 14 14 15 5 17 1 19 16 21
REMARK H PARENT 14 16 5 18 1 20 16 22
REMARK Flexibility Score: inf
ROOT
ATOM      1  C   UNL     1      52.824  38.499 126.503  1.00  0.00     0.041 C 
ATOM      2  C   UNL     1      51.593  38.912 125.689  1.00  0.00     0.041 C 
ATOM      3  C   UNL     1      51.931  40.051 124.758  1.00  0.00    -0.032 A 
ATOM      4  C   UNL     1      53.208  40.113 124.147  1.00  0.00     0.027 A 
ATOM      5  C   UNL     1      54.177  39.007 124.432  1.00  0.00    -0.007 A 
ATOM      6  C   UNL     1      55.210  38.656 123.540  1.00  0.00     0.059 A 
ATOM      7  C   UNL     1      56.103  37.619 123.837  1.00  0.00     0.158 A 
ATOM      8  C   UNL     1      55.958  36.897 125.043  1.00  0.00     0.157 A 
ATOM      9  C   UNL     1      54.897  37.199 125.900  1.00  0.00     0.054 A 
ATOM     10  C   UNL     1      53.989  38.221 125.588  1.00  0.00    -0.036 A 
ATOM     11  C   UNL     1      53.531  41.245 123.361  1.00  0.00     0.127 A 
ATOM     12  C   UNL     1      52.552  42.214 123.095  1.00  0.00     0.093 A 
ATOM     13  C   UNL     1      51.270  42.101 123.640  1.00  0.00     0.119 A 
ATOM     14  C   UNL     1      50.965  41.027 124.474  1.00  0.00     0.050 A 
ENDROOT
BRANCH   8  15
ATOM     15  O   UNL     1      56.832  35.875 125.420  1.00  0.00    -0.504 OA
ATOM     16  H   UNL     1      57.629  35.584 124.874  1.00  0.00     0.293 HD
ENDBRANCH   8  15
BRANCH  11  17
ATOM     17  O   UNL     1      54.823  41.441 122.876  1.00  0.00    -0.507 OA
ATOM     18  H   UNL     1      55.091  42.290 122.394  1.00  0.00     0.293 HD
ENDBRANCH  11  17
BRANCH  13  19
ATOM     19  O   UNL     1      50.296  43.060 123.369  1.00  0.00    -0.508 OA
ATOM     20  H   UNL     1      49.471  43.155 123.949  1.00  0.00     0.293 HD
ENDBRANCH  13  19
BRANCH   7  21
ATOM     21  O   UNL     1      57.105  37.336 122.906  1.00  0.00    -0.504 OA
ATOM     22  H   UNL     1      57.604  36.459 122.864  1.00  0.00     0.293 HD
ENDBRANCH   7  21
TORSDOF 4
ENDMDL
MODEL 8
REMARK VINA RESULT:    -4.065     18.982     20.355
REMARK INTER + INTRA:          -4.540
REMARK INTER:                  -4.540
REMARK INTRA:                   0.000
REMARK UNBOUND:                 0.000
REMARK SMILES Oc1cc(O)c2c(c1)CCc1cc(O)c(O)cc1-2
REMARK SMILES IDX 10 1 9 2 7 3 6 4 18 5 17 6 15 7 13 8 12 9 11 10 4 11 3 12
REMARK SMILES IDX 2 13 8 14 14 15 5 17 1 19 16 21
REMARK H PARENT 14 16 5 18 1 20 16 22
REMARK Flexibility Score: inf
ROOT
ATOM      1  C   UNL     1      48.053  45.261 138.350  1.00  0.00     0.041 C 
ATOM      2  C   UNL     1      46.911  46.276 138.224  1.00  0.00     0.041 C 
ATOM      3  C   UNL     1      46.066  46.280 139.474  1.00  0.00    -0.032 A 
ATOM      4  C   UNL     1      46.670  46.085 140.740  1.00  0.00     0.027 A 
ATOM      5  C   UNL     1      48.158  45.910 140.789  1.00  0.00    -0.007 A 
ATOM      6  C   UNL     1      48.921  46.232 141.928  1.00  0.00     0.059 A 
ATOM      7  C   UNL     1      50.310  46.053 141.944  1.00  0.00     0.158 A 
ATOM      8  C   UNL     1      50.963  45.559 140.792  1.00  0.00     0.157 A 
ATOM      9  C   UNL     1      50.218  45.299 139.639  1.00  0.00     0.054 A 
ATOM     10  C   UNL     1      48.832  45.503 139.618  1.00  0.00    -0.036 A 
ATOM     11  C   UNL     1      45.840  45.992 141.883  1.00  0.00     0.127 A 
ATOM     12  C   UNL     1      44.461  46.220 141.766  1.00  0.00     0.093 A 
ATOM     13  C   UNL     1      43.886  46.491 140.520  1.00  0.00     0.119 A 
ATOM     14  C   UNL     1      44.686  46.513 139.379  1.00  0.00     0.050 A 
ENDROOT
BRANCH   8  15
ATOM     15  O   UNL     1      52.339  45.323 140.748  1.00  0.00    -0.504 OA
ATOM     16  H   UNL     1      52.767  44.438 140.975  1.00  0.00     0.293 HD
ENDBRANCH   8  15
BRANCH  11  17
ATOM     17  O   UNL     1      46.361  45.634 143.125  1.00  0.00    -0.507 OA
ATOM     18  H   UNL     1      46.664  46.328 143.798  1.00  0.00     0.293 HD
ENDBRANCH  11  17
BRANCH  13  19
ATOM     19  O   UNL     1      42.518  46.726 140.406  1.00  0.00    -0.508 OA
ATOM     20  H   UNL     1      41.996  47.189 141.140  1.00  0.00     0.293 HD
ENDBRANCH  13  19
BRANCH   7  21
ATOM     21  O   UNL     1      50.996  46.388 143.113  1.00  0.00    -0.504 OA
ATOM     22  H   UNL     1      50.571  46.851 143.904  1.00  0.00     0.293 HD
ENDBRANCH   7  21
TORSDOF 4
ENDMDL
