MODEL 1
REMARK VINA RESULT:    -6.455      0.000      0.000
REMARK INTER + INTRA:          -9.920
REMARK INTER:                  -9.852
REMARK INTRA:                  -0.069
REMARK UNBOUND:                -0.069
REMARK SMILES C[C@@H]1O[C@@H](Oc2c(-c3ccc(O)cc3)oc3cc(O[C@H]4O[C@@H](C)[C@@H](O)[C@H](O)[C@H]4O)cc(O)c3c2=O)[C@@H](O)[C@@H](O)[C@@H]1O
REMARK SMILES IDX 18 1 30 2 31 3 33 4 16 5 17 6 15 7 7 8 6 9 34 10 35 11 19 12
REMARK SMILES IDX 20 13 23 14 22 15 24 16 21 17 26 18 28 19 25 20 27 22 29 24
REMARK SMILES IDX 32 26 8 28 9 29 14 30 10 31 13 32 11 33 12 34 5 36 4 37
REMARK SMILES IDX 36 38 3 39 38 40 2 41 40 42 1 43 37 44 39 46 41 48
REMARK H PARENT 25 21 27 23 29 25 32 27 12 35 37 45 39 47 41 49
REMARK Flexibility Score: inf
ROOT
ATOM      1  C   UNL     1      17.554  40.504  75.143  1.00  0.00     0.130 A 
ATOM      2  C   UNL     1      16.361  40.491  74.407  1.00  0.00     0.093 A 
ATOM      3  C   UNL     1      15.718  41.684  74.049  1.00  0.00     0.134 A 
ATOM      4  C   UNL     1      16.259  42.931  74.491  1.00  0.00     0.111 A 
ATOM      5  C   UNL     1      17.499  42.921  75.178  1.00  0.00     0.146 A 
ATOM      6  C   UNL     1      18.147  41.721  75.459  1.00  0.00     0.094 A 
ATOM      7  O   UNL     1      18.052  44.047  75.611  1.00  0.00    -0.452 OA
ATOM      8  C   UNL     1      17.487  45.238  75.469  1.00  0.00     0.180 A 
ATOM      9  C   UNL     1      16.256  45.352  74.796  1.00  0.00     0.214 A 
ATOM     10  C   UNL     1      15.629  44.190  74.326  1.00  0.00     0.239 A 
ATOM     11  O   UNL     1      14.497  44.299  73.790  1.00  0.00    -0.285 OA
ENDROOT
BRANCH   1  12
ATOM     12  O   UNL     1      18.167  39.333  75.599  1.00  0.00    -0.462 OA
BRANCH  12  13
ATOM     13  C   UNL     1      19.580  39.161  75.723  1.00  0.00     0.339 C 
ATOM     14  C   UNL     1      18.242  39.875  78.423  1.00  0.00     0.042 C 
ATOM     15  C   UNL     1      19.676  39.431  78.093  1.00  0.00     0.151 C 
ATOM     16  C   UNL     1      19.948  37.917  78.305  1.00  0.00     0.174 C 
ATOM     17  O   UNL     1      20.097  39.907  76.819  1.00  0.00    -0.335 OA
ATOM     18  C   UNL     1      19.412  37.068  77.131  1.00  0.00     0.180 C 
ATOM     19  C   UNL     1      19.934  37.666  75.820  1.00  0.00     0.214 C 
BRANCH  16  20
ATOM     20  O   UNL     1      19.449  37.467  79.540  1.00  0.00    -0.388 OA
ATOM     21  H   UNL     1      20.166  37.567  80.218  1.00  0.00     0.211 HD
ENDBRANCH  16  20
BRANCH  18  22
ATOM     22  O   UNL     1      19.864  35.744  77.234  1.00  0.00    -0.387 OA
ATOM     23  H   UNL     1      19.225  35.257  77.831  1.00  0.00     0.211 HD
ENDBRANCH  18  22
BRANCH  19  24
ATOM     24  O   UNL     1      19.445  36.959  74.704  1.00  0.00    -0.384 OA
ATOM     25  H   UNL     1      19.700  37.455  73.885  1.00  0.00     0.211 HD
ENDBRANCH  19  24
ENDBRANCH  12  13
ENDBRANCH   1  12
BRANCH   3  26
ATOM     26  O   UNL     1      14.576  41.556  73.255  1.00  0.00    -0.507 OA
ATOM     27  H   UNL     1      14.544  41.206  72.314  1.00  0.00     0.293 HD
ENDBRANCH   3  26
BRANCH   8  28
ATOM     28  C   UNL     1      18.171  46.394  76.077  1.00  0.00     0.021 A 
ATOM     29  C   UNL     1      19.471  46.252  76.576  1.00  0.00     0.016 A 
ATOM     30  C   UNL     1      17.515  47.632  76.204  1.00  0.00     0.016 A 
ATOM     31  C   UNL     1      20.125  47.341  77.158  1.00  0.00     0.047 A 
ATOM     32  C   UNL     1      18.166  48.717  76.799  1.00  0.00     0.047 A 
ATOM     33  C   UNL     1      19.477  48.577  77.268  1.00  0.00     0.115 A 
BRANCH  33  34
ATOM     34  O   UNL     1      20.125  49.671  77.840  1.00  0.00    -0.508 OA
ATOM     35  H   UNL     1      19.720  50.597  77.812  1.00  0.00     0.293 HD
ENDBRANCH  33  34
ENDBRANCH   8  28
BRANCH   9  36
ATOM     36  O   UNL     1      15.626  46.588  74.599  1.00  0.00    -0.454 OA
BRANCH  36  37
ATOM     37  C   UNL     1      14.823  46.901  73.457  1.00  0.00     0.339 C 
ATOM     38  C   UNL     1      13.477  47.523  73.878  1.00  0.00     0.214 C 
ATOM     39  O   UNL     1      15.522  47.748  72.560  1.00  0.00    -0.335 OA
ATOM     40  C   UNL     1      13.640  48.967  74.408  1.00  0.00     0.180 C 
ATOM     41  C   UNL     1      15.855  48.984  73.171  1.00  0.00     0.151 C 
ATOM     42  C   UNL     1      14.582  49.793  73.509  1.00  0.00     0.174 C 
ATOM     43  C   UNL     1      16.772  49.767  72.227  1.00  0.00     0.042 C 
BRANCH  38  44
ATOM     44  O   UNL     1      12.844  46.728  74.849  1.00  0.00    -0.384 OA
ATOM     45  H   UNL     1      12.175  46.168  74.370  1.00  0.00     0.211 HD
ENDBRANCH  38  44
BRANCH  40  46
ATOM     46  O   UNL     1      14.045  48.999  75.757  1.00  0.00    -0.387 OA
ATOM     47  H   UNL     1      14.731  49.705  75.861  1.00  0.00     0.211 HD
ENDBRANCH  40  46
BRANCH  42  48
ATOM     48  O   UNL     1      13.896  50.124  72.324  1.00  0.00    -0.388 OA
ATOM     49  H   UNL     1      12.969  50.370  72.576  1.00  0.00     0.211 HD
ENDBRANCH  42  48
ENDBRANCH  36  37
ENDBRANCH   9  36
TORSDOF 13
ENDMDL
MODEL 2
REMARK VINA RESULT:    -5.729      5.470     11.507
REMARK INTER + INTRA:          -8.811
REMARK INTER:                  -8.477
REMARK INTRA:                  -0.334
REMARK UNBOUND:                -0.069
REMARK SMILES C[C@@H]1O[C@@H](Oc2c(-c3ccc(O)cc3)oc3cc(O[C@H]4O[C@@H](C)[C@@H](O)[C@H](O)[C@H]4O)cc(O)c3c2=O)[C@@H](O)[C@@H](O)[C@@H]1O
REMARK SMILES IDX 18 1 30 2 31 3 33 4 16 5 17 6 15 7 7 8 6 9 34 10 35 11 19 12
REMARK SMILES IDX 20 13 23 14 22 15 24 16 21 17 26 18 28 19 25 20 27 22 29 24
REMARK SMILES IDX 32 26 8 28 9 29 14 30 10 31 13 32 11 33 12 34 5 36 4 37
REMARK SMILES IDX 36 38 3 39 38 40 2 41 40 42 1 43 37 44 39 46 41 48
REMARK H PARENT 25 21 27 23 29 25 32 27 12 35 37 45 39 47 41 49
REMARK Flexibility Score: inf
ROOT
ATOM      1  C   UNL     1       9.687  48.023  69.514  1.00  0.00     0.130 A 
ATOM      2  C   UNL     1      10.882  47.716  68.849  1.00  0.00     0.093 A 
ATOM      3  C   UNL     1      12.073  47.507  69.560  1.00  0.00     0.134 A 
ATOM      4  C   UNL     1      12.077  47.664  70.981  1.00  0.00     0.111 A 
ATOM      5  C   UNL     1      10.843  47.910  71.634  1.00  0.00     0.146 A 
ATOM      6  C   UNL     1       9.665  48.046  70.903  1.00  0.00     0.094 A 
ATOM      7  O   UNL     1      10.783  48.063  72.951  1.00  0.00    -0.452 OA
ATOM      8  C   UNL     1      11.850  48.031  73.738  1.00  0.00     0.180 A 
ATOM      9  C   UNL     1      13.121  47.788  73.183  1.00  0.00     0.214 A 
ATOM     10  C   UNL     1      13.236  47.627  71.795  1.00  0.00     0.239 A 
ATOM     11  O   UNL     1      14.385  47.482  71.306  1.00  0.00    -0.285 OA
ENDROOT
BRANCH   1  12
ATOM     12  O   UNL     1       8.508  48.334  68.830  1.00  0.00    -0.462 OA
BRANCH  12  13
ATOM     13  C   UNL     1       7.282  48.703  69.467  1.00  0.00     0.339 C 
ATOM     14  C   UNL     1       7.667  50.125  66.742  1.00  0.00     0.042 C 
ATOM     15  C   UNL     1       6.456  50.065  67.688  1.00  0.00     0.151 C 
ATOM     16  C   UNL     1       5.390  49.003  67.305  1.00  0.00     0.174 C 
ATOM     17  O   UNL     1       6.856  49.996  69.053  1.00  0.00    -0.335 OA
ATOM     18  C   UNL     1       5.808  47.584  67.745  1.00  0.00     0.180 C 
ATOM     19  C   UNL     1       6.205  47.631  69.225  1.00  0.00     0.214 C 
BRANCH  16  20
ATOM     20  O   UNL     1       5.079  49.051  65.934  1.00  0.00    -0.388 OA
ATOM     21  H   UNL     1       5.242  49.974  65.612  1.00  0.00     0.211 HD
ENDBRANCH  16  20
BRANCH  18  22
ATOM     22  O   UNL     1       4.741  46.686  67.594  1.00  0.00    -0.387 OA
ATOM     23  H   UNL     1       4.277  46.624  68.479  1.00  0.00     0.211 HD
ENDBRANCH  18  22
BRANCH  19  24
ATOM     24  O   UNL     1       6.639  46.370  69.679  1.00  0.00    -0.384 OA
ATOM     25  H   UNL     1       7.072  45.898  68.923  1.00  0.00     0.211 HD
ENDBRANCH  19  24
ENDBRANCH  12  13
ENDBRANCH   1  12
BRANCH   3  26
ATOM     26  O   UNL     1      13.187  47.136  68.804  1.00  0.00    -0.507 OA
ATOM     27  H   UNL     1      13.175  46.772  67.868  1.00  0.00     0.293 HD
ENDBRANCH   3  26
BRANCH   8  28
ATOM     28  C   UNL     1      11.648  48.306  75.173  1.00  0.00     0.021 A 
ATOM     29  C   UNL     1      10.620  47.659  75.868  1.00  0.00     0.016 A 
ATOM     30  C   UNL     1      12.450  49.245  75.845  1.00  0.00     0.016 A 
ATOM     31  C   UNL     1      10.418  47.915  77.226  1.00  0.00     0.047 A 
ATOM     32  C   UNL     1      12.238  49.510  77.201  1.00  0.00     0.047 A 
ATOM     33  C   UNL     1      11.229  48.838  77.898  1.00  0.00     0.115 A 
BRANCH  33  34
ATOM     34  O   UNL     1      11.040  49.094  79.256  1.00  0.00    -0.508 OA
ATOM     35  H   UNL     1      10.919  50.037  79.602  1.00  0.00     0.293 HD
ENDBRANCH  33  34
ENDBRANCH   8  28
BRANCH   9  36
ATOM     36  O   UNL     1      14.277  47.723  73.970  1.00  0.00    -0.454 OA
BRANCH  36  37
ATOM     37  C   UNL     1      15.606  47.758  73.441  1.00  0.00     0.339 C 
ATOM     38  C   UNL     1      16.418  48.916  74.056  1.00  0.00     0.214 C 
ATOM     39  O   UNL     1      16.262  46.515  73.628  1.00  0.00    -0.335 OA
ATOM     40  C   UNL     1      16.800  48.644  75.530  1.00  0.00     0.180 C 
ATOM     41  C   UNL     1      16.384  46.197  75.004  1.00  0.00     0.151 C 
ATOM     42  C   UNL     1      17.313  47.203  75.723  1.00  0.00     0.174 C 
ATOM     43  C   UNL     1      16.915  44.767  75.133  1.00  0.00     0.042 C 
BRANCH  38  44
ATOM     44  O   UNL     1      15.709  50.125  73.962  1.00  0.00    -0.384 OA
ATOM     45  H   UNL     1      14.849  49.918  73.507  1.00  0.00     0.211 HD
ENDBRANCH  38  44
BRANCH  40  46
ATOM     46  O   UNL     1      15.749  48.947  76.419  1.00  0.00    -0.387 OA
ATOM     47  H   UNL     1      14.928  48.497  76.097  1.00  0.00     0.211 HD
ENDBRANCH  40  46
BRANCH  42  48
ATOM     48  O   UNL     1      18.615  47.115  75.192  1.00  0.00    -0.388 OA
ATOM     49  H   UNL     1      19.009  46.262  75.511  1.00  0.00     0.211 HD
ENDBRANCH  42  48
ENDBRANCH  36  37
ENDBRANCH   9  36
TORSDOF 13
ENDMDL
MODEL 3
REMARK VINA RESULT:    -5.231      1.087      2.018
REMARK INTER + INTRA:          -8.051
REMARK INTER:                  -6.972
REMARK INTRA:                  -1.080
REMARK UNBOUND:                -0.069
REMARK SMILES C[C@@H]1O[C@@H](Oc2c(-c3ccc(O)cc3)oc3cc(O[C@H]4O[C@@H](C)[C@@H](O)[C@H](O)[C@H]4O)cc(O)c3c2=O)[C@@H](O)[C@@H](O)[C@@H]1O
REMARK SMILES IDX 18 1 30 2 31 3 33 4 16 5 17 6 15 7 7 8 6 9 34 10 35 11 19 12
REMARK SMILES IDX 20 13 23 14 22 15 24 16 21 17 26 18 28 19 25 20 27 22 29 24
REMARK SMILES IDX 32 26 8 28 9 29 14 30 10 31 13 32 11 33 12 34 5 36 4 37
REMARK SMILES IDX 36 38 3 39 38 40 2 41 40 42 1 43 37 44 39 46 41 48
REMARK H PARENT 25 21 27 23 29 25 32 27 12 35 37 45 39 47 41 49
REMARK Flexibility Score: inf
ROOT
ATOM      1  C   UNL     1      17.579  40.320  75.031  1.00  0.00     0.130 A 
ATOM      2  C   UNL     1      16.405  40.212  74.273  1.00  0.00     0.093 A 
ATOM      3  C   UNL     1      15.781  41.349  73.740  1.00  0.00     0.134 A 
ATOM      4  C   UNL     1      16.321  42.642  74.022  1.00  0.00     0.111 A 
ATOM      5  C   UNL     1      17.544  42.719  74.736  1.00  0.00     0.146 A 
ATOM      6  C   UNL     1      18.175  41.565  75.194  1.00  0.00     0.094 A 
ATOM      7  O   UNL     1      18.096  43.890  75.026  1.00  0.00    -0.452 OA
ATOM      8  C   UNL     1      17.545  45.054  74.709  1.00  0.00     0.180 A 
ATOM      9  C   UNL     1      16.332  45.082  73.996  1.00  0.00     0.214 A 
ATOM     10  C   UNL     1      15.706  43.870  73.672  1.00  0.00     0.239 A 
ATOM     11  O   UNL     1      14.589  43.911  73.097  1.00  0.00    -0.285 OA
ENDROOT
BRANCH   1  12
ATOM     12  O   UNL     1      18.170  39.218  75.657  1.00  0.00    -0.462 OA
BRANCH  12  13
ATOM     13  C   UNL     1      19.581  39.022  75.776  1.00  0.00     0.339 C 
ATOM     14  C   UNL     1      18.288  39.901  78.449  1.00  0.00     0.042 C 
ATOM     15  C   UNL     1      19.709  39.410  78.128  1.00  0.00     0.151 C 
ATOM     16  C   UNL     1      19.950  37.903  78.414  1.00  0.00     0.174 C 
ATOM     17  O   UNL     1      20.125  39.812  76.827  1.00  0.00    -0.335 OA
ATOM     18  C   UNL     1      19.384  37.008  77.290  1.00  0.00     0.180 C 
ATOM     19  C   UNL     1      19.905  37.527  75.946  1.00  0.00     0.214 C 
BRANCH  16  20
ATOM     20  O   UNL     1      19.456  37.527  79.675  1.00  0.00    -0.388 OA
ATOM     21  H   UNL     1      19.549  38.302  80.288  1.00  0.00     0.211 HD
ENDBRANCH  16  20
BRANCH  18  22
ATOM     22  O   UNL     1      19.810  35.681  77.456  1.00  0.00    -0.387 OA
ATOM     23  H   UNL     1      20.052  35.565  78.421  1.00  0.00     0.211 HD
ENDBRANCH  18  22
BRANCH  19  24
ATOM     24  O   UNL     1      19.389  36.775  74.872  1.00  0.00    -0.384 OA
ATOM     25  H   UNL     1      19.705  35.840  74.965  1.00  0.00     0.211 HD
ENDBRANCH  19  24
ENDBRANCH  12  13
ENDBRANCH   1  12
BRANCH   3  26
ATOM     26  O   UNL     1      14.658  41.120  72.941  1.00  0.00    -0.507 OA
ATOM     27  H   UNL     1      14.120  41.818  72.460  1.00  0.00     0.293 HD
ENDBRANCH   3  26
BRANCH   8  28
ATOM     28  C   UNL     1      18.223  46.279  75.173  1.00  0.00     0.021 A 
ATOM     29  C   UNL     1      18.105  46.678  76.509  1.00  0.00     0.016 A 
ATOM     30  C   UNL     1      18.954  47.079  74.276  1.00  0.00     0.016 A 
ATOM     31  C   UNL     1      18.740  47.838  76.957  1.00  0.00     0.047 A 
ATOM     32  C   UNL     1      19.577  48.248  74.724  1.00  0.00     0.047 A 
ATOM     33  C   UNL     1      19.482  48.625  76.067  1.00  0.00     0.115 A 
BRANCH  33  34
ATOM     34  O   UNL     1      20.125  49.781  76.507  1.00  0.00    -0.508 OA
ATOM     35  H   UNL     1      21.067  49.751  76.874  1.00  0.00     0.293 HD
ENDBRANCH  33  34
ENDBRANCH   8  28
BRANCH   9  36
ATOM     36  O   UNL     1      15.718  46.282  73.617  1.00  0.00    -0.454 OA
BRANCH  36  37
ATOM     37  C   UNL     1      15.169  47.225  74.543  1.00  0.00     0.339 C 
ATOM     38  C   UNL     1      14.786  48.541  73.834  1.00  0.00     0.214 C 
ATOM     39  O   UNL     1      14.060  46.674  75.234  1.00  0.00    -0.335 OA
ATOM     40  C   UNL     1      13.531  48.383  72.945  1.00  0.00     0.180 C 
ATOM     41  C   UNL     1      13.014  46.328  74.341  1.00  0.00     0.151 C 
ATOM     42  C   UNL     1      12.424  47.589  73.668  1.00  0.00     0.174 C 
ATOM     43  C   UNL     1      11.939  45.563  75.116  1.00  0.00     0.042 C 
BRANCH  38  44
ATOM     44  O   UNL     1      15.859  49.020  73.065  1.00  0.00    -0.384 OA
ATOM     45  H   UNL     1      15.466  49.423  72.244  1.00  0.00     0.211 HD
ENDBRANCH  38  44
BRANCH  40  46
ATOM     46  O   UNL     1      13.834  47.826  71.686  1.00  0.00    -0.387 OA
ATOM     47  H   UNL     1      13.630  46.858  71.715  1.00  0.00     0.211 HD
ENDBRANCH  40  46
BRANCH  42  48
ATOM     48  O   UNL     1      11.838  48.421  74.642  1.00  0.00    -0.388 OA
ATOM     49  H   UNL     1      11.385  47.834  75.301  1.00  0.00     0.211 HD
ENDBRANCH  42  48
ENDBRANCH  36  37
ENDBRANCH   9  36
TORSDOF 13
ENDMDL
MODEL 4
REMARK VINA RESULT:    -4.903      8.780     13.576
REMARK INTER + INTRA:          -7.551
REMARK INTER:                  -7.863
REMARK INTRA:                   0.312
REMARK UNBOUND:                -0.069
REMARK SMILES C[C@@H]1O[C@@H](Oc2c(-c3ccc(O)cc3)oc3cc(O[C@H]4O[C@@H](C)[C@@H](O)[C@H](O)[C@H]4O)cc(O)c3c2=O)[C@@H](O)[C@@H](O)[C@@H]1O
REMARK SMILES IDX 18 1 30 2 31 3 33 4 16 5 17 6 15 7 7 8 6 9 34 10 35 11 19 12
REMARK SMILES IDX 20 13 23 14 22 15 24 16 21 17 26 18 28 19 25 20 27 22 29 24
REMARK SMILES IDX 32 26 8 28 9 29 14 30 10 31 13 32 11 33 12 34 5 36 4 37
REMARK SMILES IDX 36 38 3 39 38 40 2 41 40 42 1 43 37 44 39 46 41 48
REMARK H PARENT 25 21 27 23 29 25 32 27 12 35 37 45 39 47 41 49
REMARK Flexibility Score: inf
ROOT
ATOM      1  C   UNL     1      10.066  48.693  71.384  1.00  0.00     0.130 A 
ATOM      2  C   UNL     1      10.350  49.410  70.213  1.00  0.00     0.093 A 
ATOM      3  C   UNL     1       9.522  49.312  69.086  1.00  0.00     0.134 A 
ATOM      4  C   UNL     1       8.402  48.424  69.114  1.00  0.00     0.111 A 
ATOM      5  C   UNL     1       8.100  47.761  70.330  1.00  0.00     0.146 A 
ATOM      6  C   UNL     1       8.905  47.931  71.454  1.00  0.00     0.094 A 
ATOM      7  O   UNL     1       7.073  46.925  70.418  1.00  0.00    -0.452 OA
ATOM      8  C   UNL     1       6.286  46.627  69.393  1.00  0.00     0.180 A 
ATOM      9  C   UNL     1       6.503  47.238  68.144  1.00  0.00     0.214 A 
ATOM     10  C   UNL     1       7.581  48.123  67.999  1.00  0.00     0.239 A 
ATOM     11  O   UNL     1       7.805  48.607  66.861  1.00  0.00    -0.285 OA
ENDROOT
BRANCH   1  12
ATOM     12  O   UNL     1      10.923  48.691  72.488  1.00  0.00    -0.462 OA
BRANCH  12  13
ATOM     13  C   UNL     1      11.665  47.552  72.930  1.00  0.00     0.339 C 
ATOM     14  C   UNL     1      13.471  50.026  72.472  1.00  0.00     0.042 C 
ATOM     15  C   UNL     1      13.775  48.656  73.101  1.00  0.00     0.151 C 
ATOM     16  C   UNL     1      13.718  48.632  74.652  1.00  0.00     0.174 C 
ATOM     17  O   UNL     1      13.017  47.616  72.491  1.00  0.00    -0.335 OA
ATOM     18  C   UNL     1      12.267  48.552  75.172  1.00  0.00     0.180 C 
ATOM     19  C   UNL     1      11.557  47.397  74.457  1.00  0.00     0.214 C 
BRANCH  16  20
ATOM     20  O   UNL     1      14.412  49.717  75.215  1.00  0.00    -0.388 OA
ATOM     21  H   UNL     1      14.558  50.393  74.504  1.00  0.00     0.211 HD
ENDBRANCH  16  20
BRANCH  18  22
ATOM     22  O   UNL     1      12.251  48.304  76.553  1.00  0.00    -0.387 OA
ATOM     23  H   UNL     1      12.340  49.188  77.015  1.00  0.00     0.211 HD
ENDBRANCH  18  22
BRANCH  19  24
ATOM     24  O   UNL     1      10.210  47.297  74.859  1.00  0.00    -0.384 OA
ATOM     25  H   UNL     1      10.099  46.455  75.370  1.00  0.00     0.211 HD
ENDBRANCH  19  24
ENDBRANCH  12  13
ENDBRANCH   1  12
BRANCH   3  26
ATOM     26  O   UNL     1       9.858  50.125  68.000  1.00  0.00    -0.507 OA
ATOM     27  H   UNL     1      10.103  51.098  68.041  1.00  0.00     0.293 HD
ENDBRANCH   3  26
BRANCH   8  28
ATOM     28  C   UNL     1       5.236  45.614  69.611  1.00  0.00     0.021 A 
ATOM     29  C   UNL     1       5.120  44.987  70.858  1.00  0.00     0.016 A 
ATOM     30  C   UNL     1       4.375  45.236  68.566  1.00  0.00     0.016 A 
ATOM     31  C   UNL     1       4.132  44.024  71.072  1.00  0.00     0.047 A 
ATOM     32  C   UNL     1       3.395  44.261  68.779  1.00  0.00     0.047 A 
ATOM     33  C   UNL     1       3.263  43.661  70.035  1.00  0.00     0.115 A 
BRANCH  33  34
ATOM     34  O   UNL     1       2.269  42.706  70.244  1.00  0.00    -0.508 OA
ATOM     35  H   UNL     1       1.899  42.156  69.480  1.00  0.00     0.293 HD
ENDBRANCH  33  34
ENDBRANCH   8  28
BRANCH   9  36
ATOM     36  O   UNL     1       5.689  46.976  67.035  1.00  0.00    -0.454 OA
BRANCH  36  37
ATOM     37  C   UNL     1       4.356  47.473  66.887  1.00  0.00     0.339 C 
ATOM     38  C   UNL     1       4.344  48.809  66.118  1.00  0.00     0.214 C 
ATOM     39  O   UNL     1       3.520  46.513  66.262  1.00  0.00    -0.335 OA
ATOM     40  C   UNL     1       4.652  48.621  64.614  1.00  0.00     0.180 C 
ATOM     41  C   UNL     1       3.981  46.199  64.958  1.00  0.00     0.151 C 
ATOM     42  C   UNL     1       3.875  47.426  64.024  1.00  0.00     0.174 C 
ATOM     43  C   UNL     1       3.162  45.023  64.418  1.00  0.00     0.042 C 
BRANCH  38  44
ATOM     44  O   UNL     1       5.256  49.716  66.682  1.00  0.00    -0.384 OA
ATOM     45  H   UNL     1       4.791  50.154  67.445  1.00  0.00     0.211 HD
ENDBRANCH  38  44
BRANCH  40  46
ATOM     46  O   UNL     1       6.035  48.520  64.360  1.00  0.00    -0.387 OA
ATOM     47  H   UNL     1       6.256  47.567  64.210  1.00  0.00     0.211 HD
ENDBRANCH  40  46
BRANCH  42  48
ATOM     48  O   UNL     1       2.525  47.799  63.875  1.00  0.00    -0.388 OA
ATOM     49  H   UNL     1       2.115  47.175  63.222  1.00  0.00     0.211 HD
ENDBRANCH  42  48
ENDBRANCH  36  37
ENDBRANCH   9  36
TORSDOF 13
ENDMDL
MODEL 5
REMARK VINA RESULT:    -4.299      1.954      3.184
REMARK INTER + INTRA:          -6.630
REMARK INTER:                  -6.324
REMARK INTRA:                  -0.306
REMARK UNBOUND:                -0.069
REMARK SMILES C[C@@H]1O[C@@H](Oc2c(-c3ccc(O)cc3)oc3cc(O[C@H]4O[C@@H](C)[C@@H](O)[C@H](O)[C@H]4O)cc(O)c3c2=O)[C@@H](O)[C@@H](O)[C@@H]1O
REMARK SMILES IDX 18 1 30 2 31 3 33 4 16 5 17 6 15 7 7 8 6 9 34 10 35 11 19 12
REMARK SMILES IDX 20 13 23 14 22 15 24 16 21 17 26 18 28 19 25 20 27 22 29 24
REMARK SMILES IDX 32 26 8 28 9 29 14 30 10 31 13 32 11 33 12 34 5 36 4 37
REMARK SMILES IDX 36 38 3 39 38 40 2 41 40 42 1 43 37 44 39 46 41 48
REMARK H PARENT 25 21 27 23 29 25 32 27 12 35 37 45 39 47 41 49
REMARK Flexibility Score: inf
ROOT
ATOM      1  C   UNL     1      19.300  41.399  75.505  1.00  0.00     0.130 A 
ATOM      2  C   UNL     1      19.008  41.562  74.144  1.00  0.00     0.093 A 
ATOM      3  C   UNL     1      18.867  42.839  73.583  1.00  0.00     0.134 A 
ATOM      4  C   UNL     1      18.969  43.990  74.424  1.00  0.00     0.111 A 
ATOM      5  C   UNL     1      19.329  43.800  75.782  1.00  0.00     0.146 A 
ATOM      6  C   UNL     1      19.528  42.520  76.294  1.00  0.00     0.094 A 
ATOM      7  O   UNL     1      19.441  44.830  76.612  1.00  0.00    -0.452 OA
ATOM      8  C   UNL     1      19.199  46.084  76.255  1.00  0.00     0.180 A 
ATOM      9  C   UNL     1      18.838  46.375  74.925  1.00  0.00     0.214 A 
ATOM     10  C   UNL     1      18.700  45.319  74.013  1.00  0.00     0.239 A 
ATOM     11  O   UNL     1      18.310  45.586  72.848  1.00  0.00    -0.285 OA
ENDROOT
BRANCH   1  12
ATOM     12  O   UNL     1      19.350  40.142  76.116  1.00  0.00    -0.462 OA
BRANCH  12  13
ATOM     13  C   UNL     1      18.287  39.581  76.890  1.00  0.00     0.339 C 
ATOM     14  C   UNL     1      19.663  37.475  75.083  1.00  0.00     0.042 C 
ATOM     15  C   UNL     1      18.616  37.320  76.198  1.00  0.00     0.151 C 
ATOM     16  C   UNL     1      19.199  36.929  77.582  1.00  0.00     0.174 C 
ATOM     17  O   UNL     1      17.733  38.436  76.252  1.00  0.00    -0.335 OA
ATOM     18  C   UNL     1      19.803  38.146  78.315  1.00  0.00     0.180 C 
ATOM     19  C   UNL     1      18.766  39.275  78.320  1.00  0.00     0.214 C 
BRANCH  16  20
ATOM     20  O   UNL     1      20.125  35.875  77.477  1.00  0.00    -0.388 OA
ATOM     21  H   UNL     1      20.714  36.057  76.700  1.00  0.00     0.211 HD
ENDBRANCH  16  20
BRANCH  18  22
ATOM     22  O   UNL     1      20.116  37.816  79.643  1.00  0.00    -0.387 OA
ATOM     23  H   UNL     1      19.694  36.929  79.835  1.00  0.00     0.211 HD
ENDBRANCH  18  22
BRANCH  19  24
ATOM     24  O   UNL     1      19.273  40.433  78.941  1.00  0.00    -0.384 OA
ATOM     25  H   UNL     1      18.514  41.040  79.136  1.00  0.00     0.211 HD
ENDBRANCH  19  24
ENDBRANCH  12  13
ENDBRANCH   1  12
BRANCH   3  26
ATOM     26  O   UNL     1      18.647  42.887  72.204  1.00  0.00    -0.507 OA
ATOM     27  H   UNL     1      18.325  42.130  71.628  1.00  0.00     0.293 HD
ENDBRANCH   3  26
BRANCH   8  28
ATOM     28  C   UNL     1      19.275  47.119  77.303  1.00  0.00     0.021 A 
ATOM     29  C   UNL     1      20.039  48.272  77.089  1.00  0.00     0.016 A 
ATOM     30  C   UNL     1      18.623  46.942  78.536  1.00  0.00     0.016 A 
ATOM     31  C   UNL     1      20.121  49.256  78.077  1.00  0.00     0.047 A 
ATOM     32  C   UNL     1      18.717  47.922  79.529  1.00  0.00     0.047 A 
ATOM     33  C   UNL     1      19.457  49.087  79.298  1.00  0.00     0.115 A 
BRANCH  33  34
ATOM     34  O   UNL     1      19.526  50.067  80.286  1.00  0.00    -0.508 OA
ATOM     35  H   UNL     1      18.816  50.145  81.003  1.00  0.00     0.293 HD
ENDBRANCH  33  34
ENDBRANCH   8  28
BRANCH   9  36
ATOM     36  O   UNL     1      18.592  47.683  74.489  1.00  0.00    -0.454 OA
BRANCH  36  37
ATOM     37  C   UNL     1      17.426  48.435  74.838  1.00  0.00     0.339 C 
ATOM     38  C   UNL     1      16.995  49.359  73.682  1.00  0.00     0.214 C 
ATOM     39  O   UNL     1      16.367  47.577  75.233  1.00  0.00    -0.335 OA
ATOM     40  C   UNL     1      16.377  48.571  72.502  1.00  0.00     0.180 C 
ATOM     41  C   UNL     1      15.987  46.707  74.179  1.00  0.00     0.151 C 
ATOM     42  C   UNL     1      15.383  47.502  72.998  1.00  0.00     0.174 C 
ATOM     43  C   UNL     1      14.988  45.684  74.724  1.00  0.00     0.042 C 
BRANCH  38  44
ATOM     44  O   UNL     1      18.081  50.125  73.227  1.00  0.00    -0.384 OA
ATOM     45  H   UNL     1      18.073  50.072  72.233  1.00  0.00     0.211 HD
ENDBRANCH  38  44
BRANCH  40  46
ATOM     46  O   UNL     1      17.360  48.018  71.657  1.00  0.00    -0.387 OA
ATOM     47  H   UNL     1      17.168  47.053  71.544  1.00  0.00     0.211 HD
ENDBRANCH  40  46
BRANCH  42  48
ATOM     48  O   UNL     1      14.200  48.145  73.410  1.00  0.00    -0.388 OA
ATOM     49  H   UNL     1      14.197  49.050  73.003  1.00  0.00     0.211 HD
ENDBRANCH  42  48
ENDBRANCH  36  37
ENDBRANCH   9  36
TORSDOF 13
ENDMDL
MODEL 6
REMARK VINA RESULT:    -4.029      4.054      7.855
REMARK INTER + INTRA:          -6.218
REMARK INTER:                  -6.373
REMARK INTRA:                   0.155
REMARK UNBOUND:                -0.069
REMARK SMILES C[C@@H]1O[C@@H](Oc2c(-c3ccc(O)cc3)oc3cc(O[C@H]4O[C@@H](C)[C@@H](O)[C@H](O)[C@H]4O)cc(O)c3c2=O)[C@@H](O)[C@@H](O)[C@@H]1O
REMARK SMILES IDX 18 1 30 2 31 3 33 4 16 5 17 6 15 7 7 8 6 9 34 10 35 11 19 12
REMARK SMILES IDX 20 13 23 14 22 15 24 16 21 17 26 18 28 19 25 20 27 22 29 24
REMARK SMILES IDX 32 26 8 28 9 29 14 30 10 31 13 32 11 33 12 34 5 36 4 37
REMARK SMILES IDX 36 38 3 39 38 40 2 41 40 42 1 43 37 44 39 46 41 48
REMARK H PARENT 25 21 27 23 29 25 32 27 12 35 37 45 39 47 41 49
REMARK Flexibility Score: inf
ROOT
ATOM      1  C   UNL     1      19.099  45.726  80.182  1.00  0.00     0.130 A 
ATOM      2  C   UNL     1      19.361  44.355  80.311  1.00  0.00     0.093 A 
ATOM      3  C   UNL     1      19.587  43.553  79.184  1.00  0.00     0.134 A 
ATOM      4  C   UNL     1      19.494  44.133  77.880  1.00  0.00     0.111 A 
ATOM      5  C   UNL     1      19.292  45.533  77.780  1.00  0.00     0.146 A 
ATOM      6  C   UNL     1      19.138  46.314  78.923  1.00  0.00     0.094 A 
ATOM      7  O   UNL     1      19.198  46.129  76.598  1.00  0.00    -0.452 OA
ATOM      8  C   UNL     1      19.251  45.475  75.446  1.00  0.00     0.180 A 
ATOM      9  C   UNL     1      19.453  44.082  75.441  1.00  0.00     0.214 A 
ATOM     10  C   UNL     1      19.551  43.406  76.665  1.00  0.00     0.239 A 
ATOM     11  O   UNL     1      19.661  42.154  76.647  1.00  0.00    -0.285 OA
ENDROOT
BRANCH   1  12
ATOM     12  O   UNL     1      18.773  46.533  81.276  1.00  0.00    -0.462 OA
BRANCH  12  13
ATOM     13  C   UNL     1      18.783  46.088  82.635  1.00  0.00     0.339 C 
ATOM     14  C   UNL     1      18.886  49.175  82.408  1.00  0.00     0.042 C 
ATOM     15  C   UNL     1      18.702  48.258  83.628  1.00  0.00     0.151 C 
ATOM     16  C   UNL     1      17.226  48.056  84.066  1.00  0.00     0.174 C 
ATOM     17  O   UNL     1      19.420  47.037  83.483  1.00  0.00    -0.335 OA
ATOM     18  C   UNL     1      16.499  47.025  83.177  1.00  0.00     0.180 C 
ATOM     19  C   UNL     1      17.356  45.756  83.104  1.00  0.00     0.214 C 
BRANCH  16  20
ATOM     20  O   UNL     1      16.529  49.276  84.122  1.00  0.00    -0.388 OA
ATOM     21  H   UNL     1      15.589  49.084  84.370  1.00  0.00     0.211 HD
ENDBRANCH  16  20
BRANCH  18  22
ATOM     22  O   UNL     1      15.251  46.694  83.726  1.00  0.00    -0.387 OA
ATOM     23  H   UNL     1      14.615  47.428  83.481  1.00  0.00     0.211 HD
ENDBRANCH  18  22
BRANCH  19  24
ATOM     24  O   UNL     1      16.764  44.787  82.270  1.00  0.00    -0.384 OA
ATOM     25  H   UNL     1      17.464  44.423  81.669  1.00  0.00     0.211 HD
ENDBRANCH  19  24
ENDBRANCH  12  13
ENDBRANCH   1  12
BRANCH   3  26
ATOM     26  O   UNL     1      19.910  42.216  79.431  1.00  0.00    -0.507 OA
ATOM     27  H   UNL     1      20.528  41.644  78.885  1.00  0.00     0.293 HD
ENDBRANCH   3  26
BRANCH   8  28
ATOM     28  C   UNL     1      19.044  46.252  74.210  1.00  0.00     0.021 A 
ATOM     29  C   UNL     1      20.125  46.513  73.360  1.00  0.00     0.016 A 
ATOM     30  C   UNL     1      17.777  46.776  73.894  1.00  0.00     0.016 A 
ATOM     31  C   UNL     1      19.939  47.251  72.189  1.00  0.00     0.047 A 
ATOM     32  C   UNL     1      17.596  47.526  72.729  1.00  0.00     0.047 A 
ATOM     33  C   UNL     1      18.673  47.757  71.868  1.00  0.00     0.115 A 
BRANCH  33  34
ATOM     34  O   UNL     1      18.477  48.489  70.697  1.00  0.00    -0.508 OA
ATOM     35  H   UNL     1      17.947  49.351  70.697  1.00  0.00     0.293 HD
ENDBRANCH  33  34
ENDBRANCH   8  28
BRANCH   9  36
ATOM     36  O   UNL     1      19.539  43.345  74.253  1.00  0.00    -0.454 OA
BRANCH  36  37
ATOM     37  C   UNL     1      18.476  43.240  73.301  1.00  0.00     0.339 C 
ATOM     38  C   UNL     1      18.266  41.776  72.864  1.00  0.00     0.214 C 
ATOM     39  O   UNL     1      17.278  43.800  73.812  1.00  0.00    -0.335 OA
ATOM     40  C   UNL     1      17.620  40.919  73.978  1.00  0.00     0.180 C 
ATOM     41  C   UNL     1      16.845  43.118  74.978  1.00  0.00     0.151 C 
ATOM     42  C   UNL     1      16.447  41.661  74.651  1.00  0.00     0.174 C 
ATOM     43  C   UNL     1      15.671  43.887  75.589  1.00  0.00     0.042 C 
BRANCH  38  44
ATOM     44  O   UNL     1      19.482  41.198  72.462  1.00  0.00    -0.384 OA
ATOM     45  H   UNL     1      19.255  40.454  71.841  1.00  0.00     0.211 HD
ENDBRANCH  38  44
BRANCH  40  46
ATOM     46  O   UNL     1      18.565  40.472  74.924  1.00  0.00    -0.387 OA
ATOM     47  H   UNL     1      18.167  39.723  75.434  1.00  0.00     0.211 HD
ENDBRANCH  40  46
BRANCH  42  48
ATOM     48  O   UNL     1      15.347  41.652  73.771  1.00  0.00    -0.388 OA
ATOM     49  H   UNL     1      15.236  42.575  73.425  1.00  0.00     0.211 HD
ENDBRANCH  42  48
ENDBRANCH  36  37
ENDBRANCH   9  36
TORSDOF 13
ENDMDL
MODEL 7
REMARK VINA RESULT:    -3.839      3.951     10.412
REMARK INTER + INTRA:          -5.927
REMARK INTER:                  -5.248
REMARK INTRA:                  -0.680
REMARK UNBOUND:                -0.069
REMARK SMILES C[C@@H]1O[C@@H](Oc2c(-c3ccc(O)cc3)oc3cc(O[C@H]4O[C@@H](C)[C@@H](O)[C@H](O)[C@H]4O)cc(O)c3c2=O)[C@@H](O)[C@@H](O)[C@@H]1O
REMARK SMILES IDX 18 1 30 2 31 3 33 4 16 5 17 6 15 7 7 8 6 9 34 10 35 11 19 12
REMARK SMILES IDX 20 13 23 14 22 15 24 16 21 17 26 18 28 19 25 20 27 22 29 24
REMARK SMILES IDX 32 26 8 28 9 29 14 30 10 31 13 32 11 33 12 34 5 36 4 37
REMARK SMILES IDX 36 38 3 39 38 40 2 41 40 42 1 43 37 44 39 46 41 48
REMARK H PARENT 25 21 27 23 29 25 32 27 12 35 37 45 39 47 41 49
REMARK Flexibility Score: inf
ROOT
ATOM      1  C   UNL     1      10.570  48.262  72.132  1.00  0.00     0.130 A 
ATOM      2  C   UNL     1      10.402  47.457  73.267  1.00  0.00     0.093 A 
ATOM      3  C   UNL     1      11.500  47.072  74.049  1.00  0.00     0.134 A 
ATOM      4  C   UNL     1      12.816  47.461  73.650  1.00  0.00     0.111 A 
ATOM      5  C   UNL     1      12.952  48.328  72.536  1.00  0.00     0.146 A 
ATOM      6  C   UNL     1      11.834  48.747  71.819  1.00  0.00     0.094 A 
ATOM      7  O   UNL     1      14.148  48.724  72.118  1.00  0.00    -0.452 OA
ATOM      8  C   UNL     1      15.283  48.326  72.674  1.00  0.00     0.180 A 
ATOM      9  C   UNL     1      15.253  47.468  73.790  1.00  0.00     0.214 A 
ATOM     10  C   UNL     1      14.013  47.015  74.264  1.00  0.00     0.239 A 
ATOM     11  O   UNL     1      14.003  46.194  75.215  1.00  0.00    -0.285 OA
ENDROOT
BRANCH   1  12
ATOM     12  O   UNL     1       9.511  48.581  71.277  1.00  0.00    -0.462 OA
BRANCH  12  13
ATOM     13  C   UNL     1       9.563  49.603  70.278  1.00  0.00     0.339 C 
ATOM     14  C   UNL     1      10.571  46.873  69.219  1.00  0.00     0.042 C 
ATOM     15  C   UNL     1      10.277  48.193  68.489  1.00  0.00     0.151 C 
ATOM     16  C   UNL     1       8.882  48.260  67.813  1.00  0.00     0.174 C 
ATOM     17  O   UNL     1      10.564  49.323  69.306  1.00  0.00    -0.335 OA
ATOM     18  C   UNL     1       7.764  48.573  68.832  1.00  0.00     0.180 C 
ATOM     19  C   UNL     1       8.176  49.806  69.642  1.00  0.00     0.214 C 
BRANCH  16  20
ATOM     20  O   UNL     1       8.603  47.094  67.079  1.00  0.00    -0.388 OA
ATOM     21  H   UNL     1       7.779  47.250  66.549  1.00  0.00     0.211 HD
ENDBRANCH  16  20
BRANCH  18  22
ATOM     22  O   UNL     1       6.558  48.850  68.170  1.00  0.00    -0.387 OA
ATOM     23  H   UNL     1       6.179  47.975  67.864  1.00  0.00     0.211 HD
ENDBRANCH  18  22
BRANCH  19  24
ATOM     24  O   UNL     1       7.214  50.120  70.622  1.00  0.00    -0.384 OA
ATOM     25  H   UNL     1       7.670  50.579  71.373  1.00  0.00     0.211 HD
ENDBRANCH  19  24
ENDBRANCH  12  13
ENDBRANCH   1  12
BRANCH   3  26
ATOM     26  O   UNL     1      11.211  46.330  75.198  1.00  0.00    -0.507 OA
ATOM     27  H   UNL     1      11.750  46.314  76.044  1.00  0.00     0.293 HD
ENDBRANCH   3  26
BRANCH   8  28
ATOM     28  C   UNL     1      16.543  48.775  72.052  1.00  0.00     0.021 A 
ATOM     29  C   UNL     1      17.365  49.687  72.723  1.00  0.00     0.016 A 
ATOM     30  C   UNL     1      16.908  48.331  70.768  1.00  0.00     0.016 A 
ATOM     31  C   UNL     1      18.558  50.121  72.139  1.00  0.00     0.047 A 
ATOM     32  C   UNL     1      18.096  48.777  70.181  1.00  0.00     0.047 A 
ATOM     33  C   UNL     1      18.929  49.665  70.868  1.00  0.00     0.115 A 
BRANCH  33  34
ATOM     34  O   UNL     1      20.122  50.087  70.282  1.00  0.00    -0.508 OA
ATOM     35  H   UNL     1      20.502  49.622  69.469  1.00  0.00     0.293 HD
ENDBRANCH  33  34
ENDBRANCH   8  28
BRANCH   9  36
ATOM     36  O   UNL     1      16.420  47.034  74.429  1.00  0.00    -0.454 OA
BRANCH  36  37
ATOM     37  C   UNL     1      17.408  46.205  73.810  1.00  0.00     0.339 C 
ATOM     38  C   UNL     1      18.771  46.341  74.518  1.00  0.00     0.214 C 
ATOM     39  O   UNL     1      16.984  44.852  73.768  1.00  0.00    -0.335 OA
ATOM     40  C   UNL     1      18.780  45.657  75.906  1.00  0.00     0.180 C 
ATOM     41  C   UNL     1      16.782  44.334  75.073  1.00  0.00     0.151 C 
ATOM     42  C   UNL     1      18.115  44.267  75.853  1.00  0.00     0.174 C 
ATOM     43  C   UNL     1      16.141  42.949  74.957  1.00  0.00     0.042 C 
BRANCH  38  44
ATOM     44  O   UNL     1      19.129  47.693  74.651  1.00  0.00    -0.384 OA
ATOM     45  H   UNL     1      20.123  47.724  74.696  1.00  0.00     0.211 HD
ENDBRANCH  38  44
BRANCH  40  46
ATOM     46  O   UNL     1      18.210  46.470  76.906  1.00  0.00    -0.387 OA
ATOM     47  H   UNL     1      18.822  46.484  77.684  1.00  0.00     0.211 HD
ENDBRANCH  40  46
BRANCH  42  48
ATOM     48  O   UNL     1      18.997  43.371  75.217  1.00  0.00    -0.388 OA
ATOM     49  H   UNL     1      18.627  42.458  75.331  1.00  0.00     0.211 HD
ENDBRANCH  42  48
ENDBRANCH  36  37
ENDBRANCH   9  36
TORSDOF 13
ENDMDL
