MODEL 1
REMARK VINA RESULT:    -4.651      0.000      0.000
REMARK INTER + INTRA:          -6.212
REMARK INTER:                  -5.738
REMARK INTRA:                  -0.474
REMARK UNBOUND:                -0.474
REMARK SMILES C=CC[C@@H](C)C(=O)CC
REMARK SMILES IDX 4 1 5 2 6 3 7 4 8 5 9 6 3 7 2 8 1 9
REMARK H PARENT
REMARK Flexibility Score: inf
ROOT
ATOM      1  C   UNL     1     -10.381  74.210  31.227  1.00  0.00     0.057 C 
ATOM      2  C   UNL     1      -9.033  74.922  31.047  1.00  0.00     0.016 C 
ENDROOT
BRANCH   1   3
ATOM      3  C   UNL     1     -11.016  74.630  32.536  1.00  0.00     0.135 C 
ATOM      4  O   UNL     1     -10.963  75.801  32.887  1.00  0.00    -0.299 OA
BRANCH   3   5
ATOM      5  C   UNL     1     -11.710  73.630  33.422  1.00  0.00     0.072 C 
ATOM      6  C   UNL     1     -10.883  72.355  33.548  1.00  0.00     0.012 C 
ENDBRANCH   3   5
ENDBRANCH   1   3
BRANCH   1   7
ATOM      7  C   UNL     1     -11.343  74.506  30.058  1.00  0.00     0.038 C 
BRANCH   7   8
ATOM      8  C   UNL     1     -11.967  73.255  29.498  1.00  0.00    -0.034 C 
ATOM      9  C   UNL     1     -11.632  72.041  29.945  1.00  0.00     0.004 C 
ENDBRANCH   7   8
ENDBRANCH   1   7
TORSDOF 4
ENDMDL
MODEL 2
REMARK VINA RESULT:    -4.554      2.295      3.059
REMARK INTER + INTRA:          -6.093
REMARK INTER:                  -5.823
REMARK INTRA:                  -0.270
REMARK UNBOUND:                -0.474
REMARK SMILES C=CC[C@@H](C)C(=O)CC
REMARK SMILES IDX 4 1 5 2 6 3 7 4 8 5 9 6 3 7 2 8 1 9
REMARK H PARENT
REMARK Flexibility Score: inf
ROOT
ATOM      1  C   UNL     1     -11.613  74.117  30.190  1.00  0.00     0.057 C 
ATOM      2  C   UNL     1     -12.558  74.117  28.980  1.00  0.00     0.016 C 
ENDROOT
BRANCH   1   3
ATOM      3  C   UNL     1     -11.400  72.699  30.677  1.00  0.00     0.135 C 
ATOM      4  O   UNL     1     -11.659  71.759  29.939  1.00  0.00    -0.299 OA
BRANCH   3   5
ATOM      5  C   UNL     1     -10.877  72.421  32.062  1.00  0.00     0.072 C 
ATOM      6  C   UNL     1     -11.805  73.012  33.118  1.00  0.00     0.012 C 
ENDBRANCH   3   5
ENDBRANCH   1   3
BRANCH   1   7
ATOM      7  C   UNL     1     -10.255  74.766  29.854  1.00  0.00     0.038 C 
BRANCH   7   8
ATOM      8  C   UNL     1     -10.079  74.997  28.376  1.00  0.00    -0.034 C 
ATOM      9  C   UNL     1      -9.133  74.366  27.673  1.00  0.00     0.004 C 
ENDBRANCH   7   8
ENDBRANCH   1   7
TORSDOF 4
ENDMDL
MODEL 3
REMARK VINA RESULT:    -4.474      1.622      2.333
REMARK INTER + INTRA:          -5.994
REMARK INTER:                  -5.538
REMARK INTRA:                  -0.455
REMARK UNBOUND:                -0.474
REMARK SMILES C=CC[C@@H](C)C(=O)CC
REMARK SMILES IDX 4 1 5 2 6 3 7 4 8 5 9 6 3 7 2 8 1 9
REMARK H PARENT
REMARK Flexibility Score: inf
ROOT
ATOM      1  C   UNL     1     -10.584  72.180  31.187  1.00  0.00     0.057 C 
ATOM      2  C   UNL     1      -9.192  72.604  30.698  1.00  0.00     0.016 C 
ENDROOT
BRANCH   1   3
ATOM      3  C   UNL     1     -11.034  73.089  32.311  1.00  0.00     0.135 C 
ATOM      4  O   UNL     1     -12.089  72.862  32.888  1.00  0.00    -0.299 OA
BRANCH   3   5
ATOM      5  C   UNL     1     -10.208  74.276  32.733  1.00  0.00     0.072 C 
ATOM      6  C   UNL     1     -10.934  75.579  32.412  1.00  0.00     0.012 C 
ENDBRANCH   3   5
ENDBRANCH   1   3
BRANCH   1   7
ATOM      7  C   UNL     1     -11.622  72.202  30.046  1.00  0.00     0.038 C 
BRANCH   7   8
ATOM      8  C   UNL     1     -11.612  73.502  29.287  1.00  0.00    -0.034 C 
ATOM      9  C   UNL     1     -12.725  74.011  28.748  1.00  0.00     0.004 C 
ENDBRANCH   7   8
ENDBRANCH   1   7
TORSDOF 4
ENDMDL
MODEL 4
REMARK VINA RESULT:    -4.452      2.180      3.824
REMARK INTER + INTRA:          -5.967
REMARK INTER:                  -5.734
REMARK INTRA:                  -0.233
REMARK UNBOUND:                -0.474
REMARK SMILES C=CC[C@@H](C)C(=O)CC
REMARK SMILES IDX 4 1 5 2 6 3 7 4 8 5 9 6 3 7 2 8 1 9
REMARK H PARENT
REMARK Flexibility Score: inf
ROOT
ATOM      1  C   UNL     1     -11.086  74.358  30.783  1.00  0.00     0.057 C 
ATOM      2  C   UNL     1      -9.765  74.961  31.280  1.00  0.00     0.016 C 
ENDROOT
BRANCH   1   3
ATOM      3  C   UNL     1     -11.129  74.388  29.270  1.00  0.00     0.135 C 
ATOM      4  O   UNL     1     -12.102  73.935  28.682  1.00  0.00    -0.299 OA
BRANCH   3   5
ATOM      5  C   UNL     1      -9.991  74.962  28.468  1.00  0.00     0.072 C 
ATOM      6  C   UNL     1      -9.238  73.859  27.731  1.00  0.00     0.012 C 
ENDBRANCH   3   5
ENDBRANCH   1   3
BRANCH   1   7
ATOM      7  C   UNL     1     -11.280  72.913  31.285  1.00  0.00     0.038 C 
BRANCH   7   8
ATOM      8  C   UNL     1     -11.630  72.856  32.749  1.00  0.00    -0.034 C 
ATOM      9  C   UNL     1     -10.887  72.173  33.624  1.00  0.00     0.004 C 
ENDBRANCH   7   8
ENDBRANCH   1   7
TORSDOF 4
ENDMDL
MODEL 5
REMARK VINA RESULT:    -4.431      1.533      2.232
REMARK INTER + INTRA:          -5.941
REMARK INTER:                  -5.728
REMARK INTRA:                  -0.213
REMARK UNBOUND:                -0.474
REMARK SMILES C=CC[C@@H](C)C(=O)CC
REMARK SMILES IDX 4 1 5 2 6 3 7 4 8 5 9 6 3 7 2 8 1 9
REMARK H PARENT
REMARK Flexibility Score: inf
ROOT
ATOM      1  C   UNL     1     -11.257  74.116  30.465  1.00  0.00     0.057 C 
ATOM      2  C   UNL     1     -11.622  72.739  29.893  1.00  0.00     0.016 C 
ENDROOT
BRANCH   1   3
ATOM      3  C   UNL     1     -11.144  74.035  31.972  1.00  0.00     0.135 C 
ATOM      4  O   UNL     1     -10.524  74.897  32.580  1.00  0.00    -0.299 OA
BRANCH   3   5
ATOM      5  C   UNL     1     -11.779  72.908  32.743  1.00  0.00     0.072 C 
ATOM      6  C   UNL     1     -10.744  72.195  33.608  1.00  0.00     0.012 C 
ENDBRANCH   3   5
ENDBRANCH   1   3
BRANCH   1   7
ATOM      7  C   UNL     1      -9.940  74.652  29.867  1.00  0.00     0.038 C 
BRANCH   7   8
ATOM      8  C   UNL     1     -10.085  75.047  28.421  1.00  0.00    -0.034 C 
ATOM      9  C   UNL     1      -9.286  74.549  27.472  1.00  0.00     0.004 C 
ENDBRANCH   7   8
ENDBRANCH   1   7
TORSDOF 4
ENDMDL
MODEL 6
REMARK VINA RESULT:    -4.425      2.301      4.278
REMARK INTER + INTRA:          -5.934
REMARK INTER:                  -5.470
REMARK INTRA:                  -0.463
REMARK UNBOUND:                -0.474
REMARK SMILES C=CC[C@@H](C)C(=O)CC
REMARK SMILES IDX 4 1 5 2 6 3 7 4 8 5 9 6 3 7 2 8 1 9
REMARK H PARENT
REMARK Flexibility Score: inf
ROOT
ATOM      1  C   UNL     1     -10.965  73.450  29.949  1.00  0.00     0.057 C 
ATOM      2  C   UNL     1     -11.634  72.069  29.962  1.00  0.00     0.016 C 
ENDROOT
BRANCH   1   3
ATOM      3  C   UNL     1     -11.377  74.212  28.708  1.00  0.00     0.135 C 
ATOM      4  O   UNL     1     -12.541  74.177  28.333  1.00  0.00    -0.299 OA
BRANCH   3   5
ATOM      5  C   UNL     1     -10.376  75.013  27.917  1.00  0.00     0.072 C 
ATOM      6  C   UNL     1      -9.099  74.210  27.692  1.00  0.00     0.012 C 
ENDBRANCH   3   5
ENDBRANCH   1   3
BRANCH   1   7
ATOM      7  C   UNL     1     -11.319  74.268  31.209  1.00  0.00     0.038 C 
BRANCH   7   8
ATOM      8  C   UNL     1     -10.206  75.194  31.623  1.00  0.00    -0.034 C 
ATOM      9  C   UNL     1      -8.926  74.923  31.349  1.00  0.00     0.004 C 
ENDBRANCH   7   8
ENDBRANCH   1   7
TORSDOF 4
ENDMDL
MODEL 7
REMARK VINA RESULT:    -4.400      1.829      2.228
REMARK INTER + INTRA:          -5.902
REMARK INTER:                  -5.628
REMARK INTRA:                  -0.274
REMARK UNBOUND:                -0.474
REMARK SMILES C=CC[C@@H](C)C(=O)CC
REMARK SMILES IDX 4 1 5 2 6 3 7 4 8 5 9 6 3 7 2 8 1 9
REMARK H PARENT
REMARK Flexibility Score: inf
ROOT
ATOM      1  C   UNL     1     -10.453  74.302  31.050  1.00  0.00     0.057 C 
ATOM      2  C   UNL     1     -10.623  75.400  32.110  1.00  0.00     0.016 C 
ENDROOT
BRANCH   1   3
ATOM      3  C   UNL     1     -10.366  72.947  31.719  1.00  0.00     0.135 C 
ATOM      4  O   UNL     1      -9.528  72.138  31.343  1.00  0.00    -0.299 OA
BRANCH   3   5
ATOM      5  C   UNL     1     -11.296  72.570  32.842  1.00  0.00     0.072 C 
ATOM      6  C   UNL     1     -10.508  72.146  34.077  1.00  0.00     0.012 C 
ENDBRANCH   3   5
ENDBRANCH   1   3
BRANCH   1   7
ATOM      7  C   UNL     1     -11.610  74.310  30.029  1.00  0.00     0.038 C 
BRANCH   7   8
ATOM      8  C   UNL     1     -11.119  74.378  28.607  1.00  0.00    -0.034 C 
ATOM      9  C   UNL     1      -9.950  74.945  28.292  1.00  0.00     0.004 C 
ENDBRANCH   7   8
ENDBRANCH   1   7
TORSDOF 4
ENDMDL
MODEL 8
REMARK VINA RESULT:    -4.362      1.953      3.019
REMARK INTER + INTRA:          -5.856
REMARK INTER:                  -5.502
REMARK INTRA:                  -0.353
REMARK UNBOUND:                -0.474
REMARK SMILES C=CC[C@@H](C)C(=O)CC
REMARK SMILES IDX 4 1 5 2 6 3 7 4 8 5 9 6 3 7 2 8 1 9
REMARK H PARENT
REMARK Flexibility Score: inf
ROOT
ATOM      1  C   UNL     1     -11.411  73.465  30.400  1.00  0.00     0.057 C 
ATOM      2  C   UNL     1     -11.580  71.974  30.077  1.00  0.00     0.016 C 
ENDROOT
BRANCH   1   3
ATOM      3  C   UNL     1     -10.038  73.713  30.988  1.00  0.00     0.135 C 
ATOM      4  O   UNL     1      -9.216  72.807  31.011  1.00  0.00    -0.299 OA
BRANCH   3   5
ATOM      5  C   UNL     1      -9.661  75.058  31.551  1.00  0.00     0.072 C 
ATOM      6  C   UNL     1     -10.737  75.563  32.507  1.00  0.00     0.012 C 
ENDBRANCH   3   5
ENDBRANCH   1   3
BRANCH   1   7
ATOM      7  C   UNL     1     -11.615  74.347  29.151  1.00  0.00     0.038 C 
BRANCH   7   8
ATOM      8  C   UNL     1     -10.623  74.037  28.062  1.00  0.00    -0.034 C 
ATOM      9  C   UNL     1      -9.729  74.939  27.645  1.00  0.00     0.004 C 
ENDBRANCH   7   8
ENDBRANCH   1   7
TORSDOF 4
ENDMDL
MODEL 9
REMARK VINA RESULT:    -4.361      1.644      3.826
REMARK INTER + INTRA:          -5.854
REMARK INTER:                  -5.517
REMARK INTRA:                  -0.337
REMARK UNBOUND:                -0.474
REMARK SMILES C=CC[C@@H](C)C(=O)CC
REMARK SMILES IDX 4 1 5 2 6 3 7 4 8 5 9 6 3 7 2 8 1 9
REMARK H PARENT
REMARK Flexibility Score: inf
ROOT
ATOM      1  C   UNL     1     -10.263  72.469  30.680  1.00  0.00     0.057 C 
ATOM      2  C   UNL     1     -11.624  72.083  30.084  1.00  0.00     0.016 C 
ENDROOT
BRANCH   1   3
ATOM      3  C   UNL     1      -9.924  73.897  30.310  1.00  0.00     0.135 C 
ATOM      4  O   UNL     1      -8.994  74.463  30.868  1.00  0.00    -0.299 OA
BRANCH   3   5
ATOM      5  C   UNL     1     -10.713  74.641  29.265  1.00  0.00     0.072 C 
ATOM      6  C   UNL     1      -9.821  75.034  28.092  1.00  0.00     0.012 C 
ENDBRANCH   3   5
ENDBRANCH   1   3
BRANCH   1   7
ATOM      7  C   UNL     1     -10.244  72.305  32.214  1.00  0.00     0.038 C 
BRANCH   7   8
ATOM      8  C   UNL     1     -11.566  72.655  32.844  1.00  0.00    -0.034 C 
ATOM      9  C   UNL     1     -11.707  73.719  33.641  1.00  0.00     0.004 C 
ENDBRANCH   7   8
ENDBRANCH   1   7
TORSDOF 4
ENDMDL
