MODEL 1
REMARK VINA RESULT:    -4.725      0.000      0.000
REMARK INTER + INTRA:          -8.023
REMARK INTER:                  -7.350
REMARK INTRA:                  -0.673
REMARK UNBOUND:                -0.673
REMARK SMILES COc1cc(CNC(=O)CCCCC=CC(C)C)ccc1O
REMARK SMILES IDX 11 1 12 2 13 3 14 4 15 5 16 6 17 7 18 8 10 9 8 10 9 11 7 12
REMARK SMILES IDX 6 14 5 15 4 16 19 17 3 18 20 19 21 20 2 21 1 22 22 23
REMARK H PARENT 7 13 22 24
REMARK Flexibility Score: inf
ROOT
ATOM      1  C   UNL     1     159.309 158.801 148.174  1.00  0.00     0.010 C 
ENDROOT
BRANCH   1   2
ATOM      2  C   UNL     1     159.135 160.153 148.881  1.00  0.00     0.005 C 
BRANCH   2   3
ATOM      3  C   UNL     1     160.303 160.471 149.825  1.00  0.00     0.027 C 
BRANCH   3   4
ATOM      4  C   UNL     1     159.856 161.370 150.943  1.00  0.00    -0.031 C 
ATOM      5  C   UNL     1     158.675 162.009 150.896  1.00  0.00    -0.028 C 
BRANCH   5   6
ATOM      6  C   UNL     1     158.190 162.912 152.006  1.00  0.00     0.005 C 
ATOM      7  C   UNL     1     158.785 162.498 153.356  1.00  0.00     0.012 C 
ATOM      8  C   UNL     1     156.659 162.964 152.065  1.00  0.00     0.012 C 
ENDBRANCH   5   6
ENDBRANCH   3   4
ENDBRANCH   2   3
ENDBRANCH   1   2
BRANCH   1   9
ATOM      9  C   UNL     1     160.760 158.553 147.741  1.00  0.00     0.100 C 
BRANCH   9  10
ATOM     10  C   UNL     1     160.945 158.954 146.310  1.00  0.00     0.220 C 
ATOM     11  O   UNL     1     161.937 159.662 145.990  1.00  0.00    -0.275 OA
ATOM     12  N   UNL     1     160.030 158.490 145.308  1.00  0.00    -0.352 N 
ATOM     13  H   UNL     1     159.173 157.969 145.604  1.00  0.00     0.163 HD
BRANCH  12  14
ATOM     14  C   UNL     1     160.326 158.578 143.881  1.00  0.00     0.151 C 
BRANCH  14  15
ATOM     15  C   UNL     1     160.347 157.198 143.281  1.00  0.00    -0.025 A 
ATOM     16  C   UNL     1     159.184 156.409 143.264  1.00  0.00     0.056 A 
ATOM     17  C   UNL     1     161.512 156.722 142.664  1.00  0.00     0.009 A 
ATOM     18  C   UNL     1     159.189 155.143 142.648  1.00  0.00     0.160 A 
ATOM     19  C   UNL     1     161.524 155.465 142.058  1.00  0.00     0.050 A 
ATOM     20  C   UNL     1     160.367 154.675 142.049  1.00  0.00     0.157 A 
BRANCH  18  21
ATOM     21  O   UNL     1     158.048 154.327 142.608  1.00  0.00    -0.493 OA
ATOM     22  C   UNL     1     157.085 154.335 141.559  1.00  0.00     0.278 C 
ENDBRANCH  18  21
BRANCH  20  23
ATOM     23  O   UNL     1     160.379 153.421 141.441  1.00  0.00    -0.504 OA
ATOM     24  H   UNL     1     160.036 152.596 141.919  1.00  0.00     0.293 HD
ENDBRANCH  20  23
ENDBRANCH  14  15
ENDBRANCH  12  14
ENDBRANCH   9  10
ENDBRANCH   1   9
TORSDOF 10
ENDMDL
MODEL 2
REMARK VINA RESULT:    -4.650      3.273      9.663
REMARK INTER + INTRA:          -7.906
REMARK INTER:                  -7.290
REMARK INTRA:                  -0.616
REMARK UNBOUND:                -0.673
REMARK SMILES COc1cc(CNC(=O)CCCCC=CC(C)C)ccc1O
REMARK SMILES IDX 11 1 12 2 13 3 14 4 15 5 16 6 17 7 18 8 10 9 8 10 9 11 7 12
REMARK SMILES IDX 6 14 5 15 4 16 19 17 3 18 20 19 21 20 2 21 1 22 22 23
REMARK H PARENT 7 13 22 24
REMARK Flexibility Score: inf
ROOT
ATOM      1  C   UNL     1     161.329 158.980 145.649  1.00  0.00     0.010 C 
ENDROOT
BRANCH   1   2
ATOM      2  C   UNL     1     160.361 158.251 144.705  1.00  0.00     0.005 C 
BRANCH   2   3
ATOM      3  C   UNL     1     160.896 158.176 143.268  1.00  0.00     0.027 C 
BRANCH   3   4
ATOM      4  C   UNL     1     160.082 157.218 142.444  1.00  0.00    -0.031 C 
ATOM      5  C   UNL     1     159.299 156.291 143.022  1.00  0.00    -0.028 C 
BRANCH   5   6
ATOM      6  C   UNL     1     158.461 155.319 142.226  1.00  0.00     0.005 C 
ATOM      7  C   UNL     1     159.308 154.151 141.710  1.00  0.00     0.012 C 
ATOM      8  C   UNL     1     157.719 156.017 141.080  1.00  0.00     0.012 C 
ENDBRANCH   5   6
ENDBRANCH   3   4
ENDBRANCH   2   3
ENDBRANCH   1   2
BRANCH   1   9
ATOM      9  C   UNL     1     160.947 158.804 147.124  1.00  0.00     0.100 C 
BRANCH   9  10
ATOM     10  C   UNL     1     161.590 159.874 147.952  1.00  0.00     0.220 C 
ATOM     11  O   UNL     1     161.957 160.946 147.400  1.00  0.00    -0.275 OA
ATOM     12  N   UNL     1     161.735 159.699 149.368  1.00  0.00    -0.352 N 
ATOM     13  H   UNL     1     161.494 158.775 149.793  1.00  0.00     0.163 HD
BRANCH  12  14
ATOM     14  C   UNL     1     162.055 160.808 150.262  1.00  0.00     0.151 C 
BRANCH  14  15
ATOM     15  C   UNL     1     160.812 161.253 150.984  1.00  0.00    -0.025 A 
ATOM     16  C   UNL     1     159.734 161.809 150.275  1.00  0.00     0.056 A 
ATOM     17  C   UNL     1     160.693 161.043 152.365  1.00  0.00     0.009 A 
ATOM     18  C   UNL     1     158.548 162.168 150.943  1.00  0.00     0.160 A 
ATOM     19  C   UNL     1     159.523 161.405 153.033  1.00  0.00     0.050 A 
ATOM     20  C   UNL     1     158.451 161.967 152.326  1.00  0.00     0.157 A 
BRANCH  18  21
ATOM     21  O   UNL     1     157.449 162.723 150.269  1.00  0.00    -0.493 OA
ATOM     22  C   UNL     1     157.147 162.502 148.895  1.00  0.00     0.278 C 
ENDBRANCH  18  21
BRANCH  20  23
ATOM     23  O   UNL     1     157.281 162.324 152.995  1.00  0.00    -0.504 OA
ATOM     24  H   UNL     1     156.368 162.056 152.646  1.00  0.00     0.293 HD
ENDBRANCH  20  23
ENDBRANCH  14  15
ENDBRANCH  12  14
ENDBRANCH   9  10
ENDBRANCH   1   9
TORSDOF 10
ENDMDL
MODEL 3
REMARK VINA RESULT:    -4.632     11.455     13.227
REMARK INTER + INTRA:          -7.878
REMARK INTER:                  -7.219
REMARK INTRA:                  -0.658
REMARK UNBOUND:                -0.673
REMARK SMILES COc1cc(CNC(=O)CCCCC=CC(C)C)ccc1O
REMARK SMILES IDX 11 1 12 2 13 3 14 4 15 5 16 6 17 7 18 8 10 9 8 10 9 11 7 12
REMARK SMILES IDX 6 14 5 15 4 16 19 17 3 18 20 19 21 20 2 21 1 22 22 23
REMARK H PARENT 7 13 22 24
REMARK Flexibility Score: inf
ROOT
ATOM      1  C   UNL     1     146.663 161.990 148.118  1.00  0.00     0.010 C 
ENDROOT
BRANCH   1   2
ATOM      2  C   UNL     1     145.618 161.965 149.244  1.00  0.00     0.005 C 
BRANCH   2   3
ATOM      3  C   UNL     1     144.446 161.025 148.929  1.00  0.00     0.027 C 
BRANCH   3   4
ATOM      4  C   UNL     1     143.675 160.695 150.176  1.00  0.00    -0.031 C 
ATOM      5  C   UNL     1     144.122 159.779 151.051  1.00  0.00    -0.028 C 
BRANCH   5   6
ATOM      6  C   UNL     1     143.378 159.429 152.319  1.00  0.00     0.005 C 
ATOM      7  C   UNL     1     144.027 160.090 153.541  1.00  0.00     0.012 C 
ATOM      8  C   UNL     1     143.259 157.912 152.505  1.00  0.00     0.012 C 
ENDBRANCH   5   6
ENDBRANCH   3   4
ENDBRANCH   2   3
ENDBRANCH   1   2
BRANCH   1   9
ATOM      9  C   UNL     1     146.640 160.709 147.275  1.00  0.00     0.100 C 
BRANCH   9  10
ATOM     10  C   UNL     1     146.393 161.046 145.836  1.00  0.00     0.220 C 
ATOM     11  O   UNL     1     145.888 162.162 145.540  1.00  0.00    -0.275 OA
ATOM     12  N   UNL     1     146.779 160.126 144.805  1.00  0.00    -0.352 N 
ATOM     13  H   UNL     1     147.125 159.178 145.074  1.00  0.00     0.163 HD
BRANCH  12  14
ATOM     14  C   UNL     1     146.858 160.518 143.401  1.00  0.00     0.151 C 
BRANCH  14  15
ATOM     15  C   UNL     1     148.285 160.442 142.931  1.00  0.00    -0.025 A 
ATOM     16  C   UNL     1     148.979 159.221 142.953  1.00  0.00     0.056 A 
ATOM     17  C   UNL     1     148.906 161.579 142.395  1.00  0.00     0.009 A 
ATOM     18  C   UNL     1     150.295 159.138 142.457  1.00  0.00     0.160 A 
ATOM     19  C   UNL     1     150.212 161.503 141.909  1.00  0.00     0.050 A 
ATOM     20  C   UNL     1     150.907 160.287 141.939  1.00  0.00     0.157 A 
BRANCH  18  21
ATOM     21  O   UNL     1     151.020 157.936 142.459  1.00  0.00    -0.493 OA
ATOM     22  C   UNL     1     150.947 156.946 141.438  1.00  0.00     0.278 C 
ENDBRANCH  18  21
BRANCH  20  23
ATOM     23  O   UNL     1     152.210 160.213 141.450  1.00  0.00    -0.504 OA
ATOM     24  H   UNL     1     152.996 160.019 142.060  1.00  0.00     0.293 HD
ENDBRANCH  20  23
ENDBRANCH  14  15
ENDBRANCH  12  14
ENDBRANCH   9  10
ENDBRANCH   1   9
TORSDOF 10
ENDMDL
MODEL 4
REMARK VINA RESULT:    -4.188     11.571     13.393
REMARK INTER + INTRA:          -7.187
REMARK INTER:                  -6.623
REMARK INTRA:                  -0.564
REMARK UNBOUND:                -0.673
REMARK SMILES COc1cc(CNC(=O)CCCCC=CC(C)C)ccc1O
REMARK SMILES IDX 11 1 12 2 13 3 14 4 15 5 16 6 17 7 18 8 10 9 8 10 9 11 7 12
REMARK SMILES IDX 6 14 5 15 4 16 19 17 3 18 20 19 21 20 2 21 1 22 22 23
REMARK H PARENT 7 13 22 24
REMARK Flexibility Score: inf
ROOT
ATOM      1  C   UNL     1     146.462 161.735 148.010  1.00  0.00     0.010 C 
ENDROOT
BRANCH   1   2
ATOM      2  C   UNL     1     145.002 162.023 148.391  1.00  0.00     0.005 C 
BRANCH   2   3
ATOM      3  C   UNL     1     144.787 162.028 149.911  1.00  0.00     0.027 C 
BRANCH   3   4
ATOM      4  C   UNL     1     143.821 160.951 150.317  1.00  0.00    -0.031 C 
ATOM      5  C   UNL     1     143.826 159.747 149.720  1.00  0.00    -0.028 C 
BRANCH   5   6
ATOM      6  C   UNL     1     142.876 158.639 150.109  1.00  0.00     0.005 C 
ATOM      7  C   UNL     1     143.176 158.122 151.520  1.00  0.00     0.012 C 
ATOM      8  C   UNL     1     142.888 157.498 149.084  1.00  0.00     0.012 C 
ENDBRANCH   5   6
ENDBRANCH   3   4
ENDBRANCH   2   3
ENDBRANCH   1   2
BRANCH   1   9
ATOM      9  C   UNL     1     146.598 160.492 147.122  1.00  0.00     0.100 C 
BRANCH   9  10
ATOM     10  C   UNL     1     146.600 160.891 145.678  1.00  0.00     0.220 C 
ATOM     11  O   UNL     1     146.203 162.042 145.354  1.00  0.00    -0.275 OA
ATOM     12  N   UNL     1     147.103 159.988 144.683  1.00  0.00    -0.352 N 
ATOM     13  H   UNL     1     147.356 159.013 144.963  1.00  0.00     0.163 HD
BRANCH  12  14
ATOM     14  C   UNL     1     147.424 160.423 143.326  1.00  0.00     0.151 C 
BRANCH  14  15
ATOM     15  C   UNL     1     148.369 159.442 142.689  1.00  0.00    -0.025 A 
ATOM     16  C   UNL     1     148.044 158.828 141.468  1.00  0.00     0.056 A 
ATOM     17  C   UNL     1     149.618 159.193 143.274  1.00  0.00     0.009 A 
ATOM     18  C   UNL     1     148.956 157.957 140.841  1.00  0.00     0.160 A 
ATOM     19  C   UNL     1     150.522 158.325 142.661  1.00  0.00     0.050 A 
ATOM     20  C   UNL     1     150.194 157.706 141.448  1.00  0.00     0.157 A 
BRANCH  18  21
ATOM     21  O   UNL     1     148.670 157.327 139.620  1.00  0.00    -0.493 OA
ATOM     22  C   UNL     1     148.022 156.065 139.493  1.00  0.00     0.278 C 
ENDBRANCH  18  21
BRANCH  20  23
ATOM     23  O   UNL     1     151.100 156.842 140.835  1.00  0.00    -0.504 OA
ATOM     24  H   UNL     1     151.039 156.624 139.847  1.00  0.00     0.293 HD
ENDBRANCH  20  23
ENDBRANCH  14  15
ENDBRANCH  12  14
ENDBRANCH   9  10
ENDBRANCH   1   9
TORSDOF 10
ENDMDL
MODEL 5
REMARK VINA RESULT:    -4.120      1.854      2.513
REMARK INTER + INTRA:          -7.082
REMARK INTER:                  -6.353
REMARK INTRA:                  -0.728
REMARK UNBOUND:                -0.673
REMARK SMILES COc1cc(CNC(=O)CCCCC=CC(C)C)ccc1O
REMARK SMILES IDX 11 1 12 2 13 3 14 4 15 5 16 6 17 7 18 8 10 9 8 10 9 11 7 12
REMARK SMILES IDX 6 14 5 15 4 16 19 17 3 18 20 19 21 20 2 21 1 22 22 23
REMARK H PARENT 7 13 22 24
REMARK Flexibility Score: inf
ROOT
ATOM      1  C   UNL     1     159.480 158.397 146.553  1.00  0.00     0.010 C 
ENDROOT
BRANCH   1   2
ATOM      2  C   UNL     1     159.009 158.836 147.947  1.00  0.00     0.005 C 
BRANCH   2   3
ATOM      3  C   UNL     1     160.137 159.482 148.765  1.00  0.00     0.027 C 
BRANCH   3   4
ATOM      4  C   UNL     1     159.732 160.846 149.247  1.00  0.00    -0.031 C 
ATOM      5  C   UNL     1     158.444 161.228 149.263  1.00  0.00    -0.028 C 
BRANCH   5   6
ATOM      6  C   UNL     1     158.001 162.587 149.750  1.00  0.00     0.005 C 
ATOM      7  C   UNL     1     157.702 162.567 151.253  1.00  0.00     0.012 C 
ATOM      8  C   UNL     1     156.800 163.110 148.952  1.00  0.00     0.012 C 
ENDBRANCH   5   6
ENDBRANCH   3   4
ENDBRANCH   2   3
ENDBRANCH   1   2
BRANCH   1   9
ATOM      9  C   UNL     1     160.875 158.937 146.212  1.00  0.00     0.100 C 
BRANCH   9  10
ATOM     10  C   UNL     1     161.210 158.631 144.785  1.00  0.00     0.220 C 
ATOM     11  O   UNL     1     162.414 158.659 144.413  1.00  0.00    -0.275 OA
ATOM     12  N   UNL     1     160.175 158.254 143.866  1.00  0.00    -0.352 N 
ATOM     13  H   UNL     1     159.177 158.310 144.175  1.00  0.00     0.163 HD
BRANCH  12  14
ATOM     14  C   UNL     1     160.464 157.646 142.571  1.00  0.00     0.151 C 
BRANCH  14  15
ATOM     15  C   UNL     1     159.361 156.694 142.199  1.00  0.00    -0.025 A 
ATOM     16  C   UNL     1     158.492 156.989 141.135  1.00  0.00     0.056 A 
ATOM     17  C   UNL     1     159.242 155.467 142.865  1.00  0.00     0.009 A 
ATOM     18  C   UNL     1     157.498 156.070 140.748  1.00  0.00     0.160 A 
ATOM     19  C   UNL     1     158.255 154.556 142.491  1.00  0.00     0.050 A 
ATOM     20  C   UNL     1     157.383 154.853 141.435  1.00  0.00     0.157 A 
BRANCH  18  21
ATOM     21  O   UNL     1     156.614 156.326 139.689  1.00  0.00    -0.493 OA
ATOM     22  C   UNL     1     156.363 157.615 139.140  1.00  0.00     0.278 C 
ENDBRANCH  18  21
BRANCH  20  23
ATOM     23  O   UNL     1     156.399 153.940 141.059  1.00  0.00    -0.504 OA
ATOM     24  H   UNL     1     155.662 153.662 141.697  1.00  0.00     0.293 HD
ENDBRANCH  20  23
ENDBRANCH  14  15
ENDBRANCH  12  14
ENDBRANCH   9  10
ENDBRANCH   1   9
TORSDOF 10
ENDMDL
MODEL 6
REMARK VINA RESULT:    -4.070     13.004     16.464
REMARK INTER + INTRA:          -7.004
REMARK INTER:                  -5.322
REMARK INTRA:                  -1.682
REMARK UNBOUND:                -0.673
REMARK SMILES COc1cc(CNC(=O)CCCCC=CC(C)C)ccc1O
REMARK SMILES IDX 11 1 12 2 13 3 14 4 15 5 16 6 17 7 18 8 10 9 8 10 9 11 7 12
REMARK SMILES IDX 6 14 5 15 4 16 19 17 3 18 20 19 21 20 2 21 1 22 22 23
REMARK H PARENT 7 13 22 24
REMARK Flexibility Score: inf
ROOT
ATOM      1  C   UNL     1     145.861 148.505 143.160  1.00  0.00     0.010 C 
ENDROOT
BRANCH   1   2
ATOM      2  C   UNL     1     145.692 150.001 142.858  1.00  0.00     0.005 C 
BRANCH   2   3
ATOM      3  C   UNL     1     144.286 150.334 142.339  1.00  0.00     0.027 C 
BRANCH   3   4
ATOM      4  C   UNL     1     144.340 151.439 141.322  1.00  0.00    -0.031 C 
ATOM      5  C   UNL     1     145.453 151.676 140.607  1.00  0.00    -0.028 C 
BRANCH   5   6
ATOM      6  C   UNL     1     145.540 152.771 139.569  1.00  0.00     0.005 C 
ATOM      7  C   UNL     1     146.488 152.381 138.431  1.00  0.00     0.012 C 
ATOM      8  C   UNL     1     145.944 154.112 140.195  1.00  0.00     0.012 C 
ENDBRANCH   5   6
ENDBRANCH   3   4
ENDBRANCH   2   3
ENDBRANCH   1   2
BRANCH   1   9
ATOM      9  C   UNL     1     145.258 147.618 142.063  1.00  0.00     0.100 C 
BRANCH   9  10
ATOM     10  C   UNL     1     146.099 147.689 140.825  1.00  0.00     0.220 C 
ATOM     11  O   UNL     1     145.553 147.962 139.723  1.00  0.00    -0.275 OA
ATOM     12  N   UNL     1     147.519 147.502 140.907  1.00  0.00    -0.352 N 
ATOM     13  H   UNL     1     147.940 147.203 141.815  1.00  0.00     0.163 HD
BRANCH  12  14
ATOM     14  C   UNL     1     148.417 147.866 139.815  1.00  0.00     0.151 C 
BRANCH  14  15
ATOM     15  C   UNL     1     149.194 149.099 140.186  1.00  0.00    -0.025 A 
ATOM     16  C   UNL     1     150.562 149.200 139.879  1.00  0.00     0.056 A 
ATOM     17  C   UNL     1     148.538 150.189 140.774  1.00  0.00     0.009 A 
ATOM     18  C   UNL     1     151.275 150.378 140.172  1.00  0.00     0.160 A 
ATOM     19  C   UNL     1     149.242 151.356 141.073  1.00  0.00     0.050 A 
ATOM     20  C   UNL     1     150.607 151.453 140.775  1.00  0.00     0.157 A 
BRANCH  18  21
ATOM     21  O   UNL     1     152.640 150.519 139.878  1.00  0.00    -0.493 OA
ATOM     22  C   UNL     1     153.696 149.989 140.672  1.00  0.00     0.278 C 
ENDBRANCH  18  21
BRANCH  20  23
ATOM     23  O   UNL     1     151.308 152.621 141.071  1.00  0.00    -0.504 OA
ATOM     24  H   UNL     1     151.960 153.031 140.411  1.00  0.00     0.293 HD
ENDBRANCH  20  23
ENDBRANCH  14  15
ENDBRANCH  12  14
ENDBRANCH   9  10
ENDBRANCH   1   9
TORSDOF 10
ENDMDL
MODEL 7
REMARK VINA RESULT:    -4.062      8.287     13.279
REMARK INTER + INTRA:          -6.991
REMARK INTER:                  -5.650
REMARK INTRA:                  -1.340
REMARK UNBOUND:                -0.673
REMARK SMILES COc1cc(CNC(=O)CCCCC=CC(C)C)ccc1O
REMARK SMILES IDX 11 1 12 2 13 3 14 4 15 5 16 6 17 7 18 8 10 9 8 10 9 11 7 12
REMARK SMILES IDX 6 14 5 15 4 16 19 17 3 18 20 19 21 20 2 21 1 22 22 23
REMARK H PARENT 7 13 22 24
REMARK Flexibility Score: inf
ROOT
ATOM      1  C   UNL     1     149.650 149.419 139.828  1.00  0.00     0.010 C 
ENDROOT
BRANCH   1   2
ATOM      2  C   UNL     1     151.103 148.920 139.808  1.00  0.00     0.005 C 
BRANCH   2   3
ATOM      3  C   UNL     1     151.206 147.420 140.119  1.00  0.00     0.027 C 
BRANCH   3   4
ATOM      4  C   UNL     1     152.497 147.109 140.822  1.00  0.00    -0.031 C 
ATOM      5  C   UNL     1     153.479 148.021 140.916  1.00  0.00    -0.028 C 
BRANCH   5   6
ATOM      6  C   UNL     1     154.785 147.746 141.623  1.00  0.00     0.005 C 
ATOM      7  C   UNL     1     155.956 147.721 140.634  1.00  0.00     0.012 C 
ATOM      8  C   UNL     1     154.723 146.451 142.443  1.00  0.00     0.012 C 
ENDBRANCH   5   6
ENDBRANCH   3   4
ENDBRANCH   2   3
ENDBRANCH   1   2
BRANCH   1   9
ATOM      9  C   UNL     1     149.464 150.632 140.748  1.00  0.00     0.100 C 
BRANCH   9  10
ATOM     10  C   UNL     1     150.474 151.688 140.417  1.00  0.00     0.220 C 
ATOM     11  O   UNL     1     150.356 152.342 139.346  1.00  0.00    -0.275 OA
ATOM     12  N   UNL     1     151.532 151.987 141.339  1.00  0.00    -0.352 N 
ATOM     13  H   UNL     1     151.655 151.383 142.183  1.00  0.00     0.163 HD
BRANCH  12  14
ATOM     14  C   UNL     1     152.344 153.194 141.228  1.00  0.00     0.151 C 
BRANCH  14  15
ATOM     15  C   UNL     1     153.714 152.840 140.717  1.00  0.00    -0.025 A 
ATOM     16  C   UNL     1     154.758 153.779 140.761  1.00  0.00     0.056 A 
ATOM     17  C   UNL     1     153.976 151.539 140.264  1.00  0.00     0.009 A 
ATOM     18  C   UNL     1     156.055 153.427 140.339  1.00  0.00     0.160 A 
ATOM     19  C   UNL     1     155.257 151.187 139.839  1.00  0.00     0.050 A 
ATOM     20  C   UNL     1     156.296 152.127 139.874  1.00  0.00     0.157 A 
BRANCH  18  21
ATOM     21  O   UNL     1     157.123 154.336 140.370  1.00  0.00    -0.493 OA
ATOM     22  C   UNL     1     157.665 154.907 141.557  1.00  0.00     0.278 C 
ENDBRANCH  18  21
BRANCH  20  23
ATOM     23  O   UNL     1     157.576 151.773 139.452  1.00  0.00    -0.504 OA
ATOM     24  H   UNL     1     157.864 151.876 138.486  1.00  0.00     0.293 HD
ENDBRANCH  20  23
ENDBRANCH  14  15
ENDBRANCH  12  14
ENDBRANCH   9  10
ENDBRANCH   1   9
TORSDOF 10
ENDMDL
MODEL 8
REMARK VINA RESULT:    -3.956     10.044     14.559
REMARK INTER + INTRA:          -6.827
REMARK INTER:                  -4.674
REMARK INTRA:                  -2.152
REMARK UNBOUND:                -0.673
REMARK SMILES COc1cc(CNC(=O)CCCCC=CC(C)C)ccc1O
REMARK SMILES IDX 11 1 12 2 13 3 14 4 15 5 16 6 17 7 18 8 10 9 8 10 9 11 7 12
REMARK SMILES IDX 6 14 5 15 4 16 19 17 3 18 20 19 21 20 2 21 1 22 22 23
REMARK H PARENT 7 13 22 24
REMARK Flexibility Score: inf
ROOT
ATOM      1  C   UNL     1     151.280 146.823 137.117  1.00  0.00     0.010 C 
ENDROOT
BRANCH   1   2
ATOM      2  C   UNL     1     151.536 146.270 138.527  1.00  0.00     0.005 C 
BRANCH   2   3
ATOM      3  C   UNL     1     150.815 147.085 139.610  1.00  0.00     0.027 C 
BRANCH   3   4
ATOM      4  C   UNL     1     151.797 147.636 140.606  1.00  0.00    -0.031 C 
ATOM      5  C   UNL     1     153.112 147.683 140.337  1.00  0.00    -0.028 C 
BRANCH   5   6
ATOM      6  C   UNL     1     154.126 148.239 141.310  1.00  0.00     0.005 C 
ATOM      7  C   UNL     1     155.182 149.082 140.588  1.00  0.00     0.012 C 
ATOM      8  C   UNL     1     154.776 147.129 142.145  1.00  0.00     0.012 C 
ENDBRANCH   5   6
ENDBRANCH   3   4
ENDBRANCH   2   3
ENDBRANCH   1   2
BRANCH   1   9
ATOM      9  C   UNL     1     152.583 147.115 136.361  1.00  0.00     0.100 C 
BRANCH   9  10
ATOM     10  C   UNL     1     153.170 148.410 136.832  1.00  0.00     0.220 C 
ATOM     11  O   UNL     1     154.395 148.462 137.125  1.00  0.00    -0.275 OA
ATOM     12  N   UNL     1     152.357 149.590 136.894  1.00  0.00    -0.352 N 
ATOM     13  H   UNL     1     151.330 149.508 136.719  1.00  0.00     0.163 HD
BRANCH  12  14
ATOM     14  C   UNL     1     152.930 150.925 137.035  1.00  0.00     0.151 C 
BRANCH  14  15
ATOM     15  C   UNL     1     152.869 151.354 138.476  1.00  0.00    -0.025 A 
ATOM     16  C   UNL     1     153.873 152.171 139.021  1.00  0.00     0.056 A 
ATOM     17  C   UNL     1     151.764 151.002 139.264  1.00  0.00     0.009 A 
ATOM     18  C   UNL     1     153.784 152.622 140.352  1.00  0.00     0.160 A 
ATOM     19  C   UNL     1     151.674 151.440 140.585  1.00  0.00     0.050 A 
ATOM     20  C   UNL     1     152.680 152.248 141.131  1.00  0.00     0.157 A 
BRANCH  18  21
ATOM     21  O   UNL     1     154.764 153.442 140.931  1.00  0.00    -0.493 OA
ATOM     22  C   UNL     1     155.376 154.552 140.283  1.00  0.00     0.278 C 
ENDBRANCH  18  21
BRANCH  20  23
ATOM     23  O   UNL     1     152.587 152.688 142.450  1.00  0.00    -0.504 OA
ATOM     24  H   UNL     1     153.413 152.842 143.018  1.00  0.00     0.293 HD
ENDBRANCH  20  23
ENDBRANCH  14  15
ENDBRANCH  12  14
ENDBRANCH   9  10
ENDBRANCH   1   9
TORSDOF 10
ENDMDL
MODEL 9
REMARK VINA RESULT:    -3.931     12.000     15.389
REMARK INTER + INTRA:          -6.787
REMARK INTER:                  -4.505
REMARK INTRA:                  -2.282
REMARK UNBOUND:                -0.673
REMARK SMILES COc1cc(CNC(=O)CCCCC=CC(C)C)ccc1O
REMARK SMILES IDX 11 1 12 2 13 3 14 4 15 5 16 6 17 7 18 8 10 9 8 10 9 11 7 12
REMARK SMILES IDX 6 14 5 15 4 16 19 17 3 18 20 19 21 20 2 21 1 22 22 23
REMARK H PARENT 7 13 22 24
REMARK Flexibility Score: inf
ROOT
ATOM      1  C   UNL     1     153.530 143.614 140.069  1.00  0.00     0.010 C 
ENDROOT
BRANCH   1   2
ATOM      2  C   UNL     1     154.582 144.286 139.174  1.00  0.00     0.005 C 
BRANCH   2   3
ATOM      3  C   UNL     1     154.093 145.627 138.608  1.00  0.00     0.027 C 
BRANCH   3   4
ATOM      4  C   UNL     1     152.718 145.953 139.121  1.00  0.00    -0.031 C 
ATOM      5  C   UNL     1     152.057 147.044 138.702  1.00  0.00    -0.028 C 
BRANCH   5   6
ATOM      6  C   UNL     1     150.671 147.398 139.189  1.00  0.00     0.005 C 
ATOM      7  C   UNL     1     150.675 148.727 139.951  1.00  0.00     0.012 C 
ATOM      8  C   UNL     1     150.065 146.272 140.035  1.00  0.00     0.012 C 
ENDBRANCH   5   6
ENDBRANCH   3   4
ENDBRANCH   2   3
ENDBRANCH   1   2
BRANCH   1   9
ATOM      9  C   UNL     1     154.142 143.028 141.347  1.00  0.00     0.100 C 
BRANCH   9  10
ATOM     10  C   UNL     1     154.886 144.091 142.095  1.00  0.00     0.220 C 
ATOM     11  O   UNL     1     156.100 143.911 142.382  1.00  0.00    -0.275 OA
ATOM     12  N   UNL     1     154.235 145.324 142.432  1.00  0.00    -0.352 N 
ATOM     13  H   UNL     1     153.210 145.423 142.253  1.00  0.00     0.163 HD
BRANCH  12  14
ATOM     14  C   UNL     1     154.976 146.504 142.868  1.00  0.00     0.151 C 
BRANCH  14  15
ATOM     15  C   UNL     1     155.231 147.408 141.693  1.00  0.00    -0.025 A 
ATOM     16  C   UNL     1     154.324 148.431 141.370  1.00  0.00     0.056 A 
ATOM     17  C   UNL     1     156.417 147.281 140.957  1.00  0.00     0.009 A 
ATOM     18  C   UNL     1     154.593 149.316 140.308  1.00  0.00     0.160 A 
ATOM     19  C   UNL     1     156.685 148.149 139.899  1.00  0.00     0.050 A 
ATOM     20  C   UNL     1     155.776 149.165 139.572  1.00  0.00     0.157 A 
BRANCH  18  21
ATOM     21  O   UNL     1     153.714 150.352 139.957  1.00  0.00    -0.493 OA
ATOM     22  C   UNL     1     153.604 151.589 140.652  1.00  0.00     0.278 C 
ENDBRANCH  18  21
BRANCH  20  23
ATOM     23  O   UNL     1     156.047 150.034 138.517  1.00  0.00    -0.504 OA
ATOM     24  H   UNL     1     155.992 151.040 138.630  1.00  0.00     0.293 HD
ENDBRANCH  20  23
ENDBRANCH  14  15
ENDBRANCH  12  14
ENDBRANCH   9  10
ENDBRANCH   1   9
TORSDOF 10
ENDMDL
