MODEL 1
REMARK VINA RESULT:    -6.758      0.000      0.000
REMARK INTER + INTRA:          -8.465
REMARK INTER:                  -8.141
REMARK INTRA:                  -0.324
REMARK UNBOUND:                -0.324
REMARK SMILES O=c1c(O)c(-c2ccc(O)c(O)c2)oc2cc(O)cc(O)c12
REMARK SMILES IDX 5 1 3 2 2 3 1 4 22 5 20 6 19 7 17 8 16 9 15 10 14 11 6 12
REMARK SMILES IDX 7 13 8 14 9 15 13 16 11 17 10 18 12 20 4 22 21 24 18 26
REMARK H PARENT 10 19 12 21 4 23 21 25 18 27
REMARK Flexibility Score: inf
ROOT
ATOM      1  C   UNL     1       9.934  12.262 -17.073  1.00  0.00     0.180 A 
ATOM      2  C   UNL     1      10.759  13.325 -16.669  1.00  0.00     0.208 A 
ATOM      3  C   UNL     1      10.797  14.492 -17.450  1.00  0.00     0.238 A 
ATOM      4  O   UNL     1      11.579  15.419 -17.114  1.00  0.00    -0.285 OA
ATOM      5  C   UNL     1       9.997  14.587 -18.615  1.00  0.00     0.111 A 
ATOM      6  C   UNL     1       9.926  15.736 -19.458  1.00  0.00     0.134 A 
ATOM      7  C   UNL     1       9.202  15.671 -20.655  1.00  0.00     0.093 A 
ATOM      8  C   UNL     1       8.494  14.523 -21.006  1.00  0.00     0.123 A 
ATOM      9  C   UNL     1       8.508  13.414 -20.160  1.00  0.00     0.094 A 
ATOM     10  C   UNL     1       9.251  13.435 -18.977  1.00  0.00     0.146 A 
ATOM     11  O   UNL     1       9.246  12.356 -18.205  1.00  0.00    -0.452 OA
ENDROOT
BRANCH   1  12
ATOM     12  C   UNL     1       9.822  11.011 -16.289  1.00  0.00     0.025 A 
ATOM     13  C   UNL     1      10.711   9.954 -16.544  1.00  0.00     0.016 A 
ATOM     14  C   UNL     1      10.609   8.756 -15.830  1.00  0.00     0.051 A 
ATOM     15  C   UNL     1       9.610   8.593 -14.863  1.00  0.00     0.157 A 
ATOM     16  C   UNL     1       8.807  10.835 -15.332  1.00  0.00     0.062 A 
ATOM     17  C   UNL     1       8.704   9.632 -14.616  1.00  0.00     0.158 A 
BRANCH  15  18
ATOM     18  O   UNL     1       9.506   7.402 -14.148  1.00  0.00    -0.504 OA
ATOM     19  H   UNL     1       9.354   6.515 -14.614  1.00  0.00     0.293 HD
ENDBRANCH  15  18
BRANCH  17  20
ATOM     20  O   UNL     1       7.702   9.463 -13.663  1.00  0.00    -0.504 OA
ATOM     21  H   UNL     1       7.412  10.220 -13.056  1.00  0.00     0.293 HD
ENDBRANCH  17  20
ENDBRANCH   1  12
BRANCH   2  22
ATOM     22  O   UNL     1      11.558  13.203 -15.529  1.00  0.00    -0.502 OA
ATOM     23  H   UNL     1      11.212  13.404 -14.599  1.00  0.00     0.293 HD
ENDBRANCH   2  22
BRANCH   6  24
ATOM     24  O   UNL     1      10.521  16.964 -19.155  1.00  0.00    -0.507 OA
ATOM     25  H   UNL     1      10.034  17.761 -18.775  1.00  0.00     0.293 HD
ENDBRANCH   6  24
BRANCH   8  26
ATOM     26  O   UNL     1       7.772  14.498 -22.197  1.00  0.00    -0.508 OA
ATOM     27  H   UNL     1       8.206  14.240 -23.075  1.00  0.00     0.293 HD
ENDBRANCH   8  26
TORSDOF 6
ENDMDL
MODEL 2
REMARK VINA RESULT:    -6.559      1.267      2.944
REMARK INTER + INTRA:          -8.224
REMARK INTER:                  -7.901
REMARK INTRA:                  -0.323
REMARK UNBOUND:                -0.324
REMARK SMILES O=c1c(O)c(-c2ccc(O)c(O)c2)oc2cc(O)cc(O)c12
REMARK SMILES IDX 5 1 3 2 2 3 1 4 22 5 20 6 19 7 17 8 16 9 15 10 14 11 6 12
REMARK SMILES IDX 7 13 8 14 9 15 13 16 11 17 10 18 12 20 4 22 21 24 18 26
REMARK H PARENT 10 19 12 21 4 23 21 25 18 27
REMARK Flexibility Score: inf
ROOT
ATOM      1  C   UNL     1       9.119  11.819 -18.013  1.00  0.00     0.180 A 
ATOM      2  C   UNL     1       8.307  11.540 -19.125  1.00  0.00     0.208 A 
ATOM      3  C   UNL     1       8.100  12.543 -20.086  1.00  0.00     0.238 A 
ATOM      4  O   UNL     1       7.327  12.306 -21.051  1.00  0.00    -0.285 OA
ATOM      5  C   UNL     1       8.723  13.805 -19.931  1.00  0.00     0.111 A 
ATOM      6  C   UNL     1       8.616  14.881 -20.863  1.00  0.00     0.134 A 
ATOM      7  C   UNL     1       9.167  16.128 -20.545  1.00  0.00     0.093 A 
ATOM      8  C   UNL     1       9.875  16.321 -19.360  1.00  0.00     0.123 A 
ATOM      9  C   UNL     1      10.036  15.260 -18.469  1.00  0.00     0.094 A 
ATOM     10  C   UNL     1       9.467  14.013 -18.741  1.00  0.00     0.146 A 
ATOM     11  O   UNL     1       9.636  13.033 -17.863  1.00  0.00    -0.452 OA
ENDROOT
BRANCH   1  12
ATOM     12  C   UNL     1       9.404  10.805 -16.971  1.00  0.00     0.025 A 
ATOM     13  C   UNL     1      10.487   9.929 -17.138  1.00  0.00     0.016 A 
ATOM     14  C   UNL     1      10.762   8.951 -16.178  1.00  0.00     0.051 A 
ATOM     15  C   UNL     1       9.948   8.826 -15.045  1.00  0.00     0.157 A 
ATOM     16  C   UNL     1       8.576  10.663 -15.842  1.00  0.00     0.062 A 
ATOM     17  C   UNL     1       8.851   9.680 -14.879  1.00  0.00     0.158 A 
BRANCH  15  18
ATOM     18  O   UNL     1      10.218   7.854 -14.084  1.00  0.00    -0.504 OA
ATOM     19  H   UNL     1      10.680   8.086 -13.212  1.00  0.00     0.293 HD
ENDBRANCH  15  18
BRANCH  17  20
ATOM     20  O   UNL     1       8.034   9.545 -13.758  1.00  0.00    -0.504 OA
ATOM     21  H   UNL     1       7.304  10.216 -13.548  1.00  0.00     0.293 HD
ENDBRANCH  17  20
ENDBRANCH   1  12
BRANCH   2  22
ATOM     22  O   UNL     1       7.684  10.294 -19.246  1.00  0.00    -0.502 OA
ATOM     23  H   UNL     1       6.797  10.174 -19.721  1.00  0.00     0.293 HD
ENDBRANCH   2  22
BRANCH   6  24
ATOM     24  O   UNL     1       8.008  14.769 -22.117  1.00  0.00    -0.507 OA
ATOM     25  H   UNL     1       7.017  14.841 -22.284  1.00  0.00     0.293 HD
ENDBRANCH   6  24
BRANCH   8  26
ATOM     26  O   UNL     1      10.423  17.571 -19.081  1.00  0.00    -0.508 OA
ATOM     27  H   UNL     1      10.600  18.247 -19.815  1.00  0.00     0.293 HD
ENDBRANCH   8  26
TORSDOF 6
ENDMDL
MODEL 3
REMARK VINA RESULT:    -6.471      1.830      7.137
REMARK INTER + INTRA:          -8.119
REMARK INTER:                  -8.187
REMARK INTRA:                   0.069
REMARK UNBOUND:                -0.324
REMARK SMILES O=c1c(O)c(-c2ccc(O)c(O)c2)oc2cc(O)cc(O)c12
REMARK SMILES IDX 5 1 3 2 2 3 1 4 22 5 20 6 19 7 17 8 16 9 15 10 14 11 6 12
REMARK SMILES IDX 7 13 8 14 9 15 13 16 11 17 10 18 12 20 4 22 21 24 18 26
REMARK H PARENT 10 19 12 21 4 23 21 25 18 27
REMARK Flexibility Score: inf
ROOT
ATOM      1  C   UNL     1       9.072  12.767 -18.461  1.00  0.00     0.180 A 
ATOM      2  C   UNL     1       9.519  11.477 -18.789  1.00  0.00     0.208 A 
ATOM      3  C   UNL     1       9.499  10.477 -17.802  1.00  0.00     0.238 A 
ATOM      4  O   UNL     1       9.953   9.338 -18.087  1.00  0.00    -0.285 OA
ATOM      5  C   UNL     1       9.015  10.777 -16.506  1.00  0.00     0.111 A 
ATOM      6  C   UNL     1       8.911   9.832 -15.441  1.00  0.00     0.134 A 
ATOM      7  C   UNL     1       8.542  10.270 -14.164  1.00  0.00     0.093 A 
ATOM      8  C   UNL     1       8.210  11.603 -13.927  1.00  0.00     0.123 A 
ATOM      9  C   UNL     1       8.250  12.523 -14.974  1.00  0.00     0.094 A 
ATOM     10  C   UNL     1       8.651  12.125 -16.252  1.00  0.00     0.146 A 
ATOM     11  O   UNL     1       8.685  13.034 -17.218  1.00  0.00    -0.452 OA
ENDROOT
BRANCH   1  12
ATOM     12  C   UNL     1       9.040  13.866 -19.453  1.00  0.00     0.025 A 
ATOM     13  C   UNL     1       8.515  13.626 -20.733  1.00  0.00     0.016 A 
ATOM     14  C   UNL     1       8.494  14.643 -21.692  1.00  0.00     0.051 A 
ATOM     15  C   UNL     1       9.011  15.909 -21.389  1.00  0.00     0.157 A 
ATOM     16  C   UNL     1       9.577  15.133 -19.161  1.00  0.00     0.062 A 
ATOM     17  C   UNL     1       9.557  16.153 -20.123  1.00  0.00     0.158 A 
BRANCH  15  18
ATOM     18  O   UNL     1       8.990  16.926 -22.341  1.00  0.00    -0.504 OA
ATOM     19  H   UNL     1       8.265  16.976 -23.048  1.00  0.00     0.293 HD
ENDBRANCH  15  18
BRANCH  17  20
ATOM     20  O   UNL     1      10.083  17.410 -19.830  1.00  0.00    -0.504 OA
ATOM     21  H   UNL     1      10.241  17.710 -18.875  1.00  0.00     0.293 HD
ENDBRANCH  17  20
ENDBRANCH   1  12
BRANCH   2  22
ATOM     22  O   UNL     1      10.014  11.208 -20.069  1.00  0.00    -0.502 OA
ATOM     23  H   UNL     1       9.798  11.791 -20.868  1.00  0.00     0.293 HD
ENDBRANCH   2  22
BRANCH   6  24
ATOM     24  O   UNL     1       9.131   8.460 -15.592  1.00  0.00    -0.507 OA
ATOM     25  H   UNL     1       9.308   7.820 -14.834  1.00  0.00     0.293 HD
ENDBRANCH   6  24
BRANCH   8  26
ATOM     26  O   UNL     1       7.832  12.001 -12.646  1.00  0.00    -0.508 OA
ATOM     27  H   UNL     1       6.977  11.666 -12.218  1.00  0.00     0.293 HD
ENDBRANCH   8  26
TORSDOF 6
ENDMDL
MODEL 4
REMARK VINA RESULT:    -6.413      1.519      3.358
REMARK INTER + INTRA:          -8.049
REMARK INTER:                  -7.720
REMARK INTRA:                  -0.329
REMARK UNBOUND:                -0.324
REMARK SMILES O=c1c(O)c(-c2ccc(O)c(O)c2)oc2cc(O)cc(O)c12
REMARK SMILES IDX 5 1 3 2 2 3 1 4 22 5 20 6 19 7 17 8 16 9 15 10 14 11 6 12
REMARK SMILES IDX 7 13 8 14 9 15 13 16 11 17 10 18 12 20 4 22 21 24 18 26
REMARK H PARENT 10 19 12 21 4 23 21 25 18 27
REMARK Flexibility Score: inf
ROOT
ATOM      1  C   UNL     1       8.936  12.194 -18.238  1.00  0.00     0.180 A 
ATOM      2  C   UNL     1       8.186  11.955 -19.402  1.00  0.00     0.208 A 
ATOM      3  C   UNL     1       8.031  12.991 -20.337  1.00  0.00     0.238 A 
ATOM      4  O   UNL     1       7.311  12.788 -21.350  1.00  0.00    -0.285 OA
ATOM      5  C   UNL     1       8.642  14.247 -20.105  1.00  0.00     0.111 A 
ATOM      6  C   UNL     1       8.585  15.354 -21.004  1.00  0.00     0.134 A 
ATOM      7  C   UNL     1       9.117  16.589 -20.612  1.00  0.00     0.093 A 
ATOM      8  C   UNL     1       9.760  16.740 -19.385  1.00  0.00     0.123 A 
ATOM      9  C   UNL     1       9.874  15.648 -18.524  1.00  0.00     0.094 A 
ATOM     10  C   UNL     1       9.321  14.412 -18.870  1.00  0.00     0.146 A 
ATOM     11  O   UNL     1       9.443  13.402 -18.018  1.00  0.00    -0.452 OA
ENDROOT
BRANCH   1  12
ATOM     12  C   UNL     1       9.165  11.145 -17.219  1.00  0.00     0.025 A 
ATOM     13  C   UNL     1       8.274  11.022 -16.141  1.00  0.00     0.016 A 
ATOM     14  C   UNL     1       8.482  10.052 -15.157  1.00  0.00     0.051 A 
ATOM     15  C   UNL     1       9.593   9.202 -15.227  1.00  0.00     0.157 A 
ATOM     16  C   UNL     1      10.291  10.302 -17.274  1.00  0.00     0.062 A 
ATOM     17  C   UNL     1      10.501   9.330 -16.285  1.00  0.00     0.158 A 
BRANCH  15  18
ATOM     18  O   UNL     1       9.804   8.232 -14.249  1.00  0.00    -0.504 OA
ATOM     19  H   UNL     1       9.414   8.325 -13.318  1.00  0.00     0.293 HD
ENDBRANCH  15  18
BRANCH  17  20
ATOM     20  O   UNL     1      11.613   8.491 -16.346  1.00  0.00    -0.504 OA
ATOM     21  H   UNL     1      11.752   7.744 -15.676  1.00  0.00     0.293 HD
ENDBRANCH  17  20
ENDBRANCH   1  12
BRANCH   2  22
ATOM     22  O   UNL     1       7.572  10.715 -19.600  1.00  0.00    -0.502 OA
ATOM     23  H   UNL     1       7.845  10.086 -20.345  1.00  0.00     0.293 HD
ENDBRANCH   2  22
BRANCH   6  24
ATOM     24  O   UNL     1       8.046  15.286 -22.291  1.00  0.00    -0.507 OA
ATOM     25  H   UNL     1       7.360  14.612 -22.593  1.00  0.00     0.293 HD
ENDBRANCH   6  24
BRANCH   8  26
ATOM     26  O   UNL     1      10.291  17.979 -19.034  1.00  0.00    -0.508 OA
ATOM     27  H   UNL     1       9.771  18.837 -19.176  1.00  0.00     0.293 HD
ENDBRANCH   8  26
TORSDOF 6
ENDMDL
MODEL 5
REMARK VINA RESULT:    -6.291      2.001      7.248
REMARK INTER + INTRA:          -7.902
REMARK INTER:                  -8.027
REMARK INTRA:                   0.125
REMARK UNBOUND:                -0.324
REMARK SMILES O=c1c(O)c(-c2ccc(O)c(O)c2)oc2cc(O)cc(O)c12
REMARK SMILES IDX 5 1 3 2 2 3 1 4 22 5 20 6 19 7 17 8 16 9 15 10 14 11 6 12
REMARK SMILES IDX 7 13 8 14 9 15 13 16 11 17 10 18 12 20 4 22 21 24 18 26
REMARK H PARENT 10 19 12 21 4 23 21 25 18 27
REMARK Flexibility Score: inf
ROOT
ATOM      1  C   UNL     1       9.067  13.212 -18.816  1.00  0.00     0.180 A 
ATOM      2  C   UNL     1       9.455  11.913 -19.186  1.00  0.00     0.208 A 
ATOM      3  C   UNL     1       9.473  10.904 -18.209  1.00  0.00     0.238 A 
ATOM      4  O   UNL     1       9.875   9.756 -18.534  1.00  0.00    -0.285 OA
ATOM      5  C   UNL     1       9.087  11.203 -16.880  1.00  0.00     0.111 A 
ATOM      6  C   UNL     1       9.028  10.250 -15.819  1.00  0.00     0.134 A 
ATOM      7  C   UNL     1       8.759  10.684 -14.515  1.00  0.00     0.093 A 
ATOM      8  C   UNL     1       8.481  12.023 -14.245  1.00  0.00     0.123 A 
ATOM      9  C   UNL     1       8.477  12.953 -15.284  1.00  0.00     0.094 A 
ATOM     10  C   UNL     1       8.778  12.557 -16.590  1.00  0.00     0.146 A 
ATOM     11  O   UNL     1       8.773  13.476 -17.548  1.00  0.00    -0.452 OA
ENDROOT
BRANCH   1  12
ATOM     12  C   UNL     1       8.999  14.322 -19.794  1.00  0.00     0.025 A 
ATOM     13  C   UNL     1       9.362  15.618 -19.395  1.00  0.00     0.016 A 
ATOM     14  C   UNL     1       9.285  16.684 -20.296  1.00  0.00     0.051 A 
ATOM     15  C   UNL     1       8.831  16.472 -21.603  1.00  0.00     0.157 A 
ATOM     16  C   UNL     1       8.523  14.117 -21.103  1.00  0.00     0.062 A 
ATOM     17  C   UNL     1       8.445  15.187 -22.006  1.00  0.00     0.158 A 
BRANCH  15  18
ATOM     18  O   UNL     1       8.755  17.531 -22.505  1.00  0.00    -0.504 OA
ATOM     19  H   UNL     1       9.395  17.608 -23.287  1.00  0.00     0.293 HD
ENDBRANCH  15  18
BRANCH  17  20
ATOM     20  O   UNL     1       7.981  14.981 -23.304  1.00  0.00    -0.504 OA
ATOM     21  H   UNL     1       8.610  14.752 -24.064  1.00  0.00     0.293 HD
ENDBRANCH  17  20
ENDBRANCH   1  12
BRANCH   2  22
ATOM     22  O   UNL     1       9.854  11.644 -20.498  1.00  0.00    -0.502 OA
ATOM     23  H   UNL     1      10.109  10.715 -20.810  1.00  0.00     0.293 HD
ENDBRANCH   2  22
BRANCH   6  24
ATOM     24  O   UNL     1       9.200   8.874 -15.996  1.00  0.00    -0.507 OA
ATOM     25  H   UNL     1      10.000   8.349 -15.679  1.00  0.00     0.293 HD
ENDBRANCH   6  24
BRANCH   8  26
ATOM     26  O   UNL     1       8.201  12.417 -12.938  1.00  0.00    -0.508 OA
ATOM     27  H   UNL     1       7.760  13.306 -12.736  1.00  0.00     0.293 HD
ENDBRANCH   8  26
TORSDOF 6
ENDMDL
MODEL 6
REMARK VINA RESULT:    -6.217      2.952      7.575
REMARK INTER + INTRA:          -7.813
REMARK INTER:                  -7.597
REMARK INTRA:                  -0.216
REMARK UNBOUND:                -0.324
REMARK SMILES O=c1c(O)c(-c2ccc(O)c(O)c2)oc2cc(O)cc(O)c12
REMARK SMILES IDX 5 1 3 2 2 3 1 4 22 5 20 6 19 7 17 8 16 9 15 10 14 11 6 12
REMARK SMILES IDX 7 13 8 14 9 15 13 16 11 17 10 18 12 20 4 22 21 24 18 26
REMARK H PARENT 10 19 12 21 4 23 21 25 18 27
REMARK Flexibility Score: inf
ROOT
ATOM      1  C   UNL     1       9.117  16.417 -19.108  1.00  0.00     0.180 A 
ATOM      2  C   UNL     1       8.860  15.970 -20.415  1.00  0.00     0.208 A 
ATOM      3  C   UNL     1       8.961  14.597 -20.697  1.00  0.00     0.238 A 
ATOM      4  O   UNL     1       8.784  14.210 -21.881  1.00  0.00    -0.285 OA
ATOM      5  C   UNL     1       9.301  13.690 -19.665  1.00  0.00     0.111 A 
ATOM      6  C   UNL     1       9.393  12.275 -19.828  1.00  0.00     0.134 A 
ATOM      7  C   UNL     1       9.864  11.487 -18.772  1.00  0.00     0.093 A 
ATOM      8  C   UNL     1      10.185  12.053 -17.539  1.00  0.00     0.123 A 
ATOM      9  C   UNL     1      10.043  13.427 -17.349  1.00  0.00     0.094 A 
ATOM     10  C   UNL     1       9.610  14.245 -18.396  1.00  0.00     0.146 A 
ATOM     11  O   UNL     1       9.497  15.549 -18.178  1.00  0.00    -0.452 OA
ENDROOT
BRANCH   1  12
ATOM     12  C   UNL     1       9.006  17.844 -18.728  1.00  0.00     0.025 A 
ATOM     13  C   UNL     1       9.979  18.755 -19.170  1.00  0.00     0.016 A 
ATOM     14  C   UNL     1       9.905  20.102 -18.806  1.00  0.00     0.051 A 
ATOM     15  C   UNL     1       8.866  20.555 -17.983  1.00  0.00     0.157 A 
ATOM     16  C   UNL     1       7.976  18.300 -17.884  1.00  0.00     0.062 A 
ATOM     17  C   UNL     1       7.903  19.652 -17.518  1.00  0.00     0.158 A 
BRANCH  15  18
ATOM     18  O   UNL     1       8.787  21.898 -17.620  1.00  0.00    -0.504 OA
ATOM     19  H   UNL     1       9.614  22.429 -17.369  1.00  0.00     0.293 HD
ENDBRANCH  15  18
BRANCH  17  20
ATOM     20  O   UNL     1       6.878  20.103 -16.688  1.00  0.00    -0.504 OA
ATOM     21  H   UNL     1       6.765  19.752 -15.744  1.00  0.00     0.293 HD
ENDBRANCH  17  20
ENDBRANCH   1  12
BRANCH   2  22
ATOM     22  O   UNL     1       8.547  16.886 -21.423  1.00  0.00    -0.502 OA
ATOM     23  H   UNL     1       9.207  17.581 -21.750  1.00  0.00     0.293 HD
ENDBRANCH   2  22
BRANCH   6  24
ATOM     24  O   UNL     1       9.010  11.597 -20.989  1.00  0.00    -0.507 OA
ATOM     25  H   UNL     1       8.431  10.772 -21.009  1.00  0.00     0.293 HD
ENDBRANCH   6  24
BRANCH   8  26
ATOM     26  O   UNL     1      10.637  11.237 -16.504  1.00  0.00    -0.508 OA
ATOM     27  H   UNL     1      10.019  10.588 -16.032  1.00  0.00     0.293 HD
ENDBRANCH   8  26
TORSDOF 6
ENDMDL
MODEL 7
REMARK VINA RESULT:    -6.004      1.982      2.842
REMARK INTER + INTRA:          -7.556
REMARK INTER:                  -7.643
REMARK INTRA:                   0.087
REMARK UNBOUND:                -0.324
REMARK SMILES O=c1c(O)c(-c2ccc(O)c(O)c2)oc2cc(O)cc(O)c12
REMARK SMILES IDX 5 1 3 2 2 3 1 4 22 5 20 6 19 7 17 8 16 9 15 10 14 11 6 12
REMARK SMILES IDX 7 13 8 14 9 15 13 16 11 17 10 18 12 20 4 22 21 24 18 26
REMARK H PARENT 10 19 12 21 4 23 21 25 18 27
REMARK Flexibility Score: inf
ROOT
ATOM      1  C   UNL     1       8.535  11.424 -15.314  1.00  0.00     0.180 A 
ATOM      2  C   UNL     1       8.988  12.691 -14.908  1.00  0.00     0.208 A 
ATOM      3  C   UNL     1       9.352  13.630 -15.887  1.00  0.00     0.238 A 
ATOM      4  O   UNL     1       9.809  14.742 -15.516  1.00  0.00    -0.285 OA
ATOM      5  C   UNL     1       9.241  13.296 -17.259  1.00  0.00     0.111 A 
ATOM      6  C   UNL     1       9.543  14.183 -18.335  1.00  0.00     0.134 A 
ATOM      7  C   UNL     1       9.523  13.704 -19.651  1.00  0.00     0.093 A 
ATOM      8  C   UNL     1       9.148  12.392 -19.934  1.00  0.00     0.123 A 
ATOM      9  C   UNL     1       8.794  11.533 -18.893  1.00  0.00     0.094 A 
ATOM     10  C   UNL     1       8.840  11.970 -17.567  1.00  0.00     0.146 A 
ATOM     11  O   UNL     1       8.504  11.119 -16.606  1.00  0.00    -0.452 OA
ENDROOT
BRANCH   1  12
ATOM     12  C   UNL     1       8.110  10.391 -14.342  1.00  0.00     0.025 A 
ATOM     13  C   UNL     1       7.281  10.752 -13.268  1.00  0.00     0.016 A 
ATOM     14  C   UNL     1       6.885   9.797 -12.327  1.00  0.00     0.051 A 
ATOM     15  C   UNL     1       7.324   8.472 -12.439  1.00  0.00     0.157 A 
ATOM     16  C   UNL     1       8.565   9.063 -14.438  1.00  0.00     0.062 A 
ATOM     17  C   UNL     1       8.169   8.105 -13.494  1.00  0.00     0.158 A 
BRANCH  15  18
ATOM     18  O   UNL     1       6.930   7.516 -11.505  1.00  0.00    -0.504 OA
ATOM     19  H   UNL     1       7.110   7.637 -10.514  1.00  0.00     0.293 HD
ENDBRANCH  15  18
BRANCH  17  20
ATOM     20  O   UNL     1       8.615   6.788 -13.595  1.00  0.00    -0.504 OA
ATOM     21  H   UNL     1       9.017   6.428 -14.452  1.00  0.00     0.293 HD
ENDBRANCH  17  20
ENDBRANCH   1  12
BRANCH   2  22
ATOM     22  O   UNL     1       9.111  12.991 -13.548  1.00  0.00    -0.502 OA
ATOM     23  H   UNL     1       9.995  13.243 -13.125  1.00  0.00     0.293 HD
ENDBRANCH   2  22
BRANCH   6  24
ATOM     24  O   UNL     1       9.839  15.539 -18.169  1.00  0.00    -0.507 OA
ATOM     25  H   UNL     1      10.012  16.186 -18.922  1.00  0.00     0.293 HD
ENDBRANCH   6  24
BRANCH   8  26
ATOM     26  O   UNL     1       9.125  11.953 -21.256  1.00  0.00    -0.508 OA
ATOM     27  H   UNL     1       9.907  11.456 -21.663  1.00  0.00     0.293 HD
ENDBRANCH   8  26
TORSDOF 6
ENDMDL
MODEL 8
REMARK VINA RESULT:    -5.917      1.951      2.601
REMARK INTER + INTRA:          -7.452
REMARK INTER:                  -7.549
REMARK INTRA:                   0.097
REMARK UNBOUND:                -0.324
REMARK SMILES O=c1c(O)c(-c2ccc(O)c(O)c2)oc2cc(O)cc(O)c12
REMARK SMILES IDX 5 1 3 2 2 3 1 4 22 5 20 6 19 7 17 8 16 9 15 10 14 11 6 12
REMARK SMILES IDX 7 13 8 14 9 15 13 16 11 17 10 18 12 20 4 22 21 24 18 26
REMARK H PARENT 10 19 12 21 4 23 21 25 18 27
REMARK Flexibility Score: inf
ROOT
ATOM      1  C   UNL     1       9.462  13.498 -18.600  1.00  0.00     0.180 A 
ATOM      2  C   UNL     1       9.267  14.673 -17.854  1.00  0.00     0.208 A 
ATOM      3  C   UNL     1       8.978  15.869 -18.531  1.00  0.00     0.238 A 
ATOM      4  O   UNL     1       8.860  16.929 -17.861  1.00  0.00    -0.285 OA
ATOM      5  C   UNL     1       8.871  15.872 -19.942  1.00  0.00     0.111 A 
ATOM      6  C   UNL     1       8.542  17.017 -20.728  1.00  0.00     0.134 A 
ATOM      7  C   UNL     1       8.592  16.934 -22.125  1.00  0.00     0.093 A 
ATOM      8  C   UNL     1       8.894  15.733 -22.764  1.00  0.00     0.123 A 
ATOM      9  C   UNL     1       9.159  14.592 -22.006  1.00  0.00     0.094 A 
ATOM     10  C   UNL     1       9.153  14.652 -20.610  1.00  0.00     0.146 A 
ATOM     11  O   UNL     1       9.419  13.546 -19.927  1.00  0.00    -0.452 OA
ENDROOT
BRANCH   1  12
ATOM     12  C   UNL     1       9.745  12.195 -17.957  1.00  0.00     0.025 A 
ATOM     13  C   UNL     1      10.727  12.116 -16.956  1.00  0.00     0.016 A 
ATOM     14  C   UNL     1      11.024  10.893 -16.351  1.00  0.00     0.051 A 
ATOM     15  C   UNL     1      10.357   9.728 -16.748  1.00  0.00     0.157 A 
ATOM     16  C   UNL     1       9.092  11.018 -18.368  1.00  0.00     0.062 A 
ATOM     17  C   UNL     1       9.392   9.789 -17.761  1.00  0.00     0.158 A 
BRANCH  15  18
ATOM     18  O   UNL     1      10.649   8.505 -16.146  1.00  0.00    -0.504 OA
ATOM     19  H   UNL     1      11.274   8.442 -15.350  1.00  0.00     0.293 HD
ENDBRANCH  15  18
BRANCH  17  20
ATOM     20  O   UNL     1       8.738   8.626 -18.164  1.00  0.00    -0.504 OA
ATOM     21  H   UNL     1       7.732   8.594 -18.276  1.00  0.00     0.293 HD
ENDBRANCH  17  20
ENDBRANCH   1  12
BRANCH   2  22
ATOM     22  O   UNL     1       9.400  14.653 -16.463  1.00  0.00    -0.502 OA
ATOM     23  H   UNL     1       8.780  15.168 -15.850  1.00  0.00     0.293 HD
ENDBRANCH   2  22
BRANCH   6  24
ATOM     24  O   UNL     1       8.137  18.242 -20.190  1.00  0.00    -0.507 OA
ATOM     25  H   UNL     1       8.446  19.144 -20.517  1.00  0.00     0.293 HD
ENDBRANCH   6  24
BRANCH   8  26
ATOM     26  O   UNL     1       8.920  15.682 -24.156  1.00  0.00    -0.508 OA
ATOM     27  H   UNL     1       8.408  14.976 -24.670  1.00  0.00     0.293 HD
ENDBRANCH   8  26
TORSDOF 6
ENDMDL
MODEL 9
REMARK VINA RESULT:    -5.628      2.234      7.193
REMARK INTER + INTRA:          -7.104
REMARK INTER:                  -6.866
REMARK INTRA:                  -0.237
REMARK UNBOUND:                -0.324
REMARK SMILES O=c1c(O)c(-c2ccc(O)c(O)c2)oc2cc(O)cc(O)c12
REMARK SMILES IDX 5 1 3 2 2 3 1 4 22 5 20 6 19 7 17 8 16 9 15 10 14 11 6 12
REMARK SMILES IDX 7 13 8 14 9 15 13 16 11 17 10 18 12 20 4 22 21 24 18 26
REMARK H PARENT 10 19 12 21 4 23 21 25 18 27
REMARK Flexibility Score: inf
ROOT
ATOM      1  C   UNL     1       8.603  11.353 -15.464  1.00  0.00     0.180 A 
ATOM      2  C   UNL     1       8.275  11.506 -14.106  1.00  0.00     0.208 A 
ATOM      3  C   UNL     1       7.760  10.404 -13.402  1.00  0.00     0.238 A 
ATOM      4  O   UNL     1       7.415  10.562 -12.202  1.00  0.00    -0.285 OA
ATOM      5  C   UNL     1       7.596   9.162 -14.060  1.00  0.00     0.111 A 
ATOM      6  C   UNL     1       7.121   7.970 -13.435  1.00  0.00     0.134 A 
ATOM      7  C   UNL     1       6.875   6.832 -14.214  1.00  0.00     0.093 A 
ATOM      8  C   UNL     1       7.148   6.823 -15.581  1.00  0.00     0.123 A 
ATOM      9  C   UNL     1       7.668   7.964 -16.191  1.00  0.00     0.094 A 
ATOM     10  C   UNL     1       7.890   9.126 -15.448  1.00  0.00     0.146 A 
ATOM     11  O   UNL     1       8.376  10.193 -16.070  1.00  0.00    -0.452 OA
ENDROOT
BRANCH   1  12
ATOM     12  C   UNL     1       9.173  12.460 -16.265  1.00  0.00     0.025 A 
ATOM     13  C   UNL     1      10.493  12.876 -16.027  1.00  0.00     0.016 A 
ATOM     14  C   UNL     1      11.045  13.932 -16.758  1.00  0.00     0.051 A 
ATOM     15  C   UNL     1      10.281  14.596 -17.725  1.00  0.00     0.157 A 
ATOM     16  C   UNL     1       8.403  13.144 -17.223  1.00  0.00     0.062 A 
ATOM     17  C   UNL     1       8.957  14.205 -17.955  1.00  0.00     0.158 A 
BRANCH  15  18
ATOM     18  O   UNL     1      10.828  15.648 -18.457  1.00  0.00    -0.504 OA
ATOM     19  H   UNL     1      11.062  15.546 -19.438  1.00  0.00     0.293 HD
ENDBRANCH  15  18
BRANCH  17  20
ATOM     20  O   UNL     1       8.194  14.876 -18.909  1.00  0.00    -0.504 OA
ATOM     21  H   UNL     1       8.623  15.351 -19.694  1.00  0.00     0.293 HD
ENDBRANCH  17  20
ENDBRANCH   1  12
BRANCH   2  22
ATOM     22  O   UNL     1       8.423  12.747 -13.482  1.00  0.00    -0.502 OA
ATOM     23  H   UNL     1       8.726  12.839 -12.520  1.00  0.00     0.293 HD
ENDBRANCH   2  22
BRANCH   6  24
ATOM     24  O   UNL     1       6.904   7.844 -12.060  1.00  0.00    -0.507 OA
ATOM     25  H   UNL     1       6.158   8.295 -11.553  1.00  0.00     0.293 HD
ENDBRANCH   6  24
BRANCH   8  26
ATOM     26  O   UNL     1       6.905   5.668 -16.322  1.00  0.00    -0.508 OA
ATOM     27  H   UNL     1       7.658   5.056 -16.611  1.00  0.00     0.293 HD
ENDBRANCH   8  26
TORSDOF 6
ENDMDL
