MODEL 1
REMARK VINA RESULT:    -4.023      0.000      0.000
REMARK INTER + INTRA:          -8.945
REMARK INTER:                  -6.845
REMARK INTRA:                  -2.100
REMARK UNBOUND:                -2.100
REMARK SMILES CCCCCCCCCCCCCC(=O)[O-]
REMARK SMILES IDX 8 1 9 2 10 3 11 4 12 5 13 6 14 7 15 8 16 9 7 10 6 11 5 12
REMARK SMILES IDX 4 13 3 14 2 15 1 16
REMARK H PARENT
REMARK Flexibility Score: inf
ROOT
ATOM      1  C   UNL     1       5.267  33.967  71.240  1.00  0.00     0.000 C 
ENDROOT
BRANCH   1   2
ATOM      2  C   UNL     1       5.173  35.376  70.631  1.00  0.00     0.000 C 
BRANCH   2   3
ATOM      3  C   UNL     1       3.729  35.905  70.578  1.00  0.00     0.000 C 
BRANCH   3   4
ATOM      4  C   UNL     1       2.686  34.782  70.682  1.00  0.00     0.000 C 
BRANCH   4   5
ATOM      5  C   UNL     1       1.459  35.030  69.791  1.00  0.00     0.006 C 
BRANCH   5   6
ATOM      6  C   UNL     1       1.718  36.180  68.813  1.00  0.00     0.053 C 
BRANCH   6   7
ATOM      7  C   UNL     1       1.410  35.756  67.412  1.00  0.00     0.041 C 
ATOM      8  O   UNL     1       1.638  36.536  66.448  1.00  0.00    -0.550 OA
ATOM      9  O   UNL     1       0.826  34.519  67.171  1.00  0.00    -0.550 OA
ENDBRANCH   6   7
ENDBRANCH   5   6
ENDBRANCH   4   5
ENDBRANCH   3   4
ENDBRANCH   2   3
ENDBRANCH   1   2
BRANCH   1  10
ATOM     10  C   UNL     1       6.576  33.251  70.871  1.00  0.00     0.000 C 
BRANCH  10  11
ATOM     11  C   UNL     1       7.319  33.927  69.704  1.00  0.00    -0.000 C 
BRANCH  11  12
ATOM     12  C   UNL     1       7.792  32.940  68.616  1.00  0.00    -0.000 C 
BRANCH  12  13
ATOM     13  C   UNL     1       6.708  32.684  67.554  1.00  0.00    -0.000 C 
BRANCH  13  14
ATOM     14  C   UNL     1       5.896  33.948  67.216  1.00  0.00    -0.000 C 
BRANCH  14  15
ATOM     15  C   UNL     1       4.368  33.766  67.296  1.00  0.00    -0.003 C 
ATOM     16  C   UNL     1       3.956  32.492  68.035  1.00  0.00     0.004 C 
ENDBRANCH  14  15
ENDBRANCH  13  14
ENDBRANCH  12  13
ENDBRANCH  11  12
ENDBRANCH  10  11
ENDBRANCH   1  10
TORSDOF 12
ENDMDL
MODEL 2
REMARK VINA RESULT:    -3.968     10.474     12.331
REMARK INTER + INTRA:          -8.852
REMARK INTER:                  -7.870
REMARK INTRA:                  -0.982
REMARK UNBOUND:                -2.100
REMARK SMILES CCCCCCCCCCCCCC(=O)[O-]
REMARK SMILES IDX 8 1 9 2 10 3 11 4 12 5 13 6 14 7 15 8 16 9 7 10 6 11 5 12
REMARK SMILES IDX 4 13 3 14 2 15 1 16
REMARK H PARENT
REMARK Flexibility Score: inf
ROOT
ATOM      1  C   UNL     1       3.738  45.645  66.125  1.00  0.00     0.000 C 
ENDROOT
BRANCH   1   2
ATOM      2  C   UNL     1       3.432  44.283  65.479  1.00  0.00     0.000 C 
BRANCH   2   3
ATOM      3  C   UNL     1       2.978  43.228  66.504  1.00  0.00     0.000 C 
BRANCH   3   4
ATOM      4  C   UNL     1       2.895  43.791  67.931  1.00  0.00     0.000 C 
BRANCH   4   5
ATOM      5  C   UNL     1       3.217  42.737  69.002  1.00  0.00     0.006 C 
BRANCH   5   6
ATOM      6  C   UNL     1       2.668  43.160  70.368  1.00  0.00     0.053 C 
BRANCH   6   7
ATOM      7  C   UNL     1       3.780  43.601  71.266  1.00  0.00     0.041 C 
ATOM      8  O   UNL     1       4.957  43.201  71.061  1.00  0.00    -0.550 OA
ATOM      9  O   UNL     1       3.511  44.414  72.359  1.00  0.00    -0.550 OA
ENDBRANCH   6   7
ENDBRANCH   5   6
ENDBRANCH   4   5
ENDBRANCH   3   4
ENDBRANCH   2   3
ENDBRANCH   1   2
BRANCH   1  10
ATOM     10  C   UNL     1       3.854  46.776  65.091  1.00  0.00     0.000 C 
BRANCH  10  11
ATOM     11  C   UNL     1       5.285  47.328  64.969  1.00  0.00    -0.000 C 
BRANCH  11  12
ATOM     12  C   UNL     1       5.395  48.837  65.277  1.00  0.00    -0.000 C 
BRANCH  12  13
ATOM     13  C   UNL     1       6.201  49.110  66.560  1.00  0.00    -0.000 C 
BRANCH  13  14
ATOM     14  C   UNL     1       7.222  48.000  66.868  1.00  0.00    -0.000 C 
BRANCH  14  15
ATOM     15  C   UNL     1       7.274  47.571  68.346  1.00  0.00    -0.003 C 
ATOM     16  C   UNL     1       5.891  47.287  68.935  1.00  0.00     0.004 C 
ENDBRANCH  14  15
ENDBRANCH  13  14
ENDBRANCH  12  13
ENDBRANCH  11  12
ENDBRANCH  10  11
ENDBRANCH   1  10
TORSDOF 12
ENDMDL
MODEL 3
REMARK VINA RESULT:    -3.958     10.505     12.525
REMARK INTER + INTRA:          -8.834
REMARK INTER:                  -8.149
REMARK INTRA:                  -0.685
REMARK UNBOUND:                -2.100
REMARK SMILES CCCCCCCCCCCCCC(=O)[O-]
REMARK SMILES IDX 8 1 9 2 10 3 11 4 12 5 13 6 14 7 15 8 16 9 7 10 6 11 5 12
REMARK SMILES IDX 4 13 3 14 2 15 1 16
REMARK H PARENT
REMARK Flexibility Score: inf
ROOT
ATOM      1  C   UNL     1       3.787  45.888  66.297  1.00  0.00     0.000 C 
ENDROOT
BRANCH   1   2
ATOM      2  C   UNL     1       4.550  46.844  65.365  1.00  0.00     0.000 C 
BRANCH   2   3
ATOM      3  C   UNL     1       5.178  48.031  66.117  1.00  0.00     0.000 C 
BRANCH   3   4
ATOM      4  C   UNL     1       6.712  47.960  66.155  1.00  0.00     0.000 C 
BRANCH   4   5
ATOM      5  C   UNL     1       7.282  48.232  67.556  1.00  0.00     0.006 C 
BRANCH   5   6
ATOM      6  C   UNL     1       6.170  48.218  68.610  1.00  0.00     0.053 C 
BRANCH   6   7
ATOM      7  C   UNL     1       6.528  47.302  69.737  1.00  0.00     0.041 C 
ATOM      8  O   UNL     1       7.411  47.637  70.571  1.00  0.00    -0.550 OA
ATOM      9  O   UNL     1       5.922  46.057  69.841  1.00  0.00    -0.550 OA
ENDBRANCH   6   7
ENDBRANCH   5   6
ENDBRANCH   4   5
ENDBRANCH   3   4
ENDBRANCH   2   3
ENDBRANCH   1   2
BRANCH   1  10
ATOM     10  C   UNL     1       3.437  44.555  65.617  1.00  0.00     0.000 C 
BRANCH  10  11
ATOM     11  C   UNL     1       2.717  43.575  66.560  1.00  0.00    -0.000 C 
BRANCH  11  12
ATOM     12  C   UNL     1       2.655  44.057  68.025  1.00  0.00    -0.000 C 
BRANCH  12  13
ATOM     13  C   UNL     1       3.082  42.958  69.015  1.00  0.00    -0.000 C 
BRANCH  13  14
ATOM     14  C   UNL     1       2.370  43.073  70.376  1.00  0.00    -0.000 C 
BRANCH  14  15
ATOM     15  C   UNL     1       3.174  43.820  71.457  1.00  0.00    -0.003 C 
ATOM     16  C   UNL     1       4.671  43.512  71.408  1.00  0.00     0.004 C 
ENDBRANCH  14  15
ENDBRANCH  13  14
ENDBRANCH  12  13
ENDBRANCH  11  12
ENDBRANCH  10  11
ENDBRANCH   1  10
TORSDOF 12
ENDMDL
MODEL 4
REMARK VINA RESULT:    -3.903      1.219      3.136
REMARK INTER + INTRA:          -8.741
REMARK INTER:                  -7.042
REMARK INTRA:                  -1.698
REMARK UNBOUND:                -2.100
REMARK SMILES CCCCCCCCCCCCCC(=O)[O-]
REMARK SMILES IDX 8 1 9 2 10 3 11 4 12 5 13 6 14 7 15 8 16 9 7 10 6 11 5 12
REMARK SMILES IDX 4 13 3 14 2 15 1 16
REMARK H PARENT
REMARK Flexibility Score: inf
ROOT
ATOM      1  C   UNL     1       5.706  33.259  67.067  1.00  0.00     0.000 C 
ENDROOT
BRANCH   1   2
ATOM      2  C   UNL     1       4.266  33.721  67.349  1.00  0.00     0.000 C 
BRANCH   2   3
ATOM      3  C   UNL     1       3.374  32.588  67.885  1.00  0.00     0.000 C 
BRANCH   3   4
ATOM      4  C   UNL     1       2.091  33.112  68.549  1.00  0.00     0.000 C 
BRANCH   4   5
ATOM      5  C   UNL     1       1.016  33.510  67.526  1.00  0.00     0.006 C 
BRANCH   5   6
ATOM      6  C   UNL     1       0.343  34.827  67.924  1.00  0.00     0.053 C 
BRANCH   6   7
ATOM      7  C   UNL     1       1.293  35.971  67.763  1.00  0.00     0.041 C 
ATOM      8  O   UNL     1       1.710  36.293  66.618  1.00  0.00    -0.550 OA
ATOM      9  O   UNL     1       1.758  36.652  68.880  1.00  0.00    -0.550 OA
ENDBRANCH   6   7
ENDBRANCH   5   6
ENDBRANCH   4   5
ENDBRANCH   3   4
ENDBRANCH   2   3
ENDBRANCH   1   2
BRANCH   1  10
ATOM     10  C   UNL     1       6.726  34.403  67.184  1.00  0.00     0.000 C 
BRANCH  10  11
ATOM     11  C   UNL     1       7.825  34.119  68.222  1.00  0.00    -0.000 C 
BRANCH  11  12
ATOM     12  C   UNL     1       7.402  33.111  69.313  1.00  0.00    -0.000 C 
BRANCH  12  13
ATOM     13  C   UNL     1       7.231  33.783  70.688  1.00  0.00    -0.000 C 
BRANCH  13  14
ATOM     14  C   UNL     1       5.950  33.335  71.414  1.00  0.00    -0.000 C 
BRANCH  14  15
ATOM     15  C   UNL     1       4.681  34.110  71.010  1.00  0.00    -0.003 C 
ATOM     16  C   UNL     1       4.974  35.541  70.558  1.00  0.00     0.004 C 
ENDBRANCH  14  15
ENDBRANCH  13  14
ENDBRANCH  12  13
ENDBRANCH  11  12
ENDBRANCH  10  11
ENDBRANCH   1  10
TORSDOF 12
ENDMDL
MODEL 5
REMARK VINA RESULT:    -3.850      1.438      2.086
REMARK INTER + INTRA:          -8.651
REMARK INTER:                  -7.081
REMARK INTRA:                  -1.570
REMARK UNBOUND:                -2.100
REMARK SMILES CCCCCCCCCCCCCC(=O)[O-]
REMARK SMILES IDX 8 1 9 2 10 3 11 4 12 5 13 6 14 7 15 8 16 9 7 10 6 11 5 12
REMARK SMILES IDX 4 13 3 14 2 15 1 16
REMARK H PARENT
REMARK Flexibility Score: inf
ROOT
ATOM      1  C   UNL     1       6.467  33.149  71.251  1.00  0.00     0.000 C 
ENDROOT
BRANCH   1   2
ATOM      2  C   UNL     1       6.931  34.415  70.511  1.00  0.00     0.000 C 
BRANCH   2   3
ATOM      3  C   UNL     1       5.802  35.446  70.334  1.00  0.00     0.000 C 
BRANCH   3   4
ATOM      4  C   UNL     1       4.468  34.968  70.928  1.00  0.00     0.000 C 
BRANCH   4   5
ATOM      5  C   UNL     1       3.318  35.014  69.911  1.00  0.00     0.006 C 
BRANCH   5   6
ATOM      6  C   UNL     1       2.266  36.049  70.322  1.00  0.00     0.053 C 
BRANCH   6   7
ATOM      7  C   UNL     1       1.221  36.184  69.260  1.00  0.00     0.041 C 
ATOM      8  O   UNL     1       1.557  36.363  68.059  1.00  0.00    -0.550 OA
ATOM      9  O   UNL     1      -0.125  36.164  69.601  1.00  0.00    -0.550 OA
ENDBRANCH   6   7
ENDBRANCH   5   6
ENDBRANCH   4   5
ENDBRANCH   3   4
ENDBRANCH   2   3
ENDBRANCH   1   2
BRANCH   1  10
ATOM     10  C   UNL     1       7.405  31.954  71.021  1.00  0.00     0.000 C 
BRANCH  10  11
ATOM     11  C   UNL     1       6.977  31.080  69.828  1.00  0.00    -0.000 C 
BRANCH  11  12
ATOM     12  C   UNL     1       7.956  31.137  68.636  1.00  0.00    -0.000 C 
BRANCH  12  13
ATOM     13  C   UNL     1       7.288  31.686  67.362  1.00  0.00    -0.000 C 
BRANCH  13  14
ATOM     14  C   UNL     1       5.892  32.277  67.630  1.00  0.00    -0.000 C 
BRANCH  14  15
ATOM     15  C   UNL     1       5.621  33.621  66.929  1.00  0.00    -0.003 C 
ATOM     16  C   UNL     1       6.850  34.532  66.890  1.00  0.00     0.004 C 
ENDBRANCH  14  15
ENDBRANCH  13  14
ENDBRANCH  12  13
ENDBRANCH  11  12
ENDBRANCH  10  11
ENDBRANCH   1  10
TORSDOF 12
ENDMDL
MODEL 6
REMARK VINA RESULT:    -3.821      1.813      3.529
REMARK INTER + INTRA:          -8.601
REMARK INTER:                  -6.322
REMARK INTRA:                  -2.279
REMARK UNBOUND:                -2.100
REMARK SMILES CCCCCCCCCCCCCC(=O)[O-]
REMARK SMILES IDX 8 1 9 2 10 3 11 4 12 5 13 6 14 7 15 8 16 9 7 10 6 11 5 12
REMARK SMILES IDX 4 13 3 14 2 15 1 16
REMARK H PARENT
REMARK Flexibility Score: inf
ROOT
ATOM      1  C   UNL     1       4.506  31.667  69.967  1.00  0.00     0.000 C 
ENDROOT
BRANCH   1   2
ATOM      2  C   UNL     1       5.916  32.056  70.440  1.00  0.00     0.000 C 
BRANCH   2   3
ATOM      3  C   UNL     1       5.915  33.297  71.351  1.00  0.00     0.000 C 
BRANCH   3   4
ATOM      4  C   UNL     1       6.321  34.577  70.604  1.00  0.00     0.000 C 
BRANCH   4   5
ATOM      5  C   UNL     1       5.168  35.585  70.489  1.00  0.00     0.006 C 
BRANCH   5   6
ATOM      6  C   UNL     1       3.981  35.160  71.359  1.00  0.00     0.053 C 
BRANCH   6   7
ATOM      7  C   UNL     1       2.718  35.157  70.559  1.00  0.00     0.041 C 
ATOM      8  O   UNL     1       1.981  34.136  70.540  1.00  0.00    -0.550 OA
ATOM      9  O   UNL     1       2.377  36.264  69.793  1.00  0.00    -0.550 OA
ENDBRANCH   6   7
ENDBRANCH   5   6
ENDBRANCH   4   5
ENDBRANCH   3   4
ENDBRANCH   2   3
ENDBRANCH   1   2
BRANCH   1  10
ATOM     10  C   UNL     1       4.441  31.412  68.452  1.00  0.00     0.000 C 
BRANCH  10  11
ATOM     11  C   UNL     1       3.614  32.472  67.703  1.00  0.00    -0.000 C 
BRANCH  11  12
ATOM     12  C   UNL     1       4.371  33.796  67.467  1.00  0.00    -0.000 C 
BRANCH  12  13
ATOM     13  C   UNL     1       5.574  33.616  66.525  1.00  0.00    -0.000 C 
BRANCH  13  14
ATOM     14  C   UNL     1       6.851  34.296  67.053  1.00  0.00    -0.000 C 
BRANCH  14  15
ATOM     15  C   UNL     1       7.913  33.324  67.600  1.00  0.00    -0.003 C 
ATOM     16  C   UNL     1       7.790  31.915  67.018  1.00  0.00     0.004 C 
ENDBRANCH  14  15
ENDBRANCH  13  14
ENDBRANCH  12  13
ENDBRANCH  11  12
ENDBRANCH  10  11
ENDBRANCH   1  10
TORSDOF 12
ENDMDL
MODEL 7
REMARK VINA RESULT:    -3.806      2.526      4.999
REMARK INTER + INTRA:          -8.575
REMARK INTER:                  -6.879
REMARK INTRA:                  -1.697
REMARK UNBOUND:                -2.100
REMARK SMILES CCCCCCCCCCCCCC(=O)[O-]
REMARK SMILES IDX 8 1 9 2 10 3 11 4 12 5 13 6 14 7 15 8 16 9 7 10 6 11 5 12
REMARK SMILES IDX 4 13 3 14 2 15 1 16
REMARK H PARENT
REMARK Flexibility Score: inf
ROOT
ATOM      1  C   UNL     1       2.403  36.064  70.612  1.00  0.00     0.000 C 
ENDROOT
BRANCH   1   2
ATOM      2  C   UNL     1       3.307  34.822  70.695  1.00  0.00     0.000 C 
BRANCH   2   3
ATOM      3  C   UNL     1       4.798  35.162  70.527  1.00  0.00     0.000 C 
BRANCH   3   4
ATOM      4  C   UNL     1       5.718  34.017  70.979  1.00  0.00     0.000 C 
BRANCH   4   5
ATOM      5  C   UNL     1       7.029  33.962  70.180  1.00  0.00     0.006 C 
BRANCH   5   6
ATOM      6  C   UNL     1       7.011  34.973  69.030  1.00  0.00     0.053 C 
BRANCH   6   7
ATOM      7  C   UNL     1       7.325  34.297  67.732  1.00  0.00     0.041 C 
ATOM      8  O   UNL     1       8.179  33.372  67.689  1.00  0.00    -0.550 OA
ATOM      9  O   UNL     1       6.710  34.720  66.561  1.00  0.00    -0.550 OA
ENDBRANCH   6   7
ENDBRANCH   5   6
ENDBRANCH   4   5
ENDBRANCH   3   4
ENDBRANCH   2   3
ENDBRANCH   1   2
BRANCH   1  10
ATOM     10  C   UNL     1       1.151  35.826  69.752  1.00  0.00     0.000 C 
BRANCH  10  11
ATOM     11  C   UNL     1       1.343  36.257  68.288  1.00  0.00    -0.000 C 
BRANCH  11  12
ATOM     12  C   UNL     1       1.289  35.085  67.284  1.00  0.00    -0.000 C 
BRANCH  12  13
ATOM     13  C   UNL     1       0.957  33.749  67.971  1.00  0.00    -0.000 C 
BRANCH  13  14
ATOM     14  C   UNL     1       1.922  32.617  67.572  1.00  0.00    -0.000 C 
BRANCH  14  15
ATOM     15  C   UNL     1       3.406  33.027  67.531  1.00  0.00    -0.003 C 
ATOM     16  C   UNL     1       4.320  32.037  68.255  1.00  0.00     0.004 C 
ENDBRANCH  14  15
ENDBRANCH  13  14
ENDBRANCH  12  13
ENDBRANCH  11  12
ENDBRANCH  10  11
ENDBRANCH   1  10
TORSDOF 12
ENDMDL
MODEL 8
REMARK VINA RESULT:    -3.784      3.231      5.513
REMARK INTER + INTRA:          -8.538
REMARK INTER:                  -6.918
REMARK INTRA:                  -1.620
REMARK UNBOUND:                -2.100
REMARK SMILES CCCCCCCCCCCCCC(=O)[O-]
REMARK SMILES IDX 8 1 9 2 10 3 11 4 12 5 13 6 14 7 15 8 16 9 7 10 6 11 5 12
REMARK SMILES IDX 4 13 3 14 2 15 1 16
REMARK H PARENT
REMARK Flexibility Score: inf
ROOT
ATOM      1  C   UNL     1       4.545  35.517  70.659  1.00  0.00     0.000 C 
ENDROOT
BRANCH   1   2
ATOM      2  C   UNL     1       5.222  34.195  71.056  1.00  0.00     0.000 C 
BRANCH   2   3
ATOM      3  C   UNL     1       6.627  34.042  70.448  1.00  0.00     0.000 C 
BRANCH   3   4
ATOM      4  C   UNL     1       6.797  34.843  69.148  1.00  0.00     0.000 C 
BRANCH   4   5
ATOM      5  C   UNL     1       8.051  34.434  68.360  1.00  0.00     0.006 C 
BRANCH   5   6
ATOM      6  C   UNL     1       7.706  33.405  67.279  1.00  0.00     0.053 C 
BRANCH   6   7
ATOM      7  C   UNL     1       8.524  32.165  67.456  1.00  0.00     0.041 C 
ATOM      8  O   UNL     1       9.726  32.139  67.080  1.00  0.00    -0.550 OA
ATOM      9  O   UNL     1       7.946  31.020  67.990  1.00  0.00    -0.550 OA
ENDBRANCH   6   7
ENDBRANCH   5   6
ENDBRANCH   4   5
ENDBRANCH   3   4
ENDBRANCH   2   3
ENDBRANCH   1   2
BRANCH   1  10
ATOM     10  C   UNL     1       3.102  35.621  71.179  1.00  0.00     0.000 C 
BRANCH  10  11
ATOM     11  C   UNL     1       2.125  36.169  70.124  1.00  0.00    -0.000 C 
BRANCH  11  12
ATOM     12  C   UNL     1       1.170  35.101  69.549  1.00  0.00    -0.000 C 
BRANCH  12  13
ATOM     13  C   UNL     1       1.552  34.693  68.115  1.00  0.00    -0.000 C 
BRANCH  13  14
ATOM     14  C   UNL     1       2.213  33.304  68.047  1.00  0.00    -0.000 C 
BRANCH  14  15
ATOM     15  C   UNL     1       3.718  33.326  67.720  1.00  0.00    -0.003 C 
ATOM     16  C   UNL     1       4.430  32.027  68.097  1.00  0.00     0.004 C 
ENDBRANCH  14  15
ENDBRANCH  13  14
ENDBRANCH  12  13
ENDBRANCH  11  12
ENDBRANCH  10  11
ENDBRANCH   1  10
TORSDOF 12
ENDMDL
MODEL 9
REMARK VINA RESULT:    -3.742      2.448      4.599
REMARK INTER + INTRA:          -8.467
REMARK INTER:                  -6.814
REMARK INTRA:                  -1.653
REMARK UNBOUND:                -2.100
REMARK SMILES CCCCCCCCCCCCCC(=O)[O-]
REMARK SMILES IDX 8 1 9 2 10 3 11 4 12 5 13 6 14 7 15 8 16 9 7 10 6 11 5 12
REMARK SMILES IDX 4 13 3 14 2 15 1 16
REMARK H PARENT
REMARK Flexibility Score: inf
ROOT
ATOM      1  C   UNL     1       2.573  34.782  70.901  1.00  0.00     0.000 C 
ENDROOT
BRANCH   1   2
ATOM      2  C   UNL     1       1.761  35.009  69.614  1.00  0.00     0.000 C 
BRANCH   2   3
ATOM      3  C   UNL     1       2.355  34.273  68.400  1.00  0.00     0.000 C 
BRANCH   3   4
ATOM      4  C   UNL     1       2.805  32.844  68.739  1.00  0.00     0.000 C 
BRANCH   4   5
ATOM      5  C   UNL     1       4.141  32.471  68.079  1.00  0.00     0.006 C 
BRANCH   5   6
ATOM      6  C   UNL     1       4.725  33.664  67.316  1.00  0.00     0.053 C 
BRANCH   6   7
ATOM      7  C   UNL     1       6.217  33.572  67.261  1.00  0.00     0.041 C 
ATOM      8  O   UNL     1       6.781  32.447  67.204  1.00  0.00    -0.550 OA
ATOM      9  O   UNL     1       6.988  34.725  67.323  1.00  0.00    -0.550 OA
ENDBRANCH   6   7
ENDBRANCH   5   6
ENDBRANCH   4   5
ENDBRANCH   3   4
ENDBRANCH   2   3
ENDBRANCH   1   2
BRANCH   1  10
ATOM     10  C   UNL     1       3.660  35.848  71.108  1.00  0.00     0.000 C 
BRANCH  10  11
ATOM     11  C   UNL     1       5.045  35.392  70.616  1.00  0.00    -0.000 C 
BRANCH  11  12
ATOM     12  C   UNL     1       5.459  33.997  71.133  1.00  0.00    -0.000 C 
BRANCH  12  13
ATOM     13  C   UNL     1       6.957  33.719  70.916  1.00  0.00    -0.000 C 
BRANCH  13  14
ATOM     14  C   UNL     1       7.323  32.238  71.123  1.00  0.00    -0.000 C 
BRANCH  14  15
ATOM     15  C   UNL     1       7.313  31.776  72.592  1.00  0.00    -0.003 C 
ATOM     16  C   UNL     1       8.083  32.718  73.520  1.00  0.00     0.004 C 
ENDBRANCH  14  15
ENDBRANCH  13  14
ENDBRANCH  12  13
ENDBRANCH  11  12
ENDBRANCH  10  11
ENDBRANCH   1  10
TORSDOF 12
ENDMDL
