MODEL 1
REMARK VINA RESULT:    -5.319      0.000      0.000
REMARK INTER + INTRA:          -6.324
REMARK INTER:                  -6.251
REMARK INTRA:                  -0.072
REMARK UNBOUND:                -0.072
REMARK SMILES O=C([O-])C=Cc1ccc(O)c(O)c1
REMARK SMILES IDX 6 1 13 2 7 3 11 4 8 5 9 6 5 7 4 8 2 9 1 10 3 11 12 12 10 14
REMARK H PARENT 12 13 10 15
REMARK Flexibility Score: inf
ROOT
ATOM      1  C   UNL     1       3.921  17.744  13.683  1.00  0.00    -0.022 A 
ATOM      2  C   UNL     1       4.725  17.935  14.815  1.00  0.00     0.058 A 
ATOM      3  C   UNL     1       3.460  16.453  13.376  1.00  0.00     0.012 A 
ATOM      4  C   UNL     1       5.112  16.845  15.606  1.00  0.00     0.157 A 
ATOM      5  C   UNL     1       3.842  15.364  14.161  1.00  0.00     0.051 A 
ATOM      6  C   UNL     1       4.672  15.551  15.275  1.00  0.00     0.157 A 
ENDROOT
BRANCH   1   7
ATOM      7  C   UNL     1       3.486  18.918  12.898  1.00  0.00     0.010 C 
ATOM      8  C   UNL     1       3.608  19.052  11.568  1.00  0.00     0.025 C 
BRANCH   8   9
ATOM      9  C   UNL     1       4.363  18.147  10.682  1.00  0.00     0.064 C 
ATOM     10  O   UNL     1       3.738  17.431   9.857  1.00  0.00    -0.545 OA
ATOM     11  O   UNL     1       5.752  18.116  10.689  1.00  0.00    -0.545 OA
ENDBRANCH   8   9
ENDBRANCH   1   7
BRANCH   4  12
ATOM     12  O   UNL     1       5.928  17.068  16.714  1.00  0.00    -0.504 OA
ATOM     13  H   UNL     1       5.581  17.506  17.557  1.00  0.00     0.293 HD
ENDBRANCH   4  12
BRANCH   6  14
ATOM     14  O   UNL     1       5.055  14.462  16.057  1.00  0.00    -0.504 OA
ATOM     15  H   UNL     1       4.559  13.580  16.014  1.00  0.00     0.293 HD
ENDBRANCH   6  14
TORSDOF 4
ENDMDL
MODEL 2
REMARK VINA RESULT:    -4.981      1.510      5.034
REMARK INTER + INTRA:          -5.927
REMARK INTER:                  -5.710
REMARK INTRA:                  -0.217
REMARK UNBOUND:                -0.072
REMARK SMILES O=C([O-])C=Cc1ccc(O)c(O)c1
REMARK SMILES IDX 6 1 13 2 7 3 11 4 8 5 9 6 5 7 4 8 2 9 1 10 3 11 12 12 10 14
REMARK H PARENT 12 13 10 15
REMARK Flexibility Score: inf
ROOT
ATOM      1  C   UNL     1       3.811  17.527  13.022  1.00  0.00    -0.022 A 
ATOM      2  C   UNL     1       4.541  16.784  12.085  1.00  0.00     0.058 A 
ATOM      3  C   UNL     1       3.419  18.839  12.706  1.00  0.00     0.012 A 
ATOM      4  C   UNL     1       4.925  17.357  10.865  1.00  0.00     0.157 A 
ATOM      5  C   UNL     1       3.799  19.414  11.491  1.00  0.00     0.051 A 
ATOM      6  C   UNL     1       4.556  18.680  10.568  1.00  0.00     0.157 A 
ENDROOT
BRANCH   1   7
ATOM      7  C   UNL     1       3.376  16.881  14.277  1.00  0.00     0.010 C 
ATOM      8  C   UNL     1       3.833  17.178  15.504  1.00  0.00     0.025 C 
BRANCH   8   9
ATOM      9  C   UNL     1       4.977  18.059  15.800  1.00  0.00     0.064 C 
ATOM     10  O   UNL     1       4.784  19.296  15.931  1.00  0.00    -0.545 OA
ATOM     11  O   UNL     1       6.253  17.547  16.008  1.00  0.00    -0.545 OA
ENDBRANCH   8   9
ENDBRANCH   1   7
BRANCH   4  12
ATOM     12  O   UNL     1       5.668  16.596   9.963  1.00  0.00    -0.504 OA
ATOM     13  H   UNL     1       5.370  16.454   9.007  1.00  0.00     0.293 HD
ENDBRANCH   4  12
BRANCH   6  14
ATOM     14  O   UNL     1       4.937  19.257   9.357  1.00  0.00    -0.504 OA
ATOM     15  H   UNL     1       5.483  18.744   8.675  1.00  0.00     0.293 HD
ENDBRANCH   6  14
TORSDOF 4
ENDMDL
MODEL 3
REMARK VINA RESULT:    -4.948      1.912      2.588
REMARK INTER + INTRA:          -5.888
REMARK INTER:                  -5.835
REMARK INTRA:                  -0.053
REMARK UNBOUND:                -0.072
REMARK SMILES O=C([O-])C=Cc1ccc(O)c(O)c1
REMARK SMILES IDX 6 1 13 2 7 3 11 4 8 5 9 6 5 7 4 8 2 9 1 10 3 11 12 12 10 14
REMARK H PARENT 12 13 10 15
REMARK Flexibility Score: inf
ROOT
ATOM      1  C   UNL     1       3.521  16.352  14.385  1.00  0.00    -0.022 A 
ATOM      2  C   UNL     1       4.444  15.350  14.059  1.00  0.00     0.058 A 
ATOM      3  C   UNL     1       2.258  15.990  14.881  1.00  0.00     0.012 A 
ATOM      4  C   UNL     1       4.098  13.997  14.175  1.00  0.00     0.157 A 
ATOM      5  C   UNL     1       1.908  14.643  14.999  1.00  0.00     0.051 A 
ATOM      6  C   UNL     1       2.821  13.641  14.644  1.00  0.00     0.157 A 
ENDROOT
BRANCH   1   7
ATOM      7  C   UNL     1       3.932  17.769  14.302  1.00  0.00     0.010 C 
ATOM      8  C   UNL     1       4.112  18.461  13.166  1.00  0.00     0.025 C 
BRANCH   8   9
ATOM      9  C   UNL     1       4.118  17.888  11.807  1.00  0.00     0.064 C 
ATOM     10  O   UNL     1       3.043  17.454  11.317  1.00  0.00    -0.545 OA
ATOM     11  O   UNL     1       5.268  17.882  11.027  1.00  0.00    -0.545 OA
ENDBRANCH   8   9
ENDBRANCH   1   7
BRANCH   4  12
ATOM     12  O   UNL     1       5.034  13.026  13.824  1.00  0.00    -0.504 OA
ATOM     13  H   UNL     1       5.371  12.922  12.875  1.00  0.00     0.293 HD
ENDBRANCH   4  12
BRANCH   6  14
ATOM     14  O   UNL     1       2.469  12.297  14.760  1.00  0.00    -0.504 OA
ATOM     15  H   UNL     1       2.980  11.666  15.366  1.00  0.00     0.293 HD
ENDBRANCH   6  14
TORSDOF 4
ENDMDL
MODEL 4
REMARK VINA RESULT:    -4.910      0.752      1.865
REMARK INTER + INTRA:          -5.843
REMARK INTER:                  -5.825
REMARK INTRA:                  -0.019
REMARK UNBOUND:                -0.072
REMARK SMILES O=C([O-])C=Cc1ccc(O)c(O)c1
REMARK SMILES IDX 6 1 13 2 7 3 11 4 8 5 9 6 5 7 4 8 2 9 1 10 3 11 12 12 10 14
REMARK H PARENT 12 13 10 15
REMARK Flexibility Score: inf
ROOT
ATOM      1  C   UNL     1       3.851  17.937  13.832  1.00  0.00    -0.022 A 
ATOM      2  C   UNL     1       3.429  16.627  13.567  1.00  0.00     0.058 A 
ATOM      3  C   UNL     1       4.763  18.168  14.875  1.00  0.00     0.012 A 
ATOM      4  C   UNL     1       3.869  15.562  14.362  1.00  0.00     0.157 A 
ATOM      5  C   UNL     1       5.206  17.109  15.671  1.00  0.00     0.051 A 
ATOM      6  C   UNL     1       4.759  15.804  15.424  1.00  0.00     0.157 A 
ENDROOT
BRANCH   1   7
ATOM      7  C   UNL     1       3.411  19.033  12.944  1.00  0.00     0.010 C 
ATOM      8  C   UNL     1       3.557  19.058  11.610  1.00  0.00     0.025 C 
BRANCH   8   9
ATOM      9  C   UNL     1       4.345  18.096  10.817  1.00  0.00     0.064 C 
ATOM     10  O   UNL     1       3.746  17.262  10.089  1.00  0.00    -0.545 OA
ATOM     11  O   UNL     1       5.734  18.135  10.800  1.00  0.00    -0.545 OA
ENDBRANCH   8   9
ENDBRANCH   1   7
BRANCH   4  12
ATOM     12  O   UNL     1       3.415  14.274  14.082  1.00  0.00    -0.504 OA
ATOM     13  H   UNL     1       3.363  13.916  13.137  1.00  0.00     0.293 HD
ENDBRANCH   4  12
BRANCH   6  14
ATOM     14  O   UNL     1       5.200  14.748  16.221  1.00  0.00    -0.504 OA
ATOM     15  H   UNL     1       4.974  14.700  17.208  1.00  0.00     0.293 HD
ENDBRANCH   6  14
TORSDOF 4
ENDMDL
MODEL 5
REMARK VINA RESULT:    -4.779      2.795      3.866
REMARK INTER + INTRA:          -5.690
REMARK INTER:                  -5.410
REMARK INTRA:                  -0.280
REMARK UNBOUND:                -0.072
REMARK SMILES O=C([O-])C=Cc1ccc(O)c(O)c1
REMARK SMILES IDX 6 1 13 2 7 3 11 4 8 5 9 6 5 7 4 8 2 9 1 10 3 11 12 12 10 14
REMARK H PARENT 12 13 10 15
REMARK Flexibility Score: inf
ROOT
ATOM      1  C   UNL     1       3.341  16.279  14.303  1.00  0.00    -0.022 A 
ATOM      2  C   UNL     1       4.270  15.314  13.890  1.00  0.00     0.058 A 
ATOM      3  C   UNL     1       2.296  15.905  15.164  1.00  0.00     0.012 A 
ATOM      4  C   UNL     1       4.132  13.977  14.286  1.00  0.00     0.157 A 
ATOM      5  C   UNL     1       2.155  14.573  15.562  1.00  0.00     0.051 A 
ATOM      6  C   UNL     1       3.066  13.603  15.123  1.00  0.00     0.157 A 
ENDROOT
BRANCH   1   7
ATOM      7  C   UNL     1       3.542  17.690  13.912  1.00  0.00     0.010 C 
ATOM      8  C   UNL     1       4.298  18.580  14.575  1.00  0.00     0.025 C 
BRANCH   8   9
ATOM      9  C   UNL     1       4.904  18.367  15.902  1.00  0.00     0.064 C 
ATOM     10  O   UNL     1       4.300  18.776  16.928  1.00  0.00    -0.545 OA
ATOM     11  O   UNL     1       6.093  17.664  16.052  1.00  0.00    -0.545 OA
ENDBRANCH   8   9
ENDBRANCH   1   7
BRANCH   4  12
ATOM     12  O   UNL     1       5.063  13.040  13.841  1.00  0.00    -0.504 OA
ATOM     13  H   UNL     1       5.104  12.102  14.220  1.00  0.00     0.293 HD
ENDBRANCH   4  12
BRANCH   6  14
ATOM     14  O   UNL     1       2.922  12.274  15.519  1.00  0.00    -0.504 OA
ATOM     15  H   UNL     1       3.156  11.509  14.898  1.00  0.00     0.293 HD
ENDBRANCH   6  14
TORSDOF 4
ENDMDL
MODEL 6
REMARK VINA RESULT:    -4.707      4.318      5.919
REMARK INTER + INTRA:          -5.605
REMARK INTER:                  -5.348
REMARK INTRA:                  -0.257
REMARK UNBOUND:                -0.072
REMARK SMILES O=C([O-])C=Cc1ccc(O)c(O)c1
REMARK SMILES IDX 6 1 13 2 7 3 11 4 8 5 9 6 5 7 4 8 2 9 1 10 3 11 12 12 10 14
REMARK H PARENT 12 13 10 15
REMARK Flexibility Score: inf
ROOT
ATOM      1  C   UNL     1       6.797  16.583  18.168  1.00  0.00    -0.022 A 
ATOM      2  C   UNL     1       7.140  17.232  19.362  1.00  0.00     0.058 A 
ATOM      3  C   UNL     1       6.425  15.229  18.202  1.00  0.00     0.012 A 
ATOM      4  C   UNL     1       7.165  16.528  20.573  1.00  0.00     0.157 A 
ATOM      5  C   UNL     1       6.447  14.524  19.407  1.00  0.00     0.051 A 
ATOM      6  C   UNL     1       6.820  15.165  20.596  1.00  0.00     0.157 A 
ENDROOT
BRANCH   1   7
ATOM      7  C   UNL     1       6.729  17.363  16.914  1.00  0.00     0.010 C 
ATOM      8  C   UNL     1       5.638  17.987  16.445  1.00  0.00     0.025 C 
BRANCH   8   9
ATOM      9  C   UNL     1       4.274  17.850  16.989  1.00  0.00     0.064 C 
ATOM     10  O   UNL     1       3.767  18.807  17.630  1.00  0.00    -0.545 OA
ATOM     11  O   UNL     1       3.507  16.715  16.749  1.00  0.00    -0.545 OA
ENDBRANCH   8   9
ENDBRANCH   1   7
BRANCH   4  12
ATOM     12  O   UNL     1       7.529  17.199  21.739  1.00  0.00    -0.504 OA
ATOM     13  H   UNL     1       8.471  17.161  22.109  1.00  0.00     0.293 HD
ENDBRANCH   4  12
BRANCH   6  14
ATOM     14  O   UNL     1       6.844  14.458  21.797  1.00  0.00    -0.504 OA
ATOM     15  H   UNL     1       7.717  14.191  22.237  1.00  0.00     0.293 HD
ENDBRANCH   6  14
TORSDOF 4
ENDMDL
MODEL 7
REMARK VINA RESULT:    -4.626      4.613      7.407
REMARK INTER + INTRA:          -5.510
REMARK INTER:                  -5.240
REMARK INTRA:                  -0.270
REMARK UNBOUND:                -0.072
REMARK SMILES O=C([O-])C=Cc1ccc(O)c(O)c1
REMARK SMILES IDX 6 1 13 2 7 3 11 4 8 5 9 6 5 7 4 8 2 9 1 10 3 11 12 12 10 14
REMARK H PARENT 12 13 10 15
REMARK Flexibility Score: inf
ROOT
ATOM      1  C   UNL     1       6.209  14.203  18.029  1.00  0.00    -0.022 A 
ATOM      2  C   UNL     1       6.232  12.844  17.685  1.00  0.00     0.058 A 
ATOM      3  C   UNL     1       5.562  15.117  17.181  1.00  0.00     0.012 A 
ATOM      4  C   UNL     1       5.663  12.404  16.482  1.00  0.00     0.157 A 
ATOM      5  C   UNL     1       4.992  14.683  15.982  1.00  0.00     0.051 A 
ATOM      6  C   UNL     1       5.043  13.329  15.624  1.00  0.00     0.157 A 
ENDROOT
BRANCH   1   7
ATOM      7  C   UNL     1       6.771  14.630  19.327  1.00  0.00     0.010 C 
ATOM      8  C   UNL     1       6.133  14.574  20.506  1.00  0.00     0.025 C 
BRANCH   8   9
ATOM      9  C   UNL     1       4.704  14.259  20.692  1.00  0.00     0.064 C 
ATOM     10  O   UNL     1       4.354  13.063  20.868  1.00  0.00    -0.545 OA
ATOM     11  O   UNL     1       3.742  15.260  20.748  1.00  0.00    -0.545 OA
ENDBRANCH   8   9
ENDBRANCH   1   7
BRANCH   4  12
ATOM     12  O   UNL     1       5.721  11.049  16.162  1.00  0.00    -0.504 OA
ATOM     13  H   UNL     1       6.586  10.525  16.197  1.00  0.00     0.293 HD
ENDBRANCH   4  12
BRANCH   6  14
ATOM     14  O   UNL     1       4.477  12.898  14.425  1.00  0.00    -0.504 OA
ATOM     15  H   UNL     1       3.755  12.187  14.405  1.00  0.00     0.293 HD
ENDBRANCH   6  14
TORSDOF 4
ENDMDL
MODEL 8
REMARK VINA RESULT:    -4.575      2.145      5.185
REMARK INTER + INTRA:          -5.450
REMARK INTER:                  -5.175
REMARK INTRA:                  -0.276
REMARK UNBOUND:                -0.072
REMARK SMILES O=C([O-])C=Cc1ccc(O)c(O)c1
REMARK SMILES IDX 6 1 13 2 7 3 11 4 8 5 9 6 5 7 4 8 2 9 1 10 3 11 12 12 10 14
REMARK H PARENT 12 13 10 15
REMARK Flexibility Score: inf
ROOT
ATOM      1  C   UNL     1       4.858  17.360  15.378  1.00  0.00    -0.022 A 
ATOM      2  C   UNL     1       4.493  18.466  14.598  1.00  0.00     0.058 A 
ATOM      3  C   UNL     1       4.525  16.068  14.939  1.00  0.00     0.012 A 
ATOM      4  C   UNL     1       3.757  18.294  13.419  1.00  0.00     0.157 A 
ATOM      5  C   UNL     1       3.792  15.891  13.764  1.00  0.00     0.051 A 
ATOM      6  C   UNL     1       3.400  16.999  13.001  1.00  0.00     0.157 A 
ENDROOT
BRANCH   1   7
ATOM      7  C   UNL     1       5.678  17.568  16.590  1.00  0.00     0.010 C 
ATOM      8  C   UNL     1       5.223  17.535  17.851  1.00  0.00     0.025 C 
BRANCH   8   9
ATOM      9  C   UNL     1       3.804  17.475  18.248  1.00  0.00     0.064 C 
ATOM     10  O   UNL     1       3.276  16.357  18.482  1.00  0.00    -0.545 OA
ATOM     11  O   UNL     1       3.055  18.630  18.438  1.00  0.00    -0.545 OA
ENDBRANCH   8   9
ENDBRANCH   1   7
BRANCH   4  12
ATOM     12  O   UNL     1       3.394  19.416  12.677  1.00  0.00    -0.504 OA
ATOM     13  H   UNL     1       2.940  19.341  11.775  1.00  0.00     0.293 HD
ENDBRANCH   4  12
BRANCH   6  14
ATOM     14  O   UNL     1       2.666  16.821  11.829  1.00  0.00    -0.504 OA
ATOM     15  H   UNL     1       2.585  17.557  11.138  1.00  0.00     0.293 HD
ENDBRANCH   6  14
TORSDOF 4
ENDMDL
MODEL 9
REMARK VINA RESULT:    -4.518      4.837      7.011
REMARK INTER + INTRA:          -5.383
REMARK INTER:                  -5.105
REMARK INTRA:                  -0.278
REMARK UNBOUND:                -0.072
REMARK SMILES O=C([O-])C=Cc1ccc(O)c(O)c1
REMARK SMILES IDX 6 1 13 2 7 3 11 4 8 5 9 6 5 7 4 8 2 9 1 10 3 11 12 12 10 14
REMARK H PARENT 12 13 10 15
REMARK Flexibility Score: inf
ROOT
ATOM      1  C   UNL     1       6.046  14.105  19.367  1.00  0.00    -0.022 A 
ATOM      2  C   UNL     1       7.133  14.881  19.793  1.00  0.00     0.058 A 
ATOM      3  C   UNL     1       5.027  13.788  20.280  1.00  0.00     0.012 A 
ATOM      4  C   UNL     1       7.234  15.295  21.127  1.00  0.00     0.157 A 
ATOM      5  C   UNL     1       5.123  14.199  21.612  1.00  0.00     0.051 A 
ATOM      6  C   UNL     1       6.226  14.948  22.044  1.00  0.00     0.157 A 
ENDROOT
BRANCH   1   7
ATOM      7  C   UNL     1       5.941  13.728  17.942  1.00  0.00     0.010 C 
ATOM      8  C   UNL     1       5.472  14.516  16.962  1.00  0.00     0.025 C 
BRANCH   8   9
ATOM      9  C   UNL     1       4.806  15.818  17.156  1.00  0.00     0.064 C 
ATOM     10  O   UNL     1       3.556  15.855  17.299  1.00  0.00    -0.545 OA
ATOM     11  O   UNL     1       5.533  16.998  17.256  1.00  0.00    -0.545 OA
ENDBRANCH   8   9
ENDBRANCH   1   7
BRANCH   4  12
ATOM     12  O   UNL     1       8.338  16.049  21.521  1.00  0.00    -0.504 OA
ATOM     13  H   UNL     1       9.184  16.094  20.967  1.00  0.00     0.293 HD
ENDBRANCH   4  12
BRANCH   6  14
ATOM     14  O   UNL     1       6.321  15.354  23.374  1.00  0.00    -0.504 OA
ATOM     15  H   UNL     1       5.830  14.865  24.113  1.00  0.00     0.293 HD
ENDBRANCH   6  14
TORSDOF 4
ENDMDL
