MODEL 1
REMARK VINA RESULT:     0.000      0.000      0.000
REMARK INTER + INTRA:          -3.637
REMARK INTER:                   0.000
REMARK INTRA:                  -3.637
REMARK UNBOUND:                -3.637
REMARK SMILES CCCCCCCCCCCCCCCCCC(=O)[O-]
REMARK SMILES IDX 10 1 11 2 12 3 13 4 14 5 15 6 16 7 17 8 18 9 19 10 20 11
REMARK SMILES IDX 9 12 8 13 7 14 6 15 5 16 4 17 3 18 2 19 1 20
REMARK H PARENT
REMARK Flexibility Score: inf
ROOT
ATOM      1  C   UNL     1     175.702 189.129 192.587  1.00  0.00     0.000 C 
ENDROOT
BRANCH   1   2
ATOM      2  C   UNL     1     175.300 188.084 191.524  1.00  0.00     0.000 C 
BRANCH   2   3
ATOM      3  C   UNL     1     175.369 188.618 190.079  1.00  0.00     0.000 C 
BRANCH   3   4
ATOM      4  C   UNL     1     175.264 190.148 189.949  1.00  0.00     0.000 C 
BRANCH   4   5
ATOM      5  C   UNL     1     176.493 190.836 189.319  1.00  0.00     0.000 C 
BRANCH   5   6
ATOM      6  C   UNL     1     177.105 191.947 190.197  1.00  0.00     0.000 C 
BRANCH   6   7
ATOM      7  C   UNL     1     176.093 192.536 191.194  1.00  0.00     0.006 C 
BRANCH   7   8
ATOM      8  C   UNL     1     176.790 192.971 192.486  1.00  0.00     0.053 C 
BRANCH   8   9
ATOM      9  C   UNL     1     175.942 192.644 193.675  1.00  0.00     0.041 C 
ATOM     10  O   UNL     1     174.697 192.831 193.631  1.00  0.00    -0.550 OA
ATOM     11  O   UNL     1     176.513 192.082 194.810  1.00  0.00    -0.550 OA
ENDBRANCH   8   9
ENDBRANCH   7   8
ENDBRANCH   6   7
ENDBRANCH   5   6
ENDBRANCH   4   5
ENDBRANCH   3   4
ENDBRANCH   2   3
ENDBRANCH   1   2
BRANCH   1  12
ATOM     12  C   UNL     1     176.349 188.490 193.831  1.00  0.00     0.000 C 
BRANCH  12  13
ATOM     13  C   UNL     1     177.833 188.873 193.994  1.00  0.00    -0.000 C 
BRANCH  13  14
ATOM     14  C   UNL     1     178.410 189.713 192.842  1.00  0.00    -0.000 C 
BRANCH  14  15
ATOM     15  C   UNL     1     179.514 188.976 192.067  1.00  0.00    -0.000 C 
BRANCH  15  16
ATOM     16  C   UNL     1     179.110 188.660 190.614  1.00  0.00    -0.000 C 
BRANCH  16  17
ATOM     17  C   UNL     1     178.771 187.178 190.343  1.00  0.00    -0.000 C 
BRANCH  17  18
ATOM     18  C   UNL     1     179.104 186.204 191.496  1.00  0.00    -0.000 C 
BRANCH  18  19
ATOM     19  C   UNL     1     177.870 185.493 192.093  1.00  0.00    -0.003 C 
ATOM     20  C   UNL     1     178.037 185.159 193.582  1.00  0.00     0.004 C 
ENDBRANCH  18  19
ENDBRANCH  17  18
ENDBRANCH  16  17
ENDBRANCH  15  16
ENDBRANCH  14  15
ENDBRANCH  13  14
ENDBRANCH  12  13
ENDBRANCH   1  12
TORSDOF 16
ENDMDL
MODEL 2
REMARK VINA RESULT:     0.007      6.626      9.205
REMARK INTER + INTRA:          -3.623
REMARK INTER:                   0.000
REMARK INTRA:                  -3.623
REMARK UNBOUND:                -3.637
REMARK SMILES CCCCCCCCCCCCCCCCCC(=O)[O-]
REMARK SMILES IDX 10 1 11 2 12 3 13 4 14 5 15 6 16 7 17 8 18 9 19 10 20 11
REMARK SMILES IDX 9 12 8 13 7 14 6 15 5 16 4 17 3 18 2 19 1 20
REMARK H PARENT
REMARK Flexibility Score: inf
ROOT
ATOM      1  C   UNL     1     180.986 184.904 193.249  1.00  0.00     0.000 C 
ENDROOT
BRANCH   1   2
ATOM      2  C   UNL     1     179.718 185.297 194.038  1.00  0.00     0.000 C 
BRANCH   2   3
ATOM      3  C   UNL     1     178.531 184.338 193.810  1.00  0.00     0.000 C 
BRANCH   3   4
ATOM      4  C   UNL     1     178.114 183.521 195.045  1.00  0.00     0.000 C 
BRANCH   4   5
ATOM      5  C   UNL     1     179.089 183.594 196.239  1.00  0.00     0.000 C 
BRANCH   5   6
ATOM      6  C   UNL     1     179.742 182.243 196.594  1.00  0.00     0.000 C 
BRANCH   6   7
ATOM      7  C   UNL     1     181.271 182.344 196.736  1.00  0.00     0.006 C 
BRANCH   7   8
ATOM      8  C   UNL     1     181.718 183.807 196.797  1.00  0.00     0.053 C 
BRANCH   8   9
ATOM      9  C   UNL     1     183.070 183.968 196.176  1.00  0.00     0.041 C 
ATOM     10  O   UNL     1     183.496 185.117 195.884  1.00  0.00    -0.550 OA
ATOM     11  O   UNL     1     183.883 182.860 195.971  1.00  0.00    -0.550 OA
ENDBRANCH   8   9
ENDBRANCH   7   8
ENDBRANCH   6   7
ENDBRANCH   5   6
ENDBRANCH   4   5
ENDBRANCH   3   4
ENDBRANCH   2   3
ENDBRANCH   1   2
BRANCH   1  12
ATOM     12  C   UNL     1     180.817 183.582 192.475  1.00  0.00     0.000 C 
BRANCH  12  13
ATOM     13  C   UNL     1     181.674 182.440 193.054  1.00  0.00    -0.000 C 
BRANCH  13  14
ATOM     14  C   UNL     1     180.927 181.109 193.244  1.00  0.00    -0.000 C 
BRANCH  14  15
ATOM     15  C   UNL     1     179.606 181.053 192.460  1.00  0.00    -0.000 C 
BRANCH  15  16
ATOM     16  C   UNL     1     178.493 180.310 193.223  1.00  0.00    -0.000 C 
BRANCH  16  17
ATOM     17  C   UNL     1     178.989 179.392 194.362  1.00  0.00    -0.000 C 
BRANCH  17  18
ATOM     18  C   UNL     1     177.983 179.168 195.513  1.00  0.00    -0.000 C 
BRANCH  18  19
ATOM     19  C   UNL     1     176.737 180.079 195.442  1.00  0.00    -0.003 C 
ATOM     20  C   UNL     1     176.355 180.674 196.805  1.00  0.00     0.004 C 
ENDBRANCH  18  19
ENDBRANCH  17  18
ENDBRANCH  16  17
ENDBRANCH  15  16
ENDBRANCH  14  15
ENDBRANCH  13  14
ENDBRANCH  12  13
ENDBRANCH   1  12
TORSDOF 16
ENDMDL
MODEL 3
REMARK VINA RESULT:     0.010     12.348     14.634
REMARK INTER + INTRA:          -3.618
REMARK INTER:                   0.000
REMARK INTRA:                  -3.618
REMARK UNBOUND:                -3.637
REMARK SMILES CCCCCCCCCCCCCCCCCC(=O)[O-]
REMARK SMILES IDX 10 1 11 2 12 3 13 4 14 5 15 6 16 7 17 8 18 9 19 10 20 11
REMARK SMILES IDX 9 12 8 13 7 14 6 15 5 16 4 17 3 18 2 19 1 20
REMARK H PARENT
REMARK Flexibility Score: inf
ROOT
ATOM      1  C   UNL     1     188.854 187.729 185.265  1.00  0.00     0.000 C 
ENDROOT
BRANCH   1   2
ATOM      2  C   UNL     1     187.312 187.664 185.305  1.00  0.00     0.000 C 
BRANCH   2   3
ATOM      3  C   UNL     1     186.759 186.916 186.535  1.00  0.00     0.000 C 
BRANCH   3   4
ATOM      4  C   UNL     1     185.863 185.708 186.209  1.00  0.00     0.000 C 
BRANCH   4   5
ATOM      5  C   UNL     1     186.110 184.457 187.079  1.00  0.00     0.000 C 
BRANCH   5   6
ATOM      6  C   UNL     1     185.530 183.158 186.482  1.00  0.00     0.000 C 
BRANCH   6   7
ATOM      7  C   UNL     1     186.422 181.934 186.752  1.00  0.00     0.006 C 
BRANCH   7   8
ATOM      8  C   UNL     1     186.558 181.070 185.496  1.00  0.00     0.053 C 
BRANCH   8   9
ATOM      9  C   UNL     1     187.920 180.453 185.429  1.00  0.00     0.041 C 
ATOM     10  O   UNL     1     188.535 180.402 184.331  1.00  0.00    -0.550 OA
ATOM     11  O   UNL     1     188.534 179.986 186.584  1.00  0.00    -0.550 OA
ENDBRANCH   8   9
ENDBRANCH   7   8
ENDBRANCH   6   7
ENDBRANCH   5   6
ENDBRANCH   4   5
ENDBRANCH   3   4
ENDBRANCH   2   3
ENDBRANCH   1   2
BRANCH   1  12
ATOM     12  C   UNL     1     189.498 187.324 186.606  1.00  0.00     0.000 C 
BRANCH  12  13
ATOM     13  C   UNL     1     190.387 186.072 186.485  1.00  0.00    -0.000 C 
BRANCH  13  14
ATOM     14  C   UNL     1     189.828 184.817 187.176  1.00  0.00    -0.000 C 
BRANCH  14  15
ATOM     15  C   UNL     1     189.654 183.635 186.208  1.00  0.00    -0.000 C 
BRANCH  15  16
ATOM     16  C   UNL     1     189.650 184.073 184.730  1.00  0.00    -0.000 C 
BRANCH  16  17
ATOM     17  C   UNL     1     188.283 183.951 184.022  1.00  0.00    -0.000 C 
BRANCH  17  18
ATOM     18  C   UNL     1     188.035 184.971 182.889  1.00  0.00    -0.000 C 
BRANCH  18  19
ATOM     19  C   UNL     1     186.541 185.193 182.561  1.00  0.00    -0.003 C 
ATOM     20  C   UNL     1     185.675 183.962 182.865  1.00  0.00     0.004 C 
ENDBRANCH  18  19
ENDBRANCH  17  18
ENDBRANCH  16  17
ENDBRANCH  15  16
ENDBRANCH  14  15
ENDBRANCH  13  14
ENDBRANCH  12  13
ENDBRANCH   1  12
TORSDOF 16
ENDMDL
MODEL 4
REMARK VINA RESULT:     0.010      7.092      9.462
REMARK INTER + INTRA:          -3.617
REMARK INTER:                   0.000
REMARK INTRA:                  -3.617
REMARK UNBOUND:                -3.637
REMARK SMILES CCCCCCCCCCCCCCCCCC(=O)[O-]
REMARK SMILES IDX 10 1 11 2 12 3 13 4 14 5 15 6 16 7 17 8 18 9 19 10 20 11
REMARK SMILES IDX 9 12 8 13 7 14 6 15 5 16 4 17 3 18 2 19 1 20
REMARK H PARENT
REMARK Flexibility Score: inf
ROOT
ATOM      1  C   UNL     1     182.690 185.523 193.468  1.00  0.00     0.000 C 
ENDROOT
BRANCH   1   2
ATOM      2  C   UNL     1     181.665 186.292 194.329  1.00  0.00     0.000 C 
BRANCH   2   3
ATOM      3  C   UNL     1     180.296 185.589 194.430  1.00  0.00     0.000 C 
BRANCH   3   4
ATOM      4  C   UNL     1     179.943 185.057 195.830  1.00  0.00     0.000 C 
BRANCH   4   5
ATOM      5  C   UNL     1     181.083 185.138 196.866  1.00  0.00     0.000 C 
BRANCH   5   6
ATOM      6  C   UNL     1     181.523 183.766 197.417  1.00  0.00     0.000 C 
BRANCH   6   7
ATOM      7  C   UNL     1     183.044 183.553 197.327  1.00  0.00     0.006 C 
BRANCH   7   8
ATOM      8  C   UNL     1     183.764 184.872 197.034  1.00  0.00     0.053 C 
BRANCH   8   9
ATOM      9  C   UNL     1     185.015 184.624 196.251  1.00  0.00     0.041 C 
ATOM     10  O   UNL     1     185.614 185.585 195.700  1.00  0.00    -0.550 OA
ATOM     11  O   UNL     1     185.551 183.345 196.174  1.00  0.00    -0.550 OA
ENDBRANCH   8   9
ENDBRANCH   7   8
ENDBRANCH   6   7
ENDBRANCH   5   6
ENDBRANCH   4   5
ENDBRANCH   3   4
ENDBRANCH   2   3
ENDBRANCH   1   2
BRANCH   1  12
ATOM     12  C   UNL     1     182.154 184.161 192.984  1.00  0.00     0.000 C 
BRANCH  12  13
ATOM     13  C   UNL     1     182.859 182.970 193.659  1.00  0.00    -0.000 C 
BRANCH  13  14
ATOM     14  C   UNL     1     181.913 181.885 194.200  1.00  0.00    -0.000 C 
BRANCH  14  15
ATOM     15  C   UNL     1     180.493 181.995 193.622  1.00  0.00    -0.000 C 
BRANCH  15  16
ATOM     16  C   UNL     1     179.407 181.573 194.630  1.00  0.00    -0.000 C 
BRANCH  16  17
ATOM     17  C   UNL     1     179.932 180.818 195.871  1.00  0.00    -0.000 C 
BRANCH  17  18
ATOM     18  C   UNL     1     179.095 181.001 197.156  1.00  0.00    -0.000 C 
BRANCH  18  19
ATOM     19  C   UNL     1     178.031 182.116 197.057  1.00  0.00    -0.003 C 
ATOM     20  C   UNL     1     177.963 182.989 198.319  1.00  0.00     0.004 C 
ENDBRANCH  18  19
ENDBRANCH  17  18
ENDBRANCH  16  17
ENDBRANCH  15  16
ENDBRANCH  14  15
ENDBRANCH  13  14
ENDBRANCH  12  13
ENDBRANCH   1  12
TORSDOF 16
ENDMDL
MODEL 5
REMARK VINA RESULT:     0.016      4.394      7.359
REMARK INTER + INTRA:          -3.607
REMARK INTER:                   0.000
REMARK INTRA:                  -3.607
REMARK UNBOUND:                -3.637
REMARK SMILES CCCCCCCCCCCCCCCCCC(=O)[O-]
REMARK SMILES IDX 10 1 11 2 12 3 13 4 14 5 15 6 16 7 17 8 18 9 19 10 20 11
REMARK SMILES IDX 9 12 8 13 7 14 6 15 5 16 4 17 3 18 2 19 1 20
REMARK H PARENT
REMARK Flexibility Score: inf
ROOT
ATOM      1  C   UNL     1     180.034 187.963 194.515  1.00  0.00     0.000 C 
ENDROOT
BRANCH   1   2
ATOM      2  C   UNL     1     180.609 187.108 195.664  1.00  0.00     0.000 C 
BRANCH   2   3
ATOM      3  C   UNL     1     180.738 185.612 195.313  1.00  0.00     0.000 C 
BRANCH   3   4
ATOM      4  C   UNL     1     179.641 184.711 195.906  1.00  0.00     0.000 C 
BRANCH   4   5
ATOM      5  C   UNL     1     179.191 183.546 195.001  1.00  0.00     0.000 C 
BRANCH   5   6
ATOM      6  C   UNL     1     179.738 183.628 193.561  1.00  0.00     0.000 C 
BRANCH   6   7
ATOM      7  C   UNL     1     178.774 183.023 192.526  1.00  0.00     0.006 C 
BRANCH   7   8
ATOM      8  C   UNL     1     178.982 183.659 191.149  1.00  0.00     0.053 C 
BRANCH   8   9
ATOM      9  C   UNL     1     177.665 183.947 190.500  1.00  0.00     0.041 C 
ATOM     10  O   UNL     1     177.504 185.015 189.851  1.00  0.00    -0.550 OA
ATOM     11  O   UNL     1     176.635 183.017 190.562  1.00  0.00    -0.550 OA
ENDBRANCH   8   9
ENDBRANCH   7   8
ENDBRANCH   6   7
ENDBRANCH   5   6
ENDBRANCH   4   5
ENDBRANCH   3   4
ENDBRANCH   2   3
ENDBRANCH   1   2
BRANCH   1  12
ATOM     12  C   UNL     1     180.210 187.297 193.136  1.00  0.00     0.000 C 
BRANCH  12  13
ATOM     13  C   UNL     1     178.876 187.123 192.384  1.00  0.00    -0.000 C 
BRANCH  13  14
ATOM     14  C   UNL     1     177.620 187.334 193.247  1.00  0.00    -0.000 C 
BRANCH  14  15
ATOM     15  C   UNL     1     176.820 186.038 193.456  1.00  0.00    -0.000 C 
BRANCH  15  16
ATOM     16  C   UNL     1     176.302 185.885 194.898  1.00  0.00    -0.000 C 
BRANCH  16  17
ATOM     17  C   UNL     1     176.239 187.200 195.707  1.00  0.00    -0.000 C 
BRANCH  17  18
ATOM     18  C   UNL     1     177.095 187.224 196.993  1.00  0.00    -0.000 C 
BRANCH  18  19
ATOM     19  C   UNL     1     177.649 188.621 197.351  1.00  0.00    -0.003 C 
ATOM     20  C   UNL     1     177.268 189.695 196.321  1.00  0.00     0.004 C 
ENDBRANCH  18  19
ENDBRANCH  17  18
ENDBRANCH  16  17
ENDBRANCH  15  16
ENDBRANCH  14  15
ENDBRANCH  13  14
ENDBRANCH  12  13
ENDBRANCH   1  12
TORSDOF 16
ENDMDL
MODEL 6
REMARK VINA RESULT:     0.020      6.562      9.579
REMARK INTER + INTRA:          -3.598
REMARK INTER:                   0.000
REMARK INTRA:                  -3.598
REMARK UNBOUND:                -3.637
REMARK SMILES CCCCCCCCCCCCCCCCCC(=O)[O-]
REMARK SMILES IDX 10 1 11 2 12 3 13 4 14 5 15 6 16 7 17 8 18 9 19 10 20 11
REMARK SMILES IDX 9 12 8 13 7 14 6 15 5 16 4 17 3 18 2 19 1 20
REMARK H PARENT
REMARK Flexibility Score: inf
ROOT
ATOM      1  C   UNL     1     176.854 182.571 187.987  1.00  0.00     0.000 C 
ENDROOT
BRANCH   1   2
ATOM      2  C   UNL     1     175.481 183.113 188.439  1.00  0.00     0.000 C 
BRANCH   2   3
ATOM      3  C   UNL     1     174.402 182.019 188.570  1.00  0.00     0.000 C 
BRANCH   3   4
ATOM      4  C   UNL     1     173.883 181.789 190.000  1.00  0.00     0.000 C 
BRANCH   4   5
ATOM      5  C   UNL     1     174.434 180.530 190.701  1.00  0.00     0.000 C 
BRANCH   5   6
ATOM      6  C   UNL     1     174.802 179.387 189.733  1.00  0.00     0.000 C 
BRANCH   6   7
ATOM      7  C   UNL     1     176.287 178.994 189.819  1.00  0.00     0.006 C 
BRANCH   7   8
ATOM      8  C   UNL     1     176.911 178.906 188.424  1.00  0.00     0.053 C 
BRANCH   8   9
ATOM      9  C   UNL     1     178.386 179.147 188.494  1.00  0.00     0.041 C 
ATOM     10  O   UNL     1     179.046 178.733 189.484  1.00  0.00    -0.550 OA
ATOM     11  O   UNL     1     179.043 179.777 187.444  1.00  0.00    -0.550 OA
ENDBRANCH   8   9
ENDBRANCH   7   8
ENDBRANCH   6   7
ENDBRANCH   5   6
ENDBRANCH   4   5
ENDBRANCH   3   4
ENDBRANCH   2   3
ENDBRANCH   1   2
BRANCH   1  12
ATOM     12  C   UNL     1     177.976 182.886 188.997  1.00  0.00     0.000 C 
BRANCH  12  13
ATOM     13  C   UNL     1     177.706 182.290 190.392  1.00  0.00    -0.000 C 
BRANCH  13  14
ATOM     14  C   UNL     1     177.696 183.314 191.538  1.00  0.00    -0.000 C 
BRANCH  14  15
ATOM     15  C   UNL     1     176.349 183.365 192.276  1.00  0.00    -0.000 C 
BRANCH  15  16
ATOM     16  C   UNL     1     175.496 184.583 191.875  1.00  0.00    -0.000 C 
BRANCH  16  17
ATOM     17  C   UNL     1     176.303 185.804 191.379  1.00  0.00    -0.000 C 
BRANCH  17  18
ATOM     18  C   UNL     1     175.879 186.358 190.001  1.00  0.00    -0.000 C 
BRANCH  18  19
ATOM     19  C   UNL     1     177.047 186.512 189.001  1.00  0.00    -0.003 C 
ATOM     20  C   UNL     1     178.422 186.504 189.685  1.00  0.00     0.004 C 
ENDBRANCH  18  19
ENDBRANCH  17  18
ENDBRANCH  16  17
ENDBRANCH  15  16
ENDBRANCH  14  15
ENDBRANCH  13  14
ENDBRANCH  12  13
ENDBRANCH   1  12
TORSDOF 16
ENDMDL
MODEL 7
REMARK VINA RESULT:     0.032      7.062      9.356
REMARK INTER + INTRA:          -3.575
REMARK INTER:                   0.000
REMARK INTRA:                  -3.575
REMARK UNBOUND:                -3.637
REMARK SMILES CCCCCCCCCCCCCCCCCC(=O)[O-]
REMARK SMILES IDX 10 1 11 2 12 3 13 4 14 5 15 6 16 7 17 8 18 9 19 10 20 11
REMARK SMILES IDX 9 12 8 13 7 14 6 15 5 16 4 17 3 18 2 19 1 20
REMARK H PARENT
REMARK Flexibility Score: inf
ROOT
ATOM      1  C   UNL     1     179.053 185.187 188.330  1.00  0.00     0.000 C 
ENDROOT
BRANCH   1   2
ATOM      2  C   UNL     1     179.902 184.950 189.598  1.00  0.00     0.000 C 
BRANCH   2   3
ATOM      3  C   UNL     1     179.946 183.473 190.040  1.00  0.00     0.000 C 
BRANCH   3   4
ATOM      4  C   UNL     1     179.167 182.503 189.136  1.00  0.00     0.000 C 
BRANCH   4   5
ATOM      5  C   UNL     1     180.020 181.408 188.463  1.00  0.00     0.000 C 
BRANCH   5   6
ATOM      6  C   UNL     1     180.806 181.900 187.230  1.00  0.00     0.000 C 
BRANCH   6   7
ATOM      7  C   UNL     1     180.128 181.515 185.904  1.00  0.00     0.006 C 
BRANCH   7   8
ATOM      8  C   UNL     1     179.539 182.747 185.214  1.00  0.00     0.053 C 
BRANCH   8   9
ATOM      9  C   UNL     1     178.080 182.874 185.522  1.00  0.00     0.041 C 
ATOM     10  O   UNL     1     177.467 183.939 185.243  1.00  0.00    -0.550 OA
ATOM     11  O   UNL     1     177.383 181.802 186.064  1.00  0.00    -0.550 OA
ENDBRANCH   8   9
ENDBRANCH   7   8
ENDBRANCH   6   7
ENDBRANCH   5   6
ENDBRANCH   4   5
ENDBRANCH   3   4
ENDBRANCH   2   3
ENDBRANCH   1   2
BRANCH   1  12
ATOM     12  C   UNL     1     179.865 185.821 187.183  1.00  0.00     0.000 C 
BRANCH  12  13
ATOM     13  C   UNL     1     181.367 185.930 187.507  1.00  0.00    -0.000 C 
BRANCH  13  14
ATOM     14  C   UNL     1     182.291 185.184 186.531  1.00  0.00    -0.000 C 
BRANCH  14  15
ATOM     15  C   UNL     1     183.433 184.443 187.245  1.00  0.00    -0.000 C 
BRANCH  15  16
ATOM     16  C   UNL     1     183.500 184.763 188.750  1.00  0.00    -0.000 C 
BRANCH  16  17
ATOM     17  C   UNL     1     183.618 183.528 189.671  1.00  0.00    -0.000 C 
BRANCH  17  18
ATOM     18  C   UNL     1     184.027 182.217 188.965  1.00  0.00    -0.000 C 
BRANCH  18  19
ATOM     19  C   UNL     1     183.538 180.939 189.684  1.00  0.00    -0.003 C 
ATOM     20  C   UNL     1     182.786 181.240 190.989  1.00  0.00     0.004 C 
ENDBRANCH  18  19
ENDBRANCH  17  18
ENDBRANCH  16  17
ENDBRANCH  15  16
ENDBRANCH  14  15
ENDBRANCH  13  14
ENDBRANCH  12  13
ENDBRANCH   1  12
TORSDOF 16
ENDMDL
MODEL 8
REMARK VINA RESULT:     0.033      6.284      9.006
REMARK INTER + INTRA:          -3.573
REMARK INTER:                   0.000
REMARK INTRA:                  -3.573
REMARK UNBOUND:                -3.637
REMARK SMILES CCCCCCCCCCCCCCCCCC(=O)[O-]
REMARK SMILES IDX 10 1 11 2 12 3 13 4 14 5 15 6 16 7 17 8 18 9 19 10 20 11
REMARK SMILES IDX 9 12 8 13 7 14 6 15 5 16 4 17 3 18 2 19 1 20
REMARK H PARENT
REMARK Flexibility Score: inf
ROOT
ATOM      1  C   UNL     1     181.523 189.210 185.930  1.00  0.00     0.000 C 
ENDROOT
BRANCH   1   2
ATOM      2  C   UNL     1     180.301 188.299 186.174  1.00  0.00     0.000 C 
BRANCH   2   3
ATOM      3  C   UNL     1     179.706 188.436 187.590  1.00  0.00     0.000 C 
BRANCH   3   4
ATOM      4  C   UNL     1     179.887 187.202 188.491  1.00  0.00     0.000 C 
BRANCH   4   5
ATOM      5  C   UNL     1     180.261 185.901 187.751  1.00  0.00     0.000 C 
BRANCH   5   6
ATOM      6  C   UNL     1     181.541 185.225 188.285  1.00  0.00     0.000 C 
BRANCH   6   7
ATOM      7  C   UNL     1     182.546 184.895 187.168  1.00  0.00     0.006 C 
BRANCH   7   8
ATOM      8  C   UNL     1     181.866 184.920 185.797  1.00  0.00     0.053 C 
BRANCH   8   9
ATOM      9  C   UNL     1     181.749 183.533 185.245  1.00  0.00     0.041 C 
ATOM     10  O   UNL     1     180.915 182.728 185.738  1.00  0.00    -0.550 OA
ATOM     11  O   UNL     1     182.516 183.147 184.153  1.00  0.00    -0.550 OA
ENDBRANCH   8   9
ENDBRANCH   7   8
ENDBRANCH   6   7
ENDBRANCH   5   6
ENDBRANCH   4   5
ENDBRANCH   3   4
ENDBRANCH   2   3
ENDBRANCH   1   2
BRANCH   1  12
ATOM     12  C   UNL     1     182.858 188.509 186.251  1.00  0.00     0.000 C 
BRANCH  12  13
ATOM     13  C   UNL     1     183.551 189.091 187.498  1.00  0.00    -0.000 C 
BRANCH  13  14
ATOM     14  C   UNL     1     183.876 188.061 188.593  1.00  0.00    -0.000 C 
BRANCH  14  15
ATOM     15  C   UNL     1     183.096 188.313 189.894  1.00  0.00    -0.000 C 
BRANCH  15  16
ATOM     16  C   UNL     1     182.689 189.788 190.067  1.00  0.00    -0.000 C 
BRANCH  16  17
ATOM     17  C   UNL     1     181.258 190.006 190.608  1.00  0.00    -0.000 C 
BRANCH  17  18
ATOM     18  C   UNL     1     180.479 191.172 189.959  1.00  0.00    -0.000 C 
BRANCH  18  19
ATOM     19  C   UNL     1     181.143 191.736 188.684  1.00  0.00    -0.003 C 
ATOM     20  C   UNL     1     180.122 192.203 187.636  1.00  0.00     0.004 C 
ENDBRANCH  18  19
ENDBRANCH  17  18
ENDBRANCH  16  17
ENDBRANCH  15  16
ENDBRANCH  14  15
ENDBRANCH  13  14
ENDBRANCH  12  13
ENDBRANCH   1  12
TORSDOF 16
ENDMDL
MODEL 9
REMARK VINA RESULT:     0.033      6.492      9.122
REMARK INTER + INTRA:          -3.572
REMARK INTER:                   0.000
REMARK INTRA:                  -3.572
REMARK UNBOUND:                -3.637
REMARK SMILES CCCCCCCCCCCCCCCCCC(=O)[O-]
REMARK SMILES IDX 10 1 11 2 12 3 13 4 14 5 15 6 16 7 17 8 18 9 19 10 20 11
REMARK SMILES IDX 9 12 8 13 7 14 6 15 5 16 4 17 3 18 2 19 1 20
REMARK H PARENT
REMARK Flexibility Score: inf
ROOT
ATOM      1  C   UNL     1     180.914 191.178 184.829  1.00  0.00     0.000 C 
ENDROOT
BRANCH   1   2
ATOM      2  C   UNL     1     179.692 190.267 185.073  1.00  0.00     0.000 C 
BRANCH   2   3
ATOM      3  C   UNL     1     179.095 190.406 186.488  1.00  0.00     0.000 C 
BRANCH   3   4
ATOM      4  C   UNL     1     179.280 189.175 187.393  1.00  0.00     0.000 C 
BRANCH   4   5
ATOM      5  C   UNL     1     179.648 187.871 186.655  1.00  0.00     0.000 C 
BRANCH   5   6
ATOM      6  C   UNL     1     180.928 187.193 187.186  1.00  0.00     0.000 C 
BRANCH   6   7
ATOM      7  C   UNL     1     181.934 186.871 186.067  1.00  0.00     0.006 C 
BRANCH   7   8
ATOM      8  C   UNL     1     181.250 186.886 184.698  1.00  0.00     0.053 C 
BRANCH   8   9
ATOM      9  C   UNL     1     181.129 185.496 184.157  1.00  0.00     0.041 C 
ATOM     10  O   UNL     1     180.295 184.695 184.659  1.00  0.00    -0.550 OA
ATOM     11  O   UNL     1     181.892 185.099 183.066  1.00  0.00    -0.550 OA
ENDBRANCH   8   9
ENDBRANCH   7   8
ENDBRANCH   6   7
ENDBRANCH   5   6
ENDBRANCH   4   5
ENDBRANCH   3   4
ENDBRANCH   2   3
ENDBRANCH   1   2
BRANCH   1  12
ATOM     12  C   UNL     1     182.249 190.477 185.150  1.00  0.00     0.000 C 
BRANCH  12  13
ATOM     13  C   UNL     1     182.943 191.060 186.396  1.00  0.00    -0.000 C 
BRANCH  13  14
ATOM     14  C   UNL     1     183.265 190.032 187.493  1.00  0.00    -0.000 C 
BRANCH  14  15
ATOM     15  C   UNL     1     182.485 190.288 188.793  1.00  0.00    -0.000 C 
BRANCH  15  16
ATOM     16  C   UNL     1     182.081 191.765 188.963  1.00  0.00    -0.000 C 
BRANCH  16  17
ATOM     17  C   UNL     1     180.651 191.987 189.504  1.00  0.00    -0.000 C 
BRANCH  17  18
ATOM     18  C   UNL     1     179.872 193.150 188.850  1.00  0.00    -0.000 C 
BRANCH  18  19
ATOM     19  C   UNL     1     180.538 193.711 187.574  1.00  0.00    -0.003 C 
ATOM     20  C   UNL     1     179.518 194.173 186.523  1.00  0.00     0.004 C 
ENDBRANCH  18  19
ENDBRANCH  17  18
ENDBRANCH  16  17
ENDBRANCH  15  16
ENDBRANCH  14  15
ENDBRANCH  13  14
ENDBRANCH  12  13
ENDBRANCH   1  12
TORSDOF 16
ENDMDL
