MODEL 1
REMARK VINA RESULT:    -1.801      0.000      0.000
REMARK INTER + INTRA:          -4.041
REMARK INTER:                  -3.486
REMARK INTRA:                  -0.555
REMARK UNBOUND:                -0.555
REMARK SMILES CCCCCCCCCCCCCCCCCC(=O)[O-]
REMARK SMILES IDX 10 1 11 2 12 3 13 4 14 5 15 6 16 7 17 8 18 9 19 10 20 11
REMARK SMILES IDX 9 12 8 13 7 14 6 15 5 16 4 17 3 18 2 19 1 20
REMARK H PARENT
REMARK Flexibility Score: inf
ROOT
ATOM      1  C   UNL     1      33.907  24.822  33.314  1.00  0.00     0.000 C 
ENDROOT
BRANCH   1   2
ATOM      2  C   UNL     1      35.260  24.420  33.929  1.00  0.00     0.000 C 
BRANCH   2   3
ATOM      3  C   UNL     1      36.429  24.575  32.944  1.00  0.00     0.000 C 
BRANCH   3   4
ATOM      4  C   UNL     1      35.977  25.100  31.571  1.00  0.00     0.000 C 
BRANCH   4   5
ATOM      5  C   UNL     1      37.121  25.125  30.543  1.00  0.00     0.000 C 
BRANCH   5   6
ATOM      6  C   UNL     1      36.613  25.043  29.093  1.00  0.00     0.000 C 
BRANCH   6   7
ATOM      7  C   UNL     1      35.156  24.554  28.999  1.00  0.00     0.006 C 
BRANCH   7   8
ATOM      8  C   UNL     1      34.883  23.591  27.832  1.00  0.00     0.053 C 
BRANCH   8   9
ATOM      9  C   UNL     1      36.149  23.058  27.235  1.00  0.00     0.041 C 
ATOM     10  O   UNL     1      37.083  23.844  26.924  1.00  0.00    -0.550 OA
ATOM     11  O   UNL     1      36.285  21.698  26.992  1.00  0.00    -0.550 OA
ENDBRANCH   8   9
ENDBRANCH   7   8
ENDBRANCH   6   7
ENDBRANCH   5   6
ENDBRANCH   4   5
ENDBRANCH   3   4
ENDBRANCH   2   3
ENDBRANCH   1   2
BRANCH   1  12
ATOM     12  C   UNL     1      32.727  24.548  34.258  1.00  0.00     0.000 C 
BRANCH  12  13
ATOM     13  C   UNL     1      31.486  24.020  33.515  1.00  0.00    -0.000 C 
BRANCH  13  14
ATOM     14  C   UNL     1      30.456  25.124  33.232  1.00  0.00    -0.000 C 
BRANCH  14  15
ATOM     15  C   UNL     1      29.805  24.980  31.846  1.00  0.00    -0.000 C 
BRANCH  15  16
ATOM     16  C   UNL     1      30.630  24.100  30.890  1.00  0.00    -0.000 C 
BRANCH  16  17
ATOM     17  C   UNL     1      31.346  24.864  29.759  1.00  0.00    -0.000 C 
BRANCH  17  18
ATOM     18  C   UNL     1      31.177  24.260  28.351  1.00  0.00    -0.000 C 
BRANCH  18  19
ATOM     19  C   UNL     1      29.719  24.040  27.912  1.00  0.00    -0.003 C 
ATOM     20  C   UNL     1      29.232  25.093  26.918  1.00  0.00     0.004 C 
ENDBRANCH  18  19
ENDBRANCH  17  18
ENDBRANCH  16  17
ENDBRANCH  15  16
ENDBRANCH  14  15
ENDBRANCH  13  14
ENDBRANCH  12  13
ENDBRANCH   1  12
TORSDOF 16
ENDMDL
MODEL 2
REMARK VINA RESULT:    -0.449      2.120      5.680
REMARK INTER + INTRA:          -1.423
REMARK INTER:                  -0.431
REMARK INTRA:                  -0.992
REMARK UNBOUND:                -0.555
REMARK SMILES CCCCCCCCCCCCCCCCCC(=O)[O-]
REMARK SMILES IDX 10 1 11 2 12 3 13 4 14 5 15 6 16 7 17 8 18 9 19 10 20 11
REMARK SMILES IDX 9 12 8 13 7 14 6 15 5 16 4 17 3 18 2 19 1 20
REMARK H PARENT
REMARK Flexibility Score: inf
ROOT
ATOM      1  C   UNL     1      29.564  24.661  30.013  1.00  0.00     0.000 C 
ENDROOT
BRANCH   1   2
ATOM      2  C   UNL     1      29.606  24.726  31.550  1.00  0.00     0.000 C 
BRANCH   2   3
ATOM      3  C   UNL     1      31.038  24.829  32.100  1.00  0.00     0.000 C 
BRANCH   3   4
ATOM      4  C   UNL     1      31.072  24.977  33.631  1.00  0.00     0.000 C 
BRANCH   4   5
ATOM      5  C   UNL     1      32.161  24.108  34.282  1.00  0.00     0.000 C 
BRANCH   5   6
ATOM      6  C   UNL     1      33.436  24.907  34.609  1.00  0.00     0.000 C 
BRANCH   6   7
ATOM      7  C   UNL     1      34.334  25.123  33.378  1.00  0.00     0.006 C 
BRANCH   7   8
ATOM      8  C   UNL     1      35.841  25.102  33.679  1.00  0.00     0.053 C 
BRANCH   8   9
ATOM      9  C   UNL     1      36.556  24.041  32.899  1.00  0.00     0.041 C 
ATOM     10  O   UNL     1      37.073  24.314  31.785  1.00  0.00    -0.550 OA
ATOM     11  O   UNL     1      36.621  22.743  33.389  1.00  0.00    -0.550 OA
ENDBRANCH   8   9
ENDBRANCH   7   8
ENDBRANCH   6   7
ENDBRANCH   5   6
ENDBRANCH   4   5
ENDBRANCH   3   4
ENDBRANCH   2   3
ENDBRANCH   1   2
BRANCH   1  12
ATOM     12  C   UNL     1      30.010  23.294  29.470  1.00  0.00     0.000 C 
BRANCH  12  13
ATOM     13  C   UNL     1      30.234  23.309  27.947  1.00  0.00    -0.000 C 
BRANCH  13  14
ATOM     14  C   UNL     1      30.280  24.733  27.373  1.00  0.00    -0.000 C 
BRANCH  14  15
ATOM     15  C   UNL     1      31.684  25.125  26.882  1.00  0.00    -0.000 C 
BRANCH  15  16
ATOM     16  C   UNL     1      32.719  24.003  27.083  1.00  0.00    -0.000 C 
BRANCH  16  17
ATOM     17  C   UNL     1      34.024  24.441  27.777  1.00  0.00    -0.000 C 
BRANCH  17  18
ATOM     18  C   UNL     1      35.156  23.395  27.763  1.00  0.00    -0.000 C 
BRANCH  18  19
ATOM     19  C   UNL     1      36.353  23.724  28.672  1.00  0.00    -0.003 C 
ATOM     20  C   UNL     1      37.075  25.007  28.264  1.00  0.00     0.004 C 
ENDBRANCH  18  19
ENDBRANCH  17  18
ENDBRANCH  16  17
ENDBRANCH  15  16
ENDBRANCH  14  15
ENDBRANCH  13  14
ENDBRANCH  12  13
ENDBRANCH   1  12
TORSDOF 16
ENDMDL
MODEL 3
REMARK VINA RESULT:    -0.280      2.737      7.237
REMARK INTER + INTRA:          -1.097
REMARK INTER:                  -0.602
REMARK INTRA:                  -0.495
REMARK UNBOUND:                -0.555
REMARK SMILES CCCCCCCCCCCCCCCCCC(=O)[O-]
REMARK SMILES IDX 10 1 11 2 12 3 13 4 14 5 15 6 16 7 17 8 18 9 19 10 20 11
REMARK SMILES IDX 9 12 8 13 7 14 6 15 5 16 4 17 3 18 2 19 1 20
REMARK H PARENT
REMARK Flexibility Score: inf
ROOT
ATOM      1  C   UNL     1      33.808  22.703  28.264  1.00  0.00     0.000 C 
ENDROOT
BRANCH   1   2
ATOM      2  C   UNL     1      32.289  22.951  28.223  1.00  0.00     0.000 C 
BRANCH   2   3
ATOM      3  C   UNL     1      31.819  23.535  26.882  1.00  0.00     0.000 C 
BRANCH   3   4
ATOM      4  C   UNL     1      30.353  24.000  26.922  1.00  0.00     0.000 C 
BRANCH   4   5
ATOM      5  C   UNL     1      30.093  25.033  28.030  1.00  0.00     0.000 C 
BRANCH   5   6
ATOM      6  C   UNL     1      29.240  24.464  29.178  1.00  0.00     0.000 C 
BRANCH   6   7
ATOM      7  C   UNL     1      29.561  25.113  30.537  1.00  0.00     0.006 C 
BRANCH   7   8
ATOM      8  C   UNL     1      30.145  24.147  31.580  1.00  0.00     0.053 C 
BRANCH   8   9
ATOM      9  C   UNL     1      31.377  24.699  32.231  1.00  0.00     0.041 C 
ATOM     10  O   UNL     1      31.432  24.820  33.483  1.00  0.00    -0.550 OA
ATOM     11  O   UNL     1      32.450  25.112  31.452  1.00  0.00    -0.550 OA
ENDBRANCH   8   9
ENDBRANCH   7   8
ENDBRANCH   6   7
ENDBRANCH   5   6
ENDBRANCH   4   5
ENDBRANCH   3   4
ENDBRANCH   2   3
ENDBRANCH   1   2
BRANCH   1  12
ATOM     12  C   UNL     1      34.292  21.825  27.100  1.00  0.00     0.000 C 
BRANCH  12  13
ATOM     13  C   UNL     1      35.746  21.354  27.281  1.00  0.00    -0.000 C 
BRANCH  13  14
ATOM     14  C   UNL     1      36.669  22.475  27.783  1.00  0.00    -0.000 C 
BRANCH  14  15
ATOM     15  C   UNL     1      36.623  23.723  26.884  1.00  0.00    -0.000 C 
BRANCH  15  16
ATOM     16  C   UNL     1      36.045  24.954  27.605  1.00  0.00    -0.000 C 
BRANCH  16  17
ATOM     17  C   UNL     1      35.873  24.792  29.128  1.00  0.00    -0.000 C 
BRANCH  17  18
ATOM     18  C   UNL     1      37.124  25.120  29.967  1.00  0.00    -0.000 C 
BRANCH  18  19
ATOM     19  C   UNL     1      37.001  24.798  31.467  1.00  0.00    -0.003 C 
ATOM     20  C   UNL     1      35.607  25.085  32.024  1.00  0.00     0.004 C 
ENDBRANCH  18  19
ENDBRANCH  17  18
ENDBRANCH  16  17
ENDBRANCH  15  16
ENDBRANCH  14  15
ENDBRANCH  13  14
ENDBRANCH  12  13
ENDBRANCH   1  12
TORSDOF 16
ENDMDL
