MODEL 1
REMARK VINA RESULT:    -3.416      0.000      0.000
REMARK INTER + INTRA:          -4.363
REMARK INTER:                  -4.215
REMARK INTRA:                  -0.148
REMARK UNBOUND:                -0.148
REMARK SMILES CCCCC=CC(C)=O
REMARK SMILES IDX 4 1 3 2 2 3 1 4 5 5 6 6 7 7 9 8 8 9
REMARK H PARENT
REMARK Flexibility Score: inf
ROOT
ATOM      1  C   UNL     1     -30.439  39.452 -25.042  1.00  0.00     0.027 C 
ENDROOT
BRANCH   1   2
ATOM      2  C   UNL     1     -31.091  40.692 -25.679  1.00  0.00     0.004 C 
BRANCH   2   3
ATOM      3  C   UNL     1     -30.244  41.973 -25.575  1.00  0.00    -0.003 C 
ATOM      4  C   UNL     1     -29.149  41.874 -24.512  1.00  0.00     0.004 C 
ENDBRANCH   2   3
ENDBRANCH   1   2
BRANCH   1   5
ATOM      5  C   UNL     1     -30.763  38.185 -25.782  1.00  0.00    -0.023 C 
ATOM      6  C   UNL     1     -29.827  37.264 -26.036  1.00  0.00     0.042 C 
BRANCH   6   7
ATOM      7  C   UNL     1     -30.127  36.011 -26.755  1.00  0.00     0.152 C 
ATOM      8  O   UNL     1     -31.302  35.746 -27.125  1.00  0.00    -0.295 OA
ATOM      9  C   UNL     1     -29.024  35.049 -27.055  1.00  0.00     0.093 C 
ENDBRANCH   6   7
ENDBRANCH   1   5
TORSDOF 4
ENDMDL
MODEL 2
REMARK VINA RESULT:    -3.405      1.306      1.342
REMARK INTER + INTRA:          -4.349
REMARK INTER:                  -4.087
REMARK INTRA:                  -0.262
REMARK UNBOUND:                -0.148
REMARK SMILES CCCCC=CC(C)=O
REMARK SMILES IDX 4 1 3 2 2 3 1 4 5 5 6 6 7 7 9 8 8 9
REMARK H PARENT
REMARK Flexibility Score: inf
ROOT
ATOM      1  C   UNL     1     -31.508  39.800 -24.926  1.00  0.00     0.027 C 
ENDROOT
BRANCH   1   2
ATOM      2  C   UNL     1     -31.651  41.033 -25.836  1.00  0.00     0.004 C 
BRANCH   2   3
ATOM      3  C   UNL     1     -30.508  42.054 -25.696  1.00  0.00    -0.003 C 
ATOM      4  C   UNL     1     -29.417  41.595 -24.729  1.00  0.00     0.004 C 
ENDBRANCH   2   3
ENDBRANCH   1   2
BRANCH   1   5
ATOM      5  C   UNL     1     -31.220  38.543 -25.697  1.00  0.00    -0.023 C 
ATOM      6  C   UNL     1     -30.031  37.935 -25.627  1.00  0.00     0.042 C 
BRANCH   6   7
ATOM      7  C   UNL     1     -29.733  36.697 -26.372  1.00  0.00     0.152 C 
ATOM      8  O   UNL     1     -28.570  36.211 -26.377  1.00  0.00    -0.295 OA
ATOM      9  C   UNL     1     -30.824  36.008 -27.125  1.00  0.00     0.093 C 
ENDBRANCH   6   7
ENDBRANCH   1   5
TORSDOF 4
ENDMDL
MODEL 3
REMARK VINA RESULT:    -3.328      1.528      1.985
REMARK INTER + INTRA:          -4.255
REMARK INTER:                  -4.084
REMARK INTRA:                  -0.171
REMARK UNBOUND:                -0.148
REMARK SMILES CCCCC=CC(C)=O
REMARK SMILES IDX 4 1 3 2 2 3 1 4 5 5 6 6 7 7 9 8 8 9
REMARK H PARENT
REMARK Flexibility Score: inf
ROOT
ATOM      1  C   UNL     1     -31.976  38.182 -26.788  1.00  0.00     0.027 C 
ENDROOT
BRANCH   1   2
ATOM      2  C   UNL     1     -31.724  39.617 -26.292  1.00  0.00     0.004 C 
BRANCH   2   3
ATOM      3  C   UNL     1     -31.219  39.702 -24.840  1.00  0.00    -0.003 C 
ATOM      4  C   UNL     1     -29.824  40.315 -24.732  1.00  0.00     0.004 C 
ENDBRANCH   2   3
ENDBRANCH   1   2
BRANCH   1   5
ATOM      5  C   UNL     1     -30.767  37.301 -26.642  1.00  0.00    -0.023 C 
ATOM      6  C   UNL     1     -30.748  36.053 -27.124  1.00  0.00     0.042 C 
BRANCH   6   7
ATOM      7  C   UNL     1     -29.569  35.176 -26.997  1.00  0.00     0.152 C 
ATOM      8  O   UNL     1     -28.403  35.652 -27.044  1.00  0.00    -0.295 OA
ATOM      9  C   UNL     1     -29.760  33.707 -26.803  1.00  0.00     0.093 C 
ENDBRANCH   6   7
ENDBRANCH   1   5
TORSDOF 4
ENDMDL
MODEL 4
REMARK VINA RESULT:    -3.113      2.162      5.552
REMARK INTER + INTRA:          -3.989
REMARK INTER:                  -3.883
REMARK INTRA:                  -0.106
REMARK UNBOUND:                -0.148
REMARK SMILES CCCCC=CC(C)=O
REMARK SMILES IDX 4 1 3 2 2 3 1 4 5 5 6 6 7 7 9 8 8 9
REMARK H PARENT
REMARK Flexibility Score: inf
ROOT
ATOM      1  C   UNL     1     -30.853  36.620 -26.940  1.00  0.00     0.027 C 
ENDROOT
BRANCH   1   2
ATOM      2  C   UNL     1     -29.709  35.591 -26.904  1.00  0.00     0.004 C 
BRANCH   2   3
ATOM      3  C   UNL     1     -30.182  34.126 -26.879  1.00  0.00    -0.003 C 
ATOM      4  C   UNL     1     -29.028  33.129 -26.983  1.00  0.00     0.004 C 
ENDBRANCH   2   3
ENDBRANCH   1   2
BRANCH   1   5
ATOM      5  C   UNL     1     -30.579  37.818 -26.074  1.00  0.00    -0.023 C 
ATOM      6  C   UNL     1     -31.265  38.957 -26.217  1.00  0.00     0.042 C 
BRANCH   6   7
ATOM      7  C   UNL     1     -31.015  40.140 -25.372  1.00  0.00     0.152 C 
ATOM      8  O   UNL     1     -31.923  40.988 -25.164  1.00  0.00    -0.295 OA
ATOM      9  C   UNL     1     -29.669  40.331 -24.750  1.00  0.00     0.093 C 
ENDBRANCH   6   7
ENDBRANCH   1   5
TORSDOF 4
ENDMDL
MODEL 5
REMARK VINA RESULT:    -3.054     16.244     17.097
REMARK INTER + INTRA:          -3.916
REMARK INTER:                  -3.631
REMARK INTRA:                  -0.285
REMARK UNBOUND:                -0.148
REMARK SMILES CCCCC=CC(C)=O
REMARK SMILES IDX 4 1 3 2 2 3 1 4 5 5 6 6 7 7 9 8 8 9
REMARK H PARENT
REMARK Flexibility Score: inf
ROOT
ATOM      1  C   UNL     1     -15.008  37.467 -26.769  1.00  0.00     0.027 C 
ENDROOT
BRANCH   1   2
ATOM      2  C   UNL     1     -14.159  38.750 -26.737  1.00  0.00     0.004 C 
BRANCH   2   3
ATOM      3  C   UNL     1     -14.018  39.377 -25.338  1.00  0.00    -0.003 C 
ATOM      4  C   UNL     1     -12.662  39.093 -24.694  1.00  0.00     0.004 C 
ENDBRANCH   2   3
ENDBRANCH   1   2
BRANCH   1   5
ATOM      5  C   UNL     1     -14.291  36.285 -26.177  1.00  0.00    -0.023 C 
ATOM      6  C   UNL     1     -13.098  35.890 -26.634  1.00  0.00     0.042 C 
BRANCH   6   7
ATOM      7  C   UNL     1     -12.377  34.738 -26.062  1.00  0.00     0.152 C 
ATOM      8  O   UNL     1     -12.174  33.699 -26.747  1.00  0.00    -0.295 OA
ATOM      9  C   UNL     1     -11.875  34.804 -24.656  1.00  0.00     0.093 C 
ENDBRANCH   6   7
ENDBRANCH   1   5
TORSDOF 4
ENDMDL
MODEL 6
REMARK VINA RESULT:    -2.768     16.082     17.787
REMARK INTER + INTRA:          -3.563
REMARK INTER:                  -3.413
REMARK INTRA:                  -0.150
REMARK UNBOUND:                -0.148
REMARK SMILES CCCCC=CC(C)=O
REMARK SMILES IDX 4 1 3 2 2 3 1 4 5 5 6 6 7 7 9 8 8 9
REMARK H PARENT
REMARK Flexibility Score: inf
ROOT
ATOM      1  C   UNL     1     -11.954  35.196 -26.861  1.00  0.00     0.027 C 
ENDROOT
BRANCH   1   2
ATOM      2  C   UNL     1     -12.174  34.082 -25.821  1.00  0.00     0.004 C 
BRANCH   2   3
ATOM      3  C   UNL     1     -11.876  32.665 -26.345  1.00  0.00    -0.003 C 
ATOM      4  C   UNL     1     -11.876  31.612 -25.238  1.00  0.00     0.004 C 
ENDBRANCH   2   3
ENDBRANCH   1   2
BRANCH   1   5
ATOM      5  C   UNL     1     -12.845  36.384 -26.631  1.00  0.00    -0.023 C 
ATOM      6  C   UNL     1     -14.176  36.261 -26.578  1.00  0.00     0.042 C 
BRANCH   6   7
ATOM      7  C   UNL     1     -15.066  37.414 -26.347  1.00  0.00     0.152 C 
ATOM      8  O   UNL     1     -16.316  37.262 -26.282  1.00  0.00    -0.295 OA
ATOM      9  C   UNL     1     -14.479  38.779 -26.182  1.00  0.00     0.093 C 
ENDBRANCH   6   7
ENDBRANCH   1   5
TORSDOF 4
ENDMDL
MODEL 7
REMARK VINA RESULT:    -1.404      2.577      5.411
REMARK INTER + INTRA:          -1.881
REMARK INTER:                  -1.729
REMARK INTRA:                  -0.152
REMARK UNBOUND:                -0.148
REMARK SMILES CCCCC=CC(C)=O
REMARK SMILES IDX 4 1 3 2 2 3 1 4 5 5 6 6 7 7 9 8 8 9
REMARK H PARENT
REMARK Flexibility Score: inf
ROOT
ATOM      1  C   UNL     1     -29.948  37.555 -25.595  1.00  0.00     0.027 C 
ENDROOT
BRANCH   1   2
ATOM      2  C   UNL     1     -30.587  36.956 -26.860  1.00  0.00     0.004 C 
BRANCH   2   3
ATOM      3  C   UNL     1     -30.203  35.489 -27.125  1.00  0.00    -0.003 C 
ATOM      4  C   UNL     1     -28.694  35.251 -27.065  1.00  0.00     0.004 C 
ENDBRANCH   2   3
ENDBRANCH   1   2
BRANCH   1   5
ATOM      5  C   UNL     1     -30.201  39.031 -25.463  1.00  0.00    -0.023 C 
ATOM      6  C   UNL     1     -29.273  39.859 -24.973  1.00  0.00     0.042 C 
BRANCH   6   7
ATOM      7  C   UNL     1     -29.502  41.311 -24.842  1.00  0.00     0.152 C 
ATOM      8  O   UNL     1     -28.753  42.019 -24.116  1.00  0.00    -0.295 OA
ATOM      9  C   UNL     1     -30.631  41.950 -25.582  1.00  0.00     0.093 C 
ENDBRANCH   6   7
ENDBRANCH   1   5
TORSDOF 4
ENDMDL
