MODEL 1
REMARK VINA RESULT:    -4.066      0.000      0.000
REMARK INTER + INTRA:          -4.896
REMARK INTER:                  -4.780
REMARK INTRA:                  -0.116
REMARK UNBOUND:                -0.116
REMARK SMILES O=C([O-])CCC(=O)[O-]
REMARK SMILES IDX 4 1 2 2 1 3 3 4 5 5 6 6 7 7 8 8
REMARK H PARENT
REMARK Flexibility Score: inf
ROOT
ATOM      1  C   UNL     1       5.809 -35.154  21.606  1.00  0.00     0.059 C 
ENDROOT
BRANCH   1   2
ATOM      2  C   UNL     1       4.985 -34.104  22.286  1.00  0.00     0.042 C 
ATOM      3  O   UNL     1       5.435 -33.501  23.295  1.00  0.00    -0.550 OA
ATOM      4  O   UNL     1       3.703 -33.819  21.831  1.00  0.00    -0.550 OA
ENDBRANCH   1   2
BRANCH   1   5
ATOM      5  C   UNL     1       5.050 -36.480  21.491  1.00  0.00     0.059 C 
BRANCH   5   6
ATOM      6  C   UNL     1       4.883 -36.898  20.062  1.00  0.00     0.042 C 
ATOM      7  O   UNL     1       5.018 -38.106  19.735  1.00  0.00    -0.550 OA
ATOM      8  O   UNL     1       4.540 -35.958  19.099  1.00  0.00    -0.550 OA
ENDBRANCH   5   6
ENDBRANCH   1   5
TORSDOF 3
ENDMDL
MODEL 2
REMARK VINA RESULT:    -4.013      0.105      3.938
REMARK INTER + INTRA:          -4.833
REMARK INTER:                  -4.719
REMARK INTRA:                  -0.114
REMARK UNBOUND:                -0.116
REMARK SMILES O=C([O-])CCC(=O)[O-]
REMARK SMILES IDX 4 1 2 2 1 3 3 4 5 5 6 6 7 7 8 8
REMARK H PARENT
REMARK Flexibility Score: inf
ROOT
ATOM      1  C   UNL     1       4.999 -36.501  21.561  1.00  0.00     0.059 C 
ENDROOT
BRANCH   1   2
ATOM      2  C   UNL     1       4.863 -36.973  20.146  1.00  0.00     0.042 C 
ATOM      3  O   UNL     1       5.001 -38.193  19.870  1.00  0.00    -0.550 OA
ATOM      4  O   UNL     1       4.625 -36.060  19.126  1.00  0.00    -0.550 OA
ENDBRANCH   1   2
BRANCH   1   5
ATOM      5  C   UNL     1       5.764 -35.176  21.644  1.00  0.00     0.059 C 
BRANCH   5   6
ATOM      6  C   UNL     1       4.935 -34.097  22.271  1.00  0.00     0.042 C 
ATOM      7  O   UNL     1       5.382 -33.443  23.250  1.00  0.00    -0.550 OA
ATOM      8  O   UNL     1       3.686 -33.789  21.750  1.00  0.00    -0.550 OA
ENDBRANCH   5   6
ENDBRANCH   1   5
TORSDOF 3
ENDMDL
MODEL 3
REMARK VINA RESULT:    -3.955      1.483      3.974
REMARK INTER + INTRA:          -4.765
REMARK INTER:                  -4.714
REMARK INTRA:                  -0.051
REMARK UNBOUND:                -0.116
REMARK SMILES O=C([O-])CCC(=O)[O-]
REMARK SMILES IDX 4 1 2 2 1 3 3 4 5 5 6 6 7 7 8 8
REMARK H PARENT
REMARK Flexibility Score: inf
ROOT
ATOM      1  C   UNL     1       4.444 -34.395  20.913  1.00  0.00     0.059 C 
ENDROOT
BRANCH   1   2
ATOM      2  C   UNL     1       4.974 -35.067  19.683  1.00  0.00     0.042 C 
ATOM      3  O   UNL     1       5.562 -34.394  18.797  1.00  0.00    -0.550 OA
ATOM      4  O   UNL     1       4.781 -36.430  19.497  1.00  0.00    -0.550 OA
ENDBRANCH   1   2
BRANCH   1   5
ATOM      5  C   UNL     1       4.600 -35.281  22.153  1.00  0.00     0.059 C 
BRANCH   5   6
ATOM      6  C   UNL     1       5.418 -34.609  23.213  1.00  0.00     0.042 C 
ATOM      7  O   UNL     1       5.549 -33.357  23.214  1.00  0.00    -0.550 OA
ATOM      8  O   UNL     1       6.003 -35.363  24.222  1.00  0.00    -0.550 OA
ENDBRANCH   5   6
ENDBRANCH   1   5
TORSDOF 3
ENDMDL
MODEL 4
REMARK VINA RESULT:    -3.952      1.502      1.997
REMARK INTER + INTRA:          -4.762
REMARK INTER:                  -4.705
REMARK INTRA:                  -0.057
REMARK UNBOUND:                -0.116
REMARK SMILES O=C([O-])CCC(=O)[O-]
REMARK SMILES IDX 4 1 2 2 1 3 3 4 5 5 6 6 7 7 8 8
REMARK H PARENT
REMARK Flexibility Score: inf
ROOT
ATOM      1  C   UNL     1       4.630 -35.392  22.206  1.00  0.00     0.059 C 
ENDROOT
BRANCH   1   2
ATOM      2  C   UNL     1       5.403 -34.696  23.284  1.00  0.00     0.042 C 
ATOM      3  O   UNL     1       5.575 -33.450  23.236  1.00  0.00    -0.550 OA
ATOM      4  O   UNL     1       5.970 -35.429  24.319  1.00  0.00    -0.550 OA
ENDBRANCH   1   2
BRANCH   1   5
ATOM      5  C   UNL     1       4.423 -34.488  20.986  1.00  0.00     0.059 C 
BRANCH   5   6
ATOM      6  C   UNL     1       4.958 -35.117  19.736  1.00  0.00     0.042 C 
ATOM      7  O   UNL     1       4.915 -36.367  19.586  1.00  0.00    -0.550 OA
ATOM      8  O   UNL     1       5.468 -34.320  18.719  1.00  0.00    -0.550 OA
ENDBRANCH   5   6
ENDBRANCH   1   5
TORSDOF 3
ENDMDL
MODEL 5
REMARK VINA RESULT:    -3.896      1.517      1.944
REMARK INTER + INTRA:          -4.695
REMARK INTER:                  -4.648
REMARK INTRA:                  -0.047
REMARK UNBOUND:                -0.116
REMARK SMILES O=C([O-])CCC(=O)[O-]
REMARK SMILES IDX 4 1 2 2 1 3 3 4 5 5 6 6 7 7 8 8
REMARK H PARENT
REMARK Flexibility Score: inf
ROOT
ATOM      1  C   UNL     1       4.709 -35.437  22.179  1.00  0.00     0.059 C 
ENDROOT
BRANCH   1   2
ATOM      2  C   UNL     1       5.544 -34.797  23.245  1.00  0.00     0.042 C 
ATOM      3  O   UNL     1       6.113 -35.507  24.115  1.00  0.00    -0.550 OA
ATOM      4  O   UNL     1       5.662 -33.414  23.303  1.00  0.00    -0.550 OA
ENDBRANCH   1   2
BRANCH   1   5
ATOM      5  C   UNL     1       4.476 -34.488  20.998  1.00  0.00     0.059 C 
BRANCH   5   6
ATOM      6  C   UNL     1       4.957 -35.083  19.710  1.00  0.00     0.042 C 
ATOM      7  O   UNL     1       4.700 -36.283  19.430  1.00  0.00    -0.550 OA
ATOM      8  O   UNL     1       5.656 -34.299  18.801  1.00  0.00    -0.550 OA
ENDBRANCH   5   6
ENDBRANCH   1   5
TORSDOF 3
ENDMDL
MODEL 6
REMARK VINA RESULT:    -3.883      0.660      1.772
REMARK INTER + INTRA:          -4.680
REMARK INTER:                  -4.568
REMARK INTRA:                  -0.112
REMARK UNBOUND:                -0.116
REMARK SMILES O=C([O-])CCC(=O)[O-]
REMARK SMILES IDX 4 1 2 2 1 3 3 4 5 5 6 6 7 7 8 8
REMARK H PARENT
REMARK Flexibility Score: inf
ROOT
ATOM      1  C   UNL     1       4.242 -35.499  22.058  1.00  0.00     0.059 C 
ENDROOT
BRANCH   1   2
ATOM      2  C   UNL     1       4.335 -34.006  22.124  1.00  0.00     0.042 C 
ATOM      3  O   UNL     1       3.599 -33.293  21.394  1.00  0.00    -0.550 OA
ATOM      4  O   UNL     1       5.264 -33.401  22.963  1.00  0.00    -0.550 OA
ENDBRANCH   1   2
BRANCH   1   5
ATOM      5  C   UNL     1       5.386 -36.101  21.235  1.00  0.00     0.059 C 
BRANCH   5   6
ATOM      6  C   UNL     1       4.901 -36.629  19.920  1.00  0.00     0.042 C 
ATOM      7  O   UNL     1       4.477 -35.838  19.036  1.00  0.00    -0.550 OA
ATOM      8  O   UNL     1       4.953 -37.991  19.655  1.00  0.00    -0.550 OA
ENDBRANCH   5   6
ENDBRANCH   1   5
TORSDOF 3
ENDMDL
MODEL 7
REMARK VINA RESULT:    -3.828      1.898      3.599
REMARK INTER + INTRA:          -4.616
REMARK INTER:                  -4.495
REMARK INTRA:                  -0.121
REMARK UNBOUND:                -0.116
REMARK SMILES O=C([O-])CCC(=O)[O-]
REMARK SMILES IDX 4 1 2 2 1 3 3 4 5 5 6 6 7 7 8 8
REMARK H PARENT
REMARK Flexibility Score: inf
ROOT
ATOM      1  C   UNL     1       4.399 -35.642  21.600  1.00  0.00     0.059 C 
ENDROOT
BRANCH   1   2
ATOM      2  C   UNL     1       4.270 -34.346  20.860  1.00  0.00     0.042 C 
ATOM      3  O   UNL     1       3.636 -33.386  21.371  1.00  0.00    -0.550 OA
ATOM      4  O   UNL     1       4.815 -34.211  19.589  1.00  0.00    -0.550 OA
ENDBRANCH   1   2
BRANCH   1   5
ATOM      5  C   UNL     1       5.768 -35.773  22.275  1.00  0.00     0.059 C 
BRANCH   5   6
ATOM      6  C   UNL     1       5.735 -35.279  23.689  1.00  0.00     0.042 C 
ATOM      7  O   UNL     1       5.994 -34.074  23.947  1.00  0.00    -0.550 OA
ATOM      8  O   UNL     1       5.380 -36.141  24.719  1.00  0.00    -0.550 OA
ENDBRANCH   5   6
ENDBRANCH   1   5
TORSDOF 3
ENDMDL
MODEL 8
REMARK VINA RESULT:    -3.790      1.845      2.712
REMARK INTER + INTRA:          -4.570
REMARK INTER:                  -4.461
REMARK INTRA:                  -0.109
REMARK UNBOUND:                -0.116
REMARK SMILES O=C([O-])CCC(=O)[O-]
REMARK SMILES IDX 4 1 2 2 1 3 3 4 5 5 6 6 7 7 8 8
REMARK H PARENT
REMARK Flexibility Score: inf
ROOT
ATOM      1  C   UNL     1       5.369 -35.968  22.567  1.00  0.00     0.059 C 
ENDROOT
BRANCH   1   2
ATOM      2  C   UNL     1       5.836 -35.280  23.812  1.00  0.00     0.042 C 
ATOM      3  O   UNL     1       6.125 -34.055  23.789  1.00  0.00    -0.550 OA
ATOM      4  O   UNL     1       5.992 -36.001  24.990  1.00  0.00    -0.550 OA
ENDBRANCH   1   2
BRANCH   1   5
ATOM      5  C   UNL     1       5.814 -35.218  21.306  1.00  0.00     0.059 C 
BRANCH   5   6
ATOM      6  C   UNL     1       4.661 -34.541  20.631  1.00  0.00     0.042 C 
ATOM      7  O   UNL     1       4.637 -34.431  19.377  1.00  0.00    -0.550 OA
ATOM      8  O   UNL     1       3.595 -34.067  21.384  1.00  0.00    -0.550 OA
ENDBRANCH   5   6
ENDBRANCH   1   5
TORSDOF 3
ENDMDL
MODEL 9
REMARK VINA RESULT:    -2.347      1.620      2.299
REMARK INTER + INTRA:          -2.875
REMARK INTER:                  -2.739
REMARK INTRA:                  -0.136
REMARK UNBOUND:                -0.116
REMARK SMILES O=C([O-])CCC(=O)[O-]
REMARK SMILES IDX 4 1 2 2 1 3 3 4 5 5 6 6 7 7 8 8
REMARK H PARENT
REMARK Flexibility Score: inf
ROOT
ATOM      1  C   UNL     1       4.132 -34.824  22.023  1.00  0.00     0.059 C 
ENDROOT
BRANCH   1   2
ATOM      2  C   UNL     1       5.326 -34.628  22.906  1.00  0.00     0.042 C 
ATOM      3  O   UNL     1       5.633 -33.476  23.309  1.00  0.00    -0.550 OA
ATOM      4  O   UNL     1       6.125 -35.713  23.249  1.00  0.00    -0.550 OA
ENDBRANCH   1   2
BRANCH   1   5
ATOM      5  C   UNL     1       4.302 -34.113  20.677  1.00  0.00     0.059 C 
BRANCH   5   6
ATOM      6  C   UNL     1       5.076 -34.948  19.704  1.00  0.00     0.042 C 
ATOM      7  O   UNL     1       5.755 -34.400  18.796  1.00  0.00    -0.550 OA
ATOM      8  O   UNL     1       5.080 -36.332  19.825  1.00  0.00    -0.550 OA
ENDBRANCH   5   6
ENDBRANCH   1   5
TORSDOF 3
ENDMDL
