MODEL 1
REMARK VINA RESULT:    16.443      0.000      0.000
REMARK INTER + INTRA:          24.033
REMARK INTER:                  23.652
REMARK INTRA:                   0.380
REMARK UNBOUND:                 0.380
REMARK SMILES O=c1c(O[C@@H]2O[C@H](CO)[C@@H](O)[C@H](O)[C@@H]2O)c(-c2ccc(O)cc2)oc2cc(O)cc(O)c12
REMARK SMILES IDX 4 1 3 2 16 3 24 4 2 5 25 6 1 7 32 8 26 9 30 10 27 11 29 12
REMARK SMILES IDX 17 13 18 14 19 15 20 16 23 17 22 18 21 19 31 21 28 23 5 25
REMARK SMILES IDX 14 26 6 27 12 28 7 29 10 30 15 31 13 33 8 35 9 36 11 38
REMARK H PARENT 21 20 31 22 28 24 15 32 13 34 9 37 11 39
REMARK Flexibility Score: inf
ROOT
ATOM      1  O   UNL     1     159.558 147.168 169.652  1.00  0.00    -0.454 OA
ENDROOT
BRANCH   1   2
ATOM      2  C   UNL     1     159.674 148.394 168.980  1.00  0.00     0.214 A 
ATOM      3  C   UNL     1     159.956 148.464 167.601  1.00  0.00     0.180 A 
ATOM      4  O   UNL     1     160.125 149.648 167.026  1.00  0.00    -0.452 OA
ATOM      5  C   UNL     1     159.499 149.582 169.698  1.00  0.00     0.239 A 
ATOM      6  C   UNL     1     160.018 150.801 167.676  1.00  0.00     0.146 A 
ATOM      7  O   UNL     1     159.136 149.506 170.899  1.00  0.00    -0.285 OA
ATOM      8  C   UNL     1     159.716 150.829 169.063  1.00  0.00     0.111 A 
ATOM      9  C   UNL     1     160.188 151.988 166.961  1.00  0.00     0.094 A 
ATOM     10  C   UNL     1     159.633 152.097 169.715  1.00  0.00     0.134 A 
ATOM     11  C   UNL     1     160.052 153.220 167.595  1.00  0.00     0.123 A 
ATOM     12  C   UNL     1     159.771 153.270 168.963  1.00  0.00     0.093 A 
BRANCH   3  13
ATOM     13  C   UNL     1     160.042 147.259 166.749  1.00  0.00     0.021 A 
ATOM     14  C   UNL     1     159.278 146.113 167.032  1.00  0.00     0.016 A 
ATOM     15  C   UNL     1     159.369 144.984 166.212  1.00  0.00     0.047 A 
ATOM     16  C   UNL     1     160.207 144.994 165.091  1.00  0.00     0.115 A 
ATOM     17  C   UNL     1     160.863 147.271 165.610  1.00  0.00     0.016 A 
ATOM     18  C   UNL     1     160.950 146.141 164.790  1.00  0.00     0.047 A 
BRANCH  16  19
ATOM     19  O   UNL     1     160.307 143.875 164.267  1.00  0.00    -0.508 OA
ATOM     20  H   UNL     1     161.055 143.201 164.379  1.00  0.00     0.293 HD
ENDBRANCH  16  19
ENDBRANCH   3  13
BRANCH  10  21
ATOM     21  O   UNL     1     159.445 152.259 171.090  1.00  0.00    -0.507 OA
ATOM     22  H   UNL     1     159.092 151.549 171.714  1.00  0.00     0.293 HD
ENDBRANCH  10  21
BRANCH  11  23
ATOM     23  O   UNL     1     160.207 154.393 166.858  1.00  0.00    -0.508 OA
ATOM     24  H   UNL     1     159.663 154.568 166.022  1.00  0.00     0.293 HD
ENDBRANCH  11  23
ENDBRANCH   1   2
BRANCH   1  25
ATOM     25  C   UNL     1     159.127 147.055 171.013  1.00  0.00     0.339 C 
ATOM     26  C   UNL     1     158.230 145.823 171.225  1.00  0.00     0.214 C 
ATOM     27  O   UNL     1     160.236 147.075 171.899  1.00  0.00    -0.332 OA
ATOM     28  C   UNL     1     159.040 144.523 171.096  1.00  0.00     0.180 C 
ATOM     29  C   UNL     1     161.062 145.918 171.831  1.00  0.00     0.179 C 
ATOM     30  C   UNL     1     160.280 144.590 172.002  1.00  0.00     0.177 C 
BRANCH  26  31
ATOM     31  O   UNL     1     157.166 145.843 170.309  1.00  0.00    -0.384 OA
ATOM     32  H   UNL     1     156.555 146.569 170.595  1.00  0.00     0.211 HD
ENDBRANCH  26  31
BRANCH  28  33
ATOM     33  O   UNL     1     159.430 144.301 169.764  1.00  0.00    -0.387 OA
ATOM     34  H   UNL     1     159.197 145.119 169.252  1.00  0.00     0.211 HD
ENDBRANCH  28  33
BRANCH  29  35
ATOM     35  C   UNL     1     162.013 145.942 170.613  1.00  0.00     0.191 C 
BRANCH  35  36
ATOM     36  O   UNL     1     162.317 144.636 170.197  1.00  0.00    -0.394 OA
ATOM     37  H   UNL     1     161.451 144.184 170.021  1.00  0.00     0.210 HD
ENDBRANCH  35  36
ENDBRANCH  29  35
BRANCH  30  38
ATOM     38  O   UNL     1     159.884 144.473 173.346  1.00  0.00    -0.387 OA
ATOM     39  H   UNL     1     159.276 145.235 173.538  1.00  0.00     0.211 HD
ENDBRANCH  30  38
ENDBRANCH   1  25
TORSDOF 11
ENDMDL
MODEL 2
REMARK VINA RESULT:    18.805      1.717      6.152
REMARK INTER + INTRA:          27.430
REMARK INTER:                  26.900
REMARK INTRA:                   0.530
REMARK UNBOUND:                 0.380
REMARK SMILES O=c1c(O[C@@H]2O[C@H](CO)[C@@H](O)[C@H](O)[C@@H]2O)c(-c2ccc(O)cc2)oc2cc(O)cc(O)c12
REMARK SMILES IDX 4 1 3 2 16 3 24 4 2 5 25 6 1 7 32 8 26 9 30 10 27 11 29 12
REMARK SMILES IDX 17 13 18 14 19 15 20 16 23 17 22 18 21 19 31 21 28 23 5 25
REMARK SMILES IDX 14 26 6 27 12 28 7 29 10 30 15 31 13 33 8 35 9 36 11 38
REMARK H PARENT 21 20 31 22 28 24 15 32 13 34 9 37 11 39
REMARK Flexibility Score: inf
ROOT
ATOM      1  O   UNL     1     159.606 148.510 169.107  1.00  0.00    -0.454 OA
ENDROOT
BRANCH   1   2
ATOM      2  C   UNL     1     159.919 147.555 170.085  1.00  0.00     0.214 A 
ATOM      3  C   UNL     1     160.048 146.187 169.775  1.00  0.00     0.180 A 
ATOM      4  O   UNL     1     160.277 145.312 170.748  1.00  0.00    -0.452 OA
ATOM      5  C   UNL     1     160.114 147.972 171.405  1.00  0.00     0.239 A 
ATOM      6  C   UNL     1     160.420 145.656 172.022  1.00  0.00     0.146 A 
ATOM      7  O   UNL     1     160.109 149.206 171.649  1.00  0.00    -0.285 OA
ATOM      8  C   UNL     1     160.326 147.013 172.425  1.00  0.00     0.111 A 
ATOM      9  C   UNL     1     160.686 144.653 172.957  1.00  0.00     0.094 A 
ATOM     10  C   UNL     1     160.468 147.322 173.812  1.00  0.00     0.134 A 
ATOM     11  C   UNL     1     160.876 144.970 174.299  1.00  0.00     0.123 A 
ATOM     12  C   UNL     1     160.772 146.299 174.719  1.00  0.00     0.093 A 
BRANCH   3  13
ATOM     13  C   UNL     1     159.970 145.678 168.389  1.00  0.00     0.021 A 
ATOM     14  C   UNL     1     161.135 145.377 167.660  1.00  0.00     0.016 A 
ATOM     15  C   UNL     1     161.043 144.893 166.352  1.00  0.00     0.047 A 
ATOM     16  C   UNL     1     159.789 144.685 165.764  1.00  0.00     0.115 A 
ATOM     17  C   UNL     1     158.716 145.445 167.802  1.00  0.00     0.016 A 
ATOM     18  C   UNL     1     158.627 144.959 166.495  1.00  0.00     0.047 A 
BRANCH  16  19
ATOM     19  O   UNL     1     159.684 144.204 164.461  1.00  0.00    -0.508 OA
ATOM     20  H   UNL     1     158.894 143.642 164.167  1.00  0.00     0.293 HD
ENDBRANCH  16  19
ENDBRANCH   3  13
BRANCH  10  21
ATOM     21  O   UNL     1     160.296 148.600 174.352  1.00  0.00    -0.507 OA
ATOM     22  H   UNL     1     160.540 149.462 173.888  1.00  0.00     0.293 HD
ENDBRANCH  10  21
BRANCH  11  23
ATOM     23  O   UNL     1     161.160 143.957 175.211  1.00  0.00    -0.508 OA
ATOM     24  H   UNL     1     160.650 143.081 175.207  1.00  0.00     0.293 HD
ENDBRANCH  11  23
ENDBRANCH   1   2
BRANCH   1  25
ATOM     25  C   UNL     1     160.527 149.516 168.666  1.00  0.00     0.339 C 
ATOM     26  C   UNL     1     160.249 149.946 167.216  1.00  0.00     0.214 C 
ATOM     27  O   UNL     1     160.542 150.616 169.563  1.00  0.00    -0.332 OA
ATOM     28  C   UNL     1     158.932 150.732 167.117  1.00  0.00     0.180 C 
ATOM     29  C   UNL     1     159.349 151.392 169.560  1.00  0.00     0.179 C 
ATOM     30  C   UNL     1     158.929 151.874 168.147  1.00  0.00     0.177 C 
BRANCH  26  31
ATOM     31  O   UNL     1     160.221 148.818 166.380  1.00  0.00    -0.384 OA
ATOM     32  H   UNL     1     161.151 148.669 166.068  1.00  0.00     0.211 HD
ENDBRANCH  26  31
BRANCH  28  33
ATOM     33  O   UNL     1     157.825 149.893 167.328  1.00  0.00    -0.387 OA
ATOM     34  H   UNL     1     157.515 149.589 166.435  1.00  0.00     0.211 HD
ENDBRANCH  28  33
BRANCH  29  35
ATOM     35  C   UNL     1     158.210 150.728 170.368  1.00  0.00     0.191 C 
BRANCH  35  36
ATOM     36  O   UNL     1     157.476 151.695 171.071  1.00  0.00    -0.394 OA
ATOM     37  H   UNL     1     156.912 152.167 170.404  1.00  0.00     0.210 HD
ENDBRANCH  35  36
ENDBRANCH  29  35
BRANCH  30  38
ATOM     38  O   UNL     1     159.821 152.879 167.734  1.00  0.00    -0.387 OA
ATOM     39  H   UNL     1     159.395 153.353 166.972  1.00  0.00     0.211 HD
ENDBRANCH  30  38
ENDBRANCH   1  25
TORSDOF 11
ENDMDL
MODEL 3
REMARK VINA RESULT:    19.385      1.785      6.152
REMARK INTER + INTRA:          28.264
REMARK INTER:                  28.142
REMARK INTRA:                   0.122
REMARK UNBOUND:                 0.380
REMARK SMILES O=c1c(O[C@@H]2O[C@H](CO)[C@@H](O)[C@H](O)[C@@H]2O)c(-c2ccc(O)cc2)oc2cc(O)cc(O)c12
REMARK SMILES IDX 4 1 3 2 16 3 24 4 2 5 25 6 1 7 32 8 26 9 30 10 27 11 29 12
REMARK SMILES IDX 17 13 18 14 19 15 20 16 23 17 22 18 21 19 31 21 28 23 5 25
REMARK SMILES IDX 14 26 6 27 12 28 7 29 10 30 15 31 13 33 8 35 9 36 11 38
REMARK H PARENT 21 20 31 22 28 24 15 32 13 34 9 37 11 39
REMARK Flexibility Score: inf
ROOT
ATOM      1  O   UNL     1     160.186 148.575 169.313  1.00  0.00    -0.454 OA
ENDROOT
BRANCH   1   2
ATOM      2  C   UNL     1     160.256 147.589 170.307  1.00  0.00     0.214 A 
ATOM      3  C   UNL     1     160.136 146.218 170.006  1.00  0.00     0.180 A 
ATOM      4  O   UNL     1     160.140 145.327 170.990  1.00  0.00    -0.452 OA
ATOM      5  C   UNL     1     160.457 147.976 171.636  1.00  0.00     0.239 A 
ATOM      6  C   UNL     1     160.278 145.651 172.270  1.00  0.00     0.146 A 
ATOM      7  O   UNL     1     160.676 149.190 171.878  1.00  0.00    -0.285 OA
ATOM      8  C   UNL     1     160.426 147.005 172.667  1.00  0.00     0.111 A 
ATOM      9  C   UNL     1     160.296 144.626 173.219  1.00  0.00     0.094 A 
ATOM     10  C   UNL     1     160.550 147.296 174.059  1.00  0.00     0.134 A 
ATOM     11  C   UNL     1     160.471 144.916 174.570  1.00  0.00     0.123 A 
ATOM     12  C   UNL     1     160.603 146.244 174.983  1.00  0.00     0.093 A 
BRANCH   3  13
ATOM     13  C   UNL     1     160.036 145.718 168.618  1.00  0.00     0.021 A 
ATOM     14  C   UNL     1     161.189 145.404 167.875  1.00  0.00     0.016 A 
ATOM     15  C   UNL     1     161.076 144.928 166.566  1.00  0.00     0.047 A 
ATOM     16  C   UNL     1     159.812 144.742 165.991  1.00  0.00     0.115 A 
ATOM     17  C   UNL     1     158.773 145.506 168.044  1.00  0.00     0.016 A 
ATOM     18  C   UNL     1     158.663 145.028 166.735  1.00  0.00     0.047 A 
BRANCH  16  19
ATOM     19  O   UNL     1     159.687 144.269 164.686  1.00  0.00    -0.508 OA
ATOM     20  H   UNL     1     160.370 143.638 164.284  1.00  0.00     0.293 HD
ENDBRANCH  16  19
ENDBRANCH   3  13
BRANCH  10  21
ATOM     21  O   UNL     1     160.598 148.590 174.588  1.00  0.00    -0.507 OA
ATOM     22  H   UNL     1     160.495 149.438 174.052  1.00  0.00     0.293 HD
ENDBRANCH  10  21
BRANCH  11  23
ATOM     23  O   UNL     1     160.507 143.877 175.497  1.00  0.00    -0.508 OA
ATOM     24  H   UNL     1     161.371 143.399 175.725  1.00  0.00     0.293 HD
ENDBRANCH  11  23
ENDBRANCH   1   2
BRANCH   1  25
ATOM     25  C   UNL     1     158.972 149.250 168.959  1.00  0.00     0.339 C 
ATOM     26  C   UNL     1     158.742 150.498 169.827  1.00  0.00     0.214 C 
ATOM     27  O   UNL     1     158.943 149.545 167.571  1.00  0.00    -0.332 OA
ATOM     28  C   UNL     1     159.762 151.598 169.494  1.00  0.00     0.180 C 
ATOM     29  C   UNL     1     159.877 150.538 167.162  1.00  0.00     0.179 C 
ATOM     30  C   UNL     1     159.776 151.853 167.978  1.00  0.00     0.177 C 
BRANCH  26  31
ATOM     31  O   UNL     1     158.806 150.153 171.187  1.00  0.00    -0.384 OA
ATOM     32  H   UNL     1     159.584 149.546 171.292  1.00  0.00     0.211 HD
ENDBRANCH  26  31
BRANCH  28  33
ATOM     33  O   UNL     1     161.049 151.244 169.933  1.00  0.00    -0.387 OA
ATOM     34  H   UNL     1     161.557 150.943 169.135  1.00  0.00     0.211 HD
ENDBRANCH  28  33
BRANCH  29  35
ATOM     35  C   UNL     1     161.313 149.981 167.030  1.00  0.00     0.191 C 
BRANCH  35  36
ATOM     36  O   UNL     1     162.103 150.835 166.245  1.00  0.00    -0.394 OA
ATOM     37  H   UNL     1     162.918 151.038 166.775  1.00  0.00     0.210 HD
ENDBRANCH  35  36
ENDBRANCH  29  35
BRANCH  30  38
ATOM     38  O   UNL     1     158.597 152.522 167.605  1.00  0.00    -0.387 OA
ATOM     39  H   UNL     1     158.822 153.486 167.525  1.00  0.00     0.211 HD
ENDBRANCH  30  38
ENDBRANCH   1  25
TORSDOF 11
ENDMDL
