MODEL 1
REMARK VINA RESULT:    -6.277      0.000      0.000
REMARK INTER + INTRA:          -7.624
REMARK INTER:                  -7.378
REMARK INTRA:                  -0.247
REMARK UNBOUND:                -0.247
REMARK SMILES O=C([O-])C=Cc1ccc(O)c(O)c1
REMARK SMILES IDX 6 1 13 2 7 3 11 4 8 5 9 6 5 7 4 8 2 9 1 10 3 11 12 12 10 14
REMARK H PARENT 12 13 10 15
REMARK Flexibility Score: inf
ROOT
ATOM      1  C   UNL     1     -22.929 -14.849  -7.908  1.00  0.00    -0.022 A 
ATOM      2  C   UNL     1     -21.726 -14.718  -7.197  1.00  0.00     0.058 A 
ATOM      3  C   UNL     1     -23.728 -15.979  -7.699  1.00  0.00     0.012 A 
ATOM      4  C   UNL     1     -21.345 -15.674  -6.246  1.00  0.00     0.157 A 
ATOM      5  C   UNL     1     -23.359 -16.937  -6.753  1.00  0.00     0.051 A 
ATOM      6  C   UNL     1     -22.178 -16.796  -6.016  1.00  0.00     0.157 A 
ENDROOT
BRANCH   1   7
ATOM      7  C   UNL     1     -23.312 -13.875  -8.951  1.00  0.00     0.010 C 
ATOM      8  C   UNL     1     -22.865 -13.875 -10.216  1.00  0.00     0.025 C 
BRANCH   8   9
ATOM      9  C   UNL     1     -21.778 -14.723 -10.739  1.00  0.00     0.064 C 
ATOM     10  O   UNL     1     -20.610 -14.259 -10.799  1.00  0.00    -0.545 OA
ATOM     11  O   UNL     1     -21.998 -16.047 -11.101  1.00  0.00    -0.545 OA
ENDBRANCH   8   9
ENDBRANCH   1   7
BRANCH   4  12
ATOM     12  O   UNL     1     -20.144 -15.475  -5.565  1.00  0.00    -0.504 OA
ATOM     13  H   UNL     1     -19.969 -14.699  -4.941  1.00  0.00     0.293 HD
ENDBRANCH   4  12
BRANCH   6  14
ATOM     14  O   UNL     1     -21.871 -17.784  -5.079  1.00  0.00    -0.504 OA
ATOM     15  H   UNL     1     -21.779 -18.765  -5.302  1.00  0.00     0.293 HD
ENDBRANCH   6  14
TORSDOF 4
ENDMDL
MODEL 2
REMARK VINA RESULT:    -5.844      1.533      4.644
REMARK INTER + INTRA:          -7.116
REMARK INTER:                  -6.888
REMARK INTRA:                  -0.228
REMARK UNBOUND:                -0.247
REMARK SMILES O=C([O-])C=Cc1ccc(O)c(O)c1
REMARK SMILES IDX 6 1 13 2 7 3 11 4 8 5 9 6 5 7 4 8 2 9 1 10 3 11 12 12 10 14
REMARK H PARENT 12 13 10 15
REMARK Flexibility Score: inf
ROOT
ATOM      1  C   UNL     1     -22.583 -15.177  -9.182  1.00  0.00    -0.022 A 
ATOM      2  C   UNL     1     -22.020 -14.477 -10.261  1.00  0.00     0.058 A 
ATOM      3  C   UNL     1     -23.048 -16.482  -9.381  1.00  0.00     0.012 A 
ATOM      4  C   UNL     1     -21.871 -15.086 -11.514  1.00  0.00     0.157 A 
ATOM      5  C   UNL     1     -22.903 -17.099 -10.625  1.00  0.00     0.051 A 
ATOM      6  C   UNL     1     -22.313 -16.419 -11.696  1.00  0.00     0.157 A 
ENDROOT
BRANCH   1   7
ATOM      7  C   UNL     1     -22.792 -14.526  -7.872  1.00  0.00     0.010 C 
ATOM      8  C   UNL     1     -22.015 -14.691  -6.790  1.00  0.00     0.025 C 
BRANCH   8   9
ATOM      9  C   UNL     1     -20.934 -15.685  -6.656  1.00  0.00     0.064 C 
ATOM     10  O   UNL     1     -19.763 -15.370  -6.991  1.00  0.00    -0.545 OA
ATOM     11  O   UNL     1     -21.165 -16.939  -6.102  1.00  0.00    -0.545 OA
ENDBRANCH   8   9
ENDBRANCH   1   7
BRANCH   4  12
ATOM     12  O   UNL     1     -21.291 -14.337 -12.539  1.00  0.00    -0.504 OA
ATOM     13  H   UNL     1     -21.076 -14.705 -13.455  1.00  0.00     0.293 HD
ENDBRANCH   4  12
BRANCH   6  14
ATOM     14  O   UNL     1     -22.190 -17.095 -12.912  1.00  0.00    -0.504 OA
ATOM     15  H   UNL     1     -21.553 -17.863 -13.069  1.00  0.00     0.293 HD
ENDBRANCH   6  14
TORSDOF 4
ENDMDL
MODEL 3
REMARK VINA RESULT:    -5.654      0.798      1.871
REMARK INTER + INTRA:          -6.892
REMARK INTER:                  -6.673
REMARK INTRA:                  -0.218
REMARK UNBOUND:                -0.247
REMARK SMILES O=C([O-])C=Cc1ccc(O)c(O)c1
REMARK SMILES IDX 6 1 13 2 7 3 11 4 8 5 9 6 5 7 4 8 2 9 1 10 3 11 12 12 10 14
REMARK H PARENT 12 13 10 15
REMARK Flexibility Score: inf
ROOT
ATOM      1  C   UNL     1     -22.663 -14.815  -8.215  1.00  0.00    -0.022 A 
ATOM      2  C   UNL     1     -23.492 -15.838  -7.728  1.00  0.00     0.058 A 
ATOM      3  C   UNL     1     -21.406 -14.617  -7.633  1.00  0.00     0.012 A 
ATOM      4  C   UNL     1     -23.054 -16.694  -6.708  1.00  0.00     0.157 A 
ATOM      5  C   UNL     1     -20.959 -15.465  -6.618  1.00  0.00     0.051 A 
ATOM      6  C   UNL     1     -21.766 -16.508  -6.151  1.00  0.00     0.157 A 
ENDROOT
BRANCH   1   7
ATOM      7  C   UNL     1     -23.136 -13.875  -9.252  1.00  0.00     0.010 C 
ATOM      8  C   UNL     1     -22.776 -13.900 -10.545  1.00  0.00     0.025 C 
BRANCH   8   9
ATOM      9  C   UNL     1     -21.709 -14.741 -11.120  1.00  0.00     0.064 C 
ATOM     10  O   UNL     1     -20.552 -14.264 -11.248  1.00  0.00    -0.545 OA
ATOM     11  O   UNL     1     -21.934 -16.070 -11.457  1.00  0.00    -0.545 OA
ENDBRANCH   8   9
ENDBRANCH   1   7
BRANCH   4  12
ATOM     12  O   UNL     1     -23.923 -17.698  -6.281  1.00  0.00    -0.504 OA
ATOM     13  H   UNL     1     -24.827 -17.523  -5.862  1.00  0.00     0.293 HD
ENDBRANCH   4  12
BRANCH   6  14
ATOM     14  O   UNL     1     -21.258 -17.325  -5.138  1.00  0.00    -0.504 OA
ATOM     15  H   UNL     1     -20.509 -17.989  -5.272  1.00  0.00     0.293 HD
ENDBRANCH   6  14
TORSDOF 4
ENDMDL
MODEL 4
REMARK VINA RESULT:    -5.600      1.495      4.926
REMARK INTER + INTRA:          -6.829
REMARK INTER:                  -6.617
REMARK INTRA:                  -0.212
REMARK UNBOUND:                -0.247
REMARK SMILES O=C([O-])C=Cc1ccc(O)c(O)c1
REMARK SMILES IDX 6 1 13 2 7 3 11 4 8 5 9 6 5 7 4 8 2 9 1 10 3 11 12 12 10 14
REMARK H PARENT 12 13 10 15
REMARK Flexibility Score: inf
ROOT
ATOM      1  C   UNL     1     -22.686 -15.000  -9.141  1.00  0.00    -0.022 A 
ATOM      2  C   UNL     1     -22.758 -16.239  -9.797  1.00  0.00     0.058 A 
ATOM      3  C   UNL     1     -22.100 -13.912  -9.795  1.00  0.00     0.012 A 
ATOM      4  C   UNL     1     -22.299 -16.383 -11.113  1.00  0.00     0.157 A 
ATOM      5  C   UNL     1     -21.642 -14.043 -11.108  1.00  0.00     0.051 A 
ATOM      6  C   UNL     1     -21.739 -15.266 -11.780  1.00  0.00     0.157 A 
ENDROOT
BRANCH   1   7
ATOM      7  C   UNL     1     -23.118 -14.852  -7.735  1.00  0.00     0.010 C 
ATOM      8  C   UNL     1     -22.357 -15.103  -6.658  1.00  0.00     0.025 C 
BRANCH   8   9
ATOM      9  C   UNL     1     -21.030 -15.746  -6.680  1.00  0.00     0.064 C 
ATOM     10  O   UNL     1     -20.909 -16.921  -6.245  1.00  0.00    -0.545 OA
ATOM     11  O   UNL     1     -19.924 -15.113  -7.234  1.00  0.00    -0.545 OA
ENDBRANCH   8   9
ENDBRANCH   1   7
BRANCH   4  12
ATOM     12  O   UNL     1     -22.412 -17.639 -11.710  1.00  0.00    -0.504 OA
ATOM     13  H   UNL     1     -23.227 -17.952 -12.219  1.00  0.00     0.293 HD
ENDBRANCH   4  12
BRANCH   6  14
ATOM     14  O   UNL     1     -21.270 -15.330 -13.094  1.00  0.00    -0.504 OA
ATOM     15  H   UNL     1     -20.322 -15.111 -13.365  1.00  0.00     0.293 HD
ENDBRANCH   6  14
TORSDOF 4
ENDMDL
MODEL 5
REMARK VINA RESULT:    -5.516      4.488      6.317
REMARK INTER + INTRA:          -6.730
REMARK INTER:                  -6.681
REMARK INTRA:                  -0.049
REMARK UNBOUND:                -0.247
REMARK SMILES O=C([O-])C=Cc1ccc(O)c(O)c1
REMARK SMILES IDX 6 1 13 2 7 3 11 4 8 5 9 6 5 7 4 8 2 9 1 10 3 11 12 12 10 14
REMARK H PARENT 12 13 10 15
REMARK Flexibility Score: inf
ROOT
ATOM      1  C   UNL     1     -23.058 -14.301 -13.918  1.00  0.00    -0.022 A 
ATOM      2  C   UNL     1     -21.704 -14.254 -14.286  1.00  0.00     0.058 A 
ATOM      3  C   UNL     1     -23.401 -14.255 -12.563  1.00  0.00     0.012 A 
ATOM      4  C   UNL     1     -20.701 -14.110 -13.319  1.00  0.00     0.157 A 
ATOM      5  C   UNL     1     -22.410 -14.109 -11.590  1.00  0.00     0.051 A 
ATOM      6  C   UNL     1     -21.061 -14.029 -11.952  1.00  0.00     0.157 A 
ENDROOT
BRANCH   1   7
ATOM      7  C   UNL     1     -24.119 -14.507 -14.926  1.00  0.00     0.010 C 
ATOM      8  C   UNL     1     -24.807 -15.645 -15.108  1.00  0.00     0.025 C 
BRANCH   8   9
ATOM      9  C   UNL     1     -24.502 -16.940 -14.472  1.00  0.00     0.064 C 
ATOM     10  O   UNL     1     -25.444 -17.634 -14.008  1.00  0.00    -0.545 OA
ATOM     11  O   UNL     1     -23.208 -17.445 -14.435  1.00  0.00    -0.545 OA
ENDBRANCH   8   9
ENDBRANCH   1   7
BRANCH   4  12
ATOM     12  O   UNL     1     -19.377 -14.057 -13.755  1.00  0.00    -0.504 OA
ATOM     13  H   UNL     1     -18.614 -14.548 -13.307  1.00  0.00     0.293 HD
ENDBRANCH   4  12
BRANCH   6  14
ATOM     14  O   UNL     1     -20.119 -13.876 -10.932  1.00  0.00    -0.504 OA
ATOM     15  H   UNL     1     -19.329 -14.490 -10.796  1.00  0.00     0.293 HD
ENDBRANCH   6  14
TORSDOF 4
ENDMDL
MODEL 6
REMARK VINA RESULT:    -5.298      3.885      7.325
REMARK INTER + INTRA:          -6.474
REMARK INTER:                  -6.379
REMARK INTRA:                  -0.094
REMARK UNBOUND:                -0.247
REMARK SMILES O=C([O-])C=Cc1ccc(O)c(O)c1
REMARK SMILES IDX 6 1 13 2 7 3 11 4 8 5 9 6 5 7 4 8 2 9 1 10 3 11 12 12 10 14
REMARK H PARENT 12 13 10 15
REMARK Flexibility Score: inf
ROOT
ATOM      1  C   UNL     1     -22.769 -16.183 -13.196  1.00  0.00    -0.022 A 
ATOM      2  C   UNL     1     -24.032 -16.435 -13.754  1.00  0.00     0.058 A 
ATOM      3  C   UNL     1     -21.852 -15.399 -13.904  1.00  0.00     0.012 A 
ATOM      4  C   UNL     1     -24.402 -15.869 -14.982  1.00  0.00     0.157 A 
ATOM      5  C   UNL     1     -22.210 -14.828 -15.127  1.00  0.00     0.051 A 
ATOM      6  C   UNL     1     -23.479 -15.048 -15.674  1.00  0.00     0.157 A 
ENDROOT
BRANCH   1   7
ATOM      7  C   UNL     1     -22.352 -16.818 -11.929  1.00  0.00     0.010 C 
ATOM      8  C   UNL     1     -22.068 -16.166 -10.790  1.00  0.00     0.025 C 
BRANCH   8   9
ATOM      9  C   UNL     1     -21.940 -14.703 -10.651  1.00  0.00     0.064 C 
ATOM     10  O   UNL     1     -20.794 -14.184 -10.647  1.00  0.00    -0.545 OA
ATOM     11  O   UNL     1     -23.056 -13.878 -10.595  1.00  0.00    -0.545 OA
ENDBRANCH   8   9
ENDBRANCH   1   7
BRANCH   4  12
ATOM     12  O   UNL     1     -25.677 -16.151 -15.473  1.00  0.00    -0.504 OA
ATOM     13  H   UNL     1     -26.234 -15.499 -16.008  1.00  0.00     0.293 HD
ENDBRANCH   4  12
BRANCH   6  14
ATOM     14  O   UNL     1     -23.778 -14.443 -16.897  1.00  0.00    -0.504 OA
ATOM     15  H   UNL     1     -23.084 -14.052 -17.517  1.00  0.00     0.293 HD
ENDBRANCH   6  14
TORSDOF 4
ENDMDL
MODEL 7
REMARK VINA RESULT:    -5.247      3.333      6.573
REMARK INTER + INTRA:          -6.414
REMARK INTER:                  -6.548
REMARK INTRA:                   0.134
REMARK UNBOUND:                -0.247
REMARK SMILES O=C([O-])C=Cc1ccc(O)c(O)c1
REMARK SMILES IDX 6 1 13 2 7 3 11 4 8 5 9 6 5 7 4 8 2 9 1 10 3 11 12 12 10 14
REMARK H PARENT 12 13 10 15
REMARK Flexibility Score: inf
ROOT
ATOM      1  C   UNL     1     -22.576 -16.419 -12.504  1.00  0.00    -0.022 A 
ATOM      2  C   UNL     1     -21.668 -15.484 -13.025  1.00  0.00     0.058 A 
ATOM      3  C   UNL     1     -23.686 -16.795 -13.269  1.00  0.00     0.012 A 
ATOM      4  C   UNL     1     -21.831 -14.966 -14.317  1.00  0.00     0.157 A 
ATOM      5  C   UNL     1     -23.857 -16.287 -14.558  1.00  0.00     0.051 A 
ATOM      6  C   UNL     1     -22.938 -15.379 -15.097  1.00  0.00     0.157 A 
ENDROOT
BRANCH   1   7
ATOM      7  C   UNL     1     -22.442 -16.930 -11.125  1.00  0.00     0.010 C 
ATOM      8  C   UNL     1     -22.281 -16.172 -10.028  1.00  0.00     0.025 C 
BRANCH   8   9
ATOM      9  C   UNL     1     -22.020 -14.721 -10.022  1.00  0.00     0.064 C 
ATOM     10  O   UNL     1     -22.990 -13.922 -10.094  1.00  0.00    -0.545 OA
ATOM     11  O   UNL     1     -20.736 -14.213  -9.867  1.00  0.00    -0.545 OA
ENDBRANCH   8   9
ENDBRANCH   1   7
BRANCH   4  12
ATOM     12  O   UNL     1     -20.884 -14.050 -14.777  1.00  0.00    -0.504 OA
ATOM     13  H   UNL     1     -21.009 -13.047 -14.751  1.00  0.00     0.293 HD
ENDBRANCH   4  12
BRANCH   6  14
ATOM     14  O   UNL     1     -23.162 -14.914 -16.395  1.00  0.00    -0.504 OA
ATOM     15  H   UNL     1     -22.514 -15.039 -17.159  1.00  0.00     0.293 HD
ENDBRANCH   6  14
TORSDOF 4
ENDMDL
MODEL 8
REMARK VINA RESULT:    -5.210      2.891      6.184
REMARK INTER + INTRA:          -6.370
REMARK INTER:                  -6.213
REMARK INTRA:                  -0.157
REMARK UNBOUND:                -0.247
REMARK SMILES O=C([O-])C=Cc1ccc(O)c(O)c1
REMARK SMILES IDX 6 1 13 2 7 3 11 4 8 5 9 6 5 7 4 8 2 9 1 10 3 11 12 12 10 14
REMARK H PARENT 12 13 10 15
REMARK Flexibility Score: inf
ROOT
ATOM      1  C   UNL     1     -22.135 -14.840 -11.846  1.00  0.00    -0.022 A 
ATOM      2  C   UNL     1     -22.016 -16.045 -12.556  1.00  0.00     0.058 A 
ATOM      3  C   UNL     1     -23.050 -13.875 -12.282  1.00  0.00     0.012 A 
ATOM      4  C   UNL     1     -22.837 -16.312 -13.659  1.00  0.00     0.157 A 
ATOM      5  C   UNL     1     -23.875 -14.133 -13.379  1.00  0.00     0.051 A 
ATOM      6  C   UNL     1     -23.785 -15.345 -14.072  1.00  0.00     0.157 A 
ENDROOT
BRANCH   1   7
ATOM      7  C   UNL     1     -21.238 -14.526 -10.715  1.00  0.00     0.010 C 
ATOM      8  C   UNL     1     -21.475 -14.828  -9.428  1.00  0.00     0.025 C 
BRANCH   8   9
ATOM      9  C   UNL     1     -22.745 -15.352  -8.893  1.00  0.00     0.064 C 
ATOM     10  O   UNL     1     -23.124 -16.505  -9.225  1.00  0.00    -0.545 OA
ATOM     11  O   UNL     1     -23.499 -14.631  -7.974  1.00  0.00    -0.545 OA
ENDBRANCH   8   9
ENDBRANCH   1   7
BRANCH   4  12
ATOM     12  O   UNL     1     -22.675 -17.535 -14.312  1.00  0.00    -0.504 OA
ATOM     13  H   UNL     1     -23.131 -18.392 -14.028  1.00  0.00     0.293 HD
ENDBRANCH   4  12
BRANCH   6  14
ATOM     14  O   UNL     1     -24.643 -15.544 -15.155  1.00  0.00    -0.504 OA
ATOM     15  H   UNL     1     -24.331 -15.661 -16.108  1.00  0.00     0.293 HD
ENDBRANCH   6  14
TORSDOF 4
ENDMDL
MODEL 9
REMARK VINA RESULT:    -5.117      3.180      4.562
REMARK INTER + INTRA:          -6.261
REMARK INTER:                  -5.989
REMARK INTRA:                  -0.272
REMARK UNBOUND:                -0.247
REMARK SMILES O=C([O-])C=Cc1ccc(O)c(O)c1
REMARK SMILES IDX 6 1 13 2 7 3 11 4 8 5 9 6 5 7 4 8 2 9 1 10 3 11 12 12 10 14
REMARK H PARENT 12 13 10 15
REMARK Flexibility Score: inf
ROOT
ATOM      1  C   UNL     1     -22.072 -15.595 -12.465  1.00  0.00    -0.022 A 
ATOM      2  C   UNL     1     -22.004 -14.609 -11.468  1.00  0.00     0.058 A 
ATOM      3  C   UNL     1     -22.419 -16.904 -12.111  1.00  0.00     0.012 A 
ATOM      4  C   UNL     1     -22.330 -14.908 -10.138  1.00  0.00     0.157 A 
ATOM      5  C   UNL     1     -22.747 -17.212 -10.790  1.00  0.00     0.051 A 
ATOM      6  C   UNL     1     -22.714 -16.227  -9.797  1.00  0.00     0.157 A 
ENDROOT
BRANCH   1   7
ATOM      7  C   UNL     1     -21.680 -15.303 -13.859  1.00  0.00     0.010 C 
ATOM      8  C   UNL     1     -22.517 -14.932 -14.841  1.00  0.00     0.025 C 
BRANCH   8   9
ATOM      9  C   UNL     1     -23.990 -14.933 -14.755  1.00  0.00     0.064 C 
ATOM     10  O   UNL     1     -24.588 -13.875 -14.430  1.00  0.00    -0.545 OA
ATOM     11  O   UNL     1     -24.737 -16.056 -15.092  1.00  0.00    -0.545 OA
ENDBRANCH   8   9
ENDBRANCH   1   7
BRANCH   4  12
ATOM     12  O   UNL     1     -22.253 -13.878  -9.201  1.00  0.00    -0.504 OA
ATOM     13  H   UNL     1     -21.915 -12.948  -9.409  1.00  0.00     0.293 HD
ENDBRANCH   4  12
BRANCH   6  14
ATOM     14  O   UNL     1     -23.061 -16.598  -8.496  1.00  0.00    -0.504 OA
ATOM     15  H   UNL     1     -22.706 -17.421  -8.030  1.00  0.00     0.293 HD
ENDBRANCH   6  14
TORSDOF 4
ENDMDL
