MODEL 1
REMARK VINA RESULT:    29.099      0.000      0.000
REMARK INTER + INTRA:          43.358
REMARK INTER:                  41.857
REMARK INTRA:                   1.501
REMARK UNBOUND:                 1.501
REMARK SMILES O=c1c(O[C@H]2O[C@H](CO)[C@@H](O)[C@@H](O)[C@@H]2O)c(-c2ccc(O)cc2)oc2cc(O)cc(O)c12
REMARK SMILES IDX 4 1 3 2 16 3 24 4 2 5 25 6 1 7 32 8 26 9 30 10 27 11 29 12
REMARK SMILES IDX 17 13 18 14 19 15 20 16 23 17 22 18 21 19 31 21 28 23 5 25
REMARK SMILES IDX 14 26 6 27 12 28 7 29 10 30 15 31 13 33 8 35 9 36 11 38
REMARK H PARENT 21 20 31 22 28 24 15 32 13 34 9 37 11 39
REMARK Flexibility Score: inf
ROOT
ATOM      1  O   UNL     1      10.310  13.607  20.616  1.00  0.00    -0.454 OA
ENDROOT
BRANCH   1   2
ATOM      2  C   UNL     1      10.002  13.900  19.277  1.00  0.00     0.214 A 
ATOM      3  C   UNL     1      10.725  14.909  18.613  1.00  0.00     0.180 A 
ATOM      4  O   UNL     1      10.404  15.261  17.373  1.00  0.00    -0.452 OA
ATOM      5  C   UNL     1       9.033  13.186  18.552  1.00  0.00     0.239 A 
ATOM      6  C   UNL     1       9.426  14.680  16.685  1.00  0.00     0.146 A 
ATOM      7  O   UNL     1       8.478  12.170  19.065  1.00  0.00    -0.285 OA
ATOM      8  C   UNL     1       8.707  13.593  17.242  1.00  0.00     0.111 A 
ATOM      9  C   UNL     1       9.122  15.149  15.401  1.00  0.00     0.094 A 
ATOM     10  C   UNL     1       7.709  12.959  16.460  1.00  0.00     0.134 A 
ATOM     11  C   UNL     1       8.128  14.520  14.641  1.00  0.00     0.123 A 
ATOM     12  C   UNL     1       7.429  13.431  15.172  1.00  0.00     0.093 A 
BRANCH   3  13
ATOM     13  C   UNL     1      11.913  15.507  19.240  1.00  0.00     0.021 A 
ATOM     14  C   UNL     1      13.135  15.607  18.555  1.00  0.00     0.016 A 
ATOM     15  C   UNL     1      14.198  16.328  19.111  1.00  0.00     0.047 A 
ATOM     16  C   UNL     1      14.057  16.933  20.365  1.00  0.00     0.115 A 
ATOM     17  C   UNL     1      11.791  16.089  20.514  1.00  0.00     0.016 A 
ATOM     18  C   UNL     1      12.856  16.798  21.069  1.00  0.00     0.047 A 
BRANCH  16  19
ATOM     19  O   UNL     1      15.092  17.676  20.920  1.00  0.00    -0.508 OA
ATOM     20  H   UNL     1      16.064  17.481  20.700  1.00  0.00     0.293 HD
ENDBRANCH  16  19
ENDBRANCH   3  13
BRANCH  10  21
ATOM     21  O   UNL     1       6.985  11.877  16.963  1.00  0.00    -0.507 OA
ATOM     22  H   UNL     1       6.078  11.618  16.588  1.00  0.00     0.293 HD
ENDBRANCH  10  21
BRANCH  11  23
ATOM     23  O   UNL     1       7.806  14.982  13.368  1.00  0.00    -0.508 OA
ATOM     24  H   UNL     1       8.411  14.831  12.570  1.00  0.00     0.293 HD
ENDBRANCH  11  23
ENDBRANCH   1   2
BRANCH   1  25
ATOM     25  C   UNL     1      10.950  12.399  21.070  1.00  0.00     0.339 C 
ATOM     26  C   UNL     1      11.756  12.643  22.394  1.00  0.00     0.214 C 
ATOM     27  O   UNL     1      11.761  11.875  20.031  1.00  0.00    -0.332 OA
ATOM     28  C   UNL     1      13.182  12.068  22.296  1.00  0.00     0.180 C 
ATOM     29  C   UNL     1      12.914  12.673  19.830  1.00  0.00     0.179 C 
ATOM     30  C   UNL     1      13.903  12.518  21.011  1.00  0.00     0.177 C 
BRANCH  26  31
ATOM     31  O   UNL     1      11.118  12.056  23.504  1.00  0.00    -0.384 OA
ATOM     32  H   UNL     1      11.718  11.344  23.851  1.00  0.00     0.211 HD
ENDBRANCH  26  31
BRANCH  28  33
ATOM     33  O   UNL     1      13.941  12.427  23.429  1.00  0.00    -0.387 OA
ATOM     34  H   UNL     1      14.558  13.161  23.152  1.00  0.00     0.211 HD
ENDBRANCH  28  33
BRANCH  29  35
ATOM     35  C   UNL     1      13.577  12.267  18.502  1.00  0.00     0.191 C 
BRANCH  35  36
ATOM     36  O   UNL     1      13.774  13.389  17.679  1.00  0.00    -0.394 OA
ATOM     37  H   UNL     1      14.013  13.040  16.780  1.00  0.00     0.210 HD
ENDBRANCH  35  36
ENDBRANCH  29  35
BRANCH  30  38
ATOM     38  O   UNL     1      14.552  13.747  21.236  1.00  0.00    -0.387 OA
ATOM     39  H   UNL     1      14.057  14.219  21.960  1.00  0.00     0.211 HD
ENDBRANCH  30  38
ENDBRANCH   1  25
TORSDOF 11
ENDMDL
