MODEL 1
REMARK VINA RESULT:    -5.813      0.000      0.000
REMARK INTER + INTRA:         -11.157
REMARK INTER:                 -10.232
REMARK INTRA:                  -0.926
REMARK UNBOUND:                -0.926
REMARK SMILES CCCCCCCCCCCCCCC(=O)[O-]
REMARK SMILES IDX 9 1 10 2 11 3 12 4 13 5 14 6 15 7 16 8 17 9 8 10 7 11 6 12
REMARK SMILES IDX 5 13 4 14 3 15 2 16 1 17
REMARK H PARENT
REMARK Flexibility Score: inf
ROOT
ATOM      1  C   UNL     1     101.878 307.121 196.806  1.00  0.00     0.000 C 
ENDROOT
BRANCH   1   2
ATOM      2  C   UNL     1     101.918 305.690 197.375  1.00  0.00     0.000 C 
BRANCH   2   3
ATOM      3  C   UNL     1     101.514 305.626 198.858  1.00  0.00     0.000 C 
BRANCH   3   4
ATOM      4  C   UNL     1     100.908 306.945 199.372  1.00  0.00     0.000 C 
BRANCH   4   5
ATOM      5  C   UNL     1     100.471 306.935 200.852  1.00  0.00     0.006 C 
BRANCH   5   6
ATOM      6  C   UNL     1     100.207 305.537 201.432  1.00  0.00     0.053 C 
BRANCH   6   7
ATOM      7  C   UNL     1     101.023 305.277 202.659  1.00  0.00     0.041 C 
ATOM      8  O   UNL     1     102.232 305.626 202.704  1.00  0.00    -0.550 OA
ATOM      9  O   UNL     1     100.458 304.616 203.743  1.00  0.00    -0.550 OA
ENDBRANCH   6   7
ENDBRANCH   5   6
ENDBRANCH   4   5
ENDBRANCH   3   4
ENDBRANCH   2   3
ENDBRANCH   1   2
BRANCH   1  10
ATOM     10  C   UNL     1     101.581 307.219 195.296  1.00  0.00     0.000 C 
BRANCH  10  11
ATOM     11  C   UNL     1     101.392 305.869 194.575  1.00  0.00    -0.000 C 
BRANCH  11  12
ATOM     12  C   UNL     1     102.081 305.760 193.202  1.00  0.00    -0.000 C 
BRANCH  12  13
ATOM     13  C   UNL     1     103.486 306.385 193.192  1.00  0.00    -0.000 C 
BRANCH  13  14
ATOM     14  C   UNL     1     103.601 307.577 192.226  1.00  0.00    -0.000 C 
BRANCH  14  15
ATOM     15  C   UNL     1     102.290 307.979 191.525  1.00  0.00    -0.000 C 
BRANCH  15  16
ATOM     16  C   UNL     1     102.485 308.964 190.352  1.00  0.00    -0.003 C 
ATOM     17  C   UNL     1     103.918 309.486 190.261  1.00  0.00     0.004 C 
ENDBRANCH  15  16
ENDBRANCH  14  15
ENDBRANCH  13  14
ENDBRANCH  12  13
ENDBRANCH  11  12
ENDBRANCH  10  11
ENDBRANCH   1  10
TORSDOF 13
ENDMDL
MODEL 2
REMARK VINA RESULT:    -5.730      1.412      2.644
REMARK INTER + INTRA:         -11.010
REMARK INTER:                  -9.689
REMARK INTRA:                  -1.320
REMARK UNBOUND:                -0.926
REMARK SMILES CCCCCCCCCCCCCCC(=O)[O-]
REMARK SMILES IDX 9 1 10 2 11 3 12 4 13 5 14 6 15 7 16 8 17 9 8 10 7 11 6 12
REMARK SMILES IDX 5 13 4 14 3 15 2 16 1 17
REMARK H PARENT
REMARK Flexibility Score: inf
ROOT
ATOM      1  C   UNL     1     101.420 306.197 194.984  1.00  0.00     0.000 C 
ENDROOT
BRANCH   1   2
ATOM      2  C   UNL     1     102.488 306.023 196.080  1.00  0.00     0.000 C 
BRANCH   2   3
ATOM      3  C   UNL     1     101.908 305.479 197.397  1.00  0.00     0.000 C 
BRANCH   3   4
ATOM      4  C   UNL     1     101.844 306.542 198.509  1.00  0.00     0.000 C 
BRANCH   4   5
ATOM      5  C   UNL     1     101.832 305.989 199.949  1.00  0.00     0.006 C 
BRANCH   5   6
ATOM      6  C   UNL     1     100.591 306.371 200.770  1.00  0.00     0.053 C 
BRANCH   6   7
ATOM      7  C   UNL     1     100.393 305.462 201.943  1.00  0.00     0.041 C 
ATOM      8  O   UNL     1      99.243 305.043 202.236  1.00  0.00    -0.550 OA
ATOM      9  O   UNL     1     101.477 305.105 202.736  1.00  0.00    -0.550 OA
ENDBRANCH   6   7
ENDBRANCH   5   6
ENDBRANCH   4   5
ENDBRANCH   3   4
ENDBRANCH   2   3
ENDBRANCH   1   2
BRANCH   1  10
ATOM     10  C   UNL     1     101.883 305.843 193.556  1.00  0.00     0.000 C 
BRANCH  10  11
ATOM     11  C   UNL     1     103.389 306.031 193.288  1.00  0.00    -0.000 C 
BRANCH  11  12
ATOM     12  C   UNL     1     103.753 307.266 192.443  1.00  0.00    -0.000 C 
BRANCH  12  13
ATOM     13  C   UNL     1     102.542 307.852 191.697  1.00  0.00    -0.000 C 
BRANCH  13  14
ATOM     14  C   UNL     1     102.161 309.258 192.192  1.00  0.00    -0.000 C 
BRANCH  14  15
ATOM     15  C   UNL     1     102.699 309.628 193.588  1.00  0.00    -0.000 C 
BRANCH  15  16
ATOM     16  C   UNL     1     101.613 309.676 194.684  1.00  0.00    -0.003 C 
ATOM     17  C   UNL     1     102.205 309.782 196.089  1.00  0.00     0.004 C 
ENDBRANCH  15  16
ENDBRANCH  14  15
ENDBRANCH  13  14
ENDBRANCH  12  13
ENDBRANCH  11  12
ENDBRANCH  10  11
ENDBRANCH   1  10
TORSDOF 13
ENDMDL
MODEL 3
REMARK VINA RESULT:    -5.722      1.033      1.534
REMARK INTER + INTRA:         -10.997
REMARK INTER:                 -10.305
REMARK INTRA:                  -0.692
REMARK UNBOUND:                -0.926
REMARK SMILES CCCCCCCCCCCCCCC(=O)[O-]
REMARK SMILES IDX 9 1 10 2 11 3 12 4 13 5 14 6 15 7 16 8 17 9 8 10 7 11 6 12
REMARK SMILES IDX 5 13 4 14 3 15 2 16 1 17
REMARK H PARENT
REMARK Flexibility Score: inf
ROOT
ATOM      1  C   UNL     1     102.130 307.279 195.674  1.00  0.00     0.000 C 
ENDROOT
BRANCH   1   2
ATOM      2  C   UNL     1     101.862 307.269 197.190  1.00  0.00     0.000 C 
BRANCH   2   3
ATOM      3  C   UNL     1     101.861 305.852 197.787  1.00  0.00     0.000 C 
BRANCH   3   4
ATOM      4  C   UNL     1     101.402 305.820 199.256  1.00  0.00     0.000 C 
BRANCH   4   5
ATOM      5  C   UNL     1     102.514 306.052 200.300  1.00  0.00     0.006 C 
BRANCH   5   6
ATOM      6  C   UNL     1     102.016 306.546 201.667  1.00  0.00     0.053 C 
BRANCH   6   7
ATOM      7  C   UNL     1     101.522 305.421 202.523  1.00  0.00     0.041 C 
ATOM      8  O   UNL     1     102.316 304.805 203.281  1.00  0.00    -0.550 OA
ATOM      9  O   UNL     1     100.190 305.031 202.458  1.00  0.00    -0.550 OA
ENDBRANCH   6   7
ENDBRANCH   5   6
ENDBRANCH   4   5
ENDBRANCH   3   4
ENDBRANCH   2   3
ENDBRANCH   1   2
BRANCH   1  10
ATOM     10  C   UNL     1     101.473 306.130 194.884  1.00  0.00     0.000 C 
BRANCH  10  11
ATOM     11  C   UNL     1     102.105 305.833 193.509  1.00  0.00    -0.000 C 
BRANCH  11  12
ATOM     12  C   UNL     1     103.520 306.404 193.304  1.00  0.00    -0.000 C 
BRANCH  12  13
ATOM     13  C   UNL     1     103.599 307.383 192.121  1.00  0.00    -0.000 C 
BRANCH  13  14
ATOM     14  C   UNL     1     102.214 307.837 191.629  1.00  0.00    -0.000 C 
BRANCH  14  15
ATOM     15  C   UNL     1     102.191 309.195 190.902  1.00  0.00    -0.000 C 
BRANCH  15  16
ATOM     16  C   UNL     1     101.710 309.112 189.438  1.00  0.00    -0.003 C 
ATOM     17  C   UNL     1     101.990 310.396 188.657  1.00  0.00     0.004 C 
ENDBRANCH  15  16
ENDBRANCH  14  15
ENDBRANCH  13  14
ENDBRANCH  12  13
ENDBRANCH  11  12
ENDBRANCH  10  11
ENDBRANCH   1  10
TORSDOF 13
ENDMDL
MODEL 4
REMARK VINA RESULT:    -5.684      6.308      9.300
REMARK INTER + INTRA:         -10.930
REMARK INTER:                  -9.246
REMARK INTRA:                  -1.684
REMARK UNBOUND:                -0.926
REMARK SMILES CCCCCCCCCCCCCCC(=O)[O-]
REMARK SMILES IDX 9 1 10 2 11 3 12 4 13 5 14 6 15 7 16 8 17 9 8 10 7 11 6 12
REMARK SMILES IDX 5 13 4 14 3 15 2 16 1 17
REMARK H PARENT
REMARK Flexibility Score: inf
ROOT
ATOM      1  C   UNL     1     102.229 307.434 191.984  1.00  0.00     0.000 C 
ENDROOT
BRANCH   1   2
ATOM      2  C   UNL     1     103.586 308.098 191.688  1.00  0.00     0.000 C 
BRANCH   2   3
ATOM      3  C   UNL     1     103.480 309.243 190.666  1.00  0.00     0.000 C 
BRANCH   3   4
ATOM      4  C   UNL     1     102.030 309.530 190.235  1.00  0.00     0.000 C 
BRANCH   4   5
ATOM      5  C   UNL     1     101.783 309.526 188.712  1.00  0.00     0.006 C 
BRANCH   5   6
ATOM      6  C   UNL     1     100.430 308.937 188.285  1.00  0.00     0.053 C 
BRANCH   6   7
ATOM      7  C   UNL     1      99.449 310.002 187.907  1.00  0.00     0.041 C 
ATOM      8  O   UNL     1      99.852 311.148 187.573  1.00  0.00    -0.550 OA
ATOM      9  O   UNL     1      98.085 309.741 187.954  1.00  0.00    -0.550 OA
ENDBRANCH   6   7
ENDBRANCH   5   6
ENDBRANCH   4   5
ENDBRANCH   3   4
ENDBRANCH   2   3
ENDBRANCH   1   2
BRANCH   1  10
ATOM     10  C   UNL     1     102.292 306.192 192.897  1.00  0.00     0.000 C 
BRANCH  10  11
ATOM     11  C   UNL     1     103.641 305.968 193.608  1.00  0.00    -0.000 C 
BRANCH  11  12
ATOM     12  C   UNL     1     103.591 306.054 195.145  1.00  0.00    -0.000 C 
BRANCH  12  13
ATOM     13  C   UNL     1     102.199 306.440 195.672  1.00  0.00    -0.000 C 
BRANCH  13  14
ATOM     14  C   UNL     1     102.157 307.861 196.260  1.00  0.00    -0.000 C 
BRANCH  14  15
ATOM     15  C   UNL     1     101.366 308.889 195.429  1.00  0.00    -0.000 C 
BRANCH  15  16
ATOM     16  C   UNL     1     102.249 309.960 194.754  1.00  0.00    -0.003 C 
ATOM     17  C   UNL     1     101.517 310.698 193.633  1.00  0.00     0.004 C 
ENDBRANCH  15  16
ENDBRANCH  14  15
ENDBRANCH  13  14
ENDBRANCH  12  13
ENDBRANCH  11  12
ENDBRANCH  10  11
ENDBRANCH   1  10
TORSDOF 13
ENDMDL
MODEL 5
REMARK VINA RESULT:    -5.641     19.216     20.127
REMARK INTER + INTRA:         -10.854
REMARK INTER:                  -9.490
REMARK INTRA:                  -1.364
REMARK UNBOUND:                -0.926
REMARK SMILES CCCCCCCCCCCCCCC(=O)[O-]
REMARK SMILES IDX 9 1 10 2 11 3 12 4 13 5 14 6 15 7 16 8 17 9 8 10 7 11 6 12
REMARK SMILES IDX 5 13 4 14 3 15 2 16 1 17
REMARK H PARENT
REMARK Flexibility Score: inf
ROOT
ATOM      1  C   UNL     1      87.453 320.548 196.089  1.00  0.00     0.000 C 
ENDROOT
BRANCH   1   2
ATOM      2  C   UNL     1      86.494 320.277 197.263  1.00  0.00     0.000 C 
BRANCH   2   3
ATOM      3  C   UNL     1      87.220 319.782 198.525  1.00  0.00     0.000 C 
BRANCH   3   4
ATOM      4  C   UNL     1      87.608 320.925 199.482  1.00  0.00     0.000 C 
BRANCH   4   5
ATOM      5  C   UNL     1      87.616 320.556 200.980  1.00  0.00     0.006 C 
BRANCH   5   6
ATOM      6  C   UNL     1      88.897 320.954 201.729  1.00  0.00     0.053 C 
BRANCH   6   7
ATOM      7  C   UNL     1      88.667 321.085 203.202  1.00  0.00     0.041 C 
ATOM      8  O   UNL     1      87.623 320.615 203.726  1.00  0.00    -0.550 OA
ATOM      9  O   UNL     1      89.591 321.755 203.994  1.00  0.00    -0.550 OA
ENDBRANCH   6   7
ENDBRANCH   5   6
ENDBRANCH   4   5
ENDBRANCH   3   4
ENDBRANCH   2   3
ENDBRANCH   1   2
BRANCH   1  10
ATOM     10  C   UNL     1      86.770 320.888 194.749  1.00  0.00     0.000 C 
BRANCH  10  11
ATOM     11  C   UNL     1      85.263 320.570 194.680  1.00  0.00    -0.000 C 
BRANCH  11  12
ATOM     12  C   UNL     1      84.857 319.562 193.589  1.00  0.00    -0.000 C 
BRANCH  12  13
ATOM     13  C   UNL     1      86.059 319.052 192.776  1.00  0.00    -0.000 C 
BRANCH  13  14
ATOM     14  C   UNL     1      86.313 317.547 192.966  1.00  0.00    -0.000 C 
BRANCH  14  15
ATOM     15  C   UNL     1      85.967 316.997 194.363  1.00  0.00    -0.000 C 
BRANCH  15  16
ATOM     16  C   UNL     1      87.151 317.015 195.353  1.00  0.00    -0.003 C 
ATOM     17  C   UNL     1      86.760 316.511 196.742  1.00  0.00     0.004 C 
ENDBRANCH  15  16
ENDBRANCH  14  15
ENDBRANCH  13  14
ENDBRANCH  12  13
ENDBRANCH  11  12
ENDBRANCH  10  11
ENDBRANCH   1  10
TORSDOF 13
ENDMDL
MODEL 6
REMARK VINA RESULT:    -5.639     19.582     20.404
REMARK INTER + INTRA:         -10.850
REMARK INTER:                 -10.284
REMARK INTRA:                  -0.565
REMARK UNBOUND:                -0.926
REMARK SMILES CCCCCCCCCCCCCCC(=O)[O-]
REMARK SMILES IDX 9 1 10 2 11 3 12 4 13 5 14 6 15 7 16 8 17 9 8 10 7 11 6 12
REMARK SMILES IDX 5 13 4 14 3 15 2 16 1 17
REMARK H PARENT
REMARK Flexibility Score: inf
ROOT
ATOM      1  C   UNL     1      86.533 320.266 196.921  1.00  0.00     0.000 C 
ENDROOT
BRANCH   1   2
ATOM      2  C   UNL     1      87.093 320.952 198.180  1.00  0.00     0.000 C 
BRANCH   2   3
ATOM      3  C   UNL     1      87.575 319.950 199.242  1.00  0.00     0.000 C 
BRANCH   3   4
ATOM      4  C   UNL     1      88.050 320.632 200.538  1.00  0.00     0.000 C 
BRANCH   4   5
ATOM      5  C   UNL     1      87.090 320.505 201.740  1.00  0.00     0.006 C 
BRANCH   5   6
ATOM      6  C   UNL     1      87.758 320.046 203.045  1.00  0.00     0.053 C 
BRANCH   6   7
ATOM      7  C   UNL     1      88.260 321.201 203.854  1.00  0.00     0.041 C 
ATOM      8  O   UNL     1      89.374 321.725 203.589  1.00  0.00    -0.550 OA
ATOM      9  O   UNL     1      87.513 321.679 204.923  1.00  0.00    -0.550 OA
ENDBRANCH   6   7
ENDBRANCH   5   6
ENDBRANCH   4   5
ENDBRANCH   3   4
ENDBRANCH   2   3
ENDBRANCH   1   2
BRANCH   1  10
ATOM     10  C   UNL     1      87.308 320.550 195.618  1.00  0.00     0.000 C 
BRANCH  10  11
ATOM     11  C   UNL     1      86.438 320.949 194.410  1.00  0.00    -0.000 C 
BRANCH  11  12
ATOM     12  C   UNL     1      84.983 320.449 194.460  1.00  0.00    -0.000 C 
BRANCH  12  13
ATOM     13  C   UNL     1      84.685 319.380 193.394  1.00  0.00    -0.000 C 
BRANCH  13  14
ATOM     14  C   UNL     1      85.928 318.558 193.011  1.00  0.00    -0.000 C 
BRANCH  14  15
ATOM     15  C   UNL     1      86.299 318.593 191.516  1.00  0.00    -0.000 C 
BRANCH  15  16
ATOM     16  C   UNL     1      86.125 317.238 190.797  1.00  0.00    -0.003 C 
ATOM     17  C   UNL     1      84.668 316.778 190.765  1.00  0.00     0.004 C 
ENDBRANCH  15  16
ENDBRANCH  14  15
ENDBRANCH  13  14
ENDBRANCH  12  13
ENDBRANCH  11  12
ENDBRANCH  10  11
ENDBRANCH   1  10
TORSDOF 13
ENDMDL
MODEL 7
REMARK VINA RESULT:    -5.616      4.810      9.875
REMARK INTER + INTRA:         -10.809
REMARK INTER:                 -10.362
REMARK INTRA:                  -0.448
REMARK UNBOUND:                -0.926
REMARK SMILES CCCCCCCCCCCCCCC(=O)[O-]
REMARK SMILES IDX 9 1 10 2 11 3 12 4 13 5 14 6 15 7 16 8 17 9 8 10 7 11 6 12
REMARK SMILES IDX 5 13 4 14 3 15 2 16 1 17
REMARK H PARENT
REMARK Flexibility Score: inf
ROOT
ATOM      1  C   UNL     1     102.450 306.256 196.136  1.00  0.00     0.000 C 
ENDROOT
BRANCH   1   2
ATOM      2  C   UNL     1     101.451 306.382 194.971  1.00  0.00     0.000 C 
BRANCH   2   3
ATOM      3  C   UNL     1     102.021 305.869 193.638  1.00  0.00     0.000 C 
BRANCH   3   4
ATOM      4  C   UNL     1     103.523 306.164 193.475  1.00  0.00     0.000 C 
BRANCH   4   5
ATOM      5  C   UNL     1     103.864 307.364 192.566  1.00  0.00     0.006 C 
BRANCH   5   6
ATOM      6  C   UNL     1     102.643 308.127 192.031  1.00  0.00     0.053 C 
BRANCH   6   7
ATOM      7  C   UNL     1     102.920 308.771 190.708  1.00  0.00     0.041 C 
ATOM      8  O   UNL     1     104.073 309.202 190.441  1.00  0.00    -0.550 OA
ATOM      9  O   UNL     1     101.897 308.926 189.782  1.00  0.00    -0.550 OA
ENDBRANCH   6   7
ENDBRANCH   5   6
ENDBRANCH   4   5
ENDBRANCH   3   4
ENDBRANCH   2   3
ENDBRANCH   1   2
BRANCH   1  10
ATOM     10  C   UNL     1     101.882 305.623 197.423  1.00  0.00     0.000 C 
BRANCH  10  11
ATOM     11  C   UNL     1     101.656 306.603 198.592  1.00  0.00    -0.000 C 
BRANCH  11  12
ATOM     12  C   UNL     1     101.274 305.945 199.930  1.00  0.00    -0.000 C 
BRANCH  12  13
ATOM     13  C   UNL     1     102.422 305.971 200.953  1.00  0.00    -0.000 C 
BRANCH  13  14
ATOM     14  C   UNL     1     101.926 306.117 202.402  1.00  0.00    -0.000 C 
BRANCH  14  15
ATOM     15  C   UNL     1     102.231 304.918 203.321  1.00  0.00    -0.000 C 
BRANCH  15  16
ATOM     16  C   UNL     1     101.961 305.192 204.816  1.00  0.00    -0.003 C 
ATOM     17  C   UNL     1     103.134 305.891 205.503  1.00  0.00     0.004 C 
ENDBRANCH  15  16
ENDBRANCH  14  15
ENDBRANCH  13  14
ENDBRANCH  12  13
ENDBRANCH  11  12
ENDBRANCH  10  11
ENDBRANCH   1  10
TORSDOF 13
ENDMDL
MODEL 8
REMARK VINA RESULT:    -5.563      1.231      2.016
REMARK INTER + INTRA:         -10.717
REMARK INTER:                 -10.004
REMARK INTRA:                  -0.712
REMARK UNBOUND:                -0.926
REMARK SMILES CCCCCCCCCCCCCCC(=O)[O-]
REMARK SMILES IDX 9 1 10 2 11 3 12 4 13 5 14 6 15 7 16 8 17 9 8 10 7 11 6 12
REMARK SMILES IDX 5 13 4 14 3 15 2 16 1 17
REMARK H PARENT
REMARK Flexibility Score: inf
ROOT
ATOM      1  C   UNL     1     101.633 305.799 197.795  1.00  0.00     0.000 C 
ENDROOT
BRANCH   1   2
ATOM      2  C   UNL     1     101.611 305.734 199.334  1.00  0.00     0.000 C 
BRANCH   2   3
ATOM      3  C   UNL     1     102.267 306.960 199.992  1.00  0.00     0.000 C 
BRANCH   3   4
ATOM      4  C   UNL     1     102.624 306.727 201.471  1.00  0.00     0.000 C 
BRANCH   4   5
ATOM      5  C   UNL     1     101.675 305.781 202.237  1.00  0.00     0.006 C 
BRANCH   5   6
ATOM      6  C   UNL     1     102.357 304.929 203.319  1.00  0.00     0.053 C 
BRANCH   6   7
ATOM      7  C   UNL     1     101.692 305.079 204.652  1.00  0.00     0.041 C 
ATOM      8  O   UNL     1     102.348 305.489 205.646  1.00  0.00    -0.550 OA
ATOM      9  O   UNL     1     100.355 304.734 204.804  1.00  0.00    -0.550 OA
ENDBRANCH   6   7
ENDBRANCH   5   6
ENDBRANCH   4   5
ENDBRANCH   3   4
ENDBRANCH   2   3
ENDBRANCH   1   2
BRANCH   1  10
ATOM     10  C   UNL     1     102.008 307.172 197.201  1.00  0.00     0.000 C 
BRANCH  10  11
ATOM     11  C   UNL     1     102.248 307.185 195.678  1.00  0.00    -0.000 C 
BRANCH  11  12
ATOM     12  C   UNL     1     101.431 306.153 194.879  1.00  0.00    -0.000 C 
BRANCH  12  13
ATOM     13  C   UNL     1     102.064 305.819 193.518  1.00  0.00    -0.000 C 
BRANCH  13  14
ATOM     14  C   UNL     1     103.444 306.471 193.327  1.00  0.00    -0.000 C 
BRANCH  14  15
ATOM     15  C   UNL     1     103.493 307.603 192.283  1.00  0.00    -0.000 C 
BRANCH  15  16
ATOM     16  C   UNL     1     102.202 307.740 191.448  1.00  0.00    -0.003 C 
ATOM     17  C   UNL     1     102.297 308.852 190.404  1.00  0.00     0.004 C 
ENDBRANCH  15  16
ENDBRANCH  14  15
ENDBRANCH  13  14
ENDBRANCH  12  13
ENDBRANCH  11  12
ENDBRANCH  10  11
ENDBRANCH   1  10
TORSDOF 13
ENDMDL
MODEL 9
REMARK VINA RESULT:    -5.555      4.250      9.933
REMARK INTER + INTRA:         -10.703
REMARK INTER:                 -10.212
REMARK INTRA:                  -0.491
REMARK UNBOUND:                -0.926
REMARK SMILES CCCCCCCCCCCCCCC(=O)[O-]
REMARK SMILES IDX 9 1 10 2 11 3 12 4 13 5 14 6 15 7 16 8 17 9 8 10 7 11 6 12
REMARK SMILES IDX 5 13 4 14 3 15 2 16 1 17
REMARK H PARENT
REMARK Flexibility Score: inf
ROOT
ATOM      1  C   UNL     1     101.897 306.557 198.318  1.00  0.00     0.000 C 
ENDROOT
BRANCH   1   2
ATOM      2  C   UNL     1     101.869 305.645 197.077  1.00  0.00     0.000 C 
BRANCH   2   3
ATOM      3  C   UNL     1     102.586 306.264 195.866  1.00  0.00     0.000 C 
BRANCH   3   4
ATOM      4  C   UNL     1     101.687 306.353 194.618  1.00  0.00     0.000 C 
BRANCH   4   5
ATOM      5  C   UNL     1     102.329 305.853 193.307  1.00  0.00     0.006 C 
BRANCH   5   6
ATOM      6  C   UNL     1     103.740 306.397 193.038  1.00  0.00     0.053 C 
BRANCH   6   7
ATOM      7  C   UNL     1     103.714 307.823 192.584  1.00  0.00     0.041 C 
ATOM      8  O   UNL     1     103.723 308.099 191.355  1.00  0.00    -0.550 OA
ATOM      9  O   UNL     1     103.714 308.851 193.519  1.00  0.00    -0.550 OA
ENDBRANCH   6   7
ENDBRANCH   5   6
ENDBRANCH   4   5
ENDBRANCH   3   4
ENDBRANCH   2   3
ENDBRANCH   1   2
BRANCH   1  10
ATOM     10  C   UNL     1     101.523 305.869 199.647  1.00  0.00     0.000 C 
BRANCH  10  11
ATOM     11  C   UNL     1     102.510 306.102 200.808  1.00  0.00    -0.000 C 
BRANCH  11  12
ATOM     12  C   UNL     1     101.857 306.385 202.173  1.00  0.00    -0.000 C 
BRANCH  12  13
ATOM     13  C   UNL     1     101.670 305.113 203.017  1.00  0.00    -0.000 C 
BRANCH  13  14
ATOM     14  C   UNL     1     102.418 305.173 204.360  1.00  0.00    -0.000 C 
BRANCH  14  15
ATOM     15  C   UNL     1     103.464 306.299 204.476  1.00  0.00    -0.000 C 
BRANCH  15  16
ATOM     16  C   UNL     1     104.101 306.417 205.877  1.00  0.00    -0.003 C 
ATOM     17  C   UNL     1     103.060 306.401 206.995  1.00  0.00     0.004 C 
ENDBRANCH  15  16
ENDBRANCH  14  15
ENDBRANCH  13  14
ENDBRANCH  12  13
ENDBRANCH  11  12
ENDBRANCH  10  11
ENDBRANCH   1  10
TORSDOF 13
ENDMDL
