MODEL 1
REMARK VINA RESULT:    -5.982      0.000      0.000
REMARK INTER + INTRA:          -7.295
REMARK INTER:                  -7.031
REMARK INTRA:                  -0.264
REMARK UNBOUND:                -0.264
REMARK SMILES O=c1cc(-c2ccc(O)c(O)c2)oc2cc(O)cc(O)c12
REMARK SMILES IDX 4 1 3 2 2 3 1 4 21 5 19 6 18 7 16 8 15 9 14 10 13 11 5 12
REMARK SMILES IDX 6 13 7 14 8 15 12 16 10 17 9 18 11 20 20 22 17 24
REMARK H PARENT 9 19 11 21 20 23 17 25
REMARK Flexibility Score: inf
ROOT
ATOM      1  C   UNL     1      -4.368  -5.513  16.477  1.00  0.00     0.138 A 
ATOM      2  C   UNL     1      -5.192  -6.094  15.502  1.00  0.00     0.100 A 
ATOM      3  C   UNL     1      -6.028  -7.156  15.848  1.00  0.00     0.197 A 
ATOM      4  O   UNL     1      -6.801  -7.616  14.967  1.00  0.00    -0.289 OA
ATOM      5  C   UNL     1      -6.015  -7.659  17.171  1.00  0.00     0.107 A 
ATOM      6  C   UNL     1      -6.794  -8.764  17.628  1.00  0.00     0.134 A 
ATOM      7  C   UNL     1      -6.786  -9.099  18.988  1.00  0.00     0.093 A 
ATOM      8  C   UNL     1      -5.980  -8.407  19.896  1.00  0.00     0.123 A 
ATOM      9  C   UNL     1      -5.176  -7.362  19.449  1.00  0.00     0.094 A 
ATOM     10  C   UNL     1      -5.188  -6.980  18.106  1.00  0.00     0.146 A 
ATOM     11  O   UNL     1      -4.416  -5.969  17.725  1.00  0.00    -0.456 OA
ENDROOT
BRANCH   1  12
ATOM     12  C   UNL     1      -3.459  -4.382  16.162  1.00  0.00     0.021 A 
ATOM     13  C   UNL     1      -2.151  -4.595  15.688  1.00  0.00     0.016 A 
ATOM     14  C   UNL     1      -1.314  -3.511  15.410  1.00  0.00     0.051 A 
ATOM     15  C   UNL     1      -1.763  -2.200  15.607  1.00  0.00     0.157 A 
ATOM     16  C   UNL     1      -3.899  -3.062  16.371  1.00  0.00     0.062 A 
ATOM     17  C   UNL     1      -3.062  -1.976  16.093  1.00  0.00     0.158 A 
BRANCH  15  18
ATOM     18  O   UNL     1      -0.926  -1.121  15.328  1.00  0.00    -0.504 OA
ATOM     19  H   UNL     1      -0.279  -0.759  16.019  1.00  0.00     0.293 HD
ENDBRANCH  15  18
BRANCH  17  20
ATOM     20  O   UNL     1      -3.539  -0.683  16.304  1.00  0.00    -0.504 OA
ATOM     21  H   UNL     1      -3.992  -0.150  15.571  1.00  0.00     0.293 HD
ENDBRANCH  17  20
ENDBRANCH   1  12
BRANCH   6  22
ATOM     22  O   UNL     1      -7.567  -9.574  16.791  1.00  0.00    -0.507 OA
ATOM     23  H   UNL     1      -7.861 -10.514  17.009  1.00  0.00     0.293 HD
ENDBRANCH   6  22
BRANCH   8  24
ATOM     24  O   UNL     1      -5.967  -8.756  21.244  1.00  0.00    -0.508 OA
ATOM     25  H   UNL     1      -5.123  -9.089  21.697  1.00  0.00     0.293 HD
ENDBRANCH   8  24
TORSDOF 5
ENDMDL
MODEL 2
REMARK VINA RESULT:    -5.880      4.538      7.355
REMARK INTER + INTRA:          -7.175
REMARK INTER:                  -6.885
REMARK INTRA:                  -0.289
REMARK UNBOUND:                -0.264
REMARK SMILES O=c1cc(-c2ccc(O)c(O)c2)oc2cc(O)cc(O)c12
REMARK SMILES IDX 4 1 3 2 2 3 1 4 21 5 19 6 18 7 16 8 15 9 14 10 13 11 5 12
REMARK SMILES IDX 6 13 7 14 8 15 12 16 10 17 9 18 11 20 20 22 17 24
REMARK H PARENT 9 19 11 21 20 23 17 25
REMARK Flexibility Score: inf
ROOT
ATOM      1  C   UNL     1      -3.996   0.395  15.054  1.00  0.00     0.138 A 
ATOM      2  C   UNL     1      -4.776  -0.450  15.856  1.00  0.00     0.100 A 
ATOM      3  C   UNL     1      -4.347  -1.754  16.106  1.00  0.00     0.197 A 
ATOM      4  O   UNL     1      -5.036  -2.469  16.880  1.00  0.00    -0.289 OA
ATOM      5  C   UNL     1      -3.144  -2.223  15.524  1.00  0.00     0.107 A 
ATOM      6  C   UNL     1      -2.630  -3.545  15.677  1.00  0.00     0.134 A 
ATOM      7  C   UNL     1      -1.371  -3.861  15.150  1.00  0.00     0.093 A 
ATOM      8  C   UNL     1      -0.637  -2.920  14.423  1.00  0.00     0.123 A 
ATOM      9  C   UNL     1      -1.156  -1.643  14.224  1.00  0.00     0.094 A 
ATOM     10  C   UNL     1      -2.392  -1.286  14.766  1.00  0.00     0.146 A 
ATOM     11  O   UNL     1      -2.844  -0.053  14.565  1.00  0.00    -0.456 OA
ENDROOT
BRANCH   1  12
ATOM     12  C   UNL     1      -4.406   1.790  14.754  1.00  0.00     0.021 A 
ATOM     13  C   UNL     1      -3.467   2.778  14.405  1.00  0.00     0.016 A 
ATOM     14  C   UNL     1      -3.881   4.086  14.138  1.00  0.00     0.051 A 
ATOM     15  C   UNL     1      -5.234   4.431  14.223  1.00  0.00     0.157 A 
ATOM     16  C   UNL     1      -5.763   2.148  14.852  1.00  0.00     0.062 A 
ATOM     17  C   UNL     1      -6.179   3.457  14.584  1.00  0.00     0.158 A 
BRANCH  15  18
ATOM     18  O   UNL     1      -5.643   5.737  13.955  1.00  0.00    -0.504 OA
ATOM     19  H   UNL     1      -5.797   6.060  13.007  1.00  0.00     0.293 HD
ENDBRANCH  15  18
BRANCH  17  20
ATOM     20  O   UNL     1      -7.535   3.770  14.682  1.00  0.00    -0.504 OA
ATOM     21  H   UNL     1      -7.954   4.519  14.144  1.00  0.00     0.293 HD
ENDBRANCH  17  20
ENDBRANCH   1  12
BRANCH   6  22
ATOM     22  O   UNL     1      -3.319  -4.584  16.310  1.00  0.00    -0.507 OA
ATOM     23  H   UNL     1      -4.322  -4.633  16.411  1.00  0.00     0.293 HD
ENDBRANCH   6  22
BRANCH   8  24
ATOM     24  O   UNL     1       0.607  -3.247  13.889  1.00  0.00    -0.508 OA
ATOM     25  H   UNL     1       0.746  -4.095  13.351  1.00  0.00     0.293 HD
ENDBRANCH   8  24
TORSDOF 5
ENDMDL
MODEL 3
REMARK VINA RESULT:    -5.677      2.979      3.960
REMARK INTER + INTRA:          -6.937
REMARK INTER:                  -6.619
REMARK INTRA:                  -0.318
REMARK UNBOUND:                -0.264
REMARK SMILES O=c1cc(-c2ccc(O)c(O)c2)oc2cc(O)cc(O)c12
REMARK SMILES IDX 4 1 3 2 2 3 1 4 21 5 19 6 18 7 16 8 15 9 14 10 13 11 5 12
REMARK SMILES IDX 6 13 7 14 8 15 12 16 10 17 9 18 11 20 20 22 17 24
REMARK H PARENT 9 19 11 21 20 23 17 25
REMARK Flexibility Score: inf
ROOT
ATOM      1  C   UNL     1      -2.760  -6.078  16.366  1.00  0.00     0.138 A 
ATOM      2  C   UNL     1      -3.652  -5.140  15.827  1.00  0.00     0.100 A 
ATOM      3  C   UNL     1      -4.918  -4.987  16.393  1.00  0.00     0.197 A 
ATOM      4  O   UNL     1      -5.673  -4.094  15.927  1.00  0.00    -0.289 OA
ATOM      5  C   UNL     1      -5.303  -5.802  17.485  1.00  0.00     0.107 A 
ATOM      6  C   UNL     1      -6.583  -5.762  18.116  1.00  0.00     0.134 A 
ATOM      7  C   UNL     1      -6.811  -6.532  19.263  1.00  0.00     0.093 A 
ATOM      8  C   UNL     1      -5.825  -7.387  19.765  1.00  0.00     0.123 A 
ATOM      9  C   UNL     1      -4.592  -7.472  19.124  1.00  0.00     0.094 A 
ATOM     10  C   UNL     1      -4.321  -6.690  17.999  1.00  0.00     0.146 A 
ATOM     11  O   UNL     1      -3.127  -6.791  17.426  1.00  0.00    -0.456 OA
ENDROOT
BRANCH   1  12
ATOM     12  C   UNL     1      -1.402  -6.282  15.802  1.00  0.00     0.021 A 
ATOM     13  C   UNL     1      -0.967  -5.594  14.654  1.00  0.00     0.016 A 
ATOM     14  C   UNL     1       0.314  -5.814  14.139  1.00  0.00     0.051 A 
ATOM     15  C   UNL     1       1.178  -6.727  14.755  1.00  0.00     0.157 A 
ATOM     16  C   UNL     1      -0.533  -7.209  16.407  1.00  0.00     0.062 A 
ATOM     17  C   UNL     1       0.750  -7.429  15.894  1.00  0.00     0.158 A 
BRANCH  15  18
ATOM     18  O   UNL     1       2.455  -6.943  14.240  1.00  0.00    -0.504 OA
ATOM     19  H   UNL     1       3.244  -7.139  14.845  1.00  0.00     0.293 HD
ENDBRANCH  15  18
BRANCH  17  20
ATOM     20  O   UNL     1       1.584  -8.349  16.529  1.00  0.00    -0.504 OA
ATOM     21  H   UNL     1       1.225  -9.193  16.960  1.00  0.00     0.293 HD
ENDBRANCH  17  20
ENDBRANCH   1  12
BRANCH   6  22
ATOM     22  O   UNL     1      -7.662  -5.008  17.646  1.00  0.00    -0.507 OA
ATOM     23  H   UNL     1      -8.469  -4.753  18.195  1.00  0.00     0.293 HD
ENDBRANCH   6  22
BRANCH   8  24
ATOM     24  O   UNL     1      -6.066  -8.161  20.898  1.00  0.00    -0.508 OA
ATOM     25  H   UNL     1      -6.083  -7.752  21.825  1.00  0.00     0.293 HD
ENDBRANCH   8  24
TORSDOF 5
ENDMDL
MODEL 4
REMARK VINA RESULT:    -5.532      1.397      7.108
REMARK INTER + INTRA:          -6.766
REMARK INTER:                  -6.502
REMARK INTRA:                  -0.264
REMARK UNBOUND:                -0.264
REMARK SMILES O=c1cc(-c2ccc(O)c(O)c2)oc2cc(O)cc(O)c12
REMARK SMILES IDX 4 1 3 2 2 3 1 4 21 5 19 6 18 7 16 8 15 9 14 10 13 11 5 12
REMARK SMILES IDX 6 13 7 14 8 15 12 16 10 17 9 18 11 20 20 22 17 24
REMARK H PARENT 9 19 11 21 20 23 17 25
REMARK Flexibility Score: inf
ROOT
ATOM      1  C   UNL     1      -4.678  -5.675  16.861  1.00  0.00     0.138 A 
ATOM      2  C   UNL     1      -5.221  -4.383  16.884  1.00  0.00     0.100 A 
ATOM      3  C   UNL     1      -4.489  -3.317  16.358  1.00  0.00     0.197 A 
ATOM      4  O   UNL     1      -5.027  -2.180  16.336  1.00  0.00    -0.289 OA
ATOM      5  C   UNL     1      -3.193  -3.545  15.834  1.00  0.00     0.107 A 
ATOM      6  C   UNL     1      -2.340  -2.529  15.308  1.00  0.00     0.134 A 
ATOM      7  C   UNL     1      -1.126  -2.889  14.710  1.00  0.00     0.093 A 
ATOM      8  C   UNL     1      -0.708  -4.222  14.674  1.00  0.00     0.123 A 
ATOM      9  C   UNL     1      -1.510  -5.214  15.233  1.00  0.00     0.094 A 
ATOM     10  C   UNL     1      -2.742  -4.892  15.805  1.00  0.00     0.146 A 
ATOM     11  O   UNL     1      -3.483  -5.870  16.313  1.00  0.00    -0.456 OA
ENDROOT
BRANCH   1  12
ATOM     12  C   UNL     1      -5.413  -6.843  17.409  1.00  0.00     0.021 A 
ATOM     13  C   UNL     1      -6.343  -7.562  16.634  1.00  0.00     0.016 A 
ATOM     14  C   UNL     1      -7.028  -8.652  17.179  1.00  0.00     0.051 A 
ATOM     15  C   UNL     1      -6.803  -9.037  18.506  1.00  0.00     0.157 A 
ATOM     16  C   UNL     1      -5.204  -7.228  18.746  1.00  0.00     0.062 A 
ATOM     17  C   UNL     1      -5.888  -8.319  19.293  1.00  0.00     0.158 A 
BRANCH  15  18
ATOM     18  O   UNL     1      -7.487 -10.125  19.045  1.00  0.00    -0.504 OA
ATOM     19  H   UNL     1      -7.955 -10.803  18.455  1.00  0.00     0.293 HD
ENDBRANCH  15  18
BRANCH  17  20
ATOM     20  O   UNL     1      -5.645  -8.675  20.619  1.00  0.00    -0.504 OA
ATOM     21  H   UNL     1      -4.707  -8.725  20.999  1.00  0.00     0.293 HD
ENDBRANCH  17  20
ENDBRANCH   1  12
BRANCH   6  22
ATOM     22  O   UNL     1      -2.624  -1.162  15.370  1.00  0.00    -0.507 OA
ATOM     23  H   UNL     1      -2.476  -0.578  16.179  1.00  0.00     0.293 HD
ENDBRANCH   6  22
BRANCH   8  24
ATOM     24  O   UNL     1       0.509  -4.570  14.091  1.00  0.00    -0.508 OA
ATOM     25  H   UNL     1       1.218  -3.873  13.889  1.00  0.00     0.293 HD
ENDBRANCH   8  24
TORSDOF 5
ENDMDL
MODEL 5
REMARK VINA RESULT:    -5.518      3.970      6.214
REMARK INTER + INTRA:          -6.750
REMARK INTER:                  -6.487
REMARK INTRA:                  -0.262
REMARK UNBOUND:                -0.264
REMARK SMILES O=c1cc(-c2ccc(O)c(O)c2)oc2cc(O)cc(O)c12
REMARK SMILES IDX 4 1 3 2 2 3 1 4 21 5 19 6 18 7 16 8 15 9 14 10 13 11 5 12
REMARK SMILES IDX 6 13 7 14 8 15 12 16 10 17 9 18 11 20 20 22 17 24
REMARK H PARENT 9 19 11 21 20 23 17 25
REMARK Flexibility Score: inf
ROOT
ATOM      1  C   UNL     1      -7.718  -5.766  17.933  1.00  0.00     0.138 A 
ATOM      2  C   UNL     1      -6.421  -5.430  17.518  1.00  0.00     0.100 A 
ATOM      3  C   UNL     1      -5.828  -6.132  16.468  1.00  0.00     0.197 A 
ATOM      4  O   UNL     1      -4.689  -5.768  16.078  1.00  0.00    -0.289 OA
ATOM      5  C   UNL     1      -6.528  -7.197  15.851  1.00  0.00     0.107 A 
ATOM      6  C   UNL     1      -6.007  -8.009  14.799  1.00  0.00     0.134 A 
ATOM      7  C   UNL     1      -6.834  -8.959  14.187  1.00  0.00     0.093 A 
ATOM      8  C   UNL     1      -8.143  -9.167  14.630  1.00  0.00     0.123 A 
ATOM      9  C   UNL     1      -8.642  -8.417  15.691  1.00  0.00     0.094 A 
ATOM     10  C   UNL     1      -7.854  -7.437  16.300  1.00  0.00     0.146 A 
ATOM     11  O   UNL     1      -8.373  -6.734  17.300  1.00  0.00    -0.456 OA
ENDROOT
BRANCH   1  12
ATOM     12  C   UNL     1      -8.395  -5.053  19.045  1.00  0.00     0.021 A 
ATOM     13  C   UNL     1      -8.390  -5.558  20.359  1.00  0.00     0.016 A 
ATOM     14  C   UNL     1      -9.044  -4.870  21.385  1.00  0.00     0.051 A 
ATOM     15  C   UNL     1      -9.719  -3.673  21.116  1.00  0.00     0.157 A 
ATOM     16  C   UNL     1      -9.087  -3.857  18.781  1.00  0.00     0.062 A 
ATOM     17  C   UNL     1      -9.742  -3.167  19.807  1.00  0.00     0.158 A 
BRANCH  15  18
ATOM     18  O   UNL     1     -10.370  -2.989  22.142  1.00  0.00    -0.504 OA
ATOM     19  H   UNL     1     -10.877  -2.129  21.967  1.00  0.00     0.293 HD
ENDBRANCH  15  18
BRANCH  17  20
ATOM     20  O   UNL     1     -10.409  -1.979  19.505  1.00  0.00    -0.504 OA
ATOM     21  H   UNL     1      -9.920  -1.098  19.407  1.00  0.00     0.293 HD
ENDBRANCH  17  20
ENDBRANCH   1  12
BRANCH   6  22
ATOM     22  O   UNL     1      -4.689  -7.941  14.339  1.00  0.00    -0.507 OA
ATOM     23  H   UNL     1      -4.247  -8.630  13.750  1.00  0.00     0.293 HD
ENDBRANCH   6  22
BRANCH   8  24
ATOM     24  O   UNL     1      -8.954 -10.125  14.025  1.00  0.00    -0.508 OA
ATOM     25  H   UNL     1      -8.948 -11.092  14.329  1.00  0.00     0.293 HD
ENDBRANCH   8  24
TORSDOF 5
ENDMDL
MODEL 6
REMARK VINA RESULT:    -5.503      3.765      6.076
REMARK INTER + INTRA:          -6.732
REMARK INTER:                  -6.461
REMARK INTRA:                  -0.271
REMARK UNBOUND:                -0.264
REMARK SMILES O=c1cc(-c2ccc(O)c(O)c2)oc2cc(O)cc(O)c12
REMARK SMILES IDX 4 1 3 2 2 3 1 4 21 5 19 6 18 7 16 8 15 9 14 10 13 11 5 12
REMARK SMILES IDX 6 13 7 14 8 15 12 16 10 17 9 18 11 20 20 22 17 24
REMARK H PARENT 9 19 11 21 20 23 17 25
REMARK Flexibility Score: inf
ROOT
ATOM      1  C   UNL     1      -7.447  -5.768  18.023  1.00  0.00     0.138 A 
ATOM      2  C   UNL     1      -7.911  -6.965  17.460  1.00  0.00     0.100 A 
ATOM      3  C   UNL     1      -7.162  -7.596  16.465  1.00  0.00     0.197 A 
ATOM      4  O   UNL     1      -7.572  -8.700  16.022  1.00  0.00    -0.289 OA
ATOM      5  C   UNL     1      -5.957  -7.006  16.012  1.00  0.00     0.107 A 
ATOM      6  C   UNL     1      -5.132  -7.538  14.977  1.00  0.00     0.134 A 
ATOM      7  C   UNL     1      -3.903  -6.931  14.693  1.00  0.00     0.093 A 
ATOM      8  C   UNL     1      -3.497  -5.775  15.366  1.00  0.00     0.123 A 
ATOM      9  C   UNL     1      -4.321  -5.219  16.342  1.00  0.00     0.094 A 
ATOM     10  C   UNL     1      -5.537  -5.821  16.672  1.00  0.00     0.146 A 
ATOM     11  O   UNL     1      -6.285  -5.265  17.618  1.00  0.00    -0.456 OA
ENDROOT
BRANCH   1  12
ATOM     12  C   UNL     1      -8.205  -5.056  19.083  1.00  0.00     0.021 A 
ATOM     13  C   UNL     1      -8.217  -5.508  20.415  1.00  0.00     0.016 A 
ATOM     14  C   UNL     1      -8.948  -4.823  21.390  1.00  0.00     0.051 A 
ATOM     15  C   UNL     1      -9.684  -3.681  21.051  1.00  0.00     0.157 A 
ATOM     16  C   UNL     1      -8.959  -3.916  18.747  1.00  0.00     0.062 A 
ATOM     17  C   UNL     1      -9.691  -3.228  19.722  1.00  0.00     0.158 A 
BRANCH  15  18
ATOM     18  O   UNL     1     -10.410  -3.000  22.026  1.00  0.00    -0.504 OA
ATOM     19  H   UNL     1     -11.227  -3.412  22.463  1.00  0.00     0.293 HD
ENDBRANCH  15  18
BRANCH  17  20
ATOM     20  O   UNL     1     -10.416  -2.097  19.350  1.00  0.00    -0.504 OA
ATOM     21  H   UNL     1     -10.458  -1.269  19.932  1.00  0.00     0.293 HD
ENDBRANCH  17  20
ENDBRANCH   1  12
BRANCH   6  22
ATOM     22  O   UNL     1      -5.482  -8.637  14.186  1.00  0.00    -0.507 OA
ATOM     23  H   UNL     1      -5.103  -9.566  14.290  1.00  0.00     0.293 HD
ENDBRANCH   6  22
BRANCH   8  24
ATOM     24  O   UNL     1      -2.280  -5.168  15.067  1.00  0.00    -0.508 OA
ATOM     25  H   UNL     1      -1.475  -5.712  14.774  1.00  0.00     0.293 HD
ENDBRANCH   8  24
TORSDOF 5
ENDMDL
MODEL 7
REMARK VINA RESULT:    -5.461      5.619      7.248
REMARK INTER + INTRA:          -6.682
REMARK INTER:                  -6.420
REMARK INTRA:                  -0.262
REMARK UNBOUND:                -0.264
REMARK SMILES O=c1cc(-c2ccc(O)c(O)c2)oc2cc(O)cc(O)c12
REMARK SMILES IDX 4 1 3 2 2 3 1 4 21 5 19 6 18 7 16 8 15 9 14 10 13 11 5 12
REMARK SMILES IDX 6 13 7 14 8 15 12 16 10 17 9 18 11 20 20 22 17 24
REMARK H PARENT 9 19 11 21 20 23 17 25
REMARK Flexibility Score: inf
ROOT
ATOM      1  C   UNL     1     -10.067  -5.552  18.665  1.00  0.00     0.138 A 
ATOM      2  C   UNL     1     -11.243  -5.341  17.933  1.00  0.00     0.100 A 
ATOM      3  C   UNL     1     -11.458  -6.050  16.751  1.00  0.00     0.197 A 
ATOM      4  O   UNL     1     -12.550  -5.885  16.148  1.00  0.00    -0.289 OA
ATOM      5  C   UNL     1     -10.472  -6.953  16.284  1.00  0.00     0.107 A 
ATOM      6  C   UNL     1     -10.564  -7.699  15.071  1.00  0.00     0.134 A 
ATOM      7  C   UNL     1      -9.581  -8.649  14.770  1.00  0.00     0.093 A 
ATOM      8  C   UNL     1      -8.477  -8.836  15.607  1.00  0.00     0.123 A 
ATOM      9  C   UNL     1      -8.352  -8.073  16.766  1.00  0.00     0.094 A 
ATOM     10  C   UNL     1      -9.334  -7.142  17.112  1.00  0.00     0.146 A 
ATOM     11  O   UNL     1      -9.183  -6.446  18.233  1.00  0.00    -0.456 OA
ENDROOT
BRANCH   1  12
ATOM     12  C   UNL     1      -9.788  -4.824  19.929  1.00  0.00     0.021 A 
ATOM     13  C   UNL     1      -8.888  -3.743  19.976  1.00  0.00     0.016 A 
ATOM     14  C   UNL     1      -8.637  -3.082  21.182  1.00  0.00     0.051 A 
ATOM     15  C   UNL     1      -9.273  -3.492  22.360  1.00  0.00     0.157 A 
ATOM     16  C   UNL     1     -10.411  -5.239  21.120  1.00  0.00     0.062 A 
ATOM     17  C   UNL     1     -10.162  -4.579  22.328  1.00  0.00     0.158 A 
BRANCH  15  18
ATOM     18  O   UNL     1      -9.021  -2.830  23.560  1.00  0.00    -0.504 OA
ATOM     19  H   UNL     1      -8.755  -3.335  24.399  1.00  0.00     0.293 HD
ENDBRANCH  15  18
BRANCH  17  20
ATOM     20  O   UNL     1     -10.808  -5.015  23.484  1.00  0.00    -0.504 OA
ATOM     21  H   UNL     1     -11.487  -5.767  23.469  1.00  0.00     0.293 HD
ENDBRANCH  17  20
ENDBRANCH   1  12
BRANCH   6  22
ATOM     22  O   UNL     1     -11.579  -7.530  14.124  1.00  0.00    -0.507 OA
ATOM     23  H   UNL     1     -11.433  -7.461  13.129  1.00  0.00     0.293 HD
ENDBRANCH   6  22
BRANCH   8  24
ATOM     24  O   UNL     1      -7.496  -9.773  15.292  1.00  0.00    -0.508 OA
ATOM     25  H   UNL     1      -6.807  -9.595  14.570  1.00  0.00     0.293 HD
ENDBRANCH   8  24
TORSDOF 5
ENDMDL
MODEL 8
REMARK VINA RESULT:    -5.452      1.388      7.083
REMARK INTER + INTRA:          -6.672
REMARK INTER:                  -6.410
REMARK INTRA:                  -0.262
REMARK UNBOUND:                -0.264
REMARK SMILES O=c1cc(-c2ccc(O)c(O)c2)oc2cc(O)cc(O)c12
REMARK SMILES IDX 4 1 3 2 2 3 1 4 21 5 19 6 18 7 16 8 15 9 14 10 13 11 5 12
REMARK SMILES IDX 6 13 7 14 8 15 12 16 10 17 9 18 11 20 20 22 17 24
REMARK H PARENT 9 19 11 21 20 23 17 25
REMARK Flexibility Score: inf
ROOT
ATOM      1  C   UNL     1      -4.385  -5.847  16.874  1.00  0.00     0.138 A 
ATOM      2  C   UNL     1      -3.109  -6.086  16.345  1.00  0.00     0.100 A 
ATOM      3  C   UNL     1      -2.364  -5.023  15.832  1.00  0.00     0.197 A 
ATOM      4  O   UNL     1      -1.198  -5.259  15.420  1.00  0.00    -0.289 OA
ATOM      5  C   UNL     1      -2.914  -3.719  15.821  1.00  0.00     0.107 A 
ATOM      6  C   UNL     1      -2.263  -2.567  15.287  1.00  0.00     0.134 A 
ATOM      7  C   UNL     1      -2.856  -1.307  15.437  1.00  0.00     0.093 A 
ATOM      8  C   UNL     1      -4.105  -1.167  16.048  1.00  0.00     0.123 A 
ATOM      9  C   UNL     1      -4.772  -2.292  16.525  1.00  0.00     0.094 A 
ATOM     10  C   UNL     1      -4.192  -3.558  16.422  1.00  0.00     0.146 A 
ATOM     11  O   UNL     1      -4.855  -4.604  16.903  1.00  0.00    -0.456 OA
ENDROOT
BRANCH   1  12
ATOM     12  C   UNL     1      -5.220  -6.940  17.432  1.00  0.00     0.021 A 
ATOM     13  C   UNL     1      -6.207  -7.583  16.661  1.00  0.00     0.016 A 
ATOM     14  C   UNL     1      -6.986  -8.603  17.215  1.00  0.00     0.051 A 
ATOM     15  C   UNL     1      -6.798  -8.993  18.547  1.00  0.00     0.157 A 
ATOM     16  C   UNL     1      -5.048  -7.328  18.773  1.00  0.00     0.062 A 
ATOM     17  C   UNL     1      -5.826  -8.350  19.329  1.00  0.00     0.158 A 
BRANCH  15  18
ATOM     18  O   UNL     1      -7.576 -10.011  19.095  1.00  0.00    -0.504 OA
ATOM     19  H   UNL     1      -8.575  -9.903  19.228  1.00  0.00     0.293 HD
ENDBRANCH  15  18
BRANCH  17  20
ATOM     20  O   UNL     1      -5.617  -8.711  20.660  1.00  0.00    -0.504 OA
ATOM     21  H   UNL     1      -6.194  -8.354  21.411  1.00  0.00     0.293 HD
ENDBRANCH  17  20
ENDBRANCH   1  12
BRANCH   6  22
ATOM     22  O   UNL     1      -1.056  -2.608  14.584  1.00  0.00    -0.507 OA
ATOM     23  H   UNL     1      -0.171  -2.279  14.938  1.00  0.00     0.293 HD
ENDBRANCH   6  22
BRANCH   8  24
ATOM     24  O   UNL     1      -4.695   0.089  16.180  1.00  0.00    -0.508 OA
ATOM     25  H   UNL     1      -4.476   0.846  15.542  1.00  0.00     0.293 HD
ENDBRANCH   8  24
TORSDOF 5
ENDMDL
MODEL 9
REMARK VINA RESULT:    -5.438      1.452      2.912
REMARK INTER + INTRA:          -6.656
REMARK INTER:                  -6.384
REMARK INTRA:                  -0.272
REMARK UNBOUND:                -0.264
REMARK SMILES O=c1cc(-c2ccc(O)c(O)c2)oc2cc(O)cc(O)c12
REMARK SMILES IDX 4 1 3 2 2 3 1 4 21 5 19 6 18 7 16 8 15 9 14 10 13 11 5 12
REMARK SMILES IDX 6 13 7 14 8 15 12 16 10 17 9 18 11 20 20 22 17 24
REMARK H PARENT 9 19 11 21 20 23 17 25
REMARK Flexibility Score: inf
ROOT
ATOM      1  C   UNL     1      -4.933  -6.118  17.046  1.00  0.00     0.138 A 
ATOM      2  C   UNL     1      -4.776  -6.743  18.290  1.00  0.00     0.100 A 
ATOM      3  C   UNL     1      -5.551  -7.860  18.605  1.00  0.00     0.197 A 
ATOM      4  O   UNL     1      -5.344  -8.437  19.704  1.00  0.00    -0.289 OA
ATOM      5  C   UNL     1      -6.511  -8.333  17.678  1.00  0.00     0.107 A 
ATOM      6  C   UNL     1      -7.384  -9.438  17.907  1.00  0.00     0.134 A 
ATOM      7  C   UNL     1      -8.212  -9.889  16.872  1.00  0.00     0.093 A 
ATOM      8  C   UNL     1      -8.242  -9.236  15.636  1.00  0.00     0.123 A 
ATOM      9  C   UNL     1      -7.432  -8.124  15.422  1.00  0.00     0.094 A 
ATOM     10  C   UNL     1      -6.569  -7.671  16.423  1.00  0.00     0.146 A 
ATOM     11  O   UNL     1      -5.803  -6.616  16.172  1.00  0.00    -0.456 OA
ENDROOT
BRANCH   1  12
ATOM     12  C   UNL     1      -4.136  -4.926  16.661  1.00  0.00     0.021 A 
ATOM     13  C   UNL     1      -2.739  -4.992  16.497  1.00  0.00     0.016 A 
ATOM     14  C   UNL     1      -2.013  -3.851  16.144  1.00  0.00     0.051 A 
ATOM     15  C   UNL     1      -2.664  -2.627  15.956  1.00  0.00     0.157 A 
ATOM     16  C   UNL     1      -4.781  -3.688  16.484  1.00  0.00     0.062 A 
ATOM     17  C   UNL     1      -4.055  -2.545  16.130  1.00  0.00     0.158 A 
BRANCH  15  18
ATOM     18  O   UNL     1      -1.937  -1.492  15.603  1.00  0.00    -0.504 OA
ATOM     19  H   UNL     1      -1.661  -1.316  14.643  1.00  0.00     0.293 HD
ENDBRANCH  15  18
BRANCH  17  20
ATOM     20  O   UNL     1      -4.734  -1.340  15.955  1.00  0.00    -0.504 OA
ATOM     21  H   UNL     1      -4.252  -0.450  15.929  1.00  0.00     0.293 HD
ENDBRANCH  17  20
ENDBRANCH   1  12
BRANCH   6  22
ATOM     22  O   UNL     1      -7.495 -10.106  19.130  1.00  0.00    -0.507 OA
ATOM     23  H   UNL     1      -7.020  -9.839  19.978  1.00  0.00     0.293 HD
ENDBRANCH   6  22
BRANCH   8  24
ATOM     24  O   UNL     1      -9.080  -9.682  14.617  1.00  0.00    -0.508 OA
ATOM     25  H   UNL     1      -9.995  -9.271  14.465  1.00  0.00     0.293 HD
ENDBRANCH   8  24
TORSDOF 5
ENDMDL
