MODEL 1
REMARK VINA RESULT:    -3.747      0.000      0.000
REMARK INTER + INTRA:          -4.523
REMARK INTER:                  -4.405
REMARK INTRA:                  -0.118
REMARK UNBOUND:                -0.118
REMARK SMILES O=C([O-])CCC(=O)[O-]
REMARK SMILES IDX 4 1 2 2 1 3 3 4 5 5 6 6 7 7 8 8
REMARK H PARENT
REMARK Flexibility Score: inf
ROOT
ATOM      1  C   UNL     1     169.603  19.986  35.662  1.00  0.00     0.059 C 
ENDROOT
BRANCH   1   2
ATOM      2  C   UNL     1     169.629  19.489  34.249  1.00  0.00     0.042 C 
ATOM      3  O   UNL     1     170.227  20.147  33.356  1.00  0.00    -0.550 OA
ATOM      4  O   UNL     1     168.959  18.320  33.910  1.00  0.00    -0.550 OA
ENDBRANCH   1   2
BRANCH   1   5
ATOM      5  C   UNL     1     170.317  21.335  35.798  1.00  0.00     0.059 C 
BRANCH   5   6
ATOM      6  C   UNL     1     171.612  21.200  36.539  1.00  0.00     0.042 C 
ATOM      7  O   UNL     1     171.804  21.849  37.601  1.00  0.00    -0.550 OA
ATOM      8  O   UNL     1     172.619  20.388  36.037  1.00  0.00    -0.550 OA
ENDBRANCH   5   6
ENDBRANCH   1   5
TORSDOF 3
ENDMDL
MODEL 2
REMARK VINA RESULT:    -3.556      1.271      1.779
REMARK INTER + INTRA:          -4.297
REMARK INTER:                  -4.169
REMARK INTRA:                  -0.129
REMARK UNBOUND:                -0.118
REMARK SMILES O=C([O-])CCC(=O)[O-]
REMARK SMILES IDX 4 1 2 2 1 3 3 4 5 5 6 6 7 7 8 8
REMARK H PARENT
REMARK Flexibility Score: inf
ROOT
ATOM      1  C   UNL     1     170.340  21.535  35.600  1.00  0.00     0.059 C 
ENDROOT
BRANCH   1   2
ATOM      2  C   UNL     1     169.906  20.290  34.890  1.00  0.00     0.042 C 
ATOM      3  O   UNL     1     169.098  19.495  35.440  1.00  0.00    -0.550 OA
ATOM      4  O   UNL     1     170.425  19.986  33.638  1.00  0.00    -0.550 OA
ENDBRANCH   1   2
BRANCH   1   5
ATOM      5  C   UNL     1     171.210  21.214  36.821  1.00  0.00     0.059 C 
BRANCH   5   6
ATOM      6  C   UNL     1     172.658  21.110  36.454  1.00  0.00     0.042 C 
ATOM      7  O   UNL     1     173.464  20.516  37.217  1.00  0.00    -0.550 OA
ATOM      8  O   UNL     1     173.124  21.703  35.288  1.00  0.00    -0.550 OA
ENDBRANCH   5   6
ENDBRANCH   1   5
TORSDOF 3
ENDMDL
MODEL 3
REMARK VINA RESULT:    -3.552      1.316      3.789
REMARK INTER + INTRA:          -4.294
REMARK INTER:                  -4.158
REMARK INTRA:                  -0.135
REMARK UNBOUND:                -0.118
REMARK SMILES O=C([O-])CCC(=O)[O-]
REMARK SMILES IDX 4 1 2 2 1 3 3 4 5 5 6 6 7 7 8 8
REMARK H PARENT
REMARK Flexibility Score: inf
ROOT
ATOM      1  C   UNL     1     171.251  21.383  36.898  1.00  0.00     0.059 C 
ENDROOT
BRANCH   1   2
ATOM      2  C   UNL     1     172.691  21.290  36.495  1.00  0.00     0.042 C 
ATOM      3  O   UNL     1     173.495  20.596  37.171  1.00  0.00    -0.550 OA
ATOM      4  O   UNL     1     173.153  22.003  35.396  1.00  0.00    -0.550 OA
ENDBRANCH   1   2
BRANCH   1   5
ATOM      5  C   UNL     1     170.346  21.669  35.695  1.00  0.00     0.059 C 
BRANCH   5   6
ATOM      6  C   UNL     1     169.964  20.409  34.981  1.00  0.00     0.042 C 
ATOM      7  O   UNL     1     169.224  19.561  35.544  1.00  0.00    -0.550 OA
ATOM      8  O   UNL     1     170.458  20.155  33.708  1.00  0.00    -0.550 OA
ENDBRANCH   5   6
ENDBRANCH   1   5
TORSDOF 3
ENDMDL
MODEL 4
REMARK VINA RESULT:    -3.543      1.144      3.815
REMARK INTER + INTRA:          -4.283
REMARK INTER:                  -4.189
REMARK INTRA:                  -0.094
REMARK UNBOUND:                -0.118
REMARK SMILES O=C([O-])CCC(=O)[O-]
REMARK SMILES IDX 4 1 2 2 1 3 3 4 5 5 6 6 7 7 8 8
REMARK H PARENT
REMARK Flexibility Score: inf
ROOT
ATOM      1  C   UNL     1     170.354  21.515  35.902  1.00  0.00     0.059 C 
ENDROOT
BRANCH   1   2
ATOM      2  C   UNL     1     171.626  21.234  36.642  1.00  0.00     0.042 C 
ATOM      3  O   UNL     1     171.851  21.788  37.751  1.00  0.00    -0.550 OA
ATOM      4  O   UNL     1     172.582  20.392  36.089  1.00  0.00    -0.550 OA
ENDBRANCH   1   2
BRANCH   1   5
ATOM      5  C   UNL     1     170.629  22.067  34.499  1.00  0.00     0.059 C 
BRANCH   5   6
ATOM      6  C   UNL     1     170.449  21.015  33.449  1.00  0.00     0.042 C 
ATOM      7  O   UNL     1     169.817  19.958  33.711  1.00  0.00    -0.550 OA
ATOM      8  O   UNL     1     171.013  21.185  32.191  1.00  0.00    -0.550 OA
ENDBRANCH   5   6
ENDBRANCH   1   5
TORSDOF 3
ENDMDL
MODEL 5
REMARK VINA RESULT:    -3.316     17.738     18.829
REMARK INTER + INTRA:          -4.015
REMARK INTER:                  -3.901
REMARK INTRA:                  -0.115
REMARK UNBOUND:                -0.118
REMARK SMILES O=C([O-])CCC(=O)[O-]
REMARK SMILES IDX 4 1 2 2 1 3 3 4 5 5 6 6 7 7 8 8
REMARK H PARENT
REMARK Flexibility Score: inf
ROOT
ATOM      1  C   UNL     1     157.930   9.078  28.768  1.00  0.00     0.059 C 
ENDROOT
BRANCH   1   2
ATOM      2  C   UNL     1     156.591   8.614  28.284  1.00  0.00     0.042 C 
ATOM      3  O   UNL     1     156.073   7.568  28.757  1.00  0.00    -0.550 OA
ATOM      4  O   UNL     1     155.932   9.315  27.282  1.00  0.00    -0.550 OA
ENDBRANCH   1   2
BRANCH   1   5
ATOM      5  C   UNL     1     159.068   8.496  27.921  1.00  0.00     0.059 C 
BRANCH   5   6
ATOM      6  C   UNL     1     159.451   9.418  26.805  1.00  0.00     0.042 C 
ATOM      7  O   UNL     1     160.253   9.034  25.913  1.00  0.00    -0.550 OA
ATOM      8  O   UNL     1     158.952  10.714  26.771  1.00  0.00    -0.550 OA
ENDBRANCH   5   6
ENDBRANCH   1   5
TORSDOF 3
ENDMDL
MODEL 6
REMARK VINA RESULT:    -3.301     17.717     18.929
REMARK INTER + INTRA:          -3.998
REMARK INTER:                  -3.888
REMARK INTRA:                  -0.109
REMARK UNBOUND:                -0.118
REMARK SMILES O=C([O-])CCC(=O)[O-]
REMARK SMILES IDX 4 1 2 2 1 3 3 4 5 5 6 6 7 7 8 8
REMARK H PARENT
REMARK Flexibility Score: inf
ROOT
ATOM      1  C   UNL     1     159.057   8.539  27.890  1.00  0.00     0.059 C 
ENDROOT
BRANCH   1   2
ATOM      2  C   UNL     1     159.419   9.506  26.805  1.00  0.00     0.042 C 
ATOM      3  O   UNL     1     158.958  10.678  26.820  1.00  0.00    -0.550 OA
ATOM      4  O   UNL     1     160.233   9.101  25.755  1.00  0.00    -0.550 OA
ENDBRANCH   1   2
BRANCH   1   5
ATOM      5  C   UNL     1     157.911   9.069  28.758  1.00  0.00     0.059 C 
BRANCH   5   6
ATOM      6  C   UNL     1     156.580   8.591  28.266  1.00  0.00     0.042 C 
ATOM      7  O   UNL     1     156.083   7.525  28.715  1.00  0.00    -0.550 OA
ATOM      8  O   UNL     1     155.906   9.303  27.282  1.00  0.00    -0.550 OA
ENDBRANCH   5   6
ENDBRANCH   1   5
TORSDOF 3
ENDMDL
MODEL 7
REMARK VINA RESULT:    -3.239     18.081     19.028
REMARK INTER + INTRA:          -3.926
REMARK INTER:                  -3.790
REMARK INTRA:                  -0.135
REMARK UNBOUND:                -0.118
REMARK SMILES O=C([O-])CCC(=O)[O-]
REMARK SMILES IDX 4 1 2 2 1 3 3 4 5 5 6 6 7 7 8 8
REMARK H PARENT
REMARK Flexibility Score: inf
ROOT
ATOM      1  C   UNL     1     158.171   9.717  27.985  1.00  0.00     0.059 C 
ENDROOT
BRANCH   1   2
ATOM      2  C   UNL     1     156.684   9.633  28.149  1.00  0.00     0.042 C 
ATOM      3  O   UNL     1     156.159   9.812  29.279  1.00  0.00    -0.550 OA
ATOM      4  O   UNL     1     155.882   9.316  27.060  1.00  0.00    -0.550 OA
ENDBRANCH   1   2
BRANCH   1   5
ATOM      5  C   UNL     1     158.799   8.330  27.813  1.00  0.00     0.059 C 
BRANCH   5   6
ATOM      6  C   UNL     1     158.486   7.436  28.974  1.00  0.00     0.042 C 
ATOM      7  O   UNL     1     158.933   7.706  30.120  1.00  0.00    -0.550 OA
ATOM      8  O   UNL     1     157.734   6.285  28.782  1.00  0.00    -0.550 OA
ENDBRANCH   5   6
ENDBRANCH   1   5
TORSDOF 3
ENDMDL
MODEL 8
REMARK VINA RESULT:    -3.205     18.105     19.123
REMARK INTER + INTRA:          -3.885
REMARK INTER:                  -3.728
REMARK INTRA:                  -0.157
REMARK UNBOUND:                -0.118
REMARK SMILES O=C([O-])CCC(=O)[O-]
REMARK SMILES IDX 4 1 2 2 1 3 3 4 5 5 6 6 7 7 8 8
REMARK H PARENT
REMARK Flexibility Score: inf
ROOT
ATOM      1  C   UNL     1     158.801   8.287  27.792  1.00  0.00     0.059 C 
ENDROOT
BRANCH   1   2
ATOM      2  C   UNL     1     158.472   7.438  28.982  1.00  0.00     0.042 C 
ATOM      3  O   UNL     1     158.908   7.748  30.122  1.00  0.00    -0.550 OA
ATOM      4  O   UNL     1     157.717   6.282  28.825  1.00  0.00    -0.550 OA
ENDBRANCH   1   2
BRANCH   1   5
ATOM      5  C   UNL     1     158.169   9.679  27.901  1.00  0.00     0.059 C 
BRANCH   5   6
ATOM      6  C   UNL     1     156.683   9.598  28.064  1.00  0.00     0.042 C 
ATOM      7  O   UNL     1     155.950   9.332  27.075  1.00  0.00    -0.550 OA
ATOM      8  O   UNL     1     156.104   9.853  29.300  1.00  0.00    -0.550 OA
ENDBRANCH   5   6
ENDBRANCH   1   5
TORSDOF 3
ENDMDL
MODEL 9
REMARK VINA RESULT:    -3.119     18.056     19.406
REMARK INTER + INTRA:          -3.784
REMARK INTER:                  -3.632
REMARK INTRA:                  -0.151
REMARK UNBOUND:                -0.118
REMARK SMILES O=C([O-])CCC(=O)[O-]
REMARK SMILES IDX 4 1 2 2 1 3 3 4 5 5 6 6 7 7 8 8
REMARK H PARENT
REMARK Flexibility Score: inf
ROOT
ATOM      1  C   UNL     1     157.751   9.174  29.242  1.00  0.00     0.059 C 
ENDROOT
BRANCH   1   2
ATOM      2  C   UNL     1     157.484   9.721  27.874  1.00  0.00     0.042 C 
ATOM      3  O   UNL     1     156.319   9.699  27.398  1.00  0.00    -0.550 OA
ATOM      4  O   UNL     1     158.531  10.220  27.108  1.00  0.00    -0.550 OA
ENDBRANCH   1   2
BRANCH   1   5
ATOM      5  C   UNL     1     158.508   7.843  29.179  1.00  0.00     0.059 C 
BRANCH   5   6
ATOM      6  C   UNL     1     157.615   6.722  28.744  1.00  0.00     0.042 C 
ATOM      7  O   UNL     1     158.034   5.857  27.930  1.00  0.00    -0.550 OA
ATOM      8  O   UNL     1     156.308   6.654  29.207  1.00  0.00    -0.550 OA
ENDBRANCH   5   6
ENDBRANCH   1   5
TORSDOF 3
ENDMDL
