MODEL 1
REMARK VINA RESULT:    -4.840      0.000      0.000
REMARK INTER + INTRA:          -5.264
REMARK INTER:                  -5.264
REMARK INTRA:                   0.000
REMARK UNBOUND:                 0.000
REMARK SMILES Cc1cc(O)c2c(c1)C(=O)c1cc(O)cc(O)c1C2=O
REMARK SMILES IDX 1 1 2 2 8 3 7 4 6 5 4 6 3 7 19 8 20 9 18 10 11 11 9 12 10 13
REMARK SMILES IDX 12 14 13 15 15 16 16 17 5 18 17 20 14 22
REMARK H PARENT 5 19 17 21 14 23
REMARK Flexibility Score: inf
ROOT
ATOM      1  C   UNL     1       9.652  20.656   6.819  1.00  0.00     0.044 C 
ATOM      2  C   UNL     1       8.811  21.713   6.166  1.00  0.00    -0.047 A 
ATOM      3  C   UNL     1       8.010  22.556   6.944  1.00  0.00     0.016 A 
ATOM      4  C   UNL     1       7.244  23.572   6.344  1.00  0.00     0.038 A 
ATOM      5  C   UNL     1       7.296  23.758   4.947  1.00  0.00     0.076 A 
ATOM      6  C   UNL     1       8.116  22.912   4.166  1.00  0.00     0.127 A 
ATOM      7  C   UNL     1       8.870  21.904   4.781  1.00  0.00     0.050 A 
ATOM      8  C   UNL     1       6.510  24.861   4.335  1.00  0.00     0.201 C 
ATOM      9  O   UNL     1       6.811  25.270   3.181  1.00  0.00    -0.288 OA
ATOM     10  C   UNL     1       5.453  25.555   5.122  1.00  0.00     0.076 A 
ATOM     11  C   UNL     1       5.456  25.406   6.529  1.00  0.00     0.041 A 
ATOM     12  C   UNL     1       6.387  24.449   7.174  1.00  0.00     0.194 C 
ATOM     13  O   UNL     1       6.437  24.369   8.432  1.00  0.00    -0.289 OA
ATOM     14  C   UNL     1       4.567  26.159   7.315  1.00  0.00     0.059 A 
ATOM     15  C   UNL     1       3.667  27.045   6.718  1.00  0.00     0.120 A 
ATOM     16  C   UNL     1       3.627  27.159   5.331  1.00  0.00     0.093 A 
ATOM     17  C   UNL     1       4.481  26.402   4.522  1.00  0.00     0.131 A 
ENDROOT
BRANCH   6  18
ATOM     18  O   UNL     1       8.180  23.063   2.780  1.00  0.00    -0.507 OA
ATOM     19  H   UNL     1       7.548  22.569   2.160  1.00  0.00     0.293 HD
ENDBRANCH   6  18
BRANCH  17  20
ATOM     20  O   UNL     1       4.302  26.497   3.140  1.00  0.00    -0.507 OA
ATOM     21  H   UNL     1       4.842  27.108   2.545  1.00  0.00     0.293 HD
ENDBRANCH  17  20
BRANCH  15  22
ATOM     22  O   UNL     1       2.796  27.805   7.496  1.00  0.00    -0.508 OA
ATOM     23  H   UNL     1       3.072  28.166   8.401  1.00  0.00     0.293 HD
ENDBRANCH  15  22
TORSDOF 3
ENDMDL
MODEL 2
REMARK VINA RESULT:    -4.776      8.060     10.258
REMARK INTER + INTRA:          -5.194
REMARK INTER:                  -5.194
REMARK INTRA:                   0.000
REMARK UNBOUND:                 0.000
REMARK SMILES Cc1cc(O)c2c(c1)C(=O)c1cc(O)cc(O)c1C2=O
REMARK SMILES IDX 1 1 2 2 8 3 7 4 6 5 4 6 3 7 19 8 20 9 18 10 11 11 9 12 10 13
REMARK SMILES IDX 12 14 13 15 15 16 16 17 5 18 17 20 14 22
REMARK H PARENT 5 19 17 21 14 23
REMARK Flexibility Score: inf
ROOT
ATOM      1  C   UNL     1       5.232  35.763   3.556  1.00  0.00     0.044 C 
ATOM      2  C   UNL     1       6.142  34.605   3.839  1.00  0.00    -0.047 A 
ATOM      3  C   UNL     1       7.427  34.826   4.348  1.00  0.00     0.016 A 
ATOM      4  C   UNL     1       8.275  33.746   4.649  1.00  0.00     0.038 A 
ATOM      5  C   UNL     1       7.823  32.424   4.455  1.00  0.00     0.076 A 
ATOM      6  C   UNL     1       6.520  32.204   3.953  1.00  0.00     0.127 A 
ATOM      7  C   UNL     1       5.690  33.294   3.657  1.00  0.00     0.050 A 
ATOM      8  C   UNL     1       8.720  31.293   4.815  1.00  0.00     0.201 C 
ATOM      9  O   UNL     1       8.228  30.147   4.993  1.00  0.00    -0.288 OA
ATOM     10  C   UNL     1      10.165  31.537   5.076  1.00  0.00     0.076 A 
ATOM     11  C   UNL     1      10.589  32.863   5.329  1.00  0.00     0.041 A 
ATOM     12  C   UNL     1       9.639  33.991   5.171  1.00  0.00     0.194 C 
ATOM     13  O   UNL     1       9.998  35.164   5.466  1.00  0.00    -0.289 OA
ATOM     14  C   UNL     1      11.915  33.112   5.722  1.00  0.00     0.059 A 
ATOM     15  C   UNL     1      12.827  32.061   5.849  1.00  0.00     0.120 A 
ATOM     16  C   UNL     1      12.428  30.760   5.554  1.00  0.00     0.093 A 
ATOM     17  C   UNL     1      11.122  30.486   5.135  1.00  0.00     0.131 A 
ENDROOT
BRANCH   6  18
ATOM     18  O   UNL     1       6.049  30.908   3.739  1.00  0.00    -0.507 OA
ATOM     19  H   UNL     1       6.219  30.416   2.869  1.00  0.00     0.293 HD
ENDBRANCH   6  18
BRANCH  17  20
ATOM     20  O   UNL     1      10.836  29.173   4.755  1.00  0.00    -0.507 OA
ATOM     21  H   UNL     1       9.983  28.897   4.291  1.00  0.00     0.293 HD
ENDBRANCH  17  20
BRANCH  15  22
ATOM     22  O   UNL     1      14.138  32.304   6.255  1.00  0.00    -0.508 OA
ATOM     23  H   UNL     1      14.480  31.996   7.156  1.00  0.00     0.293 HD
ENDBRANCH  15  22
TORSDOF 3
ENDMDL
MODEL 3
REMARK VINA RESULT:    -4.752      8.387      8.975
REMARK INTER + INTRA:          -5.169
REMARK INTER:                  -5.169
REMARK INTRA:                   0.000
REMARK UNBOUND:                 0.000
REMARK SMILES Cc1cc(O)c2c(c1)C(=O)c1cc(O)cc(O)c1C2=O
REMARK SMILES IDX 1 1 2 2 8 3 7 4 6 5 4 6 3 7 19 8 20 9 18 10 11 11 9 12 10 13
REMARK SMILES IDX 12 14 13 15 15 16 16 17 5 18 17 20 14 22
REMARK H PARENT 5 19 17 21 14 23
REMARK Flexibility Score: inf
ROOT
ATOM      1  C   UNL     1      13.361  27.763   4.671  1.00  0.00     0.044 C 
ATOM      2  C   UNL     1      12.260  28.778   4.768  1.00  0.00    -0.047 A 
ATOM      3  C   UNL     1      12.560  30.145   4.773  1.00  0.00     0.016 A 
ATOM      4  C   UNL     1      11.534  31.104   4.829  1.00  0.00     0.038 A 
ATOM      5  C   UNL     1      10.186  30.689   4.861  1.00  0.00     0.076 A 
ATOM      6  C   UNL     1       9.887  29.308   4.843  1.00  0.00     0.127 A 
ATOM      7  C   UNL     1      10.924  28.367   4.790  1.00  0.00     0.050 A 
ATOM      8  C   UNL     1       9.113  31.718   4.882  1.00  0.00     0.201 C 
ATOM      9  O   UNL     1       7.941  31.396   4.551  1.00  0.00    -0.288 OA
ATOM     10  C   UNL     1       9.443  33.140   5.176  1.00  0.00     0.076 A 
ATOM     11  C   UNL     1      10.793  33.551   5.078  1.00  0.00     0.041 A 
ATOM     12  C   UNL     1      11.862  32.548   4.850  1.00  0.00     0.194 C 
ATOM     13  O   UNL     1      13.056  32.924   4.692  1.00  0.00    -0.289 OA
ATOM     14  C   UNL     1      11.123  34.911   5.205  1.00  0.00     0.059 A 
ATOM     15  C   UNL     1      10.128  35.863   5.446  1.00  0.00     0.120 A 
ATOM     16  C   UNL     1       8.805  35.458   5.592  1.00  0.00     0.093 A 
ATOM     17  C   UNL     1       8.451  34.108   5.497  1.00  0.00     0.131 A 
ENDROOT
BRANCH   6  18
ATOM     18  O   UNL     1       8.564  28.866   4.887  1.00  0.00    -0.507 OA
ATOM     19  H   UNL     1       8.142  28.370   4.110  1.00  0.00     0.293 HD
ENDBRANCH   6  18
BRANCH  17  20
ATOM     20  O   UNL     1       7.121  33.776   5.763  1.00  0.00    -0.507 OA
ATOM     21  H   UNL     1       6.372  34.451   5.805  1.00  0.00     0.293 HD
ENDBRANCH  17  20
BRANCH  15  22
ATOM     22  O   UNL     1      10.451  37.214   5.556  1.00  0.00    -0.508 OA
ATOM     23  H   UNL     1      10.900  37.587   6.384  1.00  0.00     0.293 HD
ENDBRANCH  15  22
TORSDOF 3
ENDMDL
MODEL 4
REMARK VINA RESULT:    -4.742     12.605     13.832
REMARK INTER + INTRA:          -5.158
REMARK INTER:                  -5.158
REMARK INTRA:                   0.000
REMARK UNBOUND:                 0.000
REMARK SMILES Cc1cc(O)c2c(c1)C(=O)c1cc(O)cc(O)c1C2=O
REMARK SMILES IDX 1 1 2 2 8 3 7 4 6 5 4 6 3 7 19 8 20 9 18 10 11 11 9 12 10 13
REMARK SMILES IDX 12 14 13 15 15 16 16 17 5 18 17 20 14 22
REMARK H PARENT 5 19 17 21 14 23
REMARK Flexibility Score: inf
ROOT
ATOM      1  C   UNL     1       8.976  33.923   4.693  1.00  0.00     0.044 C 
ATOM      2  C   UNL     1      10.370  34.420   4.937  1.00  0.00    -0.047 A 
ATOM      3  C   UNL     1      11.421  33.514   5.119  1.00  0.00     0.016 A 
ATOM      4  C   UNL     1      12.736  33.969   5.313  1.00  0.00     0.038 A 
ATOM      5  C   UNL     1      13.008  35.354   5.307  1.00  0.00     0.076 A 
ATOM      6  C   UNL     1      11.946  36.266   5.110  1.00  0.00     0.127 A 
ATOM      7  C   UNL     1      10.641  35.793   4.920  1.00  0.00     0.050 A 
ATOM      8  C   UNL     1      14.411  35.817   5.476  1.00  0.00     0.201 C 
ATOM      9  O   UNL     1      14.724  36.984   5.120  1.00  0.00    -0.288 OA
ATOM     10  C   UNL     1      15.459  34.873   5.952  1.00  0.00     0.076 A 
ATOM     11  C   UNL     1      15.191  33.485   5.892  1.00  0.00     0.041 A 
ATOM     12  C   UNL     1      13.839  33.003   5.521  1.00  0.00     0.194 C 
ATOM     13  O   UNL     1      13.621  31.766   5.400  1.00  0.00    -0.289 OA
ATOM     14  C   UNL     1      16.206  32.561   6.194  1.00  0.00     0.059 A 
ATOM     15  C   UNL     1      17.478  33.002   6.570  1.00  0.00     0.120 A 
ATOM     16  C   UNL     1      17.733  34.367   6.678  1.00  0.00     0.093 A 
ATOM     17  C   UNL     1      16.734  35.308   6.409  1.00  0.00     0.131 A 
ENDROOT
BRANCH   6  18
ATOM     18  O   UNL     1      12.181  37.642   5.111  1.00  0.00    -0.507 OA
ATOM     19  H   UNL     1      12.320  38.159   5.972  1.00  0.00     0.293 HD
ENDBRANCH   6  18
BRANCH  17  20
ATOM     20  O   UNL     1      17.040  36.650   6.645  1.00  0.00    -0.507 OA
ATOM     21  H   UNL     1      16.349  37.353   6.860  1.00  0.00     0.293 HD
ENDBRANCH  17  20
BRANCH  15  22
ATOM     22  O   UNL     1      18.491  32.088   6.854  1.00  0.00    -0.508 OA
ATOM     23  H   UNL     1      18.704  31.321   6.229  1.00  0.00     0.293 HD
ENDBRANCH  15  22
TORSDOF 3
ENDMDL
MODEL 5
REMARK VINA RESULT:    -4.725      7.504     10.071
REMARK INTER + INTRA:          -5.139
REMARK INTER:                  -5.139
REMARK INTRA:                   0.000
REMARK UNBOUND:                 0.000
REMARK SMILES Cc1cc(O)c2c(c1)C(=O)c1cc(O)cc(O)c1C2=O
REMARK SMILES IDX 1 1 2 2 8 3 7 4 6 5 4 6 3 7 19 8 20 9 18 10 11 11 9 12 10 13
REMARK SMILES IDX 12 14 13 15 15 16 16 17 5 18 17 20 14 22
REMARK H PARENT 5 19 17 21 14 23
REMARK Flexibility Score: inf
ROOT
ATOM      1  C   UNL     1       4.998  36.312   3.100  1.00  0.00     0.044 C 
ATOM      2  C   UNL     1       6.100  35.452   3.643  1.00  0.00    -0.047 A 
ATOM      3  C   UNL     1       6.047  34.061   3.494  1.00  0.00     0.016 A 
ATOM      4  C   UNL     1       7.091  33.249   3.970  1.00  0.00     0.038 A 
ATOM      5  C   UNL     1       8.215  33.839   4.587  1.00  0.00     0.076 A 
ATOM      6  C   UNL     1       8.270  35.245   4.724  1.00  0.00     0.127 A 
ATOM      7  C   UNL     1       7.218  36.038   4.246  1.00  0.00     0.050 A 
ATOM      8  C   UNL     1       9.327  32.968   5.049  1.00  0.00     0.201 C 
ATOM      9  O   UNL     1      10.461  33.473   5.261  1.00  0.00    -0.288 OA
ATOM     10  C   UNL     1       9.134  31.494   5.148  1.00  0.00     0.076 A 
ATOM     11  C   UNL     1       8.036  30.914   4.470  1.00  0.00     0.041 A 
ATOM     12  C   UNL     1       7.019  31.777   3.822  1.00  0.00     0.194 C 
ATOM     13  O   UNL     1       6.081  31.257   3.158  1.00  0.00    -0.289 OA
ATOM     14  C   UNL     1       7.904  29.515   4.418  1.00  0.00     0.059 A 
ATOM     15  C   UNL     1       8.841  28.691   5.047  1.00  0.00     0.120 A 
ATOM     16  C   UNL     1       9.896  29.258   5.756  1.00  0.00     0.093 A 
ATOM     17  C   UNL     1      10.037  30.647   5.846  1.00  0.00     0.131 A 
ENDROOT
BRANCH   6  18
ATOM     18  O   UNL     1       9.362  35.857   5.341  1.00  0.00    -0.507 OA
ATOM     19  H   UNL     1      10.280  35.868   4.911  1.00  0.00     0.293 HD
ENDBRANCH   6  18
BRANCH  17  20
ATOM     20  O   UNL     1      11.058  31.133   6.665  1.00  0.00    -0.507 OA
ATOM     21  H   UNL     1      11.763  30.547   7.091  1.00  0.00     0.293 HD
ENDBRANCH  17  20
BRANCH  15  22
ATOM     22  O   UNL     1       8.721  27.304   4.983  1.00  0.00    -0.508 OA
ATOM     23  H   UNL     1       8.341  26.768   5.754  1.00  0.00     0.293 HD
ENDBRANCH  15  22
TORSDOF 3
ENDMDL
MODEL 6
REMARK VINA RESULT:    -4.713      8.403     10.313
REMARK INTER + INTRA:          -5.126
REMARK INTER:                  -5.126
REMARK INTRA:                   0.000
REMARK UNBOUND:                 0.000
REMARK SMILES Cc1cc(O)c2c(c1)C(=O)c1cc(O)cc(O)c1C2=O
REMARK SMILES IDX 1 1 2 2 8 3 7 4 6 5 4 6 3 7 19 8 20 9 18 10 11 11 9 12 10 13
REMARK SMILES IDX 12 14 13 15 15 16 16 17 5 18 17 20 14 22
REMARK H PARENT 5 19 17 21 14 23
REMARK Flexibility Score: inf
ROOT
ATOM      1  C   UNL     1      11.339  37.645   5.591  1.00  0.00     0.044 C 
ATOM      2  C   UNL     1      10.407  36.501   5.322  1.00  0.00    -0.047 A 
ATOM      3  C   UNL     1      10.844  35.182   5.484  1.00  0.00     0.016 A 
ATOM      4  C   UNL     1       9.968  34.104   5.268  1.00  0.00     0.038 A 
ATOM      5  C   UNL     1       8.627  34.351   4.903  1.00  0.00     0.076 A 
ATOM      6  C   UNL     1       8.186  35.685   4.753  1.00  0.00     0.127 A 
ATOM      7  C   UNL     1       9.075  36.746   4.970  1.00  0.00     0.050 A 
ATOM      8  C   UNL     1       7.705  33.200   4.716  1.00  0.00     0.201 C 
ATOM      9  O   UNL     1       6.460  33.393   4.750  1.00  0.00    -0.288 OA
ATOM     10  C   UNL     1       8.245  31.816   4.608  1.00  0.00     0.076 A 
ATOM     11  C   UNL     1       9.571  31.577   5.038  1.00  0.00     0.041 A 
ATOM     12  C   UNL     1      10.444  32.711   5.426  1.00  0.00     0.194 C 
ATOM     13  O   UNL     1      11.602  32.490   5.877  1.00  0.00    -0.289 OA
ATOM     14  C   UNL     1      10.066  30.262   5.087  1.00  0.00     0.059 A 
ATOM     15  C   UNL     1       9.262  29.187   4.699  1.00  0.00     0.120 A 
ATOM     16  C   UNL     1       7.972  29.422   4.229  1.00  0.00     0.093 A 
ATOM     17  C   UNL     1       7.464  30.722   4.144  1.00  0.00     0.131 A 
ENDROOT
BRANCH   6  18
ATOM     18  O   UNL     1       6.870  35.962   4.381  1.00  0.00    -0.507 OA
ATOM     19  H   UNL     1       6.296  35.276   3.902  1.00  0.00     0.293 HD
ENDBRANCH   6  18
BRANCH  17  20
ATOM     20  O   UNL     1       6.204  30.878   3.561  1.00  0.00    -0.507 OA
ATOM     21  H   UNL     1       5.634  31.704   3.672  1.00  0.00     0.293 HD
ENDBRANCH  17  20
BRANCH  15  22
ATOM     22  O   UNL     1       9.744  27.881   4.762  1.00  0.00    -0.508 OA
ATOM     23  H   UNL     1       9.199  27.097   4.425  1.00  0.00     0.293 HD
ENDBRANCH  15  22
TORSDOF 3
ENDMDL
MODEL 7
REMARK VINA RESULT:    -4.695      9.006     10.085
REMARK INTER + INTRA:          -5.107
REMARK INTER:                  -5.107
REMARK INTRA:                   0.000
REMARK UNBOUND:                 0.000
REMARK SMILES Cc1cc(O)c2c(c1)C(=O)c1cc(O)cc(O)c1C2=O
REMARK SMILES IDX 1 1 2 2 8 3 7 4 6 5 4 6 3 7 19 8 20 9 18 10 11 11 9 12 10 13
REMARK SMILES IDX 12 14 13 15 15 16 16 17 5 18 17 20 14 22
REMARK H PARENT 5 19 17 21 14 23
REMARK Flexibility Score: inf
ROOT
ATOM      1  C   UNL     1      13.947  32.630   5.976  1.00  0.00     0.044 C 
ATOM      2  C   UNL     1      12.475  32.652   5.686  1.00  0.00    -0.047 A 
ATOM      3  C   UNL     1      11.910  33.728   4.992  1.00  0.00     0.016 A 
ATOM      4  C   UNL     1      10.538  33.742   4.685  1.00  0.00     0.038 A 
ATOM      5  C   UNL     1       9.723  32.653   5.062  1.00  0.00     0.076 A 
ATOM      6  C   UNL     1      10.301  31.563   5.751  1.00  0.00     0.127 A 
ATOM      7  C   UNL     1      11.670  31.568   6.050  1.00  0.00     0.050 A 
ATOM      8  C   UNL     1       8.282  32.668   4.695  1.00  0.00     0.201 C 
ATOM      9  O   UNL     1       7.634  31.587   4.692  1.00  0.00    -0.288 OA
ATOM     10  C   UNL     1       7.642  33.926   4.222  1.00  0.00     0.076 A 
ATOM     11  C   UNL     1       8.476  34.984   3.790  1.00  0.00     0.041 A 
ATOM     12  C   UNL     1       9.945  34.892   3.965  1.00  0.00     0.194 C 
ATOM     13  O   UNL     1      10.692  35.805   3.515  1.00  0.00    -0.289 OA
ATOM     14  C   UNL     1       7.909  36.128   3.202  1.00  0.00     0.059 A 
ATOM     15  C   UNL     1       6.524  36.238   3.055  1.00  0.00     0.120 A 
ATOM     16  C   UNL     1       5.696  35.221   3.523  1.00  0.00     0.093 A 
ATOM     17  C   UNL     1       6.231  34.084   4.136  1.00  0.00     0.131 A 
ENDROOT
BRANCH   6  18
ATOM     18  O   UNL     1       9.519  30.477   6.147  1.00  0.00    -0.507 OA
ATOM     19  H   UNL     1       8.623  30.279   5.716  1.00  0.00     0.293 HD
ENDBRANCH   6  18
BRANCH  17  20
ATOM     20  O   UNL     1       5.328  33.163   4.673  1.00  0.00    -0.507 OA
ATOM     21  H   UNL     1       4.977  32.362   4.168  1.00  0.00     0.293 HD
ENDBRANCH  17  20
BRANCH  15  22
ATOM     22  O   UNL     1       5.961  37.364   2.458  1.00  0.00    -0.508 OA
ATOM     23  H   UNL     1       6.351  37.769   1.616  1.00  0.00     0.293 HD
ENDBRANCH  15  22
TORSDOF 3
ENDMDL
MODEL 8
REMARK VINA RESULT:    -4.669      3.340      6.003
REMARK INTER + INTRA:          -5.079
REMARK INTER:                  -5.079
REMARK INTRA:                   0.000
REMARK UNBOUND:                 0.000
REMARK SMILES Cc1cc(O)c2c(c1)C(=O)c1cc(O)cc(O)c1C2=O
REMARK SMILES IDX 1 1 2 2 8 3 7 4 6 5 4 6 3 7 19 8 20 9 18 10 11 11 9 12 10 13
REMARK SMILES IDX 12 14 13 15 15 16 16 17 5 18 17 20 14 22
REMARK H PARENT 5 19 17 21 14 23
REMARK Flexibility Score: inf
ROOT
ATOM      1  C   UNL     1       7.970  31.198   1.659  1.00  0.00     0.044 C 
ATOM      2  C   UNL     1       7.024  30.347   2.453  1.00  0.00    -0.047 A 
ATOM      3  C   UNL     1       7.497  29.576   3.521  1.00  0.00     0.016 A 
ATOM      4  C   UNL     1       6.613  28.802   4.293  1.00  0.00     0.038 A 
ATOM      5  C   UNL     1       5.232  28.815   4.004  1.00  0.00     0.076 A 
ATOM      6  C   UNL     1       4.757  29.605   2.933  1.00  0.00     0.127 A 
ATOM      7  C   UNL     1       5.653  30.368   2.173  1.00  0.00     0.050 A 
ATOM      8  C   UNL     1       4.307  28.020   4.855  1.00  0.00     0.201 C 
ATOM      9  O   UNL     1       3.077  28.292   4.852  1.00  0.00    -0.288 OA
ATOM     10  C   UNL     1       4.845  26.992   5.789  1.00  0.00     0.076 A 
ATOM     11  C   UNL     1       6.221  27.035   6.115  1.00  0.00     0.041 A 
ATOM     12  C   UNL     1       7.125  27.976   5.411  1.00  0.00     0.194 C 
ATOM     13  O   UNL     1       8.336  28.061   5.752  1.00  0.00    -0.289 OA
ATOM     14  C   UNL     1       6.734  26.175   7.102  1.00  0.00     0.059 A 
ATOM     15  C   UNL     1       5.899  25.265   7.754  1.00  0.00     0.120 A 
ATOM     16  C   UNL     1       4.554  25.186   7.403  1.00  0.00     0.093 A 
ATOM     17  C   UNL     1       4.022  26.010   6.406  1.00  0.00     0.131 A 
ENDROOT
BRANCH   6  18
ATOM     18  O   UNL     1       3.398  29.630   2.615  1.00  0.00    -0.507 OA
ATOM     19  H   UNL     1       3.072  29.888   1.690  1.00  0.00     0.293 HD
ENDBRANCH   6  18
BRANCH  17  20
ATOM     20  O   UNL     1       2.692  25.792   6.040  1.00  0.00    -0.507 OA
ATOM     21  H   UNL     1       1.990  26.518   6.019  1.00  0.00     0.293 HD
ENDBRANCH  17  20
BRANCH  15  22
ATOM     22  O   UNL     1       6.402  24.423   8.744  1.00  0.00    -0.508 OA
ATOM     23  H   UNL     1       6.586  24.758   9.682  1.00  0.00     0.293 HD
ENDBRANCH  15  22
TORSDOF 3
ENDMDL
MODEL 9
REMARK VINA RESULT:    -4.657      1.375      3.649
REMARK INTER + INTRA:          -5.065
REMARK INTER:                  -5.065
REMARK INTRA:                   0.000
REMARK UNBOUND:                 0.000
REMARK SMILES Cc1cc(O)c2c(c1)C(=O)c1cc(O)cc(O)c1C2=O
REMARK SMILES IDX 1 1 2 2 8 3 7 4 6 5 4 6 3 7 19 8 20 9 18 10 11 11 9 12 10 13
REMARK SMILES IDX 12 14 13 15 15 16 16 17 5 18 17 20 14 22
REMARK H PARENT 5 19 17 21 14 23
REMARK Flexibility Score: inf
ROOT
ATOM      1  C   UNL     1       8.844  21.904   5.017  1.00  0.00     0.044 C 
ATOM      2  C   UNL     1       7.794  22.902   5.407  1.00  0.00    -0.047 A 
ATOM      3  C   UNL     1       7.104  23.621   4.424  1.00  0.00     0.016 A 
ATOM      4  C   UNL     1       6.095  24.532   4.778  1.00  0.00     0.038 A 
ATOM      5  C   UNL     1       5.757  24.713   6.136  1.00  0.00     0.076 A 
ATOM      6  C   UNL     1       6.446  23.976   7.125  1.00  0.00     0.127 A 
ATOM      7  C   UNL     1       7.452  23.073   6.753  1.00  0.00     0.050 A 
ATOM      8  C   UNL     1       4.660  25.654   6.489  1.00  0.00     0.201 C 
ATOM      9  O   UNL     1       4.108  25.564   7.618  1.00  0.00    -0.288 OA
ATOM     10  C   UNL     1       4.140  26.614   5.476  1.00  0.00     0.076 A 
ATOM     11  C   UNL     1       4.439  26.379   4.113  1.00  0.00     0.041 A 
ATOM     12  C   UNL     1       5.382  25.301   3.732  1.00  0.00     0.194 C 
ATOM     13  O   UNL     1       5.591  25.048   2.513  1.00  0.00    -0.289 OA
ATOM     14  C   UNL     1       3.847  27.178   3.119  1.00  0.00     0.059 A 
ATOM     15  C   UNL     1       2.977  28.215   3.466  1.00  0.00     0.120 A 
ATOM     16  C   UNL     1       2.718  28.480   4.808  1.00  0.00     0.093 A 
ATOM     17  C   UNL     1       3.314  27.719   5.819  1.00  0.00     0.131 A 
ENDROOT
BRANCH   6  18
ATOM     18  O   UNL     1       6.143  24.142   8.477  1.00  0.00    -0.507 OA
ATOM     19  H   UNL     1       6.130  25.058   8.912  1.00  0.00     0.293 HD
ENDBRANCH   6  18
BRANCH  17  20
ATOM     20  O   UNL     1       3.087  28.119   7.138  1.00  0.00    -0.507 OA
ATOM     21  H   UNL     1       3.479  27.651   7.942  1.00  0.00     0.293 HD
ENDBRANCH  17  20
BRANCH  15  22
ATOM     22  O   UNL     1       2.376  28.997   2.482  1.00  0.00    -0.508 OA
ATOM     23  H   UNL     1       1.701  28.609   1.834  1.00  0.00     0.293 HD
ENDBRANCH  15  22
TORSDOF 3
ENDMDL
