MODEL 1
REMARK VINA RESULT:    15.507      0.000      0.000
REMARK INTER + INTRA:          19.398
REMARK INTER:                  19.133
REMARK INTRA:                   0.264
REMARK UNBOUND:                 0.264
REMARK SMILES C=CCc1ccc(OC)c(OC)c1
REMARK SMILES IDX 7 1 10 2 13 3 4 4 5 5 6 6 8 7 9 8 11 9 12 10 3 11 2 12 1 13
REMARK H PARENT
REMARK Flexibility Score: inf
ROOT
ATOM      1  C   UNL     1      33.997   9.440  18.734  1.00  0.00     0.160 A 
ATOM      2  C   UNL     1      34.028   8.132  19.242  1.00  0.00     0.160 A 
ATOM      3  C   UNL     1      33.667   7.054  18.410  1.00  0.00     0.054 A 
ATOM      4  C   UNL     1      33.286   7.276  17.078  1.00  0.00    -0.040 A 
ATOM      5  C   UNL     1      33.248   8.585  16.582  1.00  0.00     0.008 A 
ATOM      6  C   UNL     1      33.603   9.659  17.400  1.00  0.00     0.051 A 
ENDROOT
BRANCH   1   7
ATOM      7  O   UNL     1      34.362  10.496  19.585  1.00  0.00    -0.493 OA
ATOM      8  C   UNL     1      35.675  11.039  19.681  1.00  0.00     0.278 C 
ENDBRANCH   1   7
BRANCH   2   9
ATOM      9  O   UNL     1      34.419   7.944  20.577  1.00  0.00    -0.493 OA
ATOM     10  C   UNL     1      33.859   8.639  21.687  1.00  0.00     0.278 C 
ENDBRANCH   2   9
BRANCH   4  11
ATOM     11  C   UNL     1      32.875   6.119  16.206  1.00  0.00     0.062 C 
BRANCH  11  12
ATOM     12  C   UNL     1      33.776   4.936  16.430  1.00  0.00    -0.030 C 
ATOM     13  C   UNL     1      33.644   3.809  15.726  1.00  0.00     0.004 C 
ENDBRANCH  11  12
ENDBRANCH   4  11
TORSDOF 4
ENDMDL
MODEL 2
REMARK VINA RESULT:    17.802      1.872      5.175
REMARK INTER + INTRA:          22.229
REMARK INTER:                  22.483
REMARK INTRA:                  -0.255
REMARK UNBOUND:                 0.264
REMARK SMILES C=CCc1ccc(OC)c(OC)c1
REMARK SMILES IDX 7 1 10 2 13 3 4 4 5 5 6 6 8 7 9 8 11 9 12 10 3 11 2 12 1 13
REMARK H PARENT
REMARK Flexibility Score: inf
ROOT
ATOM      1  C   UNL     1      33.621   7.498  17.890  1.00  0.00     0.160 A 
ATOM      2  C   UNL     1      33.547   8.884  18.098  1.00  0.00     0.160 A 
ATOM      3  C   UNL     1      33.802   9.410  19.380  1.00  0.00     0.054 A 
ATOM      4  C   UNL     1      34.136   8.561  20.446  1.00  0.00    -0.040 A 
ATOM      5  C   UNL     1      34.197   7.178  20.232  1.00  0.00     0.008 A 
ATOM      6  C   UNL     1      33.945   6.649  18.965  1.00  0.00     0.051 A 
ENDROOT
BRANCH   1   7
ATOM      7  O   UNL     1      33.362   7.001  16.602  1.00  0.00    -0.493 OA
ATOM      8  C   UNL     1      32.901   5.683  16.322  1.00  0.00     0.278 C 
ENDBRANCH   1   7
BRANCH   2   9
ATOM      9  O   UNL     1      33.215   9.705  17.009  1.00  0.00    -0.493 OA
ATOM     10  C   UNL     1      33.319  11.125  17.007  1.00  0.00     0.278 C 
ENDBRANCH   2   9
BRANCH   4  11
ATOM     11  C   UNL     1      34.379   9.131  21.819  1.00  0.00     0.062 C 
BRANCH  11  12
ATOM     12  C   UNL     1      33.451   8.509  22.825  1.00  0.00    -0.030 C 
ATOM     13  C   UNL     1      33.905   7.754  23.828  1.00  0.00     0.004 C 
ENDBRANCH  11  12
ENDBRANCH   4  11
TORSDOF 4
ENDMDL
MODEL 3
REMARK VINA RESULT:    18.041      3.408      5.320
REMARK INTER + INTRA:          22.524
REMARK INTER:                  22.695
REMARK INTRA:                  -0.172
REMARK UNBOUND:                 0.264
REMARK SMILES C=CCc1ccc(OC)c(OC)c1
REMARK SMILES IDX 7 1 10 2 13 3 4 4 5 5 6 6 8 7 9 8 11 9 12 10 3 11 2 12 1 13
REMARK H PARENT
REMARK Flexibility Score: inf
ROOT
ATOM      1  C   UNL     1      33.751   8.244  23.813  1.00  0.00     0.160 A 
ATOM      2  C   UNL     1      34.715   7.498  23.116  1.00  0.00     0.160 A 
ATOM      3  C   UNL     1      34.796   7.605  21.713  1.00  0.00     0.054 A 
ATOM      4  C   UNL     1      33.928   8.454  21.010  1.00  0.00    -0.040 A 
ATOM      5  C   UNL     1      32.962   9.186  21.713  1.00  0.00     0.008 A 
ATOM      6  C   UNL     1      32.875   9.086  23.103  1.00  0.00     0.051 A 
ENDROOT
BRANCH   1   7
ATOM      7  O   UNL     1      33.694   8.118  25.211  1.00  0.00    -0.493 OA
ATOM      8  C   UNL     1      33.810   9.205  26.125  1.00  0.00     0.278 C 
ENDBRANCH   1   7
BRANCH   2   9
ATOM      9  O   UNL     1      35.570   6.662  23.849  1.00  0.00    -0.493 OA
ATOM     10  C   UNL     1      36.892   7.011  24.250  1.00  0.00     0.278 C 
ENDBRANCH   2   9
BRANCH   4  11
ATOM     11  C   UNL     1      34.004   8.539  19.509  1.00  0.00     0.062 C 
BRANCH  11  12
ATOM     12  C   UNL     1      34.294   9.947  19.069  1.00  0.00    -0.030 C 
ATOM     13  C   UNL     1      35.148  10.729  19.734  1.00  0.00     0.004 C 
ENDBRANCH  11  12
ENDBRANCH   4  11
TORSDOF 4
ENDMDL
MODEL 4
REMARK VINA RESULT:    18.145      1.239      2.545
REMARK INTER + INTRA:          22.652
REMARK INTER:                  22.614
REMARK INTRA:                   0.038
REMARK UNBOUND:                 0.264
REMARK SMILES C=CCc1ccc(OC)c(OC)c1
REMARK SMILES IDX 7 1 10 2 13 3 4 4 5 5 6 6 8 7 9 8 11 9 12 10 3 11 2 12 1 13
REMARK H PARENT
REMARK Flexibility Score: inf
ROOT
ATOM      1  C   UNL     1      34.099   8.081  19.370  1.00  0.00     0.160 A 
ATOM      2  C   UNL     1      33.583   8.826  18.298  1.00  0.00     0.160 A 
ATOM      3  C   UNL     1      33.182   8.163  17.121  1.00  0.00     0.054 A 
ATOM      4  C   UNL     1      33.287   6.768  17.015  1.00  0.00    -0.040 A 
ATOM      5  C   UNL     1      33.812   6.034  18.086  1.00  0.00     0.008 A 
ATOM      6  C   UNL     1      34.212   6.682  19.256  1.00  0.00     0.051 A 
ENDROOT
BRANCH   1   7
ATOM      7  O   UNL     1      34.490   8.767  20.532  1.00  0.00    -0.493 OA
ATOM      8  C   UNL     1      33.900   8.584  21.815  1.00  0.00     0.278 C 
ENDBRANCH   1   7
BRANCH   2   9
ATOM      9  O   UNL     1      33.487  10.219  18.438  1.00  0.00    -0.493 OA
ATOM     10  C   UNL     1      33.216  11.121  17.370  1.00  0.00     0.278 C 
ENDBRANCH   2   9
BRANCH   4  11
ATOM     11  C   UNL     1      32.882   6.073  15.742  1.00  0.00     0.062 C 
BRANCH  11  12
ATOM     12  C   UNL     1      33.485   4.698  15.670  1.00  0.00    -0.030 C 
ATOM     13  C   UNL     1      32.889   3.640  16.224  1.00  0.00     0.004 C 
ENDBRANCH  11  12
ENDBRANCH   4  11
TORSDOF 4
ENDMDL
