MODEL 1
REMARK VINA RESULT:    -2.841      0.000      0.000
REMARK INTER + INTRA:          -3.030
REMARK INTER:                  -3.007
REMARK INTRA:                  -0.022
REMARK UNBOUND:                -0.022
REMARK SMILES O=C([O-])c1cccnc1
REMARK SMILES IDX 4 1 5 2 9 3 6 4 8 5 7 6 2 7 1 8 3 9
REMARK H PARENT
REMARK Flexibility Score: inf
ROOT
ATOM      1  C   UNL     1     138.017 127.730 130.281  1.00  0.00     0.016 A 
ATOM      2  C   UNL     1     138.236 127.761 131.669  1.00  0.00     0.013 A 
ATOM      3  C   UNL     1     139.099 128.008 129.429  1.00  0.00     0.120 A 
ATOM      4  C   UNL     1     139.503 128.061 132.173  1.00  0.00     0.021 A 
ATOM      5  N   UNL     1     140.323 128.299 129.945  1.00  0.00    -0.264 NA
ATOM      6  C   UNL     1     140.545 128.331 131.285  1.00  0.00     0.111 A 
ENDROOT
BRANCH   1   7
ATOM      7  C   UNL     1     136.683 127.413 129.728  1.00  0.00     0.073 C 
ATOM      8  O   UNL     1     136.562 127.003 128.542  1.00  0.00    -0.545 OA
ATOM      9  O   UNL     1     135.543 127.561 130.509  1.00  0.00    -0.545 OA
ENDBRANCH   1   7
TORSDOF 1
ENDMDL
MODEL 2
REMARK VINA RESULT:    -2.669      2.656      3.706
REMARK INTER + INTRA:          -2.847
REMARK INTER:                  -2.823
REMARK INTRA:                  -0.024
REMARK UNBOUND:                -0.022
REMARK SMILES O=C([O-])c1cccnc1
REMARK SMILES IDX 4 1 5 2 9 3 6 4 8 5 7 6 2 7 1 8 3 9
REMARK H PARENT
REMARK Flexibility Score: inf
ROOT
ATOM      1  C   UNL     1     138.342 127.837 130.517  1.00  0.00     0.016 A 
ATOM      2  C   UNL     1     137.207 127.589 131.307  1.00  0.00     0.013 A 
ATOM      3  C   UNL     1     138.228 127.699 129.123  1.00  0.00     0.120 A 
ATOM      4  C   UNL     1     136.003 127.215 130.707  1.00  0.00     0.021 A 
ATOM      5  N   UNL     1     137.044 127.332 128.564  1.00  0.00    -0.264 NA
ATOM      6  C   UNL     1     135.941 127.091 129.319  1.00  0.00     0.111 A 
ENDROOT
BRANCH   1   7
ATOM      7  C   UNL     1     139.626 128.235 131.133  1.00  0.00     0.073 C 
ATOM      8  O   UNL     1     139.700 128.463 132.370  1.00  0.00    -0.545 OA
ATOM      9  O   UNL     1     140.771 128.362 130.355  1.00  0.00    -0.545 OA
ENDBRANCH   1   7
TORSDOF 1
ENDMDL
MODEL 3
REMARK VINA RESULT:    -2.575      2.907      3.965
REMARK INTER + INTRA:          -2.748
REMARK INTER:                  -2.727
REMARK INTRA:                  -0.022
REMARK UNBOUND:                -0.022
REMARK SMILES O=C([O-])c1cccnc1
REMARK SMILES IDX 4 1 5 2 9 3 6 4 8 5 7 6 2 7 1 8 3 9
REMARK H PARENT
REMARK Flexibility Score: inf
ROOT
ATOM      1  C   UNL     1     139.040 127.907 130.424  1.00  0.00     0.016 A 
ATOM      2  C   UNL     1     138.375 127.455 129.271  1.00  0.00     0.013 A 
ATOM      3  C   UNL     1     138.297 128.053 131.608  1.00  0.00     0.120 A 
ATOM      4  C   UNL     1     137.010 127.163 129.317  1.00  0.00     0.021 A 
ATOM      5  N   UNL     1     136.968 127.762 131.626  1.00  0.00    -0.264 NA
ATOM      6  C   UNL     1     136.317 127.325 130.517  1.00  0.00     0.111 A 
ENDROOT
BRANCH   1   7
ATOM      7  C   UNL     1     140.484 128.220 130.396  1.00  0.00     0.073 C 
ATOM      8  O   UNL     1     141.189 128.085 131.432  1.00  0.00    -0.545 OA
ATOM      9  O   UNL     1     141.086 128.668 129.226  1.00  0.00    -0.545 OA
ENDBRANCH   1   7
TORSDOF 1
ENDMDL
