MODEL 1
REMARK VINA RESULT:    12.176      0.000      0.000
REMARK INTER + INTRA:          18.143
REMARK INTER:                  19.295
REMARK INTRA:                  -1.152
REMARK UNBOUND:                -1.152
REMARK SMILES C[C@H]1O[C@H](OC[C@@H]2O[C@H](Oc3c(-c4ccc(O)c(O)c4)oc4cc(O)cc(O)c4c3=O)[C@@H](O)[C@@H](O)[C@@H]2O)[C@H](O)[C@H](O)[C@H]1O
REMARK SMILES IDX 7 1 36 2 34 3 32 4 9 5 8 6 6 7 5 8 4 9 1 10 2 11 42 12 3 13
REMARK SMILES IDX 40 14 38 15 43 16 41 18 39 20 37 22 35 24 10 26 11 27 12 28
REMARK SMILES IDX 30 29 21 30 29 31 31 32 22 33 27 34 23 35 26 36 24 37 13 38
REMARK SMILES IDX 20 39 14 40 18 41 15 42 16 43 19 44 17 46 28 48 25 50 33 52
REMARK H PARENT 43 17 41 19 39 21 37 23 35 25 19 45 17 47 28 49 25 51 33 53
REMARK Flexibility Score: inf
ROOT
ATOM      1  C   UNL     1      75.610  39.878  26.793  1.00  0.00     0.180 C 
ATOM      2  C   UNL     1      77.116  39.401  26.237  1.00  0.00     0.177 C 
ATOM      3  C   UNL     1      77.259  40.084  24.814  1.00  0.00     0.180 C 
ATOM      4  C   UNL     1      76.011  39.466  24.109  1.00  0.00     0.214 C 
ATOM      5  C   UNL     1      74.806  40.265  24.559  1.00  0.00     0.339 C 
ATOM      6  O   UNL     1      74.463  39.762  25.881  1.00  0.00    -0.332 OA
ENDROOT
BRANCH   1   7
ATOM      7  C   UNL     1      75.138  39.600  28.217  1.00  0.00     0.198 C 
BRANCH   7   8
ATOM      8  O   UNL     1      75.522  40.550  29.173  1.00  0.00    -0.347 OA
BRANCH   8   9
ATOM      9  C   UNL     1      75.216  40.311  30.519  1.00  0.00     0.281 C 
ATOM     10  C   UNL     1      77.795  42.384  32.319  1.00  0.00     0.041 C 
ATOM     11  C   UNL     1      76.634  42.157  31.266  1.00  0.00     0.150 C 
ATOM     12  C   UNL     1      75.429  43.067  31.617  1.00  0.00     0.174 C 
ATOM     13  O   UNL     1      76.298  40.750  31.396  1.00  0.00    -0.344 OA
ATOM     14  C   UNL     1      74.124  42.651  30.849  1.00  0.00     0.179 C 
ATOM     15  C   UNL     1      73.915  41.104  31.026  1.00  0.00     0.202 C 
BRANCH  12  16
ATOM     16  O   UNL     1      75.143  43.123  32.967  1.00  0.00    -0.388 OA
ATOM     17  H   UNL     1      74.268  43.631  33.168  1.00  0.00     0.211 HD
ENDBRANCH  12  16
BRANCH  14  18
ATOM     18  O   UNL     1      74.037  43.125  29.509  1.00  0.00    -0.387 OA
ATOM     19  H   UNL     1      73.780  44.060  29.553  1.00  0.00     0.211 HD
ENDBRANCH  14  18
BRANCH  15  20
ATOM     20  O   UNL     1      72.707  40.753  30.453  1.00  0.00    -0.385 OA
ATOM     21  H   UNL     1      72.931  40.168  29.720  1.00  0.00     0.211 HD
ENDBRANCH  15  20
ENDBRANCH   8   9
ENDBRANCH   7   8
ENDBRANCH   1   7
BRANCH   2  22
ATOM     22  O   UNL     1      77.561  38.055  26.015  1.00  0.00    -0.387 OA
ATOM     23  H   UNL     1      78.204  37.553  26.728  1.00  0.00     0.211 HD
ENDBRANCH   2  22
BRANCH   3  24
ATOM     24  O   UNL     1      77.099  41.494  24.981  1.00  0.00    -0.387 OA
ATOM     25  H   UNL     1      76.070  41.584  25.036  1.00  0.00     0.211 HD
ENDBRANCH   3  24
BRANCH   5  26
ATOM     26  O   UNL     1      73.892  40.026  23.513  1.00  0.00    -0.454 OA
BRANCH  26  27
ATOM     27  C   UNL     1      73.701  41.021  22.426  1.00  0.00     0.214 A 
ATOM     28  C   UNL     1      72.982  41.598  21.326  1.00  0.00     0.180 A 
ATOM     29  C   UNL     1      72.720  40.067  22.837  1.00  0.00     0.239 A 
ATOM     30  O   UNL     1      71.802  41.054  20.725  1.00  0.00    -0.452 OA
ATOM     31  C   UNL     1      72.334  39.082  21.915  1.00  0.00     0.111 A 
ATOM     32  O   UNL     1      71.747  40.635  23.581  1.00  0.00    -0.285 OA
ATOM     33  C   UNL     1      71.478  39.757  21.042  1.00  0.00     0.146 A 
ATOM     34  C   UNL     1      73.072  38.202  21.036  1.00  0.00     0.134 A 
ATOM     35  C   UNL     1      70.497  38.947  20.461  1.00  0.00     0.094 A 
ATOM     36  C   UNL     1      72.224  37.271  20.349  1.00  0.00     0.093 A 
ATOM     37  C   UNL     1      70.821  37.618  20.441  1.00  0.00     0.123 A 
BRANCH  28  38
ATOM     38  C   UNL     1      73.562  42.915  20.836  1.00  0.00     0.025 A 
ATOM     39  C   UNL     1      74.706  43.125  21.524  1.00  0.00     0.062 A 
ATOM     40  C   UNL     1      73.756  43.064  19.413  1.00  0.00     0.016 A 
ATOM     41  C   UNL     1      75.818  42.339  21.112  1.00  0.00     0.158 A 
ATOM     42  C   UNL     1      74.801  42.270  18.875  1.00  0.00     0.051 A 
ATOM     43  C   UNL     1      75.796  41.825  19.767  1.00  0.00     0.157 A 
BRANCH  41  44
ATOM     44  O   UNL     1      76.837  42.048  22.011  1.00  0.00    -0.504 OA
ATOM     45  H   UNL     1      77.401  42.821  22.423  1.00  0.00     0.293 HD
ENDBRANCH  41  44
BRANCH  43  46
ATOM     46  O   UNL     1      76.647  40.844  19.338  1.00  0.00    -0.504 OA
ATOM     47  H   UNL     1      77.422  41.206  18.807  1.00  0.00     0.293 HD
ENDBRANCH  43  46
ENDBRANCH  28  38
BRANCH  34  48
ATOM     48  O   UNL     1      74.481  38.208  20.879  1.00  0.00    -0.507 OA
ATOM     49  H   UNL     1      74.881  39.113  20.553  1.00  0.00     0.293 HD
ENDBRANCH  34  48
BRANCH  37  50
ATOM     50  O   UNL     1      70.031  36.690  21.154  1.00  0.00    -0.508 OA
ATOM     51  H   UNL     1      69.405  37.032  21.866  1.00  0.00     0.293 HD
ENDBRANCH  37  50
ENDBRANCH  26  27
ENDBRANCH   5  26
BRANCH   4  52
ATOM     52  O   UNL     1      76.104  39.480  22.712  1.00  0.00    -0.384 OA
ATOM     53  H   UNL     1      75.690  38.613  22.436  1.00  0.00     0.211 HD
ENDBRANCH   4  52
TORSDOF 16
ENDMDL
MODEL 2
REMARK VINA RESULT:    12.901      1.837      2.992
REMARK INTER + INTRA:          19.290
REMARK INTER:                  20.237
REMARK INTRA:                  -0.947
REMARK UNBOUND:                -1.152
REMARK SMILES C[C@H]1O[C@H](OC[C@@H]2O[C@H](Oc3c(-c4ccc(O)c(O)c4)oc4cc(O)cc(O)c4c3=O)[C@@H](O)[C@@H](O)[C@@H]2O)[C@H](O)[C@H](O)[C@H]1O
REMARK SMILES IDX 7 1 36 2 34 3 32 4 9 5 8 6 6 7 5 8 4 9 1 10 2 11 42 12 3 13
REMARK SMILES IDX 40 14 38 15 43 16 41 18 39 20 37 22 35 24 10 26 11 27 12 28
REMARK SMILES IDX 30 29 21 30 29 31 31 32 22 33 27 34 23 35 26 36 24 37 13 38
REMARK SMILES IDX 20 39 14 40 18 41 15 42 16 43 19 44 17 46 28 48 25 50 33 52
REMARK H PARENT 43 17 41 19 39 21 37 23 35 25 19 45 17 47 28 49 25 51 33 53
REMARK Flexibility Score: inf
ROOT
ATOM      1  C   UNL     1      75.541  40.298  25.642  1.00  0.00     0.180 C 
ATOM      2  C   UNL     1      77.038  40.785  25.070  1.00  0.00     0.177 C 
ATOM      3  C   UNL     1      76.729  41.546  23.715  1.00  0.00     0.180 C 
ATOM      4  C   UNL     1      76.010  40.399  22.939  1.00  0.00     0.214 C 
ATOM      5  C   UNL     1      74.580  40.355  23.437  1.00  0.00     0.339 C 
ATOM      6  O   UNL     1      74.620  39.640  24.704  1.00  0.00    -0.332 OA
ENDROOT
BRANCH   1   7
ATOM      7  C   UNL     1      75.352  39.690  27.027  1.00  0.00     0.198 C 
BRANCH   7   8
ATOM      8  O   UNL     1      75.426  40.595  28.095  1.00  0.00    -0.347 OA
BRANCH   8   9
ATOM      9  C   UNL     1      75.445  40.091  29.403  1.00  0.00     0.281 C 
ATOM     10  C   UNL     1      78.431  41.830  30.900  1.00  0.00     0.041 C 
ATOM     11  C   UNL     1      77.047  41.787  30.132  1.00  0.00     0.150 C 
ATOM     12  C   UNL     1      75.985  42.585  30.932  1.00  0.00     0.174 C 
ATOM     13  O   UNL     1      76.716  40.375  30.064  1.00  0.00    -0.344 OA
ATOM     14  C   UNL     1      74.524  42.298  30.432  1.00  0.00     0.179 C 
ATOM     15  C   UNL     1      74.324  40.742  30.351  1.00  0.00     0.202 C 
BRANCH  12  16
ATOM     16  O   UNL     1      76.031  42.371  32.295  1.00  0.00    -0.388 OA
ATOM     17  H   UNL     1      75.170  41.937  32.660  1.00  0.00     0.211 HD
ENDBRANCH  12  16
BRANCH  14  18
ATOM     18  O   UNL     1      74.131  43.021  29.270  1.00  0.00    -0.387 OA
ATOM     19  H   UNL     1      73.252  42.697  29.017  1.00  0.00     0.211 HD
ENDBRANCH  14  18
BRANCH  15  20
ATOM     20  O   UNL     1      73.005  40.482  30.026  1.00  0.00    -0.385 OA
ATOM     21  H   UNL     1      72.600  40.153  30.835  1.00  0.00     0.211 HD
ENDBRANCH  15  20
ENDBRANCH   8   9
ENDBRANCH   7   8
ENDBRANCH   1   7
BRANCH   2  22
ATOM     22  O   UNL     1      78.147  39.935  24.739  1.00  0.00    -0.387 OA
ATOM     23  H   UNL     1      79.116  40.073  25.203  1.00  0.00     0.211 HD
ENDBRANCH   2  22
BRANCH   3  24
ATOM     24  O   UNL     1      75.821  42.611  24.002  1.00  0.00    -0.387 OA
ATOM     25  H   UNL     1      76.173  42.946  24.916  1.00  0.00     0.211 HD
ENDBRANCH   3  24
BRANCH   5  26
ATOM     26  O   UNL     1      73.916  39.735  22.359  1.00  0.00    -0.454 OA
BRANCH  26  27
ATOM     27  C   UNL     1      73.214  40.545  21.330  1.00  0.00     0.214 A 
ATOM     28  C   UNL     1      72.310  40.717  20.228  1.00  0.00     0.180 A 
ATOM     29  C   UNL     1      72.931  39.175  21.617  1.00  0.00     0.239 A 
ATOM     30  O   UNL     1      71.646  39.663  19.524  1.00  0.00    -0.452 OA
ATOM     31  C   UNL     1      73.176  38.227  20.612  1.00  0.00     0.111 A 
ATOM     32  O   UNL     1      71.798  39.036  22.337  1.00  0.00    -0.285 OA
ATOM     33  C   UNL     1      72.100  38.383  19.735  1.00  0.00     0.146 A 
ATOM     34  C   UNL     1      74.292  37.990  19.724  1.00  0.00     0.134 A 
ATOM     35  C   UNL     1      71.750  37.219  19.045  1.00  0.00     0.094 A 
ATOM     36  C   UNL     1      74.121  36.809  18.928  1.00  0.00     0.093 A 
ATOM     37  C   UNL     1      72.764  36.304  18.958  1.00  0.00     0.123 A 
BRANCH  28  38
ATOM     38  C   UNL     1      72.058  42.171  19.861  1.00  0.00     0.025 A 
ATOM     39  C   UNL     1      71.003  42.190  19.018  1.00  0.00     0.062 A 
ATOM     40  C   UNL     1      71.897  43.108  20.946  1.00  0.00     0.016 A 
ATOM     41  C   UNL     1      69.732  41.995  19.627  1.00  0.00     0.158 A 
ATOM     42  C   UNL     1      70.689  42.963  21.674  1.00  0.00     0.051 A 
ATOM     43  C   UNL     1      69.622  42.309  21.028  1.00  0.00     0.157 A 
BRANCH  41  44
ATOM     44  O   UNL     1      68.679  41.468  18.891  1.00  0.00    -0.504 OA
ATOM     45  H   UNL     1      68.335  41.970  18.045  1.00  0.00     0.293 HD
ENDBRANCH  41  44
BRANCH  43  46
ATOM     46  O   UNL     1      68.558  41.914  21.791  1.00  0.00    -0.504 OA
ATOM     47  H   UNL     1      68.664  42.155  22.762  1.00  0.00     0.293 HD
ENDBRANCH  43  46
ENDBRANCH  28  38
BRANCH  34  48
ATOM     48  O   UNL     1      75.457  38.794  19.652  1.00  0.00    -0.507 OA
ATOM     49  H   UNL     1      76.189  38.447  18.997  1.00  0.00     0.293 HD
ENDBRANCH  34  48
BRANCH  37  50
ATOM     50  O   UNL     1      72.621  35.035  19.561  1.00  0.00    -0.508 OA
ATOM     51  H   UNL     1      72.403  34.986  20.544  1.00  0.00     0.293 HD
ENDBRANCH  37  50
ENDBRANCH  26  27
ENDBRANCH   5  26
BRANCH   4  52
ATOM     52  O   UNL     1      76.031  40.576  21.549  1.00  0.00    -0.384 OA
ATOM     53  H   UNL     1      76.230  41.549  21.436  1.00  0.00     0.211 HD
ENDBRANCH   4  52
TORSDOF 16
ENDMDL
