MODEL 1
REMARK VINA RESULT:    -3.896      0.000      0.000
REMARK INTER + INTRA:          -5.037
REMARK INTER:                  -4.807
REMARK INTRA:                  -0.230
REMARK UNBOUND:                -0.230
REMARK SMILES CCCCCC(=O)[O-]
REMARK SMILES IDX 4 1 5 2 6 3 7 4 8 5 3 6 2 7 1 8
REMARK H PARENT
REMARK Flexibility Score: inf
ROOT
ATOM      1  C   UNL     1     -10.305 -18.782  31.103  1.00  0.00     0.006 C 
ENDROOT
BRANCH   1   2
ATOM      2  C   UNL     1     -10.470 -18.848  29.581  1.00  0.00     0.053 C 
BRANCH   2   3
ATOM      3  C   UNL     1     -11.766 -18.228  29.167  1.00  0.00     0.041 C 
ATOM      4  O   UNL     1     -11.783 -17.308  28.306  1.00  0.00    -0.550 OA
ATOM      5  O   UNL     1     -12.953 -18.630  29.766  1.00  0.00    -0.550 OA
ENDBRANCH   2   3
ENDBRANCH   1   2
BRANCH   1   6
ATOM      6  C   UNL     1      -9.469 -17.559  31.512  1.00  0.00     0.000 C 
BRANCH   6   7
ATOM      7  C   UNL     1     -10.334 -16.400  32.029  1.00  0.00    -0.003 C 
ATOM      8  C   UNL     1     -11.569 -16.877  32.793  1.00  0.00     0.004 C 
ENDBRANCH   6   7
ENDBRANCH   1   6
TORSDOF 4
ENDMDL
MODEL 2
REMARK VINA RESULT:    -3.891      2.446      3.526
REMARK INTER + INTRA:          -5.031
REMARK INTER:                  -4.778
REMARK INTRA:                  -0.253
REMARK UNBOUND:                -0.230
REMARK SMILES CCCCCC(=O)[O-]
REMARK SMILES IDX 4 1 5 2 6 3 7 4 8 5 3 6 2 7 1 8
REMARK H PARENT
REMARK Flexibility Score: inf
ROOT
ATOM      1  C   UNL     1     -10.600 -18.154  29.495  1.00  0.00     0.006 C 
ENDROOT
BRANCH   1   2
ATOM      2  C   UNL     1     -10.106 -18.869  30.757  1.00  0.00     0.053 C 
BRANCH   2   3
ATOM      3  C   UNL     1      -9.833 -17.882  31.847  1.00  0.00     0.041 C 
ATOM      4  O   UNL     1     -10.779 -17.423  32.539  1.00  0.00    -0.550 OA
ATOM      5  O   UNL     1      -8.538 -17.429  32.066  1.00  0.00    -0.550 OA
ENDBRANCH   2   3
ENDBRANCH   1   2
BRANCH   1   6
ATOM      6  C   UNL     1     -12.072 -18.490  29.215  1.00  0.00     0.000 C 
BRANCH   6   7
ATOM      7  C   UNL     1     -13.024 -17.355  29.621  1.00  0.00    -0.003 C 
ATOM      8  C   UNL     1     -12.359 -15.979  29.574  1.00  0.00     0.004 C 
ENDBRANCH   6   7
ENDBRANCH   1   6
TORSDOF 4
ENDMDL
MODEL 3
REMARK VINA RESULT:    -3.890      2.241      3.181
REMARK INTER + INTRA:          -5.030
REMARK INTER:                  -4.767
REMARK INTRA:                  -0.263
REMARK UNBOUND:                -0.230
REMARK SMILES CCCCCC(=O)[O-]
REMARK SMILES IDX 4 1 5 2 6 3 7 4 8 5 3 6 2 7 1 8
REMARK H PARENT
REMARK Flexibility Score: inf
ROOT
ATOM      1  C   UNL     1     -11.122 -18.527  29.229  1.00  0.00     0.006 C 
ENDROOT
BRANCH   1   2
ATOM      2  C   UNL     1     -10.067 -18.970  30.248  1.00  0.00     0.053 C 
BRANCH   2   3
ATOM      3  C   UNL     1     -10.474 -18.573  31.632  1.00  0.00     0.041 C 
ATOM      4  O   UNL     1     -11.488 -19.092  32.168  1.00  0.00    -0.550 OA
ATOM      5  O   UNL     1      -9.762 -17.593  32.312  1.00  0.00    -0.550 OA
ENDBRANCH   2   3
ENDBRANCH   1   2
BRANCH   1   6
ATOM      6  C   UNL     1     -11.000 -17.025  28.931  1.00  0.00     0.000 C 
BRANCH   6   7
ATOM      7  C   UNL     1     -12.224 -16.228  29.406  1.00  0.00    -0.003 C 
ATOM      8  C   UNL     1     -13.406 -17.124  29.776  1.00  0.00     0.004 C 
ENDBRANCH   6   7
ENDBRANCH   1   6
TORSDOF 4
ENDMDL
MODEL 4
REMARK VINA RESULT:    -3.885      2.262      3.016
REMARK INTER + INTRA:          -5.024
REMARK INTER:                  -4.760
REMARK INTRA:                  -0.264
REMARK UNBOUND:                -0.230
REMARK SMILES CCCCCC(=O)[O-]
REMARK SMILES IDX 4 1 5 2 6 3 7 4 8 5 3 6 2 7 1 8
REMARK H PARENT
REMARK Flexibility Score: inf
ROOT
ATOM      1  C   UNL     1     -11.091 -18.425  29.265  1.00  0.00     0.006 C 
ENDROOT
BRANCH   1   2
ATOM      2  C   UNL     1     -10.058 -18.957  30.264  1.00  0.00     0.053 C 
BRANCH   2   3
ATOM      3  C   UNL     1     -10.427 -18.566  31.660  1.00  0.00     0.041 C 
ATOM      4  O   UNL     1      -9.687 -17.787  32.317  1.00  0.00    -0.550 OA
ATOM      5  O   UNL     1     -11.564 -19.100  32.254  1.00  0.00    -0.550 OA
ENDBRANCH   2   3
ENDBRANCH   1   2
BRANCH   1   6
ATOM      6  C   UNL     1     -10.985 -16.900  29.125  1.00  0.00     0.000 C 
BRANCH   6   7
ATOM      7  C   UNL     1     -12.291 -16.181  29.495  1.00  0.00    -0.003 C 
ATOM      8  C   UNL     1     -13.417 -17.149  29.858  1.00  0.00     0.004 C 
ENDBRANCH   6   7
ENDBRANCH   1   6
TORSDOF 4
ENDMDL
MODEL 5
REMARK VINA RESULT:    -3.836      1.119      1.956
REMARK INTER + INTRA:          -4.963
REMARK INTER:                  -4.717
REMARK INTRA:                  -0.246
REMARK UNBOUND:                -0.230
REMARK SMILES CCCCCC(=O)[O-]
REMARK SMILES IDX 4 1 5 2 6 3 7 4 8 5 3 6 2 7 1 8
REMARK H PARENT
REMARK Flexibility Score: inf
ROOT
ATOM      1  C   UNL     1     -10.513 -18.816  31.598  1.00  0.00     0.006 C 
ENDROOT
BRANCH   1   2
ATOM      2  C   UNL     1     -10.186 -18.930  30.105  1.00  0.00     0.053 C 
BRANCH   2   3
ATOM      3  C   UNL     1     -11.124 -18.091  29.297  1.00  0.00     0.041 C 
ATOM      4  O   UNL     1     -12.315 -18.460  29.123  1.00  0.00    -0.550 OA
ATOM      5  O   UNL     1     -10.670 -16.925  28.693  1.00  0.00    -0.550 OA
ENDBRANCH   2   3
ENDBRANCH   1   2
BRANCH   1   6
ATOM      6  C   UNL     1     -10.096 -17.444  32.149  1.00  0.00     0.000 C 
BRANCH   6   7
ATOM      7  C   UNL     1      -8.602 -17.156  31.945  1.00  0.00    -0.003 C 
ATOM      8  C   UNL     1      -8.335 -15.737  31.442  1.00  0.00     0.004 C 
ENDBRANCH   6   7
ENDBRANCH   1   6
TORSDOF 4
ENDMDL
MODEL 6
REMARK VINA RESULT:    -3.834      3.282      4.471
REMARK INTER + INTRA:          -4.960
REMARK INTER:                  -4.843
REMARK INTRA:                  -0.118
REMARK UNBOUND:                -0.230
REMARK SMILES CCCCCC(=O)[O-]
REMARK SMILES IDX 4 1 5 2 6 3 7 4 8 5 3 6 2 7 1 8
REMARK H PARENT
REMARK Flexibility Score: inf
ROOT
ATOM      1  C   UNL     1     -11.719 -16.691  27.645  1.00  0.00     0.006 C 
ENDROOT
BRANCH   1   2
ATOM      2  C   UNL     1     -10.715 -16.817  28.796  1.00  0.00     0.053 C 
BRANCH   2   3
ATOM      3  C   UNL     1     -10.748 -18.196  29.373  1.00  0.00     0.041 C 
ATOM      4  O   UNL     1     -11.515 -19.069  28.888  1.00  0.00    -0.550 OA
ATOM      5  O   UNL     1      -9.968 -18.505  30.481  1.00  0.00    -0.550 OA
ENDBRANCH   2   3
ENDBRANCH   1   2
BRANCH   1   6
ATOM      6  C   UNL     1     -11.257 -15.641  26.625  1.00  0.00     0.000 C 
BRANCH   6   7
ATOM      7  C   UNL     1      -9.743 -15.387  26.684  1.00  0.00    -0.003 C 
ATOM      8  C   UNL     1      -9.285 -14.306  25.705  1.00  0.00     0.004 C 
ENDBRANCH   6   7
ENDBRANCH   1   6
TORSDOF 4
ENDMDL
MODEL 7
REMARK VINA RESULT:    -3.819      1.324      2.258
REMARK INTER + INTRA:          -4.942
REMARK INTER:                  -4.765
REMARK INTRA:                  -0.177
REMARK UNBOUND:                -0.230
REMARK SMILES CCCCCC(=O)[O-]
REMARK SMILES IDX 4 1 5 2 6 3 7 4 8 5 3 6 2 7 1 8
REMARK H PARENT
REMARK Flexibility Score: inf
ROOT
ATOM      1  C   UNL     1     -10.902 -18.348  29.358  1.00  0.00     0.006 C 
ENDROOT
BRANCH   1   2
ATOM      2  C   UNL     1     -11.415 -16.912  29.506  1.00  0.00     0.053 C 
BRANCH   2   3
ATOM      3  C   UNL     1     -12.903 -16.868  29.355  1.00  0.00     0.041 C 
ATOM      4  O   UNL     1     -13.643 -17.428  30.206  1.00  0.00    -0.550 OA
ATOM      5  O   UNL     1     -13.472 -16.253  28.247  1.00  0.00    -0.550 OA
ENDBRANCH   2   3
ENDBRANCH   1   2
BRANCH   1   6
ATOM      6  C   UNL     1     -10.155 -18.797  30.623  1.00  0.00     0.000 C 
BRANCH   6   7
ATOM      7  C   UNL     1     -10.070 -17.688  31.683  1.00  0.00    -0.003 C 
ATOM      8  C   UNL     1      -8.633 -17.257  31.973  1.00  0.00     0.004 C 
ENDBRANCH   6   7
ENDBRANCH   1   6
TORSDOF 4
ENDMDL
MODEL 8
REMARK VINA RESULT:    -3.768      2.315      3.978
REMARK INTER + INTRA:          -4.879
REMARK INTER:                  -4.719
REMARK INTRA:                  -0.159
REMARK UNBOUND:                -0.230
REMARK SMILES CCCCCC(=O)[O-]
REMARK SMILES IDX 4 1 5 2 6 3 7 4 8 5 3 6 2 7 1 8
REMARK H PARENT
REMARK Flexibility Score: inf
ROOT
ATOM      1  C   UNL     1     -13.200 -17.236  30.131  1.00  0.00     0.006 C 
ENDROOT
BRANCH   1   2
ATOM      2  C   UNL     1     -12.014 -17.056  31.084  1.00  0.00     0.053 C 
BRANCH   2   3
ATOM      3  C   UNL     1     -11.365 -18.373  31.370  1.00  0.00     0.041 C 
ATOM      4  O   UNL     1     -11.687 -19.029  32.396  1.00  0.00    -0.550 OA
ATOM      5  O   UNL     1     -10.368 -18.854  30.531  1.00  0.00    -0.550 OA
ENDBRANCH   2   3
ENDBRANCH   1   2
BRANCH   1   6
ATOM      6  C   UNL     1     -13.023 -16.383  28.866  1.00  0.00     0.000 C 
BRANCH   6   7
ATOM      7  C   UNL     1     -11.979 -16.967  27.902  1.00  0.00    -0.003 C 
ATOM      8  C   UNL     1     -11.284 -15.895  27.063  1.00  0.00     0.004 C 
ENDBRANCH   6   7
ENDBRANCH   1   6
TORSDOF 4
ENDMDL
MODEL 9
REMARK VINA RESULT:    -3.742      1.953      2.964
REMARK INTER + INTRA:          -4.848
REMARK INTER:                  -4.736
REMARK INTRA:                  -0.112
REMARK UNBOUND:                -0.230
REMARK SMILES CCCCCC(=O)[O-]
REMARK SMILES IDX 4 1 5 2 6 3 7 4 8 5 3 6 2 7 1 8
REMARK H PARENT
REMARK Flexibility Score: inf
ROOT
ATOM      1  C   UNL     1     -10.550 -17.155  29.156  1.00  0.00     0.006 C 
ENDROOT
BRANCH   1   2
ATOM      2  C   UNL     1     -11.867 -16.465  28.785  1.00  0.00     0.053 C 
BRANCH   2   3
ATOM      3  C   UNL     1     -11.860 -16.059  27.346  1.00  0.00     0.041 C 
ATOM      4  O   UNL     1     -12.934 -16.034  26.688  1.00  0.00    -0.550 OA
ATOM      5  O   UNL     1     -10.660 -15.755  26.715  1.00  0.00    -0.550 OA
ENDBRANCH   2   3
ENDBRANCH   1   2
BRANCH   1   6
ATOM      6  C   UNL     1     -10.796 -18.600  29.614  1.00  0.00     0.000 C 
BRANCH   6   7
ATOM      7  C   UNL     1     -10.018 -18.955  30.890  1.00  0.00    -0.003 C 
ATOM      8  C   UNL     1      -9.837 -17.758  31.825  1.00  0.00     0.004 C 
ENDBRANCH   6   7
ENDBRANCH   1   6
TORSDOF 4
ENDMDL
