MODEL 1
REMARK VINA RESULT:    48.114      0.000      0.000
REMARK INTER + INTRA:          58.185
REMARK INTER:                  57.959
REMARK INTRA:                   0.227
REMARK UNBOUND:                 0.227
REMARK SMILES O=c1c(O)c(-c2ccc(O)c(O)c2)oc2cc(O)cc(O)c12
REMARK SMILES IDX 5 1 3 2 2 3 1 4 22 5 20 6 19 7 17 8 16 9 15 10 14 11 6 12
REMARK SMILES IDX 7 13 8 14 9 15 13 16 11 17 10 18 12 20 4 22 21 24 18 26
REMARK H PARENT 10 19 12 21 4 23 21 25 18 27
REMARK Flexibility Score: inf
ROOT
ATOM      1  C   UNL     1      77.070   1.638  87.047  1.00  0.00     0.180 A 
ATOM      2  C   UNL     1      78.168   2.392  87.498  1.00  0.00     0.208 A 
ATOM      3  C   UNL     1      78.580   2.262  88.834  1.00  0.00     0.238 A 
ATOM      4  O   UNL     1      79.529   2.980  89.246  1.00  0.00    -0.285 OA
ATOM      5  C   UNL     1      77.900   1.370  89.698  1.00  0.00     0.111 A 
ATOM      6  C   UNL     1      78.256   1.131  91.059  1.00  0.00     0.134 A 
ATOM      7  C   UNL     1      77.434   0.326  91.857  1.00  0.00     0.093 A 
ATOM      8  C   UNL     1      76.304  -0.301  91.325  1.00  0.00     0.123 A 
ATOM      9  C   UNL     1      75.981  -0.120  89.982  1.00  0.00     0.094 A 
ATOM     10  C   UNL     1      76.762   0.706  89.170  1.00  0.00     0.146 A 
ATOM     11  O   UNL     1      76.413   0.860  87.898  1.00  0.00    -0.452 OA
ENDROOT
BRANCH   1  12
ATOM     12  C   UNL     1      76.594   1.702  85.647  1.00  0.00     0.025 A 
ATOM     13  C   UNL     1      75.238   1.469  85.368  1.00  0.00     0.016 A 
ATOM     14  C   UNL     1      74.770   1.503  84.051  1.00  0.00     0.051 A 
ATOM     15  C   UNL     1      75.650   1.754  82.995  1.00  0.00     0.157 A 
ATOM     16  C   UNL     1      77.482   1.934  84.581  1.00  0.00     0.062 A 
ATOM     17  C   UNL     1      77.014   1.966  83.258  1.00  0.00     0.158 A 
BRANCH  15  18
ATOM     18  O   UNL     1      75.154   1.784  81.692  1.00  0.00    -0.504 OA
ATOM     19  H   UNL     1      74.623   1.015  81.300  1.00  0.00     0.293 HD
ENDBRANCH  15  18
BRANCH  17  20
ATOM     20  O   UNL     1      77.899   2.204  82.209  1.00  0.00    -0.504 OA
ATOM     21  H   UNL     1      78.183   1.466  81.575  1.00  0.00     0.293 HD
ENDBRANCH  17  20
ENDBRANCH   1  12
BRANCH   2  22
ATOM     22  O   UNL     1      78.811   3.283  86.635  1.00  0.00    -0.502 OA
ATOM     23  H   UNL     1      79.648   3.036  86.122  1.00  0.00     0.293 HD
ENDBRANCH   2  22
BRANCH   6  24
ATOM     24  O   UNL     1      79.413   1.632  91.663  1.00  0.00    -0.507 OA
ATOM     25  H   UNL     1      80.073   2.251  91.216  1.00  0.00     0.293 HD
ENDBRANCH   6  24
BRANCH   8  26
ATOM     26  O   UNL     1      75.500  -1.112  92.122  1.00  0.00    -0.508 OA
ATOM     27  H   UNL     1      74.543  -1.327  91.866  1.00  0.00     0.293 HD
ENDBRANCH   8  26
TORSDOF 6
ENDMDL
