MODEL 1
REMARK VINA RESULT:    -4.445      0.000      0.000
REMARK INTER + INTRA:          -6.256
REMARK INTER:                  -6.004
REMARK INTRA:                  -0.252
REMARK UNBOUND:                -0.252
REMARK SMILES CCCCCCC=CC(=O)[O-]
REMARK SMILES IDX 5 1 6 2 7 3 8 4 9 5 10 6 11 7 4 8 3 9 2 10 1 11
REMARK H PARENT
REMARK Flexibility Score: inf
ROOT
ATOM      1  C   UNL     1     147.791 144.087 158.050  1.00  0.00     0.004 C 
ENDROOT
BRANCH   1   2
ATOM      2  C   UNL     1     148.160 142.595 158.124  1.00  0.00     0.027 C 
BRANCH   2   3
ATOM      3  C   UNL     1     146.941 141.714 158.114  1.00  0.00    -0.025 C 
ATOM      4  C   UNL     1     146.921 140.555 157.447  1.00  0.00     0.020 C 
BRANCH   4   5
ATOM      5  C   UNL     1     145.728 139.697 157.413  1.00  0.00     0.064 C 
ATOM      6  O   UNL     1     145.690 138.657 158.119  1.00  0.00    -0.545 OA
ATOM      7  O   UNL     1     144.637 140.018 156.612  1.00  0.00    -0.545 OA
ENDBRANCH   4   5
ENDBRANCH   2   3
ENDBRANCH   1   2
BRANCH   1   8
ATOM      8  C   UNL     1     148.770 144.929 157.212  1.00  0.00     0.000 C 
BRANCH   8   9
ATOM      9  C   UNL     1     148.192 146.291 156.798  1.00  0.00    -0.000 C 
BRANCH   9  10
ATOM     10  C   UNL     1     146.752 146.453 157.300  1.00  0.00    -0.003 C 
ATOM     11  C   UNL     1     146.005 147.515 156.498  1.00  0.00     0.004 C 
ENDBRANCH   9  10
ENDBRANCH   8   9
ENDBRANCH   1   8
TORSDOF 6
ENDMDL
MODEL 2
REMARK VINA RESULT:    -4.440      5.771      8.031
REMARK INTER + INTRA:          -6.249
REMARK INTER:                  -5.963
REMARK INTRA:                  -0.285
REMARK UNBOUND:                -0.252
REMARK SMILES CCCCCCC=CC(=O)[O-]
REMARK SMILES IDX 5 1 6 2 7 3 8 4 9 5 10 6 11 7 4 8 3 9 2 10 1 11
REMARK H PARENT
REMARK Flexibility Score: inf
ROOT
ATOM      1  C   UNL     1     147.456 147.036 155.345  1.00  0.00     0.004 C 
ENDROOT
BRANCH   1   2
ATOM      2  C   UNL     1     146.445 148.075 155.860  1.00  0.00     0.027 C 
BRANCH   2   3
ATOM      3  C   UNL     1     147.105 149.131 156.705  1.00  0.00    -0.025 C 
ATOM      4  C   UNL     1     146.524 150.314 156.925  1.00  0.00     0.020 C 
BRANCH   4   5
ATOM      5  C   UNL     1     147.170 151.361 157.730  1.00  0.00     0.064 C 
ATOM      6  O   UNL     1     146.512 152.378 158.070  1.00  0.00    -0.545 OA
ATOM      7  O   UNL     1     148.498 151.244 158.125  1.00  0.00    -0.545 OA
ENDBRANCH   4   5
ENDBRANCH   2   3
ENDBRANCH   1   2
BRANCH   1   8
ATOM      8  C   UNL     1     148.868 147.193 155.940  1.00  0.00     0.000 C 
BRANCH   8   9
ATOM      9  C   UNL     1     149.098 146.325 157.185  1.00  0.00    -0.000 C 
BRANCH   9  10
ATOM     10  C   UNL     1     148.025 145.235 157.302  1.00  0.00    -0.003 C 
ATOM     11  C   UNL     1     148.655 143.849 157.402  1.00  0.00     0.004 C 
ENDBRANCH   9  10
ENDBRANCH   8   9
ENDBRANCH   1   8
TORSDOF 6
ENDMDL
MODEL 3
REMARK VINA RESULT:    -4.417      4.027      6.376
REMARK INTER + INTRA:          -6.218
REMARK INTER:                  -5.994
REMARK INTRA:                  -0.224
REMARK UNBOUND:                -0.252
REMARK SMILES CCCCCCC=CC(=O)[O-]
REMARK SMILES IDX 5 1 6 2 7 3 8 4 9 5 10 6 11 7 4 8 3 9 2 10 1 11
REMARK H PARENT
REMARK Flexibility Score: inf
ROOT
ATOM      1  C   UNL     1     148.613 143.545 157.557  1.00  0.00     0.004 C 
ENDROOT
BRANCH   1   2
ATOM      2  C   UNL     1     147.577 144.604 157.969  1.00  0.00     0.027 C 
BRANCH   2   3
ATOM      3  C   UNL     1     147.826 145.926 157.296  1.00  0.00    -0.025 C 
ATOM      4  C   UNL     1     146.819 146.710 156.898  1.00  0.00     0.020 C 
BRANCH   4   5
ATOM      5  C   UNL     1     147.051 147.993 156.220  1.00  0.00     0.064 C 
ATOM      6  O   UNL     1     147.071 148.038 154.963  1.00  0.00    -0.545 OA
ATOM      7  O   UNL     1     147.247 149.162 156.947  1.00  0.00    -0.545 OA
ENDBRANCH   4   5
ENDBRANCH   2   3
ENDBRANCH   1   2
BRANCH   1   8
ATOM      8  C   UNL     1     148.329 142.142 158.124  1.00  0.00     0.000 C 
BRANCH   8   9
ATOM      9  C   UNL     1     146.837 141.778 158.113  1.00  0.00    -0.000 C 
BRANCH   9  10
ATOM     10  C   UNL     1     146.596 140.471 157.347  1.00  0.00    -0.003 C 
ATOM     11  C   UNL     1     145.116 140.287 157.023  1.00  0.00     0.004 C 
ENDBRANCH   9  10
ENDBRANCH   8   9
ENDBRANCH   1   8
TORSDOF 6
ENDMDL
MODEL 4
REMARK VINA RESULT:    -4.308      2.240      3.580
REMARK INTER + INTRA:          -6.071
REMARK INTER:                  -5.724
REMARK INTRA:                  -0.346
REMARK UNBOUND:                -0.252
REMARK SMILES CCCCCCC=CC(=O)[O-]
REMARK SMILES IDX 5 1 6 2 7 3 8 4 9 5 10 6 11 7 4 8 3 9 2 10 1 11
REMARK H PARENT
REMARK Flexibility Score: inf
ROOT
ATOM      1  C   UNL     1     148.601 146.862 155.868  1.00  0.00     0.004 C 
ENDROOT
BRANCH   1   2
ATOM      2  C   UNL     1     148.272 146.247 157.239  1.00  0.00     0.027 C 
BRANCH   2   3
ATOM      3  C   UNL     1     148.465 144.755 157.246  1.00  0.00    -0.025 C 
ATOM      4  C   UNL     1     147.741 143.959 158.039  1.00  0.00     0.020 C 
BRANCH   4   5
ATOM      5  C   UNL     1     147.936 142.503 158.070  1.00  0.00     0.064 C 
ATOM      6  O   UNL     1     149.102 142.032 158.049  1.00  0.00    -0.545 OA
ATOM      7  O   UNL     1     146.850 141.636 158.125  1.00  0.00    -0.545 OA
ENDBRANCH   4   5
ENDBRANCH   2   3
ENDBRANCH   1   2
BRANCH   1   8
ATOM      8  C   UNL     1     147.829 148.160 155.567  1.00  0.00     0.000 C 
BRANCH   8   9
ATOM      9  C   UNL     1     146.474 148.236 156.284  1.00  0.00    -0.000 C 
BRANCH   9  10
ATOM     10  C   UNL     1     146.120 149.685 156.641  1.00  0.00    -0.003 C 
ATOM     11  C   UNL     1     147.255 150.357 157.407  1.00  0.00     0.004 C 
ENDBRANCH   9  10
ENDBRANCH   8   9
ENDBRANCH   1   8
TORSDOF 6
ENDMDL
MODEL 5
REMARK VINA RESULT:    -4.247      1.743      2.632
REMARK INTER + INTRA:          -5.988
REMARK INTER:                  -5.696
REMARK INTRA:                  -0.292
REMARK UNBOUND:                -0.252
REMARK SMILES CCCCCCC=CC(=O)[O-]
REMARK SMILES IDX 5 1 6 2 7 3 8 4 9 5 10 6 11 7 4 8 3 9 2 10 1 11
REMARK H PARENT
REMARK Flexibility Score: inf
ROOT
ATOM      1  C   UNL     1     148.433 145.750 156.472  1.00  0.00     0.004 C 
ENDROOT
BRANCH   1   2
ATOM      2  C   UNL     1     147.722 145.612 157.829  1.00  0.00     0.027 C 
BRANCH   2   3
ATOM      3  C   UNL     1     147.275 144.199 158.087  1.00  0.00    -0.025 C 
ATOM      4  C   UNL     1     148.050 143.153 157.785  1.00  0.00     0.020 C 
BRANCH   4   5
ATOM      5  C   UNL     1     147.614 141.768 158.014  1.00  0.00     0.064 C 
ATOM      6  O   UNL     1     148.473 140.855 158.117  1.00  0.00    -0.545 OA
ATOM      7  O   UNL     1     146.265 141.450 158.121  1.00  0.00    -0.545 OA
ENDBRANCH   4   5
ENDBRANCH   2   3
ENDBRANCH   1   2
BRANCH   1   8
ATOM      8  C   UNL     1     148.697 147.208 156.054  1.00  0.00     0.000 C 
BRANCH   8   9
ATOM      9  C   UNL     1     148.355 148.223 157.154  1.00  0.00    -0.000 C 
BRANCH   9  10
ATOM     10  C   UNL     1     147.173 149.107 156.739  1.00  0.00    -0.003 C 
ATOM     11  C   UNL     1     146.155 148.318 155.921  1.00  0.00     0.004 C 
ENDBRANCH   9  10
ENDBRANCH   8   9
ENDBRANCH   1   8
TORSDOF 6
ENDMDL
MODEL 6
REMARK VINA RESULT:    -4.215      1.335      2.043
REMARK INTER + INTRA:          -5.945
REMARK INTER:                  -5.587
REMARK INTRA:                  -0.358
REMARK UNBOUND:                -0.252
REMARK SMILES CCCCCCC=CC(=O)[O-]
REMARK SMILES IDX 5 1 6 2 7 3 8 4 9 5 10 6 11 7 4 8 3 9 2 10 1 11
REMARK H PARENT
REMARK Flexibility Score: inf
ROOT
ATOM      1  C   UNL     1     147.073 144.643 158.096  1.00  0.00     0.004 C 
ENDROOT
BRANCH   1   2
ATOM      2  C   UNL     1     148.427 143.980 157.789  1.00  0.00     0.027 C 
BRANCH   2   3
ATOM      3  C   UNL     1     148.356 142.481 157.896  1.00  0.00    -0.025 C 
ATOM      4  C   UNL     1     147.188 141.832 157.874  1.00  0.00     0.020 C 
BRANCH   4   5
ATOM      5  C   UNL     1     147.106 140.370 158.000  1.00  0.00     0.064 C 
ATOM      6  O   UNL     1     145.981 139.808 157.994  1.00  0.00    -0.545 OA
ATOM      7  O   UNL     1     148.254 139.597 158.124  1.00  0.00    -0.545 OA
ENDBRANCH   4   5
ENDBRANCH   2   3
ENDBRANCH   1   2
BRANCH   1   8
ATOM      8  C   UNL     1     147.003 146.129 157.699  1.00  0.00     0.000 C 
BRANCH   8   9
ATOM      9  C   UNL     1     147.655 146.421 156.340  1.00  0.00    -0.000 C 
BRANCH   9  10
ATOM     10  C   UNL     1     148.199 147.854 156.286  1.00  0.00    -0.003 C 
ATOM     11  C   UNL     1     148.504 148.380 157.686  1.00  0.00     0.004 C 
ENDBRANCH   9  10
ENDBRANCH   8   9
ENDBRANCH   1   8
TORSDOF 6
ENDMDL
MODEL 7
REMARK VINA RESULT:    -4.175      5.928      7.665
REMARK INTER + INTRA:          -5.891
REMARK INTER:                  -5.270
REMARK INTRA:                  -0.621
REMARK UNBOUND:                -0.252
REMARK SMILES CCCCCCC=CC(=O)[O-]
REMARK SMILES IDX 5 1 6 2 7 3 8 4 9 5 10 6 11 7 4 8 3 9 2 10 1 11
REMARK H PARENT
REMARK Flexibility Score: inf
ROOT
ATOM      1  C   UNL     1     148.874 147.470 156.288  1.00  0.00     0.004 C 
ENDROOT
BRANCH   1   2
ATOM      2  C   UNL     1     149.195 147.986 157.701  1.00  0.00     0.027 C 
BRANCH   2   3
ATOM      3  C   UNL     1     148.489 149.280 158.001  1.00  0.00    -0.025 C 
ATOM      4  C   UNL     1     147.602 149.807 157.151  1.00  0.00     0.020 C 
BRANCH   4   5
ATOM      5  C   UNL     1     146.923 151.081 157.424  1.00  0.00     0.064 C 
ATOM      6  O   UNL     1     145.744 151.257 157.020  1.00  0.00    -0.545 OA
ATOM      7  O   UNL     1     147.561 152.097 158.125  1.00  0.00    -0.545 OA
ENDBRANCH   4   5
ENDBRANCH   2   3
ENDBRANCH   1   2
BRANCH   1   8
ATOM      8  C   UNL     1     148.014 146.193 156.273  1.00  0.00     0.000 C 
BRANCH   8   9
ATOM      9  C   UNL     1     147.596 145.730 157.676  1.00  0.00    -0.000 C 
BRANCH   9  10
ATOM     10  C   UNL     1     146.070 145.743 157.828  1.00  0.00    -0.003 C 
ATOM     11  C   UNL     1     145.445 146.872 157.014  1.00  0.00     0.004 C 
ENDBRANCH   9  10
ENDBRANCH   8   9
ENDBRANCH   1   8
TORSDOF 6
ENDMDL
MODEL 8
REMARK VINA RESULT:    -4.168      8.313     10.955
REMARK INTER + INTRA:          -5.882
REMARK INTER:                  -5.601
REMARK INTRA:                  -0.281
REMARK UNBOUND:                -0.252
REMARK SMILES CCCCCCC=CC(=O)[O-]
REMARK SMILES IDX 5 1 6 2 7 3 8 4 9 5 10 6 11 7 4 8 3 9 2 10 1 11
REMARK H PARENT
REMARK Flexibility Score: inf
ROOT
ATOM      1  C   UNL     1     147.183 150.746 157.476  1.00  0.00     0.004 C 
ENDROOT
BRANCH   1   2
ATOM      2  C   UNL     1     146.961 152.148 158.069  1.00  0.00     0.027 C 
BRANCH   2   3
ATOM      3  C   UNL     1     148.179 153.019 157.926  1.00  0.00    -0.025 C 
ATOM      4  C   UNL     1     148.093 154.274 157.476  1.00  0.00     0.020 C 
BRANCH   4   5
ATOM      5  C   UNL     1     149.280 155.126 157.312  1.00  0.00     0.064 C 
ATOM      6  O   UNL     1     150.404 154.596 157.116  1.00  0.00    -0.545 OA
ATOM      7  O   UNL     1     149.180 156.512 157.367  1.00  0.00    -0.545 OA
ENDBRANCH   4   5
ENDBRANCH   2   3
ENDBRANCH   1   2
BRANCH   1   8
ATOM      8  C   UNL     1     148.346 149.973 158.125  1.00  0.00     0.000 C 
BRANCH   8   9
ATOM      9  C   UNL     1     148.714 148.690 157.367  1.00  0.00    -0.000 C 
BRANCH   9  10
ATOM     10  C   UNL     1     147.541 148.201 156.509  1.00  0.00    -0.003 C 
ATOM     11  C   UNL     1     147.999 147.166 155.486  1.00  0.00     0.004 C 
ENDBRANCH   9  10
ENDBRANCH   8   9
ENDBRANCH   1   8
TORSDOF 6
ENDMDL
