MODEL 1
REMARK VINA RESULT:    -6.122      0.000      0.000
REMARK INTER + INTRA:          -8.376
REMARK INTER:                  -7.553
REMARK INTRA:                  -0.823
REMARK UNBOUND:                -0.823
REMARK SMILES CC(C)=CCC[C@H](C)c1ccc(C)cc1
REMARK SMILES IDX 6 1 7 2 8 3 9 4 13 5 12 6 11 7 14 8 10 9 15 10 5 11 4 12
REMARK SMILES IDX 2 13 1 14 3 15
REMARK H PARENT
REMARK Flexibility Score: inf
ROOT
ATOM      1  C   UNL     1      91.877 100.753 100.611  1.00  0.00     0.012 C 
ENDROOT
BRANCH   1   2
ATOM      2  C   UNL     1      93.064 101.254 101.471  1.00  0.00     0.016 C 
ATOM      3  C   UNL     1      92.602 102.053 102.700  1.00  0.00     0.013 C 
BRANCH   2   4
ATOM      4  C   UNL     1      94.010 102.085 100.624  1.00  0.00    -0.045 A 
ATOM      5  C   UNL     1      96.674 104.474  98.203  1.00  0.00     0.044 C 
ATOM      6  C   UNL     1      95.758 103.661  99.068  1.00  0.00    -0.051 A 
ATOM      7  C   UNL     1      94.417 104.038  99.227  1.00  0.00     0.004 A 
ATOM      8  C   UNL     1      96.217 102.482  99.671  1.00  0.00     0.004 A 
ATOM      9  C   UNL     1      93.552 103.262 100.004  1.00  0.00     0.004 A 
ATOM     10  C   UNL     1      95.354 101.704 100.449  1.00  0.00     0.004 A 
ENDBRANCH   2   4
ENDBRANCH   1   2
BRANCH   1  11
ATOM     11  C   UNL     1      92.203  99.534  99.731  1.00  0.00     0.028 C 
BRANCH  11  12
ATOM     12  C   UNL     1      93.309  99.818  98.743  1.00  0.00    -0.028 C 
ATOM     13  C   UNL     1      93.186 100.614  97.658  1.00  0.00    -0.080 C 
ATOM     14  C   UNL     1      94.395 100.829  96.785  1.00  0.00     0.039 C 
ATOM     15  C   UNL     1      91.875 101.269  97.288  1.00  0.00     0.039 C 
ENDBRANCH  11  12
ENDBRANCH   1  11
TORSDOF 4
ENDMDL
MODEL 2
REMARK VINA RESULT:    -5.741      2.018      5.472
REMARK INTER + INTRA:          -7.906
REMARK INTER:                  -7.093
REMARK INTRA:                  -0.813
REMARK UNBOUND:                -0.823
REMARK SMILES CC(C)=CCC[C@H](C)c1ccc(C)cc1
REMARK SMILES IDX 6 1 7 2 8 3 9 4 13 5 12 6 11 7 14 8 10 9 15 10 5 11 4 12
REMARK SMILES IDX 2 13 1 14 3 15
REMARK H PARENT
REMARK Flexibility Score: inf
ROOT
ATOM      1  C   UNL     1      96.423 104.208  99.481  1.00  0.00     0.012 C 
ENDROOT
BRANCH   1   2
ATOM      2  C   UNL     1      96.655 103.070  98.455  1.00  0.00     0.016 C 
ATOM      3  C   UNL     1      96.725 103.589  97.010  1.00  0.00     0.013 C 
BRANCH   2   4
ATOM      4  C   UNL     1      95.571 102.017  98.588  1.00  0.00    -0.045 A 
ATOM      5  C   UNL     1      92.472  99.027  98.934  1.00  0.00     0.044 C 
ATOM      6  C   UNL     1      93.567 100.044  98.803  1.00  0.00    -0.051 A 
ATOM      7  C   UNL     1      93.690 100.802  97.631  1.00  0.00     0.004 A 
ATOM      8  C   UNL     1      94.434 100.290  99.877  1.00  0.00     0.004 A 
ATOM      9  C   UNL     1      94.688 101.774  97.521  1.00  0.00     0.004 A 
ATOM     10  C   UNL     1      95.433 101.262  99.768  1.00  0.00     0.004 A 
ENDBRANCH   2   4
ENDBRANCH   1   2
BRANCH   1  11
ATOM     11  C   UNL     1      95.000 104.793  99.467  1.00  0.00     0.028 C 
BRANCH  11  12
ATOM     12  C   UNL     1      94.992 106.291  99.661  1.00  0.00    -0.028 C 
ATOM     13  C   UNL     1      94.887 107.195  98.662  1.00  0.00    -0.080 C 
ATOM     14  C   UNL     1      94.855 108.658  99.019  1.00  0.00     0.039 C 
ATOM     15  C   UNL     1      94.825 106.783  97.209  1.00  0.00     0.039 C 
ENDBRANCH  11  12
ENDBRANCH   1  11
TORSDOF 4
ENDMDL
MODEL 3
REMARK VINA RESULT:    -5.732      1.204      4.647
REMARK INTER + INTRA:          -7.895
REMARK INTER:                  -7.310
REMARK INTRA:                  -0.584
REMARK UNBOUND:                -0.823
REMARK SMILES CC(C)=CCC[C@H](C)c1ccc(C)cc1
REMARK SMILES IDX 6 1 7 2 8 3 9 4 13 5 12 6 11 7 14 8 10 9 15 10 5 11 4 12
REMARK SMILES IDX 2 13 1 14 3 15
REMARK H PARENT
REMARK Flexibility Score: inf
ROOT
ATOM      1  C   UNL     1      96.149 104.197  99.220  1.00  0.00     0.012 C 
ENDROOT
BRANCH   1   2
ATOM      2  C   UNL     1      96.570 103.015  98.312  1.00  0.00     0.016 C 
ATOM      3  C   UNL     1      96.738 103.435  96.843  1.00  0.00     0.013 C 
BRANCH   2   4
ATOM      4  C   UNL     1      95.566 101.882  98.427  1.00  0.00    -0.045 A 
ATOM      5  C   UNL     1      92.693  98.670  98.727  1.00  0.00     0.044 C 
ATOM      6  C   UNL     1      93.710  99.767  98.608  1.00  0.00    -0.051 A 
ATOM      7  C   UNL     1      93.662 100.659  97.528  1.00  0.00     0.004 A 
ATOM      8  C   UNL     1      94.674  99.948  99.609  1.00  0.00     0.004 A 
ATOM      9  C   UNL     1      94.587 101.703  97.434  1.00  0.00     0.004 A 
ATOM     10  C   UNL     1      95.600 100.991  99.517  1.00  0.00     0.004 A 
ENDBRANCH   2   4
ENDBRANCH   1   2
BRANCH   1  11
ATOM     11  C   UNL     1      94.629 104.334  99.415  1.00  0.00     0.028 C 
BRANCH  11  12
ATOM     12  C   UNL     1      94.137 103.595 100.637  1.00  0.00    -0.028 C 
ATOM     13  C   UNL     1      92.985 102.891 100.697  1.00  0.00    -0.080 C 
ATOM     14  C   UNL     1      92.648 102.174 101.979  1.00  0.00     0.039 C 
ATOM     15  C   UNL     1      92.024 102.822  99.533  1.00  0.00     0.039 C 
ENDBRANCH  11  12
ENDBRANCH   1  11
TORSDOF 4
ENDMDL
MODEL 4
REMARK VINA RESULT:    -5.661      0.979      3.682
REMARK INTER + INTRA:          -7.807
REMARK INTER:                  -6.658
REMARK INTRA:                  -1.149
REMARK UNBOUND:                -0.823
REMARK SMILES CC(C)=CCC[C@H](C)c1ccc(C)cc1
REMARK SMILES IDX 6 1 7 2 8 3 9 4 13 5 12 6 11 7 14 8 10 9 15 10 5 11 4 12
REMARK SMILES IDX 2 13 1 14 3 15
REMARK H PARENT
REMARK Flexibility Score: inf
ROOT
ATOM      1  C   UNL     1      95.866 102.501  97.545  1.00  0.00     0.012 C 
ENDROOT
BRANCH   1   2
ATOM      2  C   UNL     1      95.296 103.658  98.403  1.00  0.00     0.016 C 
ATOM      3  C   UNL     1      96.398 104.572  98.962  1.00  0.00     0.013 C 
BRANCH   2   4
ATOM      4  C   UNL     1      94.445 103.104  99.530  1.00  0.00    -0.045 A 
ATOM      5  C   UNL     1      91.994 101.545 102.728  1.00  0.00     0.044 C 
ATOM      6  C   UNL     1      92.836 102.063 101.600  1.00  0.00    -0.051 A 
ATOM      7  C   UNL     1      92.310 102.999 100.698  1.00  0.00     0.004 A 
ATOM      8  C   UNL     1      94.174 101.665 101.478  1.00  0.00     0.004 A 
ATOM      9  C   UNL     1      93.105 103.509  99.668  1.00  0.00     0.004 A 
ATOM     10  C   UNL     1      94.970 102.174 100.447  1.00  0.00     0.004 A 
ENDBRANCH   2   4
ENDBRANCH   1   2
BRANCH   1  11
ATOM     11  C   UNL     1      94.796 101.644  96.848  1.00  0.00     0.028 C 
BRANCH  11  12
ATOM     12  C   UNL     1      94.300 100.518  97.724  1.00  0.00    -0.028 C 
ATOM     13  C   UNL     1      92.999 100.262  97.985  1.00  0.00    -0.080 C 
ATOM     14  C   UNL     1      92.660  99.076  98.850  1.00  0.00     0.039 C 
ATOM     15  C   UNL     1      91.887 101.138  97.456  1.00  0.00     0.039 C 
ENDBRANCH  11  12
ENDBRANCH   1  11
TORSDOF 4
ENDMDL
MODEL 5
REMARK VINA RESULT:    -5.416      1.559      5.028
REMARK INTER + INTRA:          -7.506
REMARK INTER:                  -6.459
REMARK INTRA:                  -1.047
REMARK UNBOUND:                -0.823
REMARK SMILES CC(C)=CCC[C@H](C)c1ccc(C)cc1
REMARK SMILES IDX 6 1 7 2 8 3 9 4 13 5 12 6 11 7 14 8 10 9 15 10 5 11 4 12
REMARK SMILES IDX 2 13 1 14 3 15
REMARK H PARENT
REMARK Flexibility Score: inf
ROOT
ATOM      1  C   UNL     1      95.694 102.811  97.199  1.00  0.00     0.012 C 
ENDROOT
BRANCH   1   2
ATOM      2  C   UNL     1      95.041 101.470  97.619  1.00  0.00     0.016 C 
ATOM      3  C   UNL     1      94.098 100.914  96.540  1.00  0.00     0.013 C 
BRANCH   2   4
ATOM      4  C   UNL     1      94.302 101.638  98.934  1.00  0.00    -0.045 A 
ATOM      5  C   UNL     1      92.227 102.099 102.695  1.00  0.00     0.044 C 
ATOM      6  C   UNL     1      92.959 101.967 101.393  1.00  0.00    -0.051 A 
ATOM      7  C   UNL     1      94.240 101.397 101.357  1.00  0.00     0.004 A 
ATOM      8  C   UNL     1      92.343 102.352 100.194  1.00  0.00     0.004 A 
ATOM      9  C   UNL     1      94.909 101.241 100.140  1.00  0.00     0.004 A 
ATOM     10  C   UNL     1      93.011 102.196  98.975  1.00  0.00     0.004 A 
ENDBRANCH   2   4
ENDBRANCH   1   2
BRANCH   1  11
ATOM     11  C   UNL     1      96.147 103.690  98.377  1.00  0.00     0.028 C 
BRANCH  11  12
ATOM     12  C   UNL     1      95.815 105.149  98.167  1.00  0.00    -0.028 C 
ATOM     13  C   UNL     1      95.120 105.913  99.038  1.00  0.00    -0.080 C 
ATOM     14  C   UNL     1      94.902 107.366  98.703  1.00  0.00     0.039 C 
ATOM     15  C   UNL     1      94.542 105.350 100.315  1.00  0.00     0.039 C 
ENDBRANCH  11  12
ENDBRANCH   1  11
TORSDOF 4
ENDMDL
MODEL 6
REMARK VINA RESULT:    -5.311      1.286      2.139
REMARK INTER + INTRA:          -7.375
REMARK INTER:                  -6.153
REMARK INTRA:                  -1.222
REMARK UNBOUND:                -0.823
REMARK SMILES CC(C)=CCC[C@H](C)c1ccc(C)cc1
REMARK SMILES IDX 6 1 7 2 8 3 9 4 13 5 12 6 11 7 14 8 10 9 15 10 5 11 4 12
REMARK SMILES IDX 2 13 1 14 3 15
REMARK H PARENT
REMARK Flexibility Score: inf
ROOT
ATOM      1  C   UNL     1      95.298 100.486  99.495  1.00  0.00     0.012 C 
ENDROOT
BRANCH   1   2
ATOM      2  C   UNL     1      95.283 101.674 100.488  1.00  0.00     0.016 C 
ATOM      3  C   UNL     1      94.110 101.596 101.478  1.00  0.00     0.013 C 
BRANCH   2   4
ATOM      4  C   UNL     1      95.251 102.989  99.731  1.00  0.00    -0.045 A 
ATOM      5  C   UNL     1      95.133 106.744  97.599  1.00  0.00     0.044 C 
ATOM      6  C   UNL     1      95.198 105.451  98.356  1.00  0.00    -0.051 A 
ATOM      7  C   UNL     1      94.425 105.269  99.511  1.00  0.00     0.004 A 
ATOM      8  C   UNL     1      95.981 104.391  97.877  1.00  0.00     0.004 A 
ATOM      9  C   UNL     1      94.456 104.052 100.197  1.00  0.00     0.004 A 
ATOM     10  C   UNL     1      96.014 103.173  98.563  1.00  0.00     0.004 A 
ENDBRANCH   2   4
ENDBRANCH   1   2
BRANCH   1  11
ATOM     11  C   UNL     1      93.941  99.782  99.329  1.00  0.00     0.028 C 
BRANCH  11  12
ATOM     12  C   UNL     1      93.302 100.070  97.991  1.00  0.00    -0.028 C 
ATOM     13  C   UNL     1      92.403 101.053  97.765  1.00  0.00    -0.080 C 
ATOM     14  C   UNL     1      91.883 101.241  96.363  1.00  0.00     0.039 C 
ATOM     15  C   UNL     1      91.893 101.946  98.872  1.00  0.00     0.039 C 
ENDBRANCH  11  12
ENDBRANCH   1  11
TORSDOF 4
ENDMDL
MODEL 7
REMARK VINA RESULT:    -5.015     19.102     21.403
REMARK INTER + INTRA:          -7.010
REMARK INTER:                  -5.989
REMARK INTRA:                  -1.022
REMARK UNBOUND:                -0.823
REMARK SMILES CC(C)=CCC[C@H](C)c1ccc(C)cc1
REMARK SMILES IDX 6 1 7 2 8 3 9 4 13 5 12 6 11 7 14 8 10 9 15 10 5 11 4 12
REMARK SMILES IDX 2 13 1 14 3 15
REMARK H PARENT
REMARK Flexibility Score: inf
ROOT
ATOM      1  C   UNL     1     112.125 109.481 110.518  1.00  0.00     0.012 C 
ENDROOT
BRANCH   1   2
ATOM      2  C   UNL     1     111.059 110.081 111.468  1.00  0.00     0.016 C 
ATOM      3  C   UNL     1     111.674 111.006 112.530  1.00  0.00     0.013 C 
BRANCH   2   4
ATOM      4  C   UNL     1     110.263 108.970 112.129  1.00  0.00    -0.045 A 
ATOM      5  C   UNL     1     107.985 105.799 113.977  1.00  0.00     0.044 C 
ATOM      6  C   UNL     1     108.800 106.881 113.334  1.00  0.00    -0.051 A 
ATOM      7  C   UNL     1     108.775 107.051 111.942  1.00  0.00     0.004 A 
ATOM      8  C   UNL     1     109.540 107.772 114.123  1.00  0.00     0.004 A 
ATOM      9  C   UNL     1     109.506 108.081 111.344  1.00  0.00     0.004 A 
ATOM     10  C   UNL     1     110.272 108.803 113.526  1.00  0.00     0.004 A 
ENDBRANCH   2   4
ENDBRANCH   1   2
BRANCH   1  11
ATOM     11  C   UNL     1     111.925 109.840 109.035  1.00  0.00     0.028 C 
BRANCH  11  12
ATOM     12  C   UNL     1     111.455 108.660 108.217  1.00  0.00    -0.028 C 
ATOM     13  C   UNL     1     110.198 108.502 107.748  1.00  0.00    -0.080 C 
ATOM     14  C   UNL     1     109.891 107.286 106.911  1.00  0.00     0.039 C 
ATOM     15  C   UNL     1     109.096 109.489 108.055  1.00  0.00     0.039 C 
ENDBRANCH  11  12
ENDBRANCH   1  11
TORSDOF 4
ENDMDL
MODEL 8
REMARK VINA RESULT:    -5.007      1.601      3.285
REMARK INTER + INTRA:          -7.000
REMARK INTER:                  -6.148
REMARK INTRA:                  -0.853
REMARK UNBOUND:                -0.823
REMARK SMILES CC(C)=CCC[C@H](C)c1ccc(C)cc1
REMARK SMILES IDX 6 1 7 2 8 3 9 4 13 5 12 6 11 7 14 8 10 9 15 10 5 11 4 12
REMARK SMILES IDX 2 13 1 14 3 15
REMARK H PARENT
REMARK Flexibility Score: inf
ROOT
ATOM      1  C   UNL     1      95.327 101.442  97.857  1.00  0.00     0.012 C 
ENDROOT
BRANCH   1   2
ATOM      2  C   UNL     1      95.987 102.237  99.011  1.00  0.00     0.016 C 
ATOM      3  C   UNL     1      95.578 101.709 100.396  1.00  0.00     0.013 C 
BRANCH   2   4
ATOM      4  C   UNL     1      95.654 103.713  98.887  1.00  0.00    -0.045 A 
ATOM      5  C   UNL     1      94.694 107.912  98.567  1.00  0.00     0.044 C 
ATOM      6  C   UNL     1      95.055 106.462  98.687  1.00  0.00    -0.051 A 
ATOM      7  C   UNL     1      94.825 105.773  99.886  1.00  0.00     0.004 A 
ATOM      8  C   UNL     1      95.566 105.767  97.581  1.00  0.00     0.004 A 
ATOM      9  C   UNL     1      95.128 104.413  99.988  1.00  0.00     0.004 A 
ATOM     10  C   UNL     1      95.870 104.406  97.681  1.00  0.00     0.004 A 
ENDBRANCH   2   4
ENDBRANCH   1   2
BRANCH   1  11
ATOM     11  C   UNL     1      93.789 101.468  97.869  1.00  0.00     0.028 C 
BRANCH  11  12
ATOM     12  C   UNL     1      93.192 100.091  98.046  1.00  0.00    -0.028 C 
ATOM     13  C   UNL     1      92.432  99.712  99.098  1.00  0.00    -0.080 C 
ATOM     14  C   UNL     1      91.875  98.312  99.112  1.00  0.00     0.039 C 
ATOM     15  C   UNL     1      92.148 100.637 100.258  1.00  0.00     0.039 C 
ENDBRANCH  11  12
ENDBRANCH   1  11
TORSDOF 4
ENDMDL
MODEL 9
REMARK VINA RESULT:    -4.954      2.132      4.426
REMARK INTER + INTRA:          -6.935
REMARK INTER:                  -5.916
REMARK INTRA:                  -1.019
REMARK UNBOUND:                -0.823
REMARK SMILES CC(C)=CCC[C@H](C)c1ccc(C)cc1
REMARK SMILES IDX 6 1 7 2 8 3 9 4 13 5 12 6 11 7 14 8 10 9 15 10 5 11 4 12
REMARK SMILES IDX 2 13 1 14 3 15
REMARK H PARENT
REMARK Flexibility Score: inf
ROOT
ATOM      1  C   UNL     1      96.247 102.500  99.145  1.00  0.00     0.012 C 
ENDROOT
BRANCH   1   2
ATOM      2  C   UNL     1      95.933 103.301  97.856  1.00  0.00     0.016 C 
ATOM      3  C   UNL     1      97.088 103.260  96.844  1.00  0.00     0.013 C 
BRANCH   2   4
ATOM      4  C   UNL     1      95.584 104.737  98.205  1.00  0.00    -0.045 A 
ATOM      5  C   UNL     1      94.594 108.831  99.162  1.00  0.00     0.044 C 
ATOM      6  C   UNL     1      94.908 107.403  98.829  1.00  0.00    -0.051 A 
ATOM      7  C   UNL     1      95.069 107.008  97.494  1.00  0.00     0.004 A 
ATOM      8  C   UNL     1      95.107 106.466  99.853  1.00  0.00     0.004 A 
ATOM      9  C   UNL     1      95.397 105.685  97.183  1.00  0.00     0.004 A 
ATOM     10  C   UNL     1      95.434 105.142  99.544  1.00  0.00     0.004 A 
ENDBRANCH   2   4
ENDBRANCH   1   2
BRANCH   1  11
ATOM     11  C   UNL     1      95.327 101.289  99.377  1.00  0.00     0.028 C 
BRANCH  11  12
ATOM     12  C   UNL     1      94.569 101.384 100.680  1.00  0.00    -0.028 C 
ATOM     13  C   UNL     1      93.369 101.987 100.830  1.00  0.00    -0.080 C 
ATOM     14  C   UNL     1      92.721 101.966 102.190  1.00  0.00     0.039 C 
ATOM     15  C   UNL     1      92.679 102.695  99.688  1.00  0.00     0.039 C 
ENDBRANCH  11  12
ENDBRANCH   1  11
TORSDOF 4
ENDMDL
