MODEL 1
REMARK VINA RESULT:     5.768      0.000      0.000
REMARK INTER + INTRA:           9.075
REMARK INTER:                   9.814
REMARK INTRA:                  -0.740
REMARK UNBOUND:                -0.740
REMARK SMILES CCCCCCCCCCCCCC(=O)[O-]
REMARK SMILES IDX 8 1 9 2 10 3 11 4 12 5 13 6 14 7 15 8 16 9 7 10 6 11 5 12
REMARK SMILES IDX 4 13 3 14 2 15 1 16
REMARK H PARENT
REMARK Flexibility Score: inf
ROOT
ATOM      1  C   UNL     1      17.359 -19.239  24.794  1.00  0.00     0.000 C 
ENDROOT
BRANCH   1   2
ATOM      2  C   UNL     1      18.689 -18.810  25.436  1.00  0.00     0.000 C 
BRANCH   2   3
ATOM      3  C   UNL     1      19.260 -19.883  26.379  1.00  0.00     0.000 C 
BRANCH   3   4
ATOM      4  C   UNL     1      20.797 -19.939  26.344  1.00  0.00     0.000 C 
BRANCH   4   5
ATOM      5  C   UNL     1      21.341 -20.854  25.232  1.00  0.00     0.006 C 
BRANCH   5   6
ATOM      6  C   UNL     1      22.854 -21.121  25.327  1.00  0.00     0.053 C 
BRANCH   6   7
ATOM      7  C   UNL     1      23.557 -20.940  24.016  1.00  0.00     0.041 C 
ATOM      8  O   UNL     1      23.502 -19.837  23.411  1.00  0.00    -0.550 OA
ATOM      9  O   UNL     1      24.246 -22.003  23.445  1.00  0.00    -0.550 OA
ENDBRANCH   6   7
ENDBRANCH   5   6
ENDBRANCH   4   5
ENDBRANCH   3   4
ENDBRANCH   2   3
ENDBRANCH   1   2
BRANCH   1  10
ATOM     10  C   UNL     1      17.400 -19.198  23.258  1.00  0.00     0.000 C 
BRANCH  10  11
ATOM     11  C   UNL     1      17.666 -20.579  22.636  1.00  0.00    -0.000 C 
BRANCH  11  12
ATOM     12  C   UNL     1      16.453 -21.520  22.734  1.00  0.00    -0.000 C 
BRANCH  12  13
ATOM     13  C   UNL     1      16.455 -22.695  21.736  1.00  0.00    -0.000 C 
BRANCH  13  14
ATOM     14  C   UNL     1      17.835 -23.362  21.561  1.00  0.00    -0.000 C 
BRANCH  14  15
ATOM     15  C   UNL     1      17.945 -24.137  20.239  1.00  0.00    -0.003 C 
ATOM     16  C   UNL     1      18.570 -23.276  19.147  1.00  0.00     0.004 C 
ENDBRANCH  14  15
ENDBRANCH  13  14
ENDBRANCH  12  13
ENDBRANCH  11  12
ENDBRANCH  10  11
ENDBRANCH   1  10
TORSDOF 12
ENDMDL
MODEL 2
REMARK VINA RESULT:     6.328      2.737      5.995
REMARK INTER + INTRA:          10.027
REMARK INTER:                  10.441
REMARK INTRA:                  -0.414
REMARK UNBOUND:                -0.740
REMARK SMILES CCCCCCCCCCCCCC(=O)[O-]
REMARK SMILES IDX 8 1 9 2 10 3 11 4 12 5 13 6 14 7 15 8 16 9 7 10 6 11 5 12
REMARK SMILES IDX 4 13 3 14 2 15 1 16
REMARK H PARENT
REMARK Flexibility Score: inf
ROOT
ATOM      1  C   UNL     1      17.467 -18.917  24.970  1.00  0.00     0.000 C 
ENDROOT
BRANCH   1   2
ATOM      2  C   UNL     1      17.636 -19.175  23.463  1.00  0.00     0.000 C 
BRANCH   2   3
ATOM      3  C   UNL     1      16.829 -20.393  22.982  1.00  0.00     0.000 C 
BRANCH   3   4
ATOM      4  C   UNL     1      17.649 -21.318  22.067  1.00  0.00     0.000 C 
BRANCH   4   5
ATOM      5  C   UNL     1      16.923 -22.633  21.732  1.00  0.00     0.006 C 
BRANCH   5   6
ATOM      6  C   UNL     1      17.850 -23.746  21.212  1.00  0.00     0.053 C 
BRANCH   6   7
ATOM      7  C   UNL     1      18.156 -23.610  19.752  1.00  0.00     0.041 C 
ATOM      8  O   UNL     1      17.986 -24.584  18.972  1.00  0.00    -0.550 OA
ATOM      9  O   UNL     1      18.661 -22.414  19.256  1.00  0.00    -0.550 OA
ENDBRANCH   6   7
ENDBRANCH   5   6
ENDBRANCH   4   5
ENDBRANCH   3   4
ENDBRANCH   2   3
ENDBRANCH   1   2
BRANCH   1  10
ATOM     10  C   UNL     1      18.802 -18.636  25.678  1.00  0.00     0.000 C 
BRANCH  10  11
ATOM     11  C   UNL     1      19.408 -19.895  26.321  1.00  0.00    -0.000 C 
BRANCH  11  12
ATOM     12  C   UNL     1      20.923 -19.772  26.559  1.00  0.00    -0.000 C 
BRANCH  12  13
ATOM     13  C   UNL     1      21.758 -20.981  26.093  1.00  0.00    -0.000 C 
BRANCH  13  14
ATOM     14  C   UNL     1      22.091 -20.966  24.586  1.00  0.00    -0.000 C 
BRANCH  14  15
ATOM     15  C   UNL     1      23.540 -20.538  24.313  1.00  0.00    -0.003 C 
ATOM     16  C   UNL     1      24.310 -21.635  23.586  1.00  0.00     0.004 C 
ENDBRANCH  14  15
ENDBRANCH  13  14
ENDBRANCH  12  13
ENDBRANCH  11  12
ENDBRANCH  10  11
ENDBRANCH   1  10
TORSDOF 12
ENDMDL
MODEL 3
REMARK VINA RESULT:     7.323     10.356     13.277
REMARK INTER + INTRA:          11.721
REMARK INTER:                  12.224
REMARK INTRA:                  -0.503
REMARK UNBOUND:                -0.740
REMARK SMILES CCCCCCCCCCCCCC(=O)[O-]
REMARK SMILES IDX 8 1 9 2 10 3 11 4 12 5 13 6 14 7 15 8 16 9 7 10 6 11 5 12
REMARK SMILES IDX 4 13 3 14 2 15 1 16
REMARK H PARENT
REMARK Flexibility Score: inf
ROOT
ATOM      1  C   UNL     1      27.564 -18.001  13.752  1.00  0.00     0.000 C 
ENDROOT
BRANCH   1   2
ATOM      2  C   UNL     1      27.104 -19.072  12.748  1.00  0.00     0.000 C 
BRANCH   2   3
ATOM      3  C   UNL     1      26.369 -20.239  13.429  1.00  0.00     0.000 C 
BRANCH   3   4
ATOM      4  C   UNL     1      25.439 -19.767  14.560  1.00  0.00     0.000 C 
BRANCH   4   5
ATOM      5  C   UNL     1      25.060 -20.895  15.537  1.00  0.00     0.006 C 
BRANCH   5   6
ATOM      6  C   UNL     1      25.998 -22.114  15.480  1.00  0.00     0.053 C 
BRANCH   6   7
ATOM      7  C   UNL     1      25.296 -23.365  15.046  1.00  0.00     0.041 C 
ATOM      8  O   UNL     1      25.958 -24.385  14.718  1.00  0.00    -0.550 OA
ATOM      9  O   UNL     1      23.909 -23.393  14.971  1.00  0.00    -0.550 OA
ENDBRANCH   6   7
ENDBRANCH   5   6
ENDBRANCH   4   5
ENDBRANCH   3   4
ENDBRANCH   2   3
ENDBRANCH   1   2
BRANCH   1  10
ATOM     10  C   UNL     1      28.668 -17.093  13.187  1.00  0.00     0.000 C 
BRANCH  10  11
ATOM     11  C   UNL     1      29.205 -16.096  14.228  1.00  0.00    -0.000 C 
BRANCH  11  12
ATOM     12  C   UNL     1      28.125 -15.630  15.218  1.00  0.00    -0.000 C 
BRANCH  12  13
ATOM     13  C   UNL     1      28.432 -14.305  15.945  1.00  0.00    -0.000 C 
BRANCH  13  14
ATOM     14  C   UNL     1      28.991 -14.492  17.372  1.00  0.00    -0.000 C 
BRANCH  14  15
ATOM     15  C   UNL     1      29.470 -15.929  17.627  1.00  0.00    -0.003 C 
ATOM     16  C   UNL     1      28.463 -16.703  18.471  1.00  0.00     0.004 C 
ENDBRANCH  14  15
ENDBRANCH  13  14
ENDBRANCH  12  13
ENDBRANCH  11  12
ENDBRANCH  10  11
ENDBRANCH   1  10
TORSDOF 12
ENDMDL
MODEL 4
REMARK VINA RESULT:     7.431      2.140      4.473
REMARK INTER + INTRA:          11.905
REMARK INTER:                  12.573
REMARK INTRA:                  -0.668
REMARK UNBOUND:                -0.740
REMARK SMILES CCCCCCCCCCCCCC(=O)[O-]
REMARK SMILES IDX 8 1 9 2 10 3 11 4 12 5 13 6 14 7 15 8 16 9 7 10 6 11 5 12
REMARK SMILES IDX 4 13 3 14 2 15 1 16
REMARK H PARENT
REMARK Flexibility Score: inf
ROOT
ATOM      1  C   UNL     1      21.593 -20.902  26.098  1.00  0.00     0.000 C 
ENDROOT
BRANCH   1   2
ATOM      2  C   UNL     1      21.982 -20.905  24.609  1.00  0.00     0.000 C 
BRANCH   2   3
ATOM      3  C   UNL     1      23.441 -20.475  24.382  1.00  0.00     0.000 C 
BRANCH   3   4
ATOM      4  C   UNL     1      24.196 -21.430  23.443  1.00  0.00     0.000 C 
BRANCH   4   5
ATOM      5  C   UNL     1      24.628 -22.737  24.134  1.00  0.00     0.006 C 
BRANCH   5   6
ATOM      6  C   UNL     1      26.115 -22.774  24.530  1.00  0.00     0.053 C 
BRANCH   6   7
ATOM      7  C   UNL     1      26.321 -22.733  26.013  1.00  0.00     0.041 C 
ATOM      8  O   UNL     1      27.380 -23.187  26.522  1.00  0.00    -0.550 OA
ATOM      9  O   UNL     1      25.326 -22.225  26.839  1.00  0.00    -0.550 OA
ENDBRANCH   6   7
ENDBRANCH   5   6
ENDBRANCH   4   5
ENDBRANCH   3   4
ENDBRANCH   2   3
ENDBRANCH   1   2
BRANCH   1  10
ATOM     10  C   UNL     1      20.828 -19.634  26.509  1.00  0.00     0.000 C 
BRANCH  10  11
ATOM     11  C   UNL     1      19.302 -19.811  26.431  1.00  0.00    -0.000 C 
BRANCH  11  12
ATOM     12  C   UNL     1      18.602 -18.641  25.719  1.00  0.00    -0.000 C 
BRANCH  12  13
ATOM     13  C   UNL     1      17.421 -19.041  24.812  1.00  0.00    -0.000 C 
BRANCH  13  14
ATOM     14  C   UNL     1      17.834 -19.374  23.362  1.00  0.00    -0.000 C 
BRANCH  14  15
ATOM     15  C   UNL     1      16.695 -20.030  22.568  1.00  0.00    -0.003 C 
ATOM     16  C   UNL     1      16.957 -21.516  22.353  1.00  0.00     0.004 C 
ENDBRANCH  14  15
ENDBRANCH  13  14
ENDBRANCH  12  13
ENDBRANCH  11  12
ENDBRANCH  10  11
ENDBRANCH   1  10
TORSDOF 12
ENDMDL
MODEL 5
REMARK VINA RESULT:     7.514      2.990      6.776
REMARK INTER + INTRA:          12.046
REMARK INTER:                  12.657
REMARK INTRA:                  -0.611
REMARK UNBOUND:                -0.740
REMARK SMILES CCCCCCCCCCCCCC(=O)[O-]
REMARK SMILES IDX 8 1 9 2 10 3 11 4 12 5 13 6 14 7 15 8 16 9 7 10 6 11 5 12
REMARK SMILES IDX 4 13 3 14 2 15 1 16
REMARK H PARENT
REMARK Flexibility Score: inf
ROOT
ATOM      1  C   UNL     1      21.461 -20.727  26.247  1.00  0.00     0.000 C 
ENDROOT
BRANCH   1   2
ATOM      2  C   UNL     1      20.575 -19.474  26.357  1.00  0.00     0.000 C 
BRANCH   2   3
ATOM      3  C   UNL     1      19.101 -19.820  26.630  1.00  0.00     0.000 C 
BRANCH   3   4
ATOM      4  C   UNL     1      18.134 -18.782  26.035  1.00  0.00     0.000 C 
BRANCH   4   5
ATOM      5  C   UNL     1      18.092 -18.811  24.496  1.00  0.00     0.006 C 
BRANCH   5   6
ATOM      6  C   UNL     1      16.896 -19.587  23.917  1.00  0.00     0.053 C 
BRANCH   6   7
ATOM      7  C   UNL     1      17.254 -20.377  22.696  1.00  0.00     0.041 C 
ATOM      8  O   UNL     1      18.134 -19.954  21.899  1.00  0.00    -0.550 OA
ATOM      9  O   UNL     1      16.591 -21.566  22.418  1.00  0.00    -0.550 OA
ENDBRANCH   6   7
ENDBRANCH   5   6
ENDBRANCH   4   5
ENDBRANCH   3   4
ENDBRANCH   2   3
ENDBRANCH   1   2
BRANCH   1  10
ATOM     10  C   UNL     1      21.883 -21.030  24.801  1.00  0.00     0.000 C 
BRANCH  10  11
ATOM     11  C   UNL     1      23.247 -20.417  24.441  1.00  0.00    -0.000 C 
BRANCH  11  12
ATOM     12  C   UNL     1      24.026 -21.258  23.416  1.00  0.00    -0.000 C 
BRANCH  12  13
ATOM     13  C   UNL     1      24.906 -22.373  24.018  1.00  0.00    -0.000 C 
BRANCH  13  14
ATOM     14  C   UNL     1      25.382 -22.082  25.457  1.00  0.00    -0.000 C 
BRANCH  14  15
ATOM     15  C   UNL     1      26.433 -23.092  25.939  1.00  0.00    -0.003 C 
ATOM     16  C   UNL     1      27.629 -22.386  26.567  1.00  0.00     0.004 C 
ENDBRANCH  14  15
ENDBRANCH  13  14
ENDBRANCH  12  13
ENDBRANCH  11  12
ENDBRANCH  10  11
ENDBRANCH   1  10
TORSDOF 12
ENDMDL
MODEL 6
REMARK VINA RESULT:     7.589     10.229     12.260
REMARK INTER + INTRA:          12.174
REMARK INTER:                  13.003
REMARK INTRA:                  -0.829
REMARK UNBOUND:                -0.740
REMARK SMILES CCCCCCCCCCCCCC(=O)[O-]
REMARK SMILES IDX 8 1 9 2 10 3 11 4 12 5 13 6 14 7 15 8 16 9 7 10 6 11 5 12
REMARK SMILES IDX 4 13 3 14 2 15 1 16
REMARK H PARENT
REMARK Flexibility Score: inf
ROOT
ATOM      1  C   UNL     1      27.174 -19.174  12.783  1.00  0.00     0.000 C 
ENDROOT
BRANCH   1   2
ATOM      2  C   UNL     1      27.500 -17.976  13.690  1.00  0.00     0.000 C 
BRANCH   2   3
ATOM      3  C   UNL     1      28.666 -17.131  13.150  1.00  0.00     0.000 C 
BRANCH   3   4
ATOM      4  C   UNL     1      29.098 -16.029  14.132  1.00  0.00     0.000 C 
BRANCH   4   5
ATOM      5  C   UNL     1      28.038 -15.732  15.208  1.00  0.00     0.006 C 
BRANCH   5   6
ATOM      6  C   UNL     1      28.445 -14.628  16.200  1.00  0.00     0.053 C 
BRANCH   6   7
ATOM      7  C   UNL     1      29.112 -15.170  17.428  1.00  0.00     0.041 C 
ATOM      8  O   UNL     1      29.864 -14.435  18.121  1.00  0.00    -0.550 OA
ATOM      9  O   UNL     1      28.928 -16.499  17.789  1.00  0.00    -0.550 OA
ENDBRANCH   6   7
ENDBRANCH   5   6
ENDBRANCH   4   5
ENDBRANCH   3   4
ENDBRANCH   2   3
ENDBRANCH   1   2
BRANCH   1  10
ATOM     10  C   UNL     1      26.192 -20.161  13.434  1.00  0.00     0.000 C 
BRANCH  10  11
ATOM     11  C   UNL     1      25.519 -19.585  14.691  1.00  0.00    -0.000 C 
BRANCH  11  12
ATOM     12  C   UNL     1      24.973 -20.677  15.628  1.00  0.00    -0.000 C 
BRANCH  12  13
ATOM     13  C   UNL     1      25.722 -22.023  15.569  1.00  0.00    -0.000 C 
BRANCH  13  14
ATOM     14  C   UNL     1      24.828 -23.218  15.174  1.00  0.00    -0.000 C 
BRANCH  14  15
ATOM     15  C   UNL     1      25.632 -24.363  14.541  1.00  0.00    -0.003 C 
ATOM     16  C   UNL     1      27.096 -23.976  14.364  1.00  0.00     0.004 C 
ENDBRANCH  14  15
ENDBRANCH  13  14
ENDBRANCH  12  13
ENDBRANCH  11  12
ENDBRANCH  10  11
ENDBRANCH   1  10
TORSDOF 12
ENDMDL
MODEL 7
REMARK VINA RESULT:     7.826     13.034     13.886
REMARK INTER + INTRA:          12.577
REMARK INTER:                  13.042
REMARK INTRA:                  -0.465
REMARK UNBOUND:                -0.740
REMARK SMILES CCCCCCCCCCCCCC(=O)[O-]
REMARK SMILES IDX 8 1 9 2 10 3 11 4 12 5 13 6 14 7 15 8 16 9 7 10 6 11 5 12
REMARK SMILES IDX 4 13 3 14 2 15 1 16
REMARK H PARENT
REMARK Flexibility Score: inf
ROOT
ATOM      1  C   UNL     1      19.155  -7.630  23.816  1.00  0.00     0.000 C 
ENDROOT
BRANCH   1   2
ATOM      2  C   UNL     1      18.113  -8.640  24.328  1.00  0.00     0.000 C 
BRANCH   2   3
ATOM      3  C   UNL     1      17.063  -7.987  25.243  1.00  0.00     0.000 C 
BRANCH   3   4
ATOM      4  C   UNL     1      16.574  -8.937  26.348  1.00  0.00     0.000 C 
BRANCH   4   5
ATOM      5  C   UNL     1      16.175  -8.203  27.641  1.00  0.00     0.006 C 
BRANCH   5   6
ATOM      6  C   UNL     1      16.273  -9.069  28.910  1.00  0.00     0.053 C 
BRANCH   6   7
ATOM      7  C   UNL     1      17.462  -8.727  29.754  1.00  0.00     0.041 C 
ATOM      8  O   UNL     1      17.671  -7.536  30.107  1.00  0.00    -0.550 OA
ATOM      9  O   UNL     1      18.361  -9.720  30.125  1.00  0.00    -0.550 OA
ENDBRANCH   6   7
ENDBRANCH   5   6
ENDBRANCH   4   5
ENDBRANCH   3   4
ENDBRANCH   2   3
ENDBRANCH   1   2
BRANCH   1  10
ATOM     10  C   UNL     1      20.128  -8.247  22.798  1.00  0.00     0.000 C 
BRANCH  10  11
ATOM     11  C   UNL     1      19.634  -8.109  21.348  1.00  0.00    -0.000 C 
BRANCH  11  12
ATOM     12  C   UNL     1      20.780  -7.888  20.347  1.00  0.00    -0.000 C 
BRANCH  12  13
ATOM     13  C   UNL     1      20.370  -7.942  18.861  1.00  0.00    -0.000 C 
BRANCH  13  14
ATOM     14  C   UNL     1      18.973  -7.351  18.578  1.00  0.00    -0.000 C 
BRANCH  14  15
ATOM     15  C   UNL     1      18.099  -8.295  17.740  1.00  0.00    -0.003 C 
ATOM     16  C   UNL     1      16.816  -8.660  18.480  1.00  0.00     0.004 C 
ENDBRANCH  14  15
ENDBRANCH  13  14
ENDBRANCH  12  13
ENDBRANCH  11  12
ENDBRANCH  10  11
ENDBRANCH   1  10
TORSDOF 12
ENDMDL
