MODEL 1
REMARK VINA RESULT:    -5.409      0.000      0.000
REMARK INTER + INTRA:          -8.216
REMARK INTER:                  -7.306
REMARK INTRA:                  -0.910
REMARK UNBOUND:                -0.910
REMARK SMILES CC(=O)CCC=C(C)CCC=C(C)C
REMARK SMILES IDX 7 1 6 2 8 3 9 4 10 5 11 6 13 7 12 8 14 9 5 10 4 11 2 12 3 13
REMARK SMILES IDX 1 14
REMARK H PARENT
REMARK Flexibility Score: inf
ROOT
ATOM      1  C   UNL     1      27.671  18.274  27.755  1.00  0.00    -0.077 C 
ATOM      2  C   UNL     1      28.115  18.743  26.567  1.00  0.00    -0.028 C 
ATOM      3  C   UNL     1      28.618  17.931  28.881  1.00  0.00     0.039 C 
ENDROOT
BRANCH   1   4
ATOM      4  C   UNL     1      26.186  18.064  27.953  1.00  0.00     0.034 C 
BRANCH   4   5
ATOM      5  C   UNL     1      25.574  19.219  28.756  1.00  0.00     0.032 C 
BRANCH   5   6
ATOM      6  C   UNL     1      25.079  20.318  27.847  1.00  0.00    -0.028 C 
ATOM      7  C   UNL     1      26.989  21.805  28.458  1.00  0.00     0.039 C 
ATOM      8  C   UNL     1      25.716  21.499  27.705  1.00  0.00    -0.080 C 
ATOM      9  C   UNL     1      25.135  22.528  26.770  1.00  0.00     0.039 C 
ENDBRANCH   5   6
ENDBRANCH   4   5
ENDBRANCH   1   4
BRANCH   2  10
ATOM     10  C   UNL     1      29.560  19.043  26.254  1.00  0.00     0.035 C 
BRANCH  10  11
ATOM     11  C   UNL     1      29.683  19.786  24.922  1.00  0.00     0.079 C 
BRANCH  11  12
ATOM     12  C   UNL     1      31.071  19.642  24.357  1.00  0.00     0.130 C 
ATOM     13  O   UNL     1      31.406  20.327  23.402  1.00  0.00    -0.300 OA
ATOM     14  C   UNL     1      32.052  18.664  24.934  1.00  0.00     0.087 C 
ENDBRANCH  11  12
ENDBRANCH  10  11
ENDBRANCH   2  10
TORSDOF 6
ENDMDL
MODEL 2
REMARK VINA RESULT:    -5.360      2.158      5.767
REMARK INTER + INTRA:          -8.149
REMARK INTER:                  -7.494
REMARK INTRA:                  -0.656
REMARK UNBOUND:                -0.910
REMARK SMILES CC(=O)CCC=C(C)CCC=C(C)C
REMARK SMILES IDX 7 1 6 2 8 3 9 4 10 5 11 6 13 7 12 8 14 9 5 10 4 11 2 12 3 13
REMARK SMILES IDX 1 14
REMARK H PARENT
REMARK Flexibility Score: inf
ROOT
ATOM      1  C   UNL     1      28.844  17.963  28.030  1.00  0.00    -0.077 C 
ATOM      2  C   UNL     1      27.736  18.406  27.394  1.00  0.00    -0.028 C 
ATOM      3  C   UNL     1      28.854  17.689  29.515  1.00  0.00     0.039 C 
ENDROOT
BRANCH   1   4
ATOM      4  C   UNL     1      30.115  17.759  27.235  1.00  0.00     0.034 C 
BRANCH   4   5
ATOM      5  C   UNL     1      30.180  18.731  26.051  1.00  0.00     0.032 C 
BRANCH   5   6
ATOM      6  C   UNL     1      31.413  18.493  25.212  1.00  0.00    -0.028 C 
ATOM      7  C   UNL     1      30.386  19.606  23.227  1.00  0.00     0.039 C 
ATOM      8  C   UNL     1      31.515  18.887  23.925  1.00  0.00    -0.080 C 
ATOM      9  C   UNL     1      32.792  18.598  23.179  1.00  0.00     0.039 C 
ENDBRANCH   5   6
ENDBRANCH   4   5
ENDBRANCH   1   4
BRANCH   2  10
ATOM     10  C   UNL     1      26.395  18.605  28.054  1.00  0.00     0.035 C 
BRANCH  10  11
ATOM     11  C   UNL     1      25.781  19.946  27.641  1.00  0.00     0.079 C 
BRANCH  11  12
ATOM     12  C   UNL     1      26.366  21.072  28.451  1.00  0.00     0.130 C 
ATOM     13  O   UNL     1      26.519  22.169  27.934  1.00  0.00    -0.300 OA
ATOM     14  C   UNL     1      26.780  20.875  29.880  1.00  0.00     0.087 C 
ENDBRANCH  11  12
ENDBRANCH  10  11
ENDBRANCH   2  10
TORSDOF 6
ENDMDL
MODEL 3
REMARK VINA RESULT:    -5.240      6.925     10.485
REMARK INTER + INTRA:          -7.988
REMARK INTER:                  -7.390
REMARK INTRA:                  -0.597
REMARK UNBOUND:                -0.910
REMARK SMILES CC(=O)CCC=C(C)CCC=C(C)C
REMARK SMILES IDX 7 1 6 2 8 3 9 4 10 5 11 6 13 7 12 8 14 9 5 10 4 11 2 12 3 13
REMARK SMILES IDX 1 14
REMARK H PARENT
REMARK Flexibility Score: inf
ROOT
ATOM      1  C   UNL     1      33.756  21.343  17.742  1.00  0.00    -0.077 C 
ATOM      2  C   UNL     1      32.527  20.982  17.308  1.00  0.00    -0.028 C 
ATOM      3  C   UNL     1      34.875  21.672  16.782  1.00  0.00     0.039 C 
ENDROOT
BRANCH   1   4
ATOM      4  C   UNL     1      34.023  21.397  19.230  1.00  0.00     0.034 C 
BRANCH   4   5
ATOM      5  C   UNL     1      33.226  20.314  19.967  1.00  0.00     0.032 C 
BRANCH   5   6
ATOM      6  C   UNL     1      33.282  20.514  21.463  1.00  0.00    -0.028 C 
ATOM      7  C   UNL     1      31.924  18.460  21.877  1.00  0.00     0.039 C 
ATOM      8  C   UNL     1      32.691  19.675  22.340  1.00  0.00    -0.080 C 
ATOM      9  C   UNL     1      32.809  19.968  23.813  1.00  0.00     0.039 C 
ENDBRANCH   5   6
ENDBRANCH   4   5
ENDBRANCH   1   4
BRANCH   2  10
ATOM     10  C   UNL     1      32.114  20.934  15.858  1.00  0.00     0.035 C 
BRANCH  10  11
ATOM     11  C   UNL     1      31.255  19.698  15.580  1.00  0.00     0.079 C 
BRANCH  11  12
ATOM     12  C   UNL     1      32.110  18.460  15.505  1.00  0.00     0.130 C 
ATOM     13  O   UNL     1      31.650  17.388  15.871  1.00  0.00    -0.300 OA
ATOM     14  C   UNL     1      33.523  18.515  15.003  1.00  0.00     0.087 C 
ENDBRANCH  11  12
ENDBRANCH  10  11
ENDBRANCH   2  10
TORSDOF 6
ENDMDL
MODEL 4
REMARK VINA RESULT:    -5.151      2.617      6.272
REMARK INTER + INTRA:          -7.868
REMARK INTER:                  -7.218
REMARK INTRA:                  -0.649
REMARK UNBOUND:                -0.910
REMARK SMILES CC(=O)CCC=C(C)CCC=C(C)C
REMARK SMILES IDX 7 1 6 2 8 3 9 4 10 5 11 6 13 7 12 8 14 9 5 10 4 11 2 12 3 13
REMARK SMILES IDX 1 14
REMARK H PARENT
REMARK Flexibility Score: inf
ROOT
ATOM      1  C   UNL     1      29.477  18.521  26.927  1.00  0.00    -0.077 C 
ATOM      2  C   UNL     1      28.757  19.504  26.341  1.00  0.00    -0.028 C 
ATOM      3  C   UNL     1      29.020  17.850  28.201  1.00  0.00     0.039 C 
ENDROOT
BRANCH   1   4
ATOM      4  C   UNL     1      30.787  18.098  26.300  1.00  0.00     0.034 C 
BRANCH   4   5
ATOM      5  C   UNL     1      31.077  18.915  25.036  1.00  0.00     0.032 C 
BRANCH   5   6
ATOM      6  C   UNL     1      32.562  19.053  24.800  1.00  0.00    -0.028 C 
ATOM      7  C   UNL     1      32.267  21.260  23.670  1.00  0.00     0.039 C 
ATOM      8  C   UNL     1      33.113  20.117  24.178  1.00  0.00    -0.080 C 
ATOM      9  C   UNL     1      34.608  20.154  23.994  1.00  0.00     0.039 C 
ENDBRANCH   5   6
ENDBRANCH   4   5
ENDBRANCH   1   4
BRANCH   2  10
ATOM     10  C   UNL     1      27.415  19.987  26.832  1.00  0.00     0.035 C 
BRANCH  10  11
ATOM     11  C   UNL     1      27.584  21.139  27.827  1.00  0.00     0.079 C 
BRANCH  11  12
ATOM     12  C   UNL     1      26.767  20.895  29.068  1.00  0.00     0.130 C 
ATOM     13  O   UNL     1      26.884  21.649  30.023  1.00  0.00    -0.300 OA
ATOM     14  C   UNL     1      25.818  19.736  29.165  1.00  0.00     0.087 C 
ENDBRANCH  11  12
ENDBRANCH  10  11
ENDBRANCH   2  10
TORSDOF 6
ENDMDL
MODEL 5
REMARK VINA RESULT:    -5.044      6.011     10.170
REMARK INTER + INTRA:          -7.723
REMARK INTER:                  -7.013
REMARK INTRA:                  -0.710
REMARK UNBOUND:                -0.910
REMARK SMILES CC(=O)CCC=C(C)CCC=C(C)C
REMARK SMILES IDX 7 1 6 2 8 3 9 4 10 5 11 6 13 7 12 8 14 9 5 10 4 11 2 12 3 13
REMARK SMILES IDX 1 14
REMARK H PARENT
REMARK Flexibility Score: inf
ROOT
ATOM      1  C   UNL     1      31.618  19.508  19.235  1.00  0.00    -0.077 C 
ATOM      2  C   UNL     1      30.628  18.993  19.999  1.00  0.00    -0.028 C 
ATOM      3  C   UNL     1      32.947  19.920  19.824  1.00  0.00     0.039 C 
ENDROOT
BRANCH   1   4
ATOM      4  C   UNL     1      31.379  19.698  17.754  1.00  0.00     0.034 C 
BRANCH   4   5
ATOM      5  C   UNL     1      32.318  20.766  17.181  1.00  0.00     0.032 C 
BRANCH   5   6
ATOM      6  C   UNL     1      33.421  20.144  16.359  1.00  0.00    -0.028 C 
ATOM      7  C   UNL     1      35.139  21.657  17.355  1.00  0.00     0.039 C 
ATOM      8  C   UNL     1      34.708  20.544  16.431  1.00  0.00    -0.080 C 
ATOM      9  C   UNL     1      35.730  19.853  15.565  1.00  0.00     0.039 C 
ENDBRANCH   5   6
ENDBRANCH   4   5
ENDBRANCH   1   4
BRANCH   2  10
ATOM     10  C   UNL     1      30.750  18.708  21.475  1.00  0.00     0.035 C 
BRANCH  10  11
ATOM     11  C   UNL     1      29.960  19.734  22.293  1.00  0.00     0.079 C 
BRANCH  11  12
ATOM     12  C   UNL     1      30.731  20.145  23.519  1.00  0.00     0.130 C 
ATOM     13  O   UNL     1      30.360  19.763  24.619  1.00  0.00    -0.300 OA
ATOM     14  C   UNL     1      31.941  21.027  23.423  1.00  0.00     0.087 C 
ENDBRANCH  11  12
ENDBRANCH  10  11
ENDBRANCH   2  10
TORSDOF 6
ENDMDL
MODEL 6
REMARK VINA RESULT:    -5.035      5.159      8.981
REMARK INTER + INTRA:          -7.710
REMARK INTER:                  -6.901
REMARK INTRA:                  -0.809
REMARK UNBOUND:                -0.910
REMARK SMILES CC(=O)CCC=C(C)CCC=C(C)C
REMARK SMILES IDX 7 1 6 2 8 3 9 4 10 5 11 6 13 7 12 8 14 9 5 10 4 11 2 12 3 13
REMARK SMILES IDX 1 14
REMARK H PARENT
REMARK Flexibility Score: inf
ROOT
ATOM      1  C   UNL     1      36.307  19.868  24.988  1.00  0.00    -0.077 C 
ATOM      2  C   UNL     1      35.250  20.370  24.310  1.00  0.00    -0.028 C 
ATOM      3  C   UNL     1      36.132  18.894  26.129  1.00  0.00     0.039 C 
ENDROOT
BRANCH   1   4
ATOM      4  C   UNL     1      37.702  20.311  24.606  1.00  0.00     0.034 C 
BRANCH   4   5
ATOM      5  C   UNL     1      38.382  21.039  25.771  1.00  0.00     0.032 C 
BRANCH   5   6
ATOM      6  C   UNL     1      37.603  22.266  26.181  1.00  0.00    -0.028 C 
ATOM      7  C   UNL     1      37.687  21.623  28.592  1.00  0.00     0.039 C 
ATOM      8  C   UNL     1      37.281  22.540  27.463  1.00  0.00    -0.080 C 
ATOM      9  C   UNL     1      36.500  23.793  27.761  1.00  0.00     0.039 C 
ENDBRANCH   5   6
ENDBRANCH   4   5
ENDBRANCH   1   4
BRANCH   2  10
ATOM     10  C   UNL     1      33.815  19.978  24.555  1.00  0.00     0.035 C 
BRANCH  10  11
ATOM     11  C   UNL     1      33.246  19.224  23.350  1.00  0.00     0.079 C 
BRANCH  11  12
ATOM     12  C   UNL     1      32.208  18.224  23.788  1.00  0.00     0.130 C 
ATOM     13  O   UNL     1      31.939  17.279  23.062  1.00  0.00    -0.300 OA
ATOM     14  C   UNL     1      31.484  18.371  25.094  1.00  0.00     0.087 C 
ENDBRANCH  11  12
ENDBRANCH  10  11
ENDBRANCH   2  10
TORSDOF 6
ENDMDL
MODEL 7
REMARK VINA RESULT:    -4.969      6.718     10.111
REMARK INTER + INTRA:          -7.621
REMARK INTER:                  -6.991
REMARK INTRA:                  -0.630
REMARK UNBOUND:                -0.910
REMARK SMILES CC(=O)CCC=C(C)CCC=C(C)C
REMARK SMILES IDX 7 1 6 2 8 3 9 4 10 5 11 6 13 7 12 8 14 9 5 10 4 11 2 12 3 13
REMARK SMILES IDX 1 14
REMARK H PARENT
REMARK Flexibility Score: inf
ROOT
ATOM      1  C   UNL     1      33.100  20.337  18.604  1.00  0.00    -0.077 C 
ATOM      2  C   UNL     1      32.497  20.081  17.421  1.00  0.00    -0.028 C 
ATOM      3  C   UNL     1      34.261  21.296  18.715  1.00  0.00     0.039 C 
ENDROOT
BRANCH   1   4
ATOM      4  C   UNL     1      32.611  19.626  19.846  1.00  0.00     0.034 C 
BRANCH   4   5
ATOM      5  C   UNL     1      33.177  20.284  21.110  1.00  0.00     0.032 C 
BRANCH   5   6
ATOM      6  C   UNL     1      32.623  19.641  22.359  1.00  0.00    -0.028 C 
ATOM      7  C   UNL     1      34.781  19.942  23.578  1.00  0.00     0.039 C 
ATOM      8  C   UNL     1      33.346  19.481  23.487  1.00  0.00    -0.080 C 
ATOM      9  C   UNL     1      32.694  18.826  24.678  1.00  0.00     0.039 C 
ENDBRANCH   5   6
ENDBRANCH   4   5
ENDBRANCH   1   4
BRANCH   2  10
ATOM     10  C   UNL     1      32.851  20.754  16.119  1.00  0.00     0.035 C 
BRANCH  10  11
ATOM     11  C   UNL     1      33.095  19.716  15.020  1.00  0.00     0.079 C 
BRANCH  11  12
ATOM     12  C   UNL     1      34.381  18.971  15.266  1.00  0.00     0.130 C 
ATOM     13  O   UNL     1      34.367  17.751  15.328  1.00  0.00    -0.300 OA
ATOM     14  C   UNL     1      35.682  19.697  15.451  1.00  0.00     0.087 C 
ENDBRANCH  11  12
ENDBRANCH  10  11
ENDBRANCH   2  10
TORSDOF 6
ENDMDL
MODEL 8
REMARK VINA RESULT:    -4.937      1.553      2.879
REMARK INTER + INTRA:          -7.579
REMARK INTER:                  -6.981
REMARK INTRA:                  -0.598
REMARK UNBOUND:                -0.910
REMARK SMILES CC(=O)CCC=C(C)CCC=C(C)C
REMARK SMILES IDX 7 1 6 2 8 3 9 4 10 5 11 6 13 7 12 8 14 9 5 10 4 11 2 12 3 13
REMARK SMILES IDX 1 14
REMARK H PARENT
REMARK Flexibility Score: inf
ROOT
ATOM      1  C   UNL     1      29.817  18.487  26.644  1.00  0.00    -0.077 C 
ATOM      2  C   UNL     1      30.998  18.106  26.105  1.00  0.00    -0.028 C 
ATOM      3  C   UNL     1      28.954  19.547  26.001  1.00  0.00     0.039 C 
ENDROOT
BRANCH   1   4
ATOM      4  C   UNL     1      29.360  17.850  27.937  1.00  0.00     0.034 C 
BRANCH   4   5
ATOM      5  C   UNL     1      27.901  18.211  28.238  1.00  0.00     0.032 C 
BRANCH   5   6
ATOM      6  C   UNL     1      27.811  19.358  29.216  1.00  0.00    -0.028 C 
ATOM      7  C   UNL     1      25.929  20.404  27.951  1.00  0.00     0.039 C 
ATOM      8  C   UNL     1      26.916  20.362  29.093  1.00  0.00    -0.080 C 
ATOM      9  C   UNL     1      26.912  21.458  30.126  1.00  0.00     0.039 C 
ENDBRANCH   5   6
ENDBRANCH   4   5
ENDBRANCH   1   4
BRANCH   2  10
ATOM     10  C   UNL     1      31.547  18.625  24.799  1.00  0.00     0.035 C 
BRANCH  10  11
ATOM     11  C   UNL     1      32.968  19.164  24.985  1.00  0.00     0.079 C 
BRANCH  11  12
ATOM     12  C   UNL     1      33.204  20.360  24.100  1.00  0.00     0.130 C 
ATOM     13  O   UNL     1      34.308  20.534  23.606  1.00  0.00    -0.300 OA
ATOM     14  C   UNL     1      32.114  21.353  23.822  1.00  0.00     0.087 C 
ENDBRANCH  11  12
ENDBRANCH  10  11
ENDBRANCH   2  10
TORSDOF 6
ENDMDL
MODEL 9
REMARK VINA RESULT:    -4.884      7.638     10.774
REMARK INTER + INTRA:          -7.507
REMARK INTER:                  -6.616
REMARK INTRA:                  -0.891
REMARK UNBOUND:                -0.910
REMARK SMILES CC(=O)CCC=C(C)CCC=C(C)C
REMARK SMILES IDX 7 1 6 2 8 3 9 4 10 5 11 6 13 7 12 8 14 9 5 10 4 11 2 12 3 13
REMARK SMILES IDX 1 14
REMARK H PARENT
REMARK Flexibility Score: inf
ROOT
ATOM      1  C   UNL     1      37.423  22.336  27.052  1.00  0.00    -0.077 C 
ATOM      2  C   UNL     1      38.021  21.416  27.844  1.00  0.00    -0.028 C 
ATOM      3  C   UNL     1      36.502  23.393  27.614  1.00  0.00     0.039 C 
ENDROOT
BRANCH   1   4
ATOM      4  C   UNL     1      37.668  22.290  25.560  1.00  0.00     0.034 C 
BRANCH   4   5
ATOM      5  C   UNL     1      37.509  20.862  25.025  1.00  0.00     0.032 C 
BRANCH   5   6
ATOM      6  C   UNL     1      36.054  20.512  24.819  1.00  0.00    -0.028 C 
ATOM      7  C   UNL     1      36.206  18.573  26.384  1.00  0.00     0.039 C 
ATOM      8  C   UNL     1      35.453  19.472  25.433  1.00  0.00    -0.080 C 
ATOM      9  C   UNL     1      33.995  19.212  25.155  1.00  0.00     0.039 C 
ENDBRANCH   5   6
ENDBRANCH   4   5
ENDBRANCH   1   4
BRANCH   2  10
ATOM     10  C   UNL     1      37.901  21.378  29.347  1.00  0.00     0.035 C 
BRANCH  10  11
ATOM     11  C   UNL     1      39.133  22.007  30.005  1.00  0.00     0.079 C 
BRANCH  11  12
ATOM     12  C   UNL     1      39.127  21.764  31.491  1.00  0.00     0.130 C 
ATOM     13  O   UNL     1      39.851  22.433  32.213  1.00  0.00    -0.300 OA
ATOM     14  C   UNL     1      38.257  20.707  32.106  1.00  0.00     0.087 C 
ENDBRANCH  11  12
ENDBRANCH  10  11
ENDBRANCH   2  10
TORSDOF 6
ENDMDL
