MODEL 1
REMARK VINA RESULT:    -4.451      0.000      0.000
REMARK INTER + INTRA:          -4.905
REMARK INTER:                  -4.841
REMARK INTRA:                  -0.064
REMARK UNBOUND:                -0.064
REMARK SMILES CC1(C)[C@@H]2CC=C(CO)[C@H]1C2
REMARK SMILES IDX 8 1 7 2 1 3 2 4 4 5 3 6 10 7 5 8 11 9 6 10 9 11
REMARK H PARENT 9 12
REMARK Flexibility Score: inf
ROOT
ATOM      1  C   UNL     1      48.209  45.112  31.843  1.00  0.00     0.187 C 
ENDROOT
BRANCH   1   2
ATOM      2  C   UNL     1      47.152  44.130  31.417  1.00  0.00    -0.045 C 
ATOM      3  C   UNL     1      45.771  42.359  33.341  1.00  0.00     0.012 C 
ATOM      4  C   UNL     1      44.989  43.155  32.259  1.00  0.00    -0.026 C 
ATOM      5  C   UNL     1      44.951  42.600  30.808  1.00  0.00    -0.000 C 
ATOM      6  C   UNL     1      43.571  43.457  32.807  1.00  0.00     0.012 C 
ATOM      7  C   UNL     1      45.659  44.409  31.637  1.00  0.00     0.023 C 
ATOM      8  C   UNL     1      46.339  41.981  30.424  1.00  0.00     0.031 C 
ATOM      9  C   UNL     1      44.985  44.054  30.298  1.00  0.00     0.013 C 
ATOM     10  C   UNL     1      47.474  42.953  30.804  1.00  0.00    -0.025 C 
ENDBRANCH   1   2
BRANCH   1  11
ATOM     11  O   UNL     1      48.141  45.331  33.225  1.00  0.00    -0.392 OA
ATOM     12  H   UNL     1      48.841  46.002  33.439  1.00  0.00     0.211 HD
ENDBRANCH   1  11
TORSDOF 2
ENDMDL
MODEL 2
REMARK VINA RESULT:    -4.424      1.795      3.541
REMARK INTER + INTRA:          -4.877
REMARK INTER:                  -4.833
REMARK INTRA:                  -0.044
REMARK UNBOUND:                -0.064
REMARK SMILES CC1(C)[C@@H]2CC=C(CO)[C@H]1C2
REMARK SMILES IDX 8 1 7 2 1 3 2 4 4 5 3 6 10 7 5 8 11 9 6 10 9 11
REMARK H PARENT 9 12
REMARK Flexibility Score: inf
ROOT
ATOM      1  C   UNL     1      43.389  44.656  33.752  1.00  0.00     0.187 C 
ENDROOT
BRANCH   1   2
ATOM      2  C   UNL     1      44.526  43.862  33.172  1.00  0.00    -0.045 C 
ATOM      3  C   UNL     1      45.897  44.657  30.674  1.00  0.00     0.012 C 
ATOM      4  C   UNL     1      46.692  44.231  31.940  1.00  0.00    -0.026 C 
ATOM      5  C   UNL     1      46.849  42.716  32.247  1.00  0.00    -0.000 C 
ATOM      6  C   UNL     1      48.053  44.971  31.931  1.00  0.00     0.012 C 
ATOM      7  C   UNL     1      45.985  44.319  33.319  1.00  0.00     0.023 C 
ATOM      8  C   UNL     1      45.525  41.950  31.902  1.00  0.00     0.031 C 
ATOM      9  C   UNL     1      46.756  43.056  33.748  1.00  0.00     0.013 C 
ATOM     10  C   UNL     1      44.313  42.694  32.497  1.00  0.00    -0.025 C 
ENDBRANCH   1   2
BRANCH   1  11
ATOM     11  O   UNL     1      43.861  45.537  34.734  1.00  0.00    -0.392 OA
ATOM     12  H   UNL     1      43.060  45.910  35.188  1.00  0.00     0.211 HD
ENDBRANCH   1  11
TORSDOF 2
ENDMDL
MODEL 3
REMARK VINA RESULT:    -4.269      1.560      3.326
REMARK INTER + INTRA:          -4.708
REMARK INTER:                  -4.664
REMARK INTRA:                  -0.044
REMARK UNBOUND:                -0.064
REMARK SMILES CC1(C)[C@@H]2CC=C(CO)[C@H]1C2
REMARK SMILES IDX 8 1 7 2 1 3 2 4 4 5 3 6 10 7 5 8 11 9 6 10 9 11
REMARK H PARENT 9 12
REMARK Flexibility Score: inf
ROOT
ATOM      1  C   UNL     1      47.087  42.334  35.144  1.00  0.00     0.187 C 
ENDROOT
BRANCH   1   2
ATOM      2  C   UNL     1      46.360  43.017  34.019  1.00  0.00    -0.045 C 
ATOM      3  C   UNL     1      47.704  44.911  32.187  1.00  0.00     0.012 C 
ATOM      4  C   UNL     1      46.771  43.786  31.656  1.00  0.00    -0.026 C 
ATOM      5  C   UNL     1      45.234  44.004  31.712  1.00  0.00    -0.000 C 
ATOM      6  C   UNL     1      47.254  43.382  30.240  1.00  0.00     0.012 C 
ATOM      7  C   UNL     1      46.513  42.553  32.563  1.00  0.00     0.023 C 
ATOM      8  C   UNL     1      44.836  44.743  33.036  1.00  0.00     0.031 C 
ATOM      9  C   UNL     1      45.076  42.500  32.010  1.00  0.00     0.013 C 
ATOM     10  C   UNL     1      45.523  44.072  34.243  1.00  0.00    -0.025 C 
ENDBRANCH   1   2
BRANCH   1  11
ATOM     11  O   UNL     1      48.049  43.192  35.694  1.00  0.00    -0.392 OA
ATOM     12  H   UNL     1      48.712  43.369  34.977  1.00  0.00     0.211 HD
ENDBRANCH   1  11
TORSDOF 2
ENDMDL
MODEL 4
REMARK VINA RESULT:    -4.168      1.878      3.122
REMARK INTER + INTRA:          -4.598
REMARK INTER:                  -4.576
REMARK INTRA:                  -0.023
REMARK UNBOUND:                -0.064
REMARK SMILES CC1(C)[C@@H]2CC=C(CO)[C@H]1C2
REMARK SMILES IDX 8 1 7 2 1 3 2 4 4 5 3 6 10 7 5 8 11 9 6 10 9 11
REMARK H PARENT 9 12
REMARK Flexibility Score: inf
ROOT
ATOM      1  C   UNL     1      43.568  44.841  33.594  1.00  0.00     0.187 C 
ENDROOT
BRANCH   1   2
ATOM      2  C   UNL     1      44.896  44.429  33.021  1.00  0.00    -0.045 C 
ATOM      3  C   UNL     1      45.512  41.622  32.320  1.00  0.00     0.012 C 
ATOM      4  C   UNL     1      45.842  42.795  31.354  1.00  0.00    -0.026 C 
ATOM      5  C   UNL     1      47.122  43.637  31.614  1.00  0.00    -0.000 C 
ATOM      6  C   UNL     1      45.777  42.261  29.901  1.00  0.00     0.012 C 
ATOM      7  C   UNL     1      45.069  44.130  31.525  1.00  0.00     0.023 C 
ATOM      8  C   UNL     1      47.329  43.854  33.153  1.00  0.00     0.031 C 
ATOM      9  C   UNL     1      46.353  44.877  31.116  1.00  0.00     0.013 C 
ATOM     10  C   UNL     1      46.009  44.312  33.804  1.00  0.00    -0.025 C 
ENDBRANCH   1   2
BRANCH   1  11
ATOM     11  O   UNL     1      43.754  45.574  34.774  1.00  0.00    -0.392 OA
ATOM     12  H   UNL     1      44.510  46.195  34.605  1.00  0.00     0.211 HD
ENDBRANCH   1  11
TORSDOF 2
ENDMDL
MODEL 5
REMARK VINA RESULT:    -4.163      1.715      2.835
REMARK INTER + INTRA:          -4.593
REMARK INTER:                  -4.531
REMARK INTRA:                  -0.062
REMARK UNBOUND:                -0.064
REMARK SMILES CC1(C)[C@@H]2CC=C(CO)[C@H]1C2
REMARK SMILES IDX 8 1 7 2 1 3 2 4 4 5 3 6 10 7 5 8 11 9 6 10 9 11
REMARK H PARENT 9 12
REMARK Flexibility Score: inf
ROOT
ATOM      1  C   UNL     1      46.819  42.641  34.429  1.00  0.00     0.187 C 
ENDROOT
BRANCH   1   2
ATOM      2  C   UNL     1      46.657  43.390  33.135  1.00  0.00    -0.045 C 
ATOM      3  C   UNL     1      47.126  42.121  30.504  1.00  0.00     0.012 C 
ATOM      4  C   UNL     1      45.870  42.996  30.776  1.00  0.00    -0.026 C 
ATOM      5  C   UNL     1      46.013  44.542  30.722  1.00  0.00    -0.000 C 
ATOM      6  C   UNL     1      44.718  42.483  29.875  1.00  0.00     0.012 C 
ATOM      7  C   UNL     1      45.419  43.204  32.246  1.00  0.00     0.023 C 
ATOM      8  C   UNL     1      47.382  44.985  31.346  1.00  0.00     0.031 C 
ATOM      9  C   UNL     1      44.984  44.632  31.866  1.00  0.00     0.013 C 
ATOM     10  C   UNL     1      47.599  44.277  32.698  1.00  0.00    -0.025 C 
ENDBRANCH   1   2
BRANCH   1  11
ATOM     11  O   UNL     1      46.433  41.304  34.269  1.00  0.00    -0.392 OA
ATOM     12  H   UNL     1      46.797  41.007  33.394  1.00  0.00     0.211 HD
ENDBRANCH   1  11
TORSDOF 2
ENDMDL
MODEL 6
REMARK VINA RESULT:    -4.112      2.267      3.536
REMARK INTER + INTRA:          -4.537
REMARK INTER:                  -4.498
REMARK INTRA:                  -0.039
REMARK UNBOUND:                -0.064
REMARK SMILES CC1(C)[C@@H]2CC=C(CO)[C@H]1C2
REMARK SMILES IDX 8 1 7 2 1 3 2 4 4 5 3 6 10 7 5 8 11 9 6 10 9 11
REMARK H PARENT 9 12
REMARK Flexibility Score: inf
ROOT
ATOM      1  C   UNL     1      45.402  40.573  31.927  1.00  0.00     0.187 C 
ENDROOT
BRANCH   1   2
ATOM      2  C   UNL     1      45.530  41.956  31.351  1.00  0.00    -0.045 C 
ATOM      3  C   UNL     1      45.771  44.362  33.055  1.00  0.00     0.012 C 
ATOM      4  C   UNL     1      46.702  44.132  31.831  1.00  0.00    -0.026 C 
ATOM      5  C   UNL     1      46.162  44.462  30.412  1.00  0.00    -0.000 C 
ATOM      6  C   UNL     1      48.059  44.824  32.117  1.00  0.00     0.012 C 
ATOM      7  C   UNL     1      46.880  42.685  31.301  1.00  0.00     0.023 C 
ATOM      8  C   UNL     1      44.654  44.048  30.293  1.00  0.00     0.031 C 
ATOM      9  C   UNL     1      46.968  43.262  29.875  1.00  0.00     0.013 C 
ATOM     10  C   UNL     1      44.453  42.620  30.837  1.00  0.00    -0.025 C 
ENDBRANCH   1   2
BRANCH   1  11
ATOM     11  O   UNL     1      46.161  39.662  31.181  1.00  0.00    -0.392 OA
ATOM     12  H   UNL     1      46.267  40.056  30.276  1.00  0.00     0.211 HD
ENDBRANCH   1  11
TORSDOF 2
ENDMDL
MODEL 7
REMARK VINA RESULT:    -3.824      2.146      3.348
REMARK INTER + INTRA:          -4.224
REMARK INTER:                  -4.201
REMARK INTRA:                  -0.023
REMARK UNBOUND:                -0.064
REMARK SMILES CC1(C)[C@@H]2CC=C(CO)[C@H]1C2
REMARK SMILES IDX 8 1 7 2 1 3 2 4 4 5 3 6 10 7 5 8 11 9 6 10 9 11
REMARK H PARENT 9 12
REMARK Flexibility Score: inf
ROOT
ATOM      1  C   UNL     1      46.124  41.554  30.853  1.00  0.00     0.187 C 
ENDROOT
BRANCH   1   2
ATOM      2  C   UNL     1      46.460  42.628  31.851  1.00  0.00    -0.045 C 
ATOM      3  C   UNL     1      44.552  44.770  32.571  1.00  0.00     0.012 C 
ATOM      4  C   UNL     1      45.346  43.987  33.654  1.00  0.00    -0.026 C 
ATOM      5  C   UNL     1      46.821  44.388  33.933  1.00  0.00    -0.000 C 
ATOM      6  C   UNL     1      44.494  43.951  34.949  1.00  0.00     0.012 C 
ATOM      7  C   UNL     1      45.915  42.591  33.286  1.00  0.00     0.023 C 
ATOM      8  C   UNL     1      47.547  44.757  32.593  1.00  0.00     0.031 C 
ATOM      9  C   UNL     1      47.132  42.899  34.181  1.00  0.00     0.013 C 
ATOM     10  C   UNL     1      47.273  43.676  31.528  1.00  0.00    -0.025 C 
ENDBRANCH   1   2
BRANCH   1  11
ATOM     11  O   UNL     1      47.263  41.199  30.118  1.00  0.00    -0.392 OA
ATOM     12  H   UNL     1      46.972  40.514  29.460  1.00  0.00     0.211 HD
ENDBRANCH   1  11
TORSDOF 2
ENDMDL
MODEL 8
REMARK VINA RESULT:    -3.801      2.155      3.791
REMARK INTER + INTRA:          -4.198
REMARK INTER:                  -4.145
REMARK INTRA:                  -0.053
REMARK UNBOUND:                -0.064
REMARK SMILES CC1(C)[C@@H]2CC=C(CO)[C@H]1C2
REMARK SMILES IDX 8 1 7 2 1 3 2 4 4 5 3 6 10 7 5 8 11 9 6 10 9 11
REMARK H PARENT 9 12
REMARK Flexibility Score: inf
ROOT
ATOM      1  C   UNL     1      43.304  43.173  31.302  1.00  0.00     0.187 C 
ENDROOT
BRANCH   1   2
ATOM      2  C   UNL     1      44.530  43.124  32.170  1.00  0.00    -0.045 C 
ATOM      3  C   UNL     1      47.244  42.740  31.057  1.00  0.00     0.012 C 
ATOM      4  C   UNL     1      46.946  43.833  32.121  1.00  0.00    -0.026 C 
ATOM      5  C   UNL     1      46.853  43.414  33.614  1.00  0.00    -0.000 C 
ATOM      6  C   UNL     1      47.936  45.005  31.903  1.00  0.00     0.012 C 
ATOM      7  C   UNL     1      45.483  44.323  32.287  1.00  0.00     0.023 C 
ATOM      8  C   UNL     1      46.135  42.026  33.747  1.00  0.00     0.031 C 
ATOM      9  C   UNL     1      45.749  44.474  33.797  1.00  0.00     0.013 C 
ATOM     10  C   UNL     1      44.845  42.016  32.903  1.00  0.00    -0.025 C 
ENDBRANCH   1   2
BRANCH   1  11
ATOM     11  O   UNL     1      43.565  42.585  30.057  1.00  0.00    -0.392 OA
ATOM     12  H   UNL     1      43.756  43.328  29.427  1.00  0.00     0.211 HD
ENDBRANCH   1  11
TORSDOF 2
ENDMDL
MODEL 9
REMARK VINA RESULT:    -3.775      2.053      3.444
REMARK INTER + INTRA:          -4.170
REMARK INTER:                  -4.127
REMARK INTRA:                  -0.043
REMARK UNBOUND:                -0.064
REMARK SMILES CC1(C)[C@@H]2CC=C(CO)[C@H]1C2
REMARK SMILES IDX 8 1 7 2 1 3 2 4 4 5 3 6 10 7 5 8 11 9 6 10 9 11
REMARK H PARENT 9 12
REMARK Flexibility Score: inf
ROOT
ATOM      1  C   UNL     1      45.932  41.722  30.703  1.00  0.00     0.187 C 
ENDROOT
BRANCH   1   2
ATOM      2  C   UNL     1      45.774  42.734  31.804  1.00  0.00    -0.045 C 
ATOM      3  C   UNL     1      45.145  41.957  34.588  1.00  0.00     0.012 C 
ATOM      4  C   UNL     1      46.263  42.987  34.261  1.00  0.00    -0.026 C 
ATOM      5  C   UNL     1      45.857  44.454  33.949  1.00  0.00    -0.000 C 
ATOM      6  C   UNL     1      47.341  42.902  35.372  1.00  0.00     0.012 C 
ATOM      7  C   UNL     1      46.882  42.977  32.839  1.00  0.00     0.023 C 
ATOM      8  C   UNL     1      44.539  44.485  33.099  1.00  0.00     0.031 C 
ATOM      9  C   UNL     1      47.012  44.510  32.930  1.00  0.00     0.013 C 
ATOM     10  C   UNL     1      44.643  43.490  31.926  1.00  0.00    -0.025 C 
ENDBRANCH   1   2
BRANCH   1  11
ATOM     11  O   UNL     1      47.287  41.541  30.398  1.00  0.00    -0.392 OA
ATOM     12  H   UNL     1      47.324  40.890  29.649  1.00  0.00     0.211 HD
ENDBRANCH   1  11
TORSDOF 2
ENDMDL
