MODEL 1
REMARK VINA RESULT:    85.950      0.000      0.000
REMARK INTER + INTRA:          96.421
REMARK INTER:                  93.487
REMARK INTRA:                   2.933
REMARK UNBOUND:                 2.933
REMARK SMILES C=C(C)[C@H]1CC[C@@]2(C)CC[C@@]3(C)[C@H](CC[C@@H]4[C@]5(C)CC[C@H](O)C(C)(C)[C@@H]5CC[C@@]43C)[C@@H]12
REMARK SMILES IDX 4 1 5 2 6 3 7 4 31 5 13 6 14 7 15 8 16 9 17 10 19 11 20 12
REMARK SMILES IDX 21 13 23 14 26 15 27 16 28 17 29 18 11 19 10 20 9 21 12 22
REMARK SMILES IDX 30 23 24 24 25 25 18 26 8 27 2 28 3 29 1 30 22 31
REMARK H PARENT 22 32
REMARK Flexibility Score: inf
ROOT
ATOM      1  C   UNL     1     -32.376  26.478   6.029  1.00  0.00     0.018 C 
ATOM      2  C   UNL     1     -31.103  26.500   6.872  1.00  0.00     0.009 C 
ATOM      3  C   UNL     1     -31.467  25.910   8.225  1.00  0.00     0.008 C 
ATOM      4  C   UNL     1     -32.688  24.970   8.016  1.00  0.00    -0.029 C 
ATOM      5  C   UNL     1     -33.190  25.262   6.567  1.00  0.00     0.006 C 
ATOM      6  C   UNL     1     -34.741  25.242   6.275  1.00  0.00    -0.000 C 
ATOM      7  C   UNL     1     -35.147  23.957   5.543  1.00  0.00     0.005 C 
ATOM      8  C   UNL     1     -36.631  23.995   5.207  1.00  0.00     0.005 C 
ATOM      9  C   UNL     1     -37.484  23.752   6.475  1.00  0.00     0.002 C 
ATOM     10  C   UNL     1     -39.071  23.768   6.224  1.00  0.00    -0.026 C 
ATOM     11  C   UNL     1     -39.564  25.107   5.591  1.00  0.00     0.010 C 
ATOM     12  C   UNL     1     -41.093  25.230   5.496  1.00  0.00     0.033 C 
ATOM     13  C   UNL     1     -41.797  25.015   6.852  1.00  0.00     0.120 C 
ATOM     14  C   UNL     1     -41.450  23.638   7.502  1.00  0.00    -0.006 C 
ATOM     15  C   UNL     1     -39.858  23.462   7.579  1.00  0.00     0.003 C 
ATOM     16  C   UNL     1     -39.236  24.165   8.838  1.00  0.00     0.005 C 
ATOM     17  C   UNL     1     -38.080  25.120   8.575  1.00  0.00     0.008 C 
ATOM     18  C   UNL     1     -36.900  24.499   7.769  1.00  0.00    -0.024 C 
ATOM     19  C   UNL     1     -35.752  25.639   7.443  1.00  0.00    -0.024 C 
ATOM     20  C   UNL     1     -34.941  26.080   8.715  1.00  0.00     0.008 C 
ATOM     21  C   UNL     1     -33.751  25.205   9.125  1.00  0.00     0.007 C 
ATOM     22  C   UNL     1     -36.458  26.953   6.969  1.00  0.00     0.012 C 
ATOM     23  C   UNL     1     -36.311  23.390   8.700  1.00  0.00     0.012 C 
ATOM     24  C   UNL     1     -42.122  23.558   8.915  1.00  0.00     0.014 C 
ATOM     25  C   UNL     1     -42.124  22.475   6.694  1.00  0.00     0.014 C 
ATOM     26  C   UNL     1     -39.360  22.632   5.185  1.00  0.00     0.012 C 
ATOM     27  C   UNL     1     -32.192  23.502   8.119  1.00  0.00     0.011 C 
ENDROOT
BRANCH   1  28
ATOM     28  C   UNL     1     -33.086  27.839   5.956  1.00  0.00    -0.077 C 
ATOM     29  C   UNL     1     -34.562  28.029   6.220  1.00  0.00     0.039 C 
ATOM     30  C   UNL     1     -32.349  28.950   5.774  1.00  0.00     0.008 C 
ENDBRANCH   1  28
BRANCH  13  31
ATOM     31  O   UNL     1     -41.450  26.068   7.718  1.00  0.00    -0.393 OA
ATOM     32  H   UNL     1     -40.619  26.478   7.363  1.00  0.00     0.210 HD
ENDBRANCH  13  31
TORSDOF 2
ENDMDL
