MODEL 1
REMARK VINA RESULT:    -3.548      0.000      0.000
REMARK INTER + INTRA:          -3.652
REMARK INTER:                  -3.652
REMARK INTRA:                   0.000
REMARK UNBOUND:                 0.000
REMARK SMILES Cc1ccccc1O
REMARK SMILES IDX 1 1 2 2 3 3 4 4 5 5 6 6 7 7 8 8
REMARK H PARENT 8 9
REMARK Flexibility Score: inf
ROOT
ATOM      1  C   UNL     1       6.854  13.952   8.011  1.00  0.00     0.048 C 
ATOM      2  C   UNL     1       7.584  12.683   7.666  1.00  0.00    -0.009 A 
ATOM      3  C   UNL     1       6.978  11.441   7.926  1.00  0.00     0.007 A 
ATOM      4  C   UNL     1       7.640  10.251   7.612  1.00  0.00     0.001 A 
ATOM      5  C   UNL     1       8.911  10.287   7.036  1.00  0.00     0.004 A 
ATOM      6  C   UNL     1       9.523  11.515   6.771  1.00  0.00     0.046 A 
ATOM      7  C   UNL     1       8.873  12.715   7.082  1.00  0.00     0.118 A 
ENDROOT
BRANCH   7   8
ATOM      8  O   UNL     1       9.526  13.916   6.798  1.00  0.00    -0.508 OA
ATOM      9  H   UNL     1      10.457  14.129   7.131  1.00  0.00     0.293 HD
ENDBRANCH   7   8
TORSDOF 1
ENDMDL
MODEL 2
REMARK VINA RESULT:    -3.499      0.827      2.603
REMARK INTER + INTRA:          -3.602
REMARK INTER:                  -3.602
REMARK INTRA:                   0.000
REMARK UNBOUND:                 0.000
REMARK SMILES Cc1ccccc1O
REMARK SMILES IDX 1 1 2 2 3 3 4 4 5 5 6 6 7 7 8 8
REMARK H PARENT 8 9
REMARK Flexibility Score: inf
ROOT
ATOM      1  C   UNL     1       9.440  10.619   6.844  1.00  0.00     0.048 C 
ATOM      2  C   UNL     1       8.305  11.527   7.231  1.00  0.00    -0.009 A 
ATOM      3  C   UNL     1       7.082  10.971   7.645  1.00  0.00     0.007 A 
ATOM      4  C   UNL     1       6.015  11.798   8.008  1.00  0.00     0.001 A 
ATOM      5  C   UNL     1       6.158  13.185   7.963  1.00  0.00     0.004 A 
ATOM      6  C   UNL     1       7.368  13.750   7.554  1.00  0.00     0.046 A 
ATOM      7  C   UNL     1       8.445  12.935   7.186  1.00  0.00     0.118 A 
ENDROOT
BRANCH   7   8
ATOM      8  O   UNL     1       9.633  13.547   6.784  1.00  0.00    -0.508 OA
ATOM      9  H   UNL     1      10.387  13.045   6.334  1.00  0.00     0.293 HD
ENDBRANCH   7   8
TORSDOF 1
ENDMDL
MODEL 3
REMARK VINA RESULT:    -3.325      1.384      3.058
REMARK INTER + INTRA:          -3.422
REMARK INTER:                  -3.422
REMARK INTRA:                   0.000
REMARK UNBOUND:                 0.000
REMARK SMILES Cc1ccccc1O
REMARK SMILES IDX 1 1 2 2 3 3 4 4 5 5 6 6 7 7 8 8
REMARK H PARENT 8 9
REMARK Flexibility Score: inf
ROOT
ATOM      1  C   UNL     1       7.360   9.784   7.853  1.00  0.00     0.048 C 
ATOM      2  C   UNL     1       6.856  11.199   7.782  1.00  0.00    -0.009 A 
ATOM      3  C   UNL     1       5.471  11.442   7.741  1.00  0.00     0.007 A 
ATOM      4  C   UNL     1       4.984  12.750   7.675  1.00  0.00     0.001 A 
ATOM      5  C   UNL     1       5.870  13.828   7.649  1.00  0.00     0.004 A 
ATOM      6  C   UNL     1       7.248  13.600   7.689  1.00  0.00     0.046 A 
ATOM      7  C   UNL     1       7.751  12.295   7.755  1.00  0.00     0.118 A 
ENDROOT
BRANCH   7   8
ATOM      8  O   UNL     1       9.136  12.120   7.793  1.00  0.00    -0.508 OA
ATOM      9  H   UNL     1       9.749  12.408   7.042  1.00  0.00     0.293 HD
ENDBRANCH   7   8
TORSDOF 1
ENDMDL
MODEL 4
REMARK VINA RESULT:    -3.260      1.534      2.053
REMARK INTER + INTRA:          -3.356
REMARK INTER:                  -3.356
REMARK INTRA:                   0.000
REMARK UNBOUND:                 0.000
REMARK SMILES Cc1ccccc1O
REMARK SMILES IDX 1 1 2 2 3 3 4 4 5 5 6 6 7 7 8 8
REMARK H PARENT 8 9
REMARK Flexibility Score: inf
ROOT
ATOM      1  C   UNL     1       5.585  14.066   7.837  1.00  0.00     0.048 C 
ATOM      2  C   UNL     1       5.917  12.600   7.781  1.00  0.00    -0.009 A 
ATOM      3  C   UNL     1       4.878  11.655   7.715  1.00  0.00     0.007 A 
ATOM      4  C   UNL     1       5.165  10.289   7.663  1.00  0.00     0.001 A 
ATOM      5  C   UNL     1       6.491   9.851   7.675  1.00  0.00     0.004 A 
ATOM      6  C   UNL     1       7.532  10.780   7.740  1.00  0.00     0.046 A 
ATOM      7  C   UNL     1       7.259  12.152   7.794  1.00  0.00     0.118 A 
ENDROOT
BRANCH   7   8
ATOM      8  O   UNL     1       8.335  13.040   7.858  1.00  0.00    -0.508 OA
ATOM      9  H   UNL     1       8.322  13.952   7.421  1.00  0.00     0.293 HD
ENDBRANCH   7   8
TORSDOF 1
ENDMDL
MODEL 5
REMARK VINA RESULT:    -3.200      9.604     10.757
REMARK INTER + INTRA:          -3.294
REMARK INTER:                  -3.294
REMARK INTRA:                   0.000
REMARK UNBOUND:                 0.000
REMARK SMILES Cc1ccccc1O
REMARK SMILES IDX 1 1 2 2 3 3 4 4 5 5 6 6 7 7 8 8
REMARK H PARENT 8 9
REMARK Flexibility Score: inf
ROOT
ATOM      1  C   UNL     1      15.572   5.852   8.969  1.00  0.00     0.048 C 
ATOM      2  C   UNL     1      15.604   6.228  10.425  1.00  0.00    -0.009 A 
ATOM      3  C   UNL     1      14.952   7.397  10.855  1.00  0.00     0.007 A 
ATOM      4  C   UNL     1      14.971   7.762  12.203  1.00  0.00     0.001 A 
ATOM      5  C   UNL     1      15.638   6.967  13.136  1.00  0.00     0.004 A 
ATOM      6  C   UNL     1      16.289   5.802  12.722  1.00  0.00     0.046 A 
ATOM      7  C   UNL     1      16.280   5.424  11.374  1.00  0.00     0.118 A 
ENDROOT
BRANCH   7   8
ATOM      8  O   UNL     1      16.945   4.251  11.010  1.00  0.00    -0.508 OA
ATOM      9  H   UNL     1      16.520   3.529  10.444  1.00  0.00     0.293 HD
ENDBRANCH   7   8
TORSDOF 1
ENDMDL
MODEL 6
REMARK VINA RESULT:    -3.165      9.960     10.918
REMARK INTER + INTRA:          -3.258
REMARK INTER:                  -3.258
REMARK INTRA:                   0.000
REMARK UNBOUND:                 0.000
REMARK SMILES Cc1ccccc1O
REMARK SMILES IDX 1 1 2 2 3 3 4 4 5 5 6 6 7 7 8 8
REMARK H PARENT 8 9
REMARK Flexibility Score: inf
ROOT
ATOM      1  C   UNL     1      15.889   7.619  14.505  1.00  0.00     0.048 C 
ATOM      2  C   UNL     1      15.765   7.086  13.104  1.00  0.00    -0.009 A 
ATOM      3  C   UNL     1      15.082   7.839  12.132  1.00  0.00     0.007 A 
ATOM      4  C   UNL     1      14.956   7.360  10.826  1.00  0.00     0.001 A 
ATOM      5  C   UNL     1      15.510   6.128  10.474  1.00  0.00     0.004 A 
ATOM      6  C   UNL     1      16.191   5.371  11.430  1.00  0.00     0.046 A 
ATOM      7  C   UNL     1      16.324   5.837  12.744  1.00  0.00     0.118 A 
ENDROOT
BRANCH   7   8
ATOM      8  O   UNL     1      17.014   5.043  13.662  1.00  0.00    -0.508 OA
ATOM      9  H   UNL     1      17.642   5.424  14.357  1.00  0.00     0.293 HD
ENDBRANCH   7   8
TORSDOF 1
ENDMDL
MODEL 7
REMARK VINA RESULT:    -3.148      9.833     10.945
REMARK INTER + INTRA:          -3.240
REMARK INTER:                  -3.240
REMARK INTRA:                   0.000
REMARK UNBOUND:                 0.000
REMARK SMILES Cc1ccccc1O
REMARK SMILES IDX 1 1 2 2 3 3 4 4 5 5 6 6 7 7 8 8
REMARK H PARENT 8 9
REMARK Flexibility Score: inf
ROOT
ATOM      1  C   UNL     1      17.092   5.559  14.184  1.00  0.00     0.048 C 
ATOM      2  C   UNL     1      16.337   6.197  13.050  1.00  0.00    -0.009 A 
ATOM      3  C   UNL     1      16.161   5.490  11.848  1.00  0.00     0.007 A 
ATOM      4  C   UNL     1      15.463   6.066  10.783  1.00  0.00     0.001 A 
ATOM      5  C   UNL     1      14.932   7.351  10.907  1.00  0.00     0.004 A 
ATOM      6  C   UNL     1      15.099   8.064  12.097  1.00  0.00     0.046 A 
ATOM      7  C   UNL     1      15.798   7.500  13.171  1.00  0.00     0.118 A 
ENDROOT
BRANCH   7   8
ATOM      8  O   UNL     1      15.937   8.253  14.339  1.00  0.00    -0.508 OA
ATOM      9  H   UNL     1      16.012   9.261  14.339  1.00  0.00     0.293 HD
ENDBRANCH   7   8
TORSDOF 1
ENDMDL
MODEL 8
REMARK VINA RESULT:    -3.108      2.242      3.709
REMARK INTER + INTRA:          -3.199
REMARK INTER:                  -3.199
REMARK INTRA:                   0.000
REMARK UNBOUND:                 0.000
REMARK SMILES Cc1ccccc1O
REMARK SMILES IDX 1 1 2 2 3 3 4 4 5 5 6 6 7 7 8 8
REMARK H PARENT 8 9
REMARK Flexibility Score: inf
ROOT
ATOM      1  C   UNL     1       8.986  11.352   7.855  1.00  0.00     0.048 C 
ATOM      2  C   UNL     1       7.567  11.849   7.808  1.00  0.00    -0.009 A 
ATOM      3  C   UNL     1       7.314  13.232   7.811  1.00  0.00     0.007 A 
ATOM      4  C   UNL     1       6.003  13.712   7.768  1.00  0.00     0.001 A 
ATOM      5  C   UNL     1       4.931  12.819   7.721  1.00  0.00     0.004 A 
ATOM      6  C   UNL     1       5.168  11.443   7.717  1.00  0.00     0.046 A 
ATOM      7  C   UNL     1       6.477  10.947   7.761  1.00  0.00     0.118 A 
ENDROOT
BRANCH   7   8
ATOM      8  O   UNL     1       6.662   9.563   7.754  1.00  0.00    -0.508 OA
ATOM      9  H   UNL     1       6.430   8.972   8.542  1.00  0.00     0.293 HD
ENDBRANCH   7   8
TORSDOF 1
ENDMDL
MODEL 9
REMARK VINA RESULT:    -3.102      2.019      3.273
REMARK INTER + INTRA:          -3.193
REMARK INTER:                  -3.193
REMARK INTRA:                   0.000
REMARK UNBOUND:                 0.000
REMARK SMILES Cc1ccccc1O
REMARK SMILES IDX 1 1 2 2 3 3 4 4 5 5 6 6 7 7 8 8
REMARK H PARENT 8 9
REMARK Flexibility Score: inf
ROOT
ATOM      1  C   UNL     1       5.023   9.944   7.700  1.00  0.00     0.048 C 
ATOM      2  C   UNL     1       5.838  11.208   7.712  1.00  0.00    -0.009 A 
ATOM      3  C   UNL     1       5.187  12.454   7.729  1.00  0.00     0.007 A 
ATOM      4  C   UNL     1       5.927  13.639   7.741  1.00  0.00     0.001 A 
ATOM      5  C   UNL     1       7.322  13.594   7.736  1.00  0.00     0.004 A 
ATOM      6  C   UNL     1       7.981  12.362   7.720  1.00  0.00     0.046 A 
ATOM      7  C   UNL     1       7.253  11.166   7.707  1.00  0.00     0.118 A 
ENDROOT
BRANCH   7   8
ATOM      8  O   UNL     1       7.957   9.961   7.691  1.00  0.00    -0.508 OA
ATOM      9  H   UNL     1       8.961   9.908   7.803  1.00  0.00     0.293 HD
ENDBRANCH   7   8
TORSDOF 1
ENDMDL
