MODEL 1
REMARK VINA RESULT:    -2.448      0.000      0.000
REMARK INTER + INTRA:          -3.630
REMARK INTER:                  -3.092
REMARK INTRA:                  -0.538
REMARK UNBOUND:                -0.538
REMARK SMILES O=C(C=Cc1ccc(O)cc1)c1ccc(O)cc1O
REMARK SMILES IDX 4 1 3 2 5 3 6 4 7 5 8 6 11 7 10 8 9 9 2 11 1 12 12 13 18 14
REMARK SMILES IDX 13 15 17 16 14 17 15 18 19 19 16 21
REMARK H PARENT 9 10 19 20 16 22
REMARK Flexibility Score: inf
ROOT
ATOM      1  C   UNL     1      -2.456 -14.922 -10.495  1.00  0.00     0.012 C 
ATOM      2  C   UNL     1      -3.391 -14.851 -11.454  1.00  0.00     0.053 C 
ENDROOT
BRANCH   1   3
ATOM      3  C   UNL     1      -2.763 -14.934  -9.044  1.00  0.00    -0.025 A 
ATOM      4  C   UNL     1      -1.701 -14.799  -8.132  1.00  0.00     0.012 A 
ATOM      5  C   UNL     1      -1.940 -14.812  -6.755  1.00  0.00     0.047 A 
ATOM      6  C   UNL     1      -3.244 -14.973  -6.268  1.00  0.00     0.115 A 
ATOM      7  C   UNL     1      -4.069 -15.110  -8.545  1.00  0.00     0.012 A 
ATOM      8  C   UNL     1      -4.304 -15.124  -7.165  1.00  0.00     0.047 A 
BRANCH   6   9
ATOM      9  O   UNL     1      -3.494 -14.988  -4.898  1.00  0.00    -0.508 OA
ATOM     10  H   UNL     1      -2.870 -14.534  -4.241  1.00  0.00     0.293 HD
ENDBRANCH   6   9
ENDBRANCH   1   3
BRANCH   2  11
ATOM     11  C   UNL     1      -3.064 -14.833 -12.897  1.00  0.00     0.189 C 
ATOM     12  O   UNL     1      -1.853 -14.862 -13.240  1.00  0.00    -0.289 OA
BRANCH  11  13
ATOM     13  C   UNL     1      -4.098 -14.751 -13.951  1.00  0.00     0.064 A 
ATOM     14  C   UNL     1      -3.803 -14.302 -15.260  1.00  0.00     0.130 A 
ATOM     15  C   UNL     1      -5.413 -15.125 -13.633  1.00  0.00     0.020 A 
ATOM     16  C   UNL     1      -4.812 -14.282 -16.229  1.00  0.00     0.093 A 
ATOM     17  C   UNL     1      -6.415 -15.090 -14.607  1.00  0.00     0.047 A 
ATOM     18  C   UNL     1      -6.117 -14.676 -15.907  1.00  0.00     0.119 A 
BRANCH  14  19
ATOM     19  O   UNL     1      -2.531 -13.852 -15.620  1.00  0.00    -0.507 OA
ATOM     20  H   UNL     1      -2.151 -12.969 -15.306  1.00  0.00     0.293 HD
ENDBRANCH  14  19
BRANCH  18  21
ATOM     21  O   UNL     1      -7.125 -14.652 -16.868  1.00  0.00    -0.508 OA
ATOM     22  H   UNL     1      -8.049 -14.292 -16.659  1.00  0.00     0.293 HD
ENDBRANCH  18  21
ENDBRANCH  11  13
ENDBRANCH   2  11
TORSDOF 6
ENDMDL
