MODEL 1
REMARK VINA RESULT:    -7.716      0.000      0.000
REMARK INTER + INTRA:          -8.052
REMARK INTER:                  -8.392
REMARK INTRA:                   0.340
REMARK UNBOUND:                 0.340
REMARK SMILES CC1(C)CC[C@]2(C(=O)[O-])CC[C@]3(C)C(=CC[C@H]4[C@@]5(C)CC[C@H](O)C(C)(C)[C@H]5CC[C@@]43C)[C@H]2C1
REMARK SMILES IDX 6 1 5 2 10 3 32 4 4 5 11 6 14 7 33 8 2 9 12 10 15 11 1 12
REMARK SMILES IDX 3 13 13 14 30 15 16 16 17 17 29 18 31 19 18 20 28 21 27 22
REMARK SMILES IDX 20 23 19 24 24 25 21 26 22 27 25 28 26 29 7 30 8 31 9 32
REMARK SMILES IDX 23 33
REMARK H PARENT 23 34
REMARK Flexibility Score: inf
ROOT
ATOM      1  C   UNL     1     -21.501  47.061  38.087  1.00  0.00     0.017 C 
ATOM      2  C   UNL     1     -20.894  45.775  38.720  1.00  0.00     0.014 C 
ATOM      3  C   UNL     1     -22.720  46.653  37.220  1.00  0.00     0.014 C 
ATOM      4  C   UNL     1     -20.409  47.708  37.175  1.00  0.00     0.028 C 
ATOM      5  C   UNL     1     -19.612  46.060  39.521  1.00  0.00     0.007 C 
ATOM      6  C   UNL     1     -23.262  47.796  36.329  1.00  0.00     0.013 C 
ATOM      7  C   UNL     1     -21.004  48.861  36.350  1.00  0.00    -0.064 C 
ATOM      8  C   UNL     1     -19.118  48.027  37.978  1.00  0.00     0.015 C 
ATOM      9  C   UNL     1     -18.518  46.782  38.690  1.00  0.00    -0.035 C 
ATOM     10  C   UNL     1     -22.190  48.503  35.420  1.00  0.00    -0.006 C 
ATOM     11  C   UNL     1     -20.650  50.148  36.610  1.00  0.00    -0.027 C 
ATOM     12  C   UNL     1     -17.405  47.256  39.649  1.00  0.00     0.011 C 
ATOM     13  C   UNL     1     -17.874  45.812  37.669  1.00  0.00     0.011 C 
ATOM     14  C   UNL     1     -21.713  47.454  34.361  1.00  0.00     0.017 C 
ATOM     15  C   UNL     1     -22.786  49.810  34.659  1.00  0.00    -0.020 C 
ATOM     16  C   UNL     1     -21.342  51.351  36.044  1.00  0.00     0.032 C 
ATOM     17  C   UNL     1     -22.801  51.030  35.641  1.00  0.00     0.006 C 
ATOM     18  C   UNL     1     -24.242  49.563  34.189  1.00  0.00     0.008 C 
ATOM     19  C   UNL     1     -21.902  50.138  33.413  1.00  0.00     0.012 C 
ATOM     20  C   UNL     1     -23.729  52.320  35.322  1.00  0.00    -0.025 C 
ATOM     21  C   UNL     1     -24.867  50.785  33.537  1.00  0.00     0.005 C 
ATOM     22  C   UNL     1     -25.072  51.950  34.544  1.00  0.00     0.003 C 
ATOM     23  C   UNL     1     -22.984  53.506  34.586  1.00  0.00     0.010 C 
ATOM     24  C   UNL     1     -24.123  52.849  36.750  1.00  0.00     0.012 C 
ATOM     25  C   UNL     1     -25.787  53.183  33.832  1.00  0.00    -0.006 C 
ATOM     26  C   UNL     1     -23.336  53.754  33.106  1.00  0.00     0.033 C 
ATOM     27  C   UNL     1     -24.844  53.825  32.763  1.00  0.00     0.120 C 
ATOM     28  C   UNL     1     -26.246  54.255  34.861  1.00  0.00     0.014 C 
ATOM     29  C   UNL     1     -27.095  52.723  33.122  1.00  0.00     0.014 C 
ENDROOT
BRANCH   1  30
ATOM     30  C   UNL     1     -21.996  47.990  39.198  1.00  0.00     0.048 C 
ATOM     31  O   UNL     1     -23.187  47.910  39.601  1.00  0.00    -0.550 OA
ATOM     32  O   UNL     1     -21.187  48.987  39.727  1.00  0.00    -0.550 OA
ENDBRANCH   1  30
BRANCH  27  33
ATOM     33  O   UNL     1     -25.219  55.159  32.507  1.00  0.00    -0.393 OA
ATOM     34  H   UNL     1     -25.975  55.134  31.864  1.00  0.00     0.210 HD
ENDBRANCH  27  33
TORSDOF 2
ENDMDL
MODEL 2
REMARK VINA RESULT:    -7.077      2.046      8.186
REMARK INTER + INTRA:          -7.358
REMARK INTER:                  -7.691
REMARK INTRA:                   0.333
REMARK UNBOUND:                 0.340
REMARK SMILES CC1(C)CC[C@]2(C(=O)[O-])CC[C@]3(C)C(=CC[C@H]4[C@@]5(C)CC[C@H](O)C(C)(C)[C@H]5CC[C@@]43C)[C@H]2C1
REMARK SMILES IDX 6 1 5 2 10 3 32 4 4 5 11 6 14 7 33 8 2 9 12 10 15 11 1 12
REMARK SMILES IDX 3 13 13 14 30 15 16 16 17 17 29 18 31 19 18 20 28 21 27 22
REMARK SMILES IDX 20 23 19 24 24 25 21 26 22 27 25 28 26 29 7 30 8 31 9 32
REMARK SMILES IDX 23 33
REMARK H PARENT 23 34
REMARK Flexibility Score: inf
ROOT
ATOM      1  C   UNL     1     -23.470  51.443  31.893  1.00  0.00     0.017 C 
ATOM      2  C   UNL     1     -23.753  52.152  30.537  1.00  0.00     0.014 C 
ATOM      3  C   UNL     1     -21.997  50.960  31.896  1.00  0.00     0.014 C 
ATOM      4  C   UNL     1     -24.422  50.207  31.997  1.00  0.00     0.028 C 
ATOM      5  C   UNL     1     -25.224  52.581  30.391  1.00  0.00     0.007 C 
ATOM      6  C   UNL     1     -21.652  50.016  33.072  1.00  0.00     0.013 C 
ATOM      7  C   UNL     1     -24.050  49.337  33.208  1.00  0.00    -0.064 C 
ATOM      8  C   UNL     1     -25.912  50.630  31.879  1.00  0.00     0.015 C 
ATOM      9  C   UNL     1     -26.226  51.409  30.571  1.00  0.00    -0.035 C 
ATOM     10  C   UNL     1     -22.606  48.776  33.239  1.00  0.00    -0.006 C 
ATOM     11  C   UNL     1     -24.877  49.268  34.286  1.00  0.00    -0.027 C 
ATOM     12  C   UNL     1     -27.651  51.991  30.677  1.00  0.00     0.011 C 
ATOM     13  C   UNL     1     -26.195  50.467  29.341  1.00  0.00     0.011 C 
ATOM     14  C   UNL     1     -22.389  47.851  31.995  1.00  0.00     0.017 C 
ATOM     15  C   UNL     1     -22.304  47.939  34.599  1.00  0.00    -0.020 C 
ATOM     16  C   UNL     1     -24.507  48.657  35.603  1.00  0.00     0.032 C 
ATOM     17  C   UNL     1     -22.975  48.655  35.819  1.00  0.00     0.006 C 
ATOM     18  C   UNL     1     -20.782  47.858  34.874  1.00  0.00     0.008 C 
ATOM     19  C   UNL     1     -22.869  46.489  34.456  1.00  0.00     0.012 C 
ATOM     20  C   UNL     1     -22.490  48.318  37.328  1.00  0.00    -0.025 C 
ATOM     21  C   UNL     1     -20.455  47.147  36.177  1.00  0.00     0.005 C 
ATOM     22  C   UNL     1     -20.942  47.940  37.421  1.00  0.00     0.003 C 
ATOM     23  C   UNL     1     -23.360  47.228  38.075  1.00  0.00     0.010 C 
ATOM     24  C   UNL     1     -22.707  49.675  38.094  1.00  0.00     0.012 C 
ATOM     25  C   UNL     1     -20.521  47.189  38.761  1.00  0.00    -0.006 C 
ATOM     26  C   UNL     1     -22.721  45.844  38.301  1.00  0.00     0.033 C 
ATOM     27  C   UNL     1     -21.294  45.837  38.901  1.00  0.00     0.120 C 
ATOM     28  C   UNL     1     -20.755  48.079  40.016  1.00  0.00     0.014 C 
ATOM     29  C   UNL     1     -18.994  46.886  38.763  1.00  0.00     0.014 C 
ENDROOT
BRANCH   1  30
ATOM     30  C   UNL     1     -23.645  52.445  33.037  1.00  0.00     0.048 C 
ATOM     31  O   UNL     1     -22.683  53.183  33.380  1.00  0.00    -0.550 OA
ATOM     32  O   UNL     1     -24.821  52.510  33.774  1.00  0.00    -0.550 OA
ENDBRANCH   1  30
BRANCH  27  33
ATOM     33  O   UNL     1     -21.339  45.429  40.249  1.00  0.00    -0.393 OA
ATOM     34  H   UNL     1     -21.755  46.167  40.767  1.00  0.00     0.210 HD
ENDBRANCH  27  33
TORSDOF 2
ENDMDL
MODEL 3
REMARK VINA RESULT:    -7.039      4.574      8.486
REMARK INTER + INTRA:          -7.317
REMARK INTER:                  -7.665
REMARK INTRA:                   0.348
REMARK UNBOUND:                 0.340
REMARK SMILES CC1(C)CC[C@]2(C(=O)[O-])CC[C@]3(C)C(=CC[C@H]4[C@@]5(C)CC[C@H](O)C(C)(C)[C@H]5CC[C@@]43C)[C@H]2C1
REMARK SMILES IDX 6 1 5 2 10 3 32 4 4 5 11 6 14 7 33 8 2 9 12 10 15 11 1 12
REMARK SMILES IDX 3 13 13 14 30 15 16 16 17 17 29 18 31 19 18 20 28 21 27 22
REMARK SMILES IDX 20 23 19 24 24 25 21 26 22 27 25 28 26 29 7 30 8 31 9 32
REMARK SMILES IDX 23 33
REMARK H PARENT 23 34
REMARK Flexibility Score: inf
ROOT
ATOM      1  C   UNL     1     -24.287  44.520  30.739  1.00  0.00     0.017 C 
ATOM      2  C   UNL     1     -24.827  43.895  29.420  1.00  0.00     0.014 C 
ATOM      3  C   UNL     1     -24.326  43.437  31.848  1.00  0.00     0.014 C 
ATOM      4  C   UNL     1     -25.232  45.701  31.133  1.00  0.00     0.028 C 
ATOM      5  C   UNL     1     -24.925  44.921  28.278  1.00  0.00     0.007 C 
ATOM      6  C   UNL     1     -24.061  43.989  33.269  1.00  0.00     0.013 C 
ATOM      7  C   UNL     1     -24.887  46.228  32.536  1.00  0.00    -0.064 C 
ATOM      8  C   UNL     1     -25.319  46.759  29.999  1.00  0.00     0.015 C 
ATOM      9  C   UNL     1     -25.784  46.162  28.640  1.00  0.00    -0.035 C 
ATOM     10  C   UNL     1     -24.965  45.204  33.696  1.00  0.00    -0.006 C 
ATOM     11  C   UNL     1     -24.328  47.457  32.691  1.00  0.00    -0.027 C 
ATOM     12  C   UNL     1     -25.590  47.231  27.544  1.00  0.00     0.011 C 
ATOM     13  C   UNL     1     -27.289  45.797  28.678  1.00  0.00     0.011 C 
ATOM     14  C   UNL     1     -26.433  44.673  33.814  1.00  0.00     0.017 C 
ATOM     15  C   UNL     1     -24.506  45.851  35.114  1.00  0.00    -0.020 C 
ATOM     16  C   UNL     1     -23.732  47.965  33.969  1.00  0.00     0.032 C 
ATOM     17  C   UNL     1     -23.283  46.804  34.888  1.00  0.00     0.006 C 
ATOM     18  C   UNL     1     -24.069  44.750  36.112  1.00  0.00     0.008 C 
ATOM     19  C   UNL     1     -25.697  46.651  35.734  1.00  0.00     0.012 C 
ATOM     20  C   UNL     1     -22.345  47.234  36.137  1.00  0.00    -0.025 C 
ATOM     21  C   UNL     1     -23.561  45.313  37.428  1.00  0.00     0.005 C 
ATOM     22  C   UNL     1     -22.235  46.104  37.258  1.00  0.00     0.003 C 
ATOM     23  C   UNL     1     -22.718  48.621  36.799  1.00  0.00     0.010 C 
ATOM     24  C   UNL     1     -20.925  47.412  35.483  1.00  0.00     0.012 C 
ATOM     25  C   UNL     1     -21.707  46.620  38.670  1.00  0.00    -0.006 C 
ATOM     26  C   UNL     1     -23.370  48.587  38.195  1.00  0.00     0.033 C 
ATOM     27  C   UNL     1     -22.671  47.703  39.256  1.00  0.00     0.120 C 
ATOM     28  C   UNL     1     -20.259  47.180  38.574  1.00  0.00     0.014 C 
ATOM     29  C   UNL     1     -21.615  45.442  39.685  1.00  0.00     0.014 C 
ENDROOT
BRANCH   1  30
ATOM     30  C   UNL     1     -22.830  44.946  30.541  1.00  0.00     0.048 C 
ATOM     31  O   UNL     1     -21.908  44.091  30.619  1.00  0.00    -0.550 OA
ATOM     32  O   UNL     1     -22.480  46.278  30.358  1.00  0.00    -0.550 OA
ENDBRANCH   1  30
BRANCH  27  33
ATOM     33  O   UNL     1     -21.997  48.512  40.192  1.00  0.00    -0.393 OA
ATOM     34  H   UNL     1     -21.150  48.810  39.768  1.00  0.00     0.210 HD
ENDBRANCH  27  33
TORSDOF 2
ENDMDL
MODEL 4
REMARK VINA RESULT:    -7.037      2.897      4.853
REMARK INTER + INTRA:          -7.314
REMARK INTER:                  -7.648
REMARK INTRA:                   0.335
REMARK UNBOUND:                 0.340
REMARK SMILES CC1(C)CC[C@]2(C(=O)[O-])CC[C@]3(C)C(=CC[C@H]4[C@@]5(C)CC[C@H](O)C(C)(C)[C@H]5CC[C@@]43C)[C@H]2C1
REMARK SMILES IDX 6 1 5 2 10 3 32 4 4 5 11 6 14 7 33 8 2 9 12 10 15 11 1 12
REMARK SMILES IDX 3 13 13 14 30 15 16 16 17 17 29 18 31 19 18 20 28 21 27 22
REMARK SMILES IDX 20 23 19 24 24 25 21 26 22 27 25 28 26 29 7 30 8 31 9 32
REMARK SMILES IDX 23 33
REMARK H PARENT 23 34
REMARK Flexibility Score: inf
ROOT
ATOM      1  C   UNL     1     -22.185  49.070  37.630  1.00  0.00     0.017 C 
ATOM      2  C   UNL     1     -21.670  48.971  39.096  1.00  0.00     0.014 C 
ATOM      3  C   UNL     1     -20.972  48.928  36.675  1.00  0.00     0.014 C 
ATOM      4  C   UNL     1     -22.832  50.480  37.442  1.00  0.00     0.028 C 
ATOM      5  C   UNL     1     -22.787  49.203  40.130  1.00  0.00     0.007 C 
ATOM      6  C   UNL     1     -21.298  49.263  35.200  1.00  0.00     0.013 C 
ATOM      7  C   UNL     1     -23.168  50.730  35.963  1.00  0.00    -0.064 C 
ATOM      8  C   UNL     1     -23.980  50.716  38.462  1.00  0.00     0.015 C 
ATOM      9  C   UNL     1     -23.527  50.554  39.941  1.00  0.00    -0.035 C 
ATOM     10  C   UNL     1     -21.985  50.659  34.965  1.00  0.00    -0.006 C 
ATOM     11  C   UNL     1     -24.463  50.778  35.550  1.00  0.00    -0.027 C 
ATOM     12  C   UNL     1     -24.782  50.557  40.840  1.00  0.00     0.011 C 
ATOM     13  C   UNL     1     -22.631  51.738  40.382  1.00  0.00     0.011 C 
ATOM     14  C   UNL     1     -20.937  51.761  35.333  1.00  0.00     0.017 C 
ATOM     15  C   UNL     1     -22.470  50.861  33.427  1.00  0.00    -0.020 C 
ATOM     16  C   UNL     1     -24.898  50.769  34.116  1.00  0.00     0.032 C 
ATOM     17  C   UNL     1     -23.832  50.121  33.202  1.00  0.00     0.006 C 
ATOM     18  C   UNL     1     -21.438  50.266  32.437  1.00  0.00     0.008 C 
ATOM     19  C   UNL     1     -22.636  52.386  33.127  1.00  0.00     0.012 C 
ATOM     20  C   UNL     1     -24.330  49.772  31.699  1.00  0.00    -0.025 C 
ATOM     21  C   UNL     1     -21.885  50.366  30.988  1.00  0.00     0.005 C 
ATOM     22  C   UNL     1     -23.127  49.482  30.691  1.00  0.00     0.003 C 
ATOM     23  C   UNL     1     -25.324  50.827  31.069  1.00  0.00     0.010 C 
ATOM     24  C   UNL     1     -25.142  48.437  31.885  1.00  0.00     0.012 C 
ATOM     25  C   UNL     1     -23.519  49.569  29.149  1.00  0.00    -0.006 C 
ATOM     26  C   UNL     1     -24.783  51.723  29.938  1.00  0.00     0.033 C 
ATOM     27  C   UNL     1     -24.034  51.002  28.792  1.00  0.00     0.120 C 
ATOM     28  C   UNL     1     -24.582  48.501  28.765  1.00  0.00     0.014 C 
ATOM     29  C   UNL     1     -22.287  49.250  28.251  1.00  0.00     0.014 C 
ENDROOT
BRANCH   1  30
ATOM     30  C   UNL     1     -23.149  47.914  37.351  1.00  0.00     0.048 C 
ATOM     31  O   UNL     1     -22.703  46.805  36.953  1.00  0.00    -0.550 OA
ATOM     32  O   UNL     1     -24.525  48.077  37.443  1.00  0.00    -0.550 OA
ENDBRANCH   1  30
BRANCH  27  33
ATOM     33  O   UNL     1     -24.838  50.965  27.635  1.00  0.00    -0.393 OA
ATOM     34  H   UNL     1     -24.240  50.768  26.867  1.00  0.00     0.210 HD
ENDBRANCH  27  33
TORSDOF 2
ENDMDL
MODEL 5
REMARK VINA RESULT:    -6.933      4.973      8.666
REMARK INTER + INTRA:          -7.201
REMARK INTER:                  -7.542
REMARK INTRA:                   0.341
REMARK UNBOUND:                 0.340
REMARK SMILES CC1(C)CC[C@]2(C(=O)[O-])CC[C@]3(C)C(=CC[C@H]4[C@@]5(C)CC[C@H](O)C(C)(C)[C@H]5CC[C@@]43C)[C@H]2C1
REMARK SMILES IDX 6 1 5 2 10 3 32 4 4 5 11 6 14 7 33 8 2 9 12 10 15 11 1 12
REMARK SMILES IDX 3 13 13 14 30 15 16 16 17 17 29 18 31 19 18 20 28 21 27 22
REMARK SMILES IDX 20 23 19 24 24 25 21 26 22 27 25 28 26 29 7 30 8 31 9 32
REMARK SMILES IDX 23 33
REMARK H PARENT 23 34
REMARK Flexibility Score: inf
ROOT
ATOM      1  C   UNL     1     -23.994  45.509  28.924  1.00  0.00     0.017 C 
ATOM      2  C   UNL     1     -24.518  44.652  27.736  1.00  0.00     0.014 C 
ATOM      3  C   UNL     1     -23.153  44.597  29.854  1.00  0.00     0.014 C 
ATOM      4  C   UNL     1     -25.233  46.050  29.710  1.00  0.00     0.028 C 
ATOM      5  C   UNL     1     -25.453  45.443  26.805  1.00  0.00     0.007 C 
ATOM      6  C   UNL     1     -22.785  45.254  31.206  1.00  0.00     0.013 C 
ATOM      7  C   UNL     1     -24.793  46.725  31.019  1.00  0.00    -0.064 C 
ATOM      8  C   UNL     1     -26.171  46.875  28.787  1.00  0.00     0.015 C 
ATOM      9  C   UNL     1     -26.661  46.080  27.544  1.00  0.00    -0.035 C 
ATOM     10  C   UNL     1     -23.997  45.846  32.016  1.00  0.00    -0.006 C 
ATOM     11  C   UNL     1     -24.903  48.072  31.169  1.00  0.00    -0.027 C 
ATOM     12  C   UNL     1     -27.366  47.060  26.582  1.00  0.00     0.011 C 
ATOM     13  C   UNL     1     -27.691  44.996  27.946  1.00  0.00     0.011 C 
ATOM     14  C   UNL     1     -24.890  44.641  32.463  1.00  0.00     0.017 C 
ATOM     15  C   UNL     1     -23.519  46.684  33.324  1.00  0.00    -0.020 C 
ATOM     16  C   UNL     1     -24.287  48.855  32.289  1.00  0.00     0.032 C 
ATOM     17  C   UNL     1     -23.067  48.120  32.894  1.00  0.00     0.006 C 
ATOM     18  C   UNL     1     -22.315  45.996  34.014  1.00  0.00     0.008 C 
ATOM     19  C   UNL     1     -24.699  46.779  34.343  1.00  0.00     0.012 C 
ATOM     20  C   UNL     1     -22.143  49.013  33.881  1.00  0.00    -0.025 C 
ATOM     21  C   UNL     1     -21.786  46.784  35.201  1.00  0.00     0.005 C 
ATOM     22  C   UNL     1     -21.153  48.137  34.776  1.00  0.00     0.003 C 
ATOM     23  C   UNL     1     -22.938  50.032  34.791  1.00  0.00     0.010 C 
ATOM     24  C   UNL     1     -21.274  49.871  32.890  1.00  0.00     0.012 C 
ATOM     25  C   UNL     1     -20.556  48.897  36.042  1.00  0.00    -0.006 C 
ATOM     26  C   UNL     1     -23.031  49.715  36.297  1.00  0.00     0.033 C 
ATOM     27  C   UNL     1     -21.703  49.351  37.003  1.00  0.00     0.120 C 
ATOM     28  C   UNL     1     -19.687  50.117  35.624  1.00  0.00     0.014 C 
ATOM     29  C   UNL     1     -19.589  47.967  36.834  1.00  0.00     0.014 C 
ENDROOT
BRANCH   1  30
ATOM     30  C   UNL     1     -23.081  46.615  28.390  1.00  0.00     0.048 C 
ATOM     31  O   UNL     1     -21.874  46.364  28.129  1.00  0.00    -0.550 OA
ATOM     32  O   UNL     1     -23.525  47.925  28.259  1.00  0.00    -0.550 OA
ENDBRANCH   1  30
BRANCH  27  33
ATOM     33  O   UNL     1     -21.276  50.421  37.814  1.00  0.00    -0.393 OA
ATOM     34  H   UNL     1     -21.657  51.253  37.427  1.00  0.00     0.210 HD
ENDBRANCH  27  33
TORSDOF 2
ENDMDL
MODEL 6
REMARK VINA RESULT:    -6.859      3.688      6.891
REMARK INTER + INTRA:          -7.120
REMARK INTER:                  -7.844
REMARK INTRA:                   0.724
REMARK UNBOUND:                 0.340
REMARK SMILES CC1(C)CC[C@]2(C(=O)[O-])CC[C@]3(C)C(=CC[C@H]4[C@@]5(C)CC[C@H](O)C(C)(C)[C@H]5CC[C@@]43C)[C@H]2C1
REMARK SMILES IDX 6 1 5 2 10 3 32 4 4 5 11 6 14 7 33 8 2 9 12 10 15 11 1 12
REMARK SMILES IDX 3 13 13 14 30 15 16 16 17 17 29 18 31 19 18 20 28 21 27 22
REMARK SMILES IDX 20 23 19 24 24 25 21 26 22 27 25 28 26 29 7 30 8 31 9 32
REMARK SMILES IDX 23 33
REMARK H PARENT 23 34
REMARK Flexibility Score: inf
ROOT
ATOM      1  C   UNL     1     -24.296  45.902  31.726  1.00  0.00     0.017 C 
ATOM      2  C   UNL     1     -24.842  45.218  30.439  1.00  0.00     0.014 C 
ATOM      3  C   UNL     1     -25.475  46.107  32.711  1.00  0.00     0.014 C 
ATOM      4  C   UNL     1     -23.710  47.293  31.320  1.00  0.00     0.028 C 
ATOM      5  C   UNL     1     -23.764  45.062  29.351  1.00  0.00     0.007 C 
ATOM      6  C   UNL     1     -25.128  47.005  33.922  1.00  0.00     0.013 C 
ATOM      7  C   UNL     1     -23.349  48.115  32.568  1.00  0.00    -0.064 C 
ATOM      8  C   UNL     1     -22.601  47.147  30.243  1.00  0.00     0.015 C 
ATOM      9  C   UNL     1     -23.083  46.403  28.966  1.00  0.00    -0.035 C 
ATOM     10  C   UNL     1     -24.501  48.402  33.563  1.00  0.00    -0.006 C 
ATOM     11  C   UNL     1     -22.048  48.364  32.875  1.00  0.00    -0.027 C 
ATOM     12  C   UNL     1     -21.853  46.094  28.085  1.00  0.00     0.011 C 
ATOM     13  C   UNL     1     -24.044  47.287  28.133  1.00  0.00     0.011 C 
ATOM     14  C   UNL     1     -25.609  49.237  32.837  1.00  0.00     0.017 C 
ATOM     15  C   UNL     1     -23.987  49.209  34.877  1.00  0.00    -0.020 C 
ATOM     16  C   UNL     1     -21.576  48.934  34.178  1.00  0.00     0.032 C 
ATOM     17  C   UNL     1     -22.587  48.661  35.318  1.00  0.00     0.006 C 
ATOM     18  C   UNL     1     -24.965  49.017  36.064  1.00  0.00     0.008 C 
ATOM     19  C   UNL     1     -23.885  50.733  34.549  1.00  0.00     0.012 C 
ATOM     20  C   UNL     1     -22.036  48.947  36.814  1.00  0.00    -0.025 C 
ATOM     21  C   UNL     1     -24.487  49.692  37.338  1.00  0.00     0.005 C 
ATOM     22  C   UNL     1     -23.197  49.038  37.905  1.00  0.00     0.003 C 
ATOM     23  C   UNL     1     -21.076  50.198  36.939  1.00  0.00     0.010 C 
ATOM     24  C   UNL     1     -21.166  47.675  37.132  1.00  0.00     0.012 C 
ATOM     25  C   UNL     1     -22.771  49.736  39.272  1.00  0.00    -0.006 C 
ATOM     26  C   UNL     1     -21.629  51.448  37.651  1.00  0.00     0.033 C 
ATOM     27  C   UNL     1     -22.315  51.210  39.018  1.00  0.00     0.120 C 
ATOM     28  C   UNL     1     -21.649  48.941  39.999  1.00  0.00     0.014 C 
ATOM     29  C   UNL     1     -23.964  49.755  40.273  1.00  0.00     0.014 C 
ENDROOT
BRANCH   1  30
ATOM     30  C   UNL     1     -23.271  44.981  32.395  1.00  0.00     0.048 C 
ATOM     31  O   UNL     1     -23.042  43.840  31.913  1.00  0.00    -0.550 OA
ATOM     32  O   UNL     1     -22.639  45.336  33.580  1.00  0.00    -0.550 OA
ENDBRANCH   1  30
BRANCH  27  33
ATOM     33  O   UNL     1     -21.481  51.657  40.062  1.00  0.00    -0.393 OA
ATOM     34  H   UNL     1     -20.729  51.012  40.136  1.00  0.00     0.210 HD
ENDBRANCH  27  33
TORSDOF 2
ENDMDL
MODEL 7
REMARK VINA RESULT:    -6.837      2.726      3.838
REMARK INTER + INTRA:          -7.096
REMARK INTER:                  -7.450
REMARK INTRA:                   0.354
REMARK UNBOUND:                 0.340
REMARK SMILES CC1(C)CC[C@]2(C(=O)[O-])CC[C@]3(C)C(=CC[C@H]4[C@@]5(C)CC[C@H](O)C(C)(C)[C@H]5CC[C@@]43C)[C@H]2C1
REMARK SMILES IDX 6 1 5 2 10 3 32 4 4 5 11 6 14 7 33 8 2 9 12 10 15 11 1 12
REMARK SMILES IDX 3 13 13 14 30 15 16 16 17 17 29 18 31 19 18 20 28 21 27 22
REMARK SMILES IDX 20 23 19 24 24 25 21 26 22 27 25 28 26 29 7 30 8 31 9 32
REMARK SMILES IDX 23 33
REMARK H PARENT 23 34
REMARK Flexibility Score: inf
ROOT
ATOM      1  C   UNL     1     -22.457  48.963  37.837  1.00  0.00     0.017 C 
ATOM      2  C   UNL     1     -22.201  48.669  39.344  1.00  0.00     0.014 C 
ATOM      3  C   UNL     1     -23.962  49.281  37.648  1.00  0.00     0.014 C 
ATOM      4  C   UNL     1     -22.092  47.677  37.028  1.00  0.00     0.028 C 
ATOM      5  C   UNL     1     -20.750  48.240  39.624  1.00  0.00     0.007 C 
ATOM      6  C   UNL     1     -24.406  49.340  36.167  1.00  0.00     0.013 C 
ATOM      7  C   UNL     1     -22.522  47.819  35.559  1.00  0.00    -0.064 C 
ATOM      8  C   UNL     1     -20.620  47.249  37.280  1.00  0.00     0.015 C 
ATOM      9  C   UNL     1     -20.299  47.016  38.783  1.00  0.00    -0.035 C 
ATOM     10  C   UNL     1     -24.028  48.081  35.303  1.00  0.00    -0.006 C 
ATOM     11  C   UNL     1     -21.589  47.937  34.577  1.00  0.00    -0.027 C 
ATOM     12  C   UNL     1     -18.773  46.848  38.938  1.00  0.00     0.011 C 
ATOM     13  C   UNL     1     -20.968  45.718  39.301  1.00  0.00     0.011 C 
ATOM     14  C   UNL     1     -24.858  46.873  35.852  1.00  0.00     0.017 C 
ATOM     15  C   UNL     1     -24.351  48.291  33.724  1.00  0.00    -0.020 C 
ATOM     16  C   UNL     1     -21.890  48.323  33.161  1.00  0.00     0.032 C 
ATOM     17  C   UNL     1     -23.207  49.128  33.058  1.00  0.00     0.006 C 
ATOM     18  C   UNL     1     -25.679  49.064  33.528  1.00  0.00     0.008 C 
ATOM     19  C   UNL     1     -24.470  46.899  33.025  1.00  0.00     0.012 C 
ATOM     20  C   UNL     1     -23.459  49.863  31.636  1.00  0.00    -0.025 C 
ATOM     21  C   UNL     1     -25.986  49.350  32.068  1.00  0.00     0.005 C 
ATOM     22  C   UNL     1     -24.969  50.338  31.433  1.00  0.00     0.003 C 
ATOM     23  C   UNL     1     -22.972  49.046  30.373  1.00  0.00     0.010 C 
ATOM     24  C   UNL     1     -22.553  51.146  31.723  1.00  0.00     0.012 C 
ATOM     25  C   UNL     1     -25.367  50.656  29.924  1.00  0.00    -0.006 C 
ATOM     26  C   UNL     1     -24.056  48.436  29.463  1.00  0.00     0.033 C 
ATOM     27  C   UNL     1     -25.201  49.384  29.030  1.00  0.00     0.120 C 
ATOM     28  C   UNL     1     -24.534  51.835  29.346  1.00  0.00     0.014 C 
ATOM     29  C   UNL     1     -26.848  51.130  29.836  1.00  0.00     0.014 C 
ENDROOT
BRANCH   1  30
ATOM     30  C   UNL     1     -21.653  50.196  37.417  1.00  0.00     0.048 C 
ATOM     31  O   UNL     1     -22.078  51.349  37.695  1.00  0.00    -0.550 OA
ATOM     32  O   UNL     1     -20.497  50.086  36.654  1.00  0.00    -0.550 OA
ENDBRANCH   1  30
BRANCH  27  33
ATOM     33  O   UNL     1     -25.045  49.745  27.677  1.00  0.00    -0.393 OA
ATOM     34  H   UNL     1     -24.747  50.693  27.658  1.00  0.00     0.210 HD
ENDBRANCH  27  33
TORSDOF 2
ENDMDL
MODEL 8
REMARK VINA RESULT:    -6.824      2.568      4.383
REMARK INTER + INTRA:          -7.083
REMARK INTER:                  -7.431
REMARK INTRA:                   0.348
REMARK UNBOUND:                 0.340
REMARK SMILES CC1(C)CC[C@]2(C(=O)[O-])CC[C@]3(C)C(=CC[C@H]4[C@@]5(C)CC[C@H](O)C(C)(C)[C@H]5CC[C@@]43C)[C@H]2C1
REMARK SMILES IDX 6 1 5 2 10 3 32 4 4 5 11 6 14 7 33 8 2 9 12 10 15 11 1 12
REMARK SMILES IDX 3 13 13 14 30 15 16 16 17 17 29 18 31 19 18 20 28 21 27 22
REMARK SMILES IDX 20 23 19 24 24 25 21 26 22 27 25 28 26 29 7 30 8 31 9 32
REMARK SMILES IDX 23 33
REMARK H PARENT 23 34
REMARK Flexibility Score: inf
ROOT
ATOM      1  C   UNL     1     -22.888  49.970  38.813  1.00  0.00     0.017 C 
ATOM      2  C   UNL     1     -22.267  48.673  39.408  1.00  0.00     0.014 C 
ATOM      3  C   UNL     1     -24.135  50.347  39.653  1.00  0.00     0.014 C 
ATOM      4  C   UNL     1     -23.326  49.662  37.344  1.00  0.00     0.028 C 
ATOM      5  C   UNL     1     -21.078  48.154  38.580  1.00  0.00     0.007 C 
ATOM      6  C   UNL     1     -24.998  51.465  39.022  1.00  0.00     0.013 C 
ATOM      7  C   UNL     1     -24.142  50.829  36.765  1.00  0.00    -0.064 C 
ATOM      8  C   UNL     1     -22.128  49.164  36.489  1.00  0.00     0.015 C 
ATOM      9  C   UNL     1     -21.429  47.911  37.088  1.00  0.00    -0.035 C 
ATOM     10  C   UNL     1     -25.432  51.216  37.531  1.00  0.00    -0.006 C 
ATOM     11  C   UNL     1     -23.624  51.608  35.778  1.00  0.00    -0.027 C 
ATOM     12  C   UNL     1     -20.120  47.662  36.309  1.00  0.00     0.011 C 
ATOM     13  C   UNL     1     -22.314  46.650  36.931  1.00  0.00     0.011 C 
ATOM     14  C   UNL     1     -26.414  49.997  37.529  1.00  0.00     0.017 C 
ATOM     15  C   UNL     1     -26.168  52.508  36.874  1.00  0.00    -0.020 C 
ATOM     16  C   UNL     1     -24.220  52.903  35.317  1.00  0.00     0.032 C 
ATOM     17  C   UNL     1     -25.093  53.552  36.417  1.00  0.00     0.006 C 
ATOM     18  C   UNL     1     -27.094  53.202  37.904  1.00  0.00     0.008 C 
ATOM     19  C   UNL     1     -27.026  52.055  35.649  1.00  0.00     0.012 C 
ATOM     20  C   UNL     1     -25.518  55.092  36.144  1.00  0.00    -0.025 C 
ATOM     21  C   UNL     1     -27.747  54.460  37.357  1.00  0.00     0.005 C 
ATOM     22  C   UNL     1     -26.715  55.587  37.076  1.00  0.00     0.003 C 
ATOM     23  C   UNL     1     -25.829  55.435  34.632  1.00  0.00     0.010 C 
ATOM     24  C   UNL     1     -24.228  55.901  36.537  1.00  0.00     0.012 C 
ATOM     25  C   UNL     1     -27.451  56.905  36.566  1.00  0.00    -0.006 C 
ATOM     26  C   UNL     1     -27.301  55.687  34.251  1.00  0.00     0.033 C 
ATOM     27  C   UNL     1     -28.084  56.671  35.155  1.00  0.00     0.120 C 
ATOM     28  C   UNL     1     -26.488  58.125  36.531  1.00  0.00     0.014 C 
ATOM     29  C   UNL     1     -28.585  57.316  37.552  1.00  0.00     0.014 C 
ENDROOT
BRANCH   1  30
ATOM     30  C   UNL     1     -21.877  51.114  38.920  1.00  0.00     0.048 C 
ATOM     31  O   UNL     1     -21.735  51.727  40.012  1.00  0.00    -0.550 OA
ATOM     32  O   UNL     1     -21.162  51.558  37.816  1.00  0.00    -0.550 OA
ENDBRANCH   1  30
BRANCH  27  33
ATOM     33  O   UNL     1     -28.272  57.897  34.487  1.00  0.00    -0.393 OA
ATOM     34  H   UNL     1     -28.697  58.521  35.131  1.00  0.00     0.210 HD
ENDBRANCH  27  33
TORSDOF 2
ENDMDL
MODEL 9
REMARK VINA RESULT:    -6.782      3.291      5.854
REMARK INTER + INTRA:          -7.037
REMARK INTER:                  -7.374
REMARK INTRA:                   0.337
REMARK UNBOUND:                 0.340
REMARK SMILES CC1(C)CC[C@]2(C(=O)[O-])CC[C@]3(C)C(=CC[C@H]4[C@@]5(C)CC[C@H](O)C(C)(C)[C@H]5CC[C@@]43C)[C@H]2C1
REMARK SMILES IDX 6 1 5 2 10 3 32 4 4 5 11 6 14 7 33 8 2 9 12 10 15 11 1 12
REMARK SMILES IDX 3 13 13 14 30 15 16 16 17 17 29 18 31 19 18 20 28 21 27 22
REMARK SMILES IDX 20 23 19 24 24 25 21 26 22 27 25 28 26 29 7 30 8 31 9 32
REMARK SMILES IDX 23 33
REMARK H PARENT 23 34
REMARK Flexibility Score: inf
ROOT
ATOM      1  C   UNL     1     -21.954  50.875  37.169  1.00  0.00     0.017 C 
ATOM      2  C   UNL     1     -21.629  51.540  38.538  1.00  0.00     0.014 C 
ATOM      3  C   UNL     1     -21.109  51.572  36.072  1.00  0.00     0.014 C 
ATOM      4  C   UNL     1     -23.473  51.098  36.875  1.00  0.00     0.028 C 
ATOM      5  C   UNL     1     -22.495  50.985  39.683  1.00  0.00     0.007 C 
ATOM      6  C   UNL     1     -21.519  51.188  34.630  1.00  0.00     0.013 C 
ATOM      7  C   UNL     1     -23.819  50.657  35.443  1.00  0.00    -0.064 C 
ATOM      8  C   UNL     1     -24.360  50.517  38.011  1.00  0.00     0.015 C 
ATOM      9  C   UNL     1     -24.018  51.100  39.411  1.00  0.00    -0.035 C 
ATOM     10  C   UNL     1     -23.047  51.361  34.299  1.00  0.00    -0.006 C 
ATOM     11  C   UNL     1     -24.586  49.556  35.229  1.00  0.00    -0.027 C 
ATOM     12  C   UNL     1     -24.772  50.279  40.480  1.00  0.00     0.011 C 
ATOM     13  C   UNL     1     -24.489  52.571  39.533  1.00  0.00     0.011 C 
ATOM     14  C   UNL     1     -23.361  52.894  34.337  1.00  0.00     0.017 C 
ATOM     15  C   UNL     1     -23.438  50.762  32.839  1.00  0.00    -0.020 C 
ATOM     16  C   UNL     1     -24.779  48.901  33.894  1.00  0.00     0.032 C 
ATOM     17  C   UNL     1     -23.605  49.208  32.935  1.00  0.00     0.006 C 
ATOM     18  C   UNL     1     -22.325  51.056  31.803  1.00  0.00     0.008 C 
ATOM     19  C   UNL     1     -24.770  51.413  32.347  1.00  0.00     0.012 C 
ATOM     20  C   UNL     1     -23.553  48.300  31.594  1.00  0.00    -0.025 C 
ATOM     21  C   UNL     1     -22.612  50.450  30.440  1.00  0.00     0.005 C 
ATOM     22  C   UNL     1     -22.591  48.897  30.468  1.00  0.00     0.003 C 
ATOM     23  C   UNL     1     -24.965  47.954  30.973  1.00  0.00     0.010 C 
ATOM     24  C   UNL     1     -22.934  46.944  32.095  1.00  0.00     0.012 C 
ATOM     25  C   UNL     1     -22.834  48.308  29.008  1.00  0.00    -0.006 C 
ATOM     26  C   UNL     1     -25.349  48.651  29.652  1.00  0.00     0.033 C 
ATOM     27  C   UNL     1     -24.289  48.615  28.525  1.00  0.00     0.120 C 
ATOM     28  C   UNL     1     -22.556  46.779  28.951  1.00  0.00     0.014 C 
ATOM     29  C   UNL     1     -21.835  48.936  27.991  1.00  0.00     0.014 C 
ENDROOT
BRANCH   1  30
ATOM     30  C   UNL     1     -21.552  49.398  37.213  1.00  0.00     0.048 C 
ATOM     31  O   UNL     1     -20.364  49.062  36.957  1.00  0.00    -0.550 OA
ATOM     32  O   UNL     1     -22.485  48.397  37.446  1.00  0.00    -0.550 OA
ENDBRANCH   1  30
BRANCH  27  33
ATOM     33  O   UNL     1     -24.680  47.706  27.522  1.00  0.00    -0.393 OA
ATOM     34  H   UNL     1     -24.469  46.794  27.852  1.00  0.00     0.210 HD
ENDBRANCH  27  33
TORSDOF 2
ENDMDL
