MODEL 1
REMARK VINA RESULT:    -5.099      0.000      0.000
REMARK INTER + INTRA:          -8.068
REMARK INTER:                  -7.483
REMARK INTRA:                  -0.585
REMARK UNBOUND:                -0.585
REMARK SMILES O=C([O-])CCCCCCCC(=O)[O-]
REMARK SMILES IDX 7 1 6 2 5 3 4 4 2 5 1 6 3 7 8 8 9 9 10 10 11 11 12 12 13 13
REMARK H PARENT
REMARK Flexibility Score: inf
ROOT
ATOM      1  C   UNL     1      14.105   3.753  17.619  1.00  0.00     0.000 C 
ENDROOT
BRANCH   1   2
ATOM      2  C   UNL     1      12.875   3.477  16.741  1.00  0.00     0.000 C 
BRANCH   2   3
ATOM      3  C   UNL     1      13.199   2.625  15.500  1.00  0.00     0.006 C 
BRANCH   3   4
ATOM      4  C   UNL     1      14.676   2.677  15.073  1.00  0.00     0.053 C 
BRANCH   4   5
ATOM      5  C   UNL     1      14.864   2.391  13.614  1.00  0.00     0.041 C 
ATOM      6  O   UNL     1      14.590   1.252  13.152  1.00  0.00    -0.550 OA
ATOM      7  O   UNL     1      15.306   3.390  12.757  1.00  0.00    -0.550 OA
ENDBRANCH   4   5
ENDBRANCH   3   4
ENDBRANCH   2   3
ENDBRANCH   1   2
BRANCH   1   8
ATOM      8  C   UNL     1      13.916   3.176  19.027  1.00  0.00     0.000 C 
BRANCH   8   9
ATOM      9  C   UNL     1      14.039   1.648  19.019  1.00  0.00     0.006 C 
BRANCH   9  10
ATOM     10  C   UNL     1      15.412   1.209  18.502  1.00  0.00     0.053 C 
BRANCH  10  11
ATOM     11  C   UNL     1      16.163   0.474  19.566  1.00  0.00     0.041 C 
ATOM     12  O   UNL     1      15.562   0.056  20.590  1.00  0.00    -0.550 OA
ATOM     13  O   UNL     1      17.536   0.293  19.452  1.00  0.00    -0.550 OA
ENDBRANCH  10  11
ENDBRANCH   9  10
ENDBRANCH   8   9
ENDBRANCH   1   8
TORSDOF 8
ENDMDL
MODEL 2
REMARK VINA RESULT:    -5.078      1.355      1.883
REMARK INTER + INTRA:          -8.037
REMARK INTER:                  -7.391
REMARK INTRA:                  -0.646
REMARK UNBOUND:                -0.585
REMARK SMILES O=C([O-])CCCCCCCC(=O)[O-]
REMARK SMILES IDX 7 1 6 2 5 3 4 4 2 5 1 6 3 7 8 8 9 9 10 10 11 11 12 12 13 13
REMARK H PARENT
REMARK Flexibility Score: inf
ROOT
ATOM      1  C   UNL     1      12.917   3.284  16.528  1.00  0.00     0.000 C 
ENDROOT
BRANCH   1   2
ATOM      2  C   UNL     1      13.292   2.630  15.190  1.00  0.00     0.000 C 
BRANCH   2   3
ATOM      3  C   UNL     1      14.805   2.654  14.909  1.00  0.00     0.006 C 
BRANCH   3   4
ATOM      4  C   UNL     1      15.167   3.061  13.471  1.00  0.00     0.053 C 
BRANCH   4   5
ATOM      5  C   UNL     1      15.743   1.926  12.678  1.00  0.00     0.041 C 
ATOM      6  O   UNL     1      16.201   0.911  13.267  1.00  0.00    -0.550 OA
ATOM      7  O   UNL     1      15.740   1.970  11.290  1.00  0.00    -0.550 OA
ENDBRANCH   4   5
ENDBRANCH   3   4
ENDBRANCH   2   3
ENDBRANCH   1   2
BRANCH   1   8
ATOM      8  C   UNL     1      14.166   3.547  17.380  1.00  0.00     0.000 C 
BRANCH   8   9
ATOM      9  C   UNL     1      13.993   2.988  18.797  1.00  0.00     0.006 C 
BRANCH   9  10
ATOM     10  C   UNL     1      13.841   1.465  18.773  1.00  0.00     0.053 C 
BRANCH  10  11
ATOM     11  C   UNL     1      15.116   0.818  18.334  1.00  0.00     0.041 C 
ATOM     12  O   UNL     1      16.195   1.075  18.930  1.00  0.00    -0.550 OA
ATOM     13  O   UNL     1      15.123  -0.033  17.235  1.00  0.00    -0.550 OA
ENDBRANCH  10  11
ENDBRANCH   9  10
ENDBRANCH   8   9
ENDBRANCH   1   8
TORSDOF 8
ENDMDL
MODEL 3
REMARK VINA RESULT:    -5.034      1.187      5.323
REMARK INTER + INTRA:          -7.972
REMARK INTER:                  -7.593
REMARK INTRA:                  -0.380
REMARK UNBOUND:                -0.585
REMARK SMILES O=C([O-])CCCCCCCC(=O)[O-]
REMARK SMILES IDX 7 1 6 2 5 3 4 4 2 5 1 6 3 7 8 8 9 9 10 10 11 11 12 12 13 13
REMARK H PARENT
REMARK Flexibility Score: inf
ROOT
ATOM      1  C   UNL     1      13.666   3.466  18.833  1.00  0.00     0.000 C 
ENDROOT
BRANCH   1   2
ATOM      2  C   UNL     1      14.056   2.003  19.087  1.00  0.00     0.000 C 
BRANCH   2   3
ATOM      3  C   UNL     1      14.785   1.796  20.426  1.00  0.00     0.006 C 
BRANCH   3   4
ATOM      4  C   UNL     1      15.148   0.330  20.721  1.00  0.00     0.053 C 
BRANCH   4   5
ATOM      5  C   UNL     1      16.109  -0.238  19.721  1.00  0.00     0.041 C 
ATOM      6  O   UNL     1      15.769  -1.212  18.999  1.00  0.00    -0.550 OA
ATOM      7  O   UNL     1      17.366   0.330  19.558  1.00  0.00    -0.550 OA
ENDBRANCH   4   5
ENDBRANCH   3   4
ENDBRANCH   2   3
ENDBRANCH   1   2
BRANCH   1   8
ATOM      8  C   UNL     1      13.051   3.638  17.438  1.00  0.00     0.000 C 
BRANCH   8   9
ATOM      9  C   UNL     1      13.292   2.395  16.572  1.00  0.00     0.006 C 
BRANCH   9  10
ATOM     10  C   UNL     1      13.394   2.769  15.091  1.00  0.00     0.053 C 
BRANCH  10  11
ATOM     11  C   UNL     1      14.578   2.104  14.463  1.00  0.00     0.041 C 
ATOM     12  O   UNL     1      15.730   2.283  14.939  1.00  0.00    -0.550 OA
ATOM     13  O   UNL     1      14.417   1.325  13.324  1.00  0.00    -0.550 OA
ENDBRANCH  10  11
ENDBRANCH   9  10
ENDBRANCH   8   9
ENDBRANCH   1   8
TORSDOF 8
ENDMDL
MODEL 4
REMARK VINA RESULT:    -5.022      1.379      5.237
REMARK INTER + INTRA:          -7.956
REMARK INTER:                  -7.311
REMARK INTRA:                  -0.645
REMARK UNBOUND:                -0.585
REMARK SMILES O=C([O-])CCCCCCCC(=O)[O-]
REMARK SMILES IDX 7 1 6 2 5 3 4 4 2 5 1 6 3 7 8 8 9 9 10 10 11 11 12 12 13 13
REMARK H PARENT
REMARK Flexibility Score: inf
ROOT
ATOM      1  C   UNL     1      12.911   3.343  16.412  1.00  0.00     0.000 C 
ENDROOT
BRANCH   1   2
ATOM      2  C   UNL     1      14.103   3.499  17.367  1.00  0.00     0.000 C 
BRANCH   2   3
ATOM      3  C   UNL     1      13.811   2.978  18.786  1.00  0.00     0.006 C 
BRANCH   3   4
ATOM      4  C   UNL     1      13.785   1.444  18.895  1.00  0.00     0.053 C 
BRANCH   4   5
ATOM      5  C   UNL     1      15.034   0.807  18.364  1.00  0.00     0.041 C 
ATOM      6  O   UNL     1      14.974   0.011  17.391  1.00  0.00    -0.550 OA
ATOM      7  O   UNL     1      16.268   1.120  18.919  1.00  0.00    -0.550 OA
ENDBRANCH   4   5
ENDBRANCH   3   4
ENDBRANCH   2   3
ENDBRANCH   1   2
BRANCH   1   8
ATOM      8  C   UNL     1      13.306   2.539  15.166  1.00  0.00     0.000 C 
BRANCH   8   9
ATOM      9  C   UNL     1      14.825   2.563  14.953  1.00  0.00     0.006 C 
BRANCH   9  10
ATOM     10  C   UNL     1      15.173   3.001  13.528  1.00  0.00     0.053 C 
BRANCH  10  11
ATOM     11  C   UNL     1      15.800   1.874  12.772  1.00  0.00     0.041 C 
ATOM     12  O   UNL     1      16.491   1.012  13.376  1.00  0.00    -0.550 OA
ATOM     13  O   UNL     1      15.663   1.800  11.391  1.00  0.00    -0.550 OA
ENDBRANCH  10  11
ENDBRANCH   9  10
ENDBRANCH   8   9
ENDBRANCH   1   8
TORSDOF 8
ENDMDL
MODEL 5
REMARK VINA RESULT:    -5.015      3.297      5.122
REMARK INTER + INTRA:          -7.945
REMARK INTER:                  -7.399
REMARK INTRA:                  -0.545
REMARK UNBOUND:                -0.585
REMARK SMILES O=C([O-])CCCCCCCC(=O)[O-]
REMARK SMILES IDX 7 1 6 2 5 3 4 4 2 5 1 6 3 7 8 8 9 9 10 10 11 11 12 12 13 13
REMARK H PARENT
REMARK Flexibility Score: inf
ROOT
ATOM      1  C   UNL     1      17.800   0.990  11.635  1.00  0.00     0.000 C 
ENDROOT
BRANCH   1   2
ATOM      2  C   UNL     1      16.612   1.907  11.312  1.00  0.00     0.000 C 
BRANCH   2   3
ATOM      3  C   UNL     1      15.453   1.769  12.315  1.00  0.00     0.006 C 
BRANCH   3   4
ATOM      4  C   UNL     1      15.315   2.961  13.278  1.00  0.00     0.053 C 
BRANCH   4   5
ATOM      5  C   UNL     1      14.748   2.564  14.608  1.00  0.00     0.041 C 
ATOM      6  O   UNL     1      13.568   2.130  14.689  1.00  0.00    -0.550 OA
ATOM      7  O   UNL     1      15.532   2.636  15.752  1.00  0.00    -0.550 OA
ENDBRANCH   4   5
ENDBRANCH   3   4
ENDBRANCH   2   3
ENDBRANCH   1   2
BRANCH   1   8
ATOM      8  C   UNL     1      17.382  -0.138  12.586  1.00  0.00     0.000 C 
BRANCH   8   9
ATOM      9  C   UNL     1      18.433  -0.353  13.682  1.00  0.00     0.006 C 
BRANCH   9  10
ATOM     10  C   UNL     1      17.805  -0.250  15.074  1.00  0.00     0.053 C 
BRANCH  10  11
ATOM     11  C   UNL     1      18.769   0.364  16.039  1.00  0.00     0.041 C 
ATOM     12  O   UNL     1      20.008   0.213  15.879  1.00  0.00    -0.550 OA
ATOM     13  O   UNL     1      18.298   1.063  17.144  1.00  0.00    -0.550 OA
ENDBRANCH  10  11
ENDBRANCH   9  10
ENDBRANCH   8   9
ENDBRANCH   1   8
TORSDOF 8
ENDMDL
MODEL 6
REMARK VINA RESULT:    -4.990      2.323      6.238
REMARK INTER + INTRA:          -7.909
REMARK INTER:                  -7.619
REMARK INTRA:                  -0.290
REMARK UNBOUND:                -0.585
REMARK SMILES O=C([O-])CCCCCCCC(=O)[O-]
REMARK SMILES IDX 7 1 6 2 5 3 4 4 2 5 1 6 3 7 8 8 9 9 10 10 11 11 12 12 13 13
REMARK H PARENT
REMARK Flexibility Score: inf
ROOT
ATOM      1  C   UNL     1      15.123   2.623  14.893  1.00  0.00     0.000 C 
ENDROOT
BRANCH   1   2
ATOM      2  C   UNL     1      13.683   2.561  15.422  1.00  0.00     0.000 C 
BRANCH   2   3
ATOM      3  C   UNL     1      13.575   2.893  16.921  1.00  0.00     0.006 C 
BRANCH   3   4
ATOM      4  C   UNL     1      13.613   1.659  17.839  1.00  0.00     0.053 C 
BRANCH   4   5
ATOM      5  C   UNL     1      14.846   1.613  18.691  1.00  0.00     0.041 C 
ATOM      6  O   UNL     1      15.984   1.557  18.155  1.00  0.00    -0.550 OA
ATOM      7  O   UNL     1      14.742   1.670  20.075  1.00  0.00    -0.550 OA
ENDBRANCH   4   5
ENDBRANCH   3   4
ENDBRANCH   2   3
ENDBRANCH   1   2
BRANCH   1   8
ATOM      8  C   UNL     1      15.148   3.000  13.407  1.00  0.00     0.000 C 
BRANCH   8   9
ATOM      9  C   UNL     1      15.431   1.774  12.531  1.00  0.00     0.006 C 
BRANCH   9  10
ATOM     10  C   UNL     1      16.377   2.127  11.380  1.00  0.00     0.053 C 
BRANCH  10  11
ATOM     11  C   UNL     1      17.394   1.047  11.187  1.00  0.00     0.041 C 
ATOM     12  O   UNL     1      18.122   0.685  12.148  1.00  0.00    -0.550 OA
ATOM     13  O   UNL     1      17.572   0.474   9.934  1.00  0.00    -0.550 OA
ENDBRANCH  10  11
ENDBRANCH   9  10
ENDBRANCH   8   9
ENDBRANCH   1   8
TORSDOF 8
ENDMDL
MODEL 7
REMARK VINA RESULT:    -4.954      1.978      2.392
REMARK INTER + INTRA:          -7.856
REMARK INTER:                  -7.103
REMARK INTRA:                  -0.753
REMARK UNBOUND:                -0.585
REMARK SMILES O=C([O-])CCCCCCCC(=O)[O-]
REMARK SMILES IDX 7 1 6 2 5 3 4 4 2 5 1 6 3 7 8 8 9 9 10 10 11 11 12 12 13 13
REMARK H PARENT
REMARK Flexibility Score: inf
ROOT
ATOM      1  C   UNL     1      12.976   3.663  17.038  1.00  0.00     0.000 C 
ENDROOT
BRANCH   1   2
ATOM      2  C   UNL     1      13.308   2.409  16.217  1.00  0.00     0.000 C 
BRANCH   2   3
ATOM      3  C   UNL     1      14.338   2.672  15.104  1.00  0.00     0.006 C 
BRANCH   3   4
ATOM      4  C   UNL     1      15.365   1.540  14.923  1.00  0.00     0.053 C 
BRANCH   4   5
ATOM      5  C   UNL     1      15.944   1.074  16.224  1.00  0.00     0.041 C 
ATOM      6  O   UNL     1      15.755  -0.108  16.614  1.00  0.00    -0.550 OA
ATOM      7  O   UNL     1      16.723   1.932  16.990  1.00  0.00    -0.550 OA
ENDBRANCH   4   5
ENDBRANCH   3   4
ENDBRANCH   2   3
ENDBRANCH   1   2
BRANCH   1   8
ATOM      8  C   UNL     1      13.339   3.465  18.516  1.00  0.00     0.000 C 
BRANCH   8   9
ATOM      9  C   UNL     1      13.668   1.996  18.811  1.00  0.00     0.006 C 
BRANCH   9  10
ATOM     10  C   UNL     1      14.715   1.880  19.922  1.00  0.00     0.053 C 
BRANCH  10  11
ATOM     11  C   UNL     1      14.995   0.443  20.229  1.00  0.00     0.041 C 
ATOM     12  O   UNL     1      16.155  -0.023  20.076  1.00  0.00    -0.550 OA
ATOM     13  O   UNL     1      13.965  -0.396  20.637  1.00  0.00    -0.550 OA
ENDBRANCH  10  11
ENDBRANCH   9  10
ENDBRANCH   8   9
ENDBRANCH   1   8
TORSDOF 8
ENDMDL
MODEL 8
REMARK VINA RESULT:    -4.932     17.202     18.562
REMARK INTER + INTRA:          -7.824
REMARK INTER:                  -7.061
REMARK INTRA:                  -0.763
REMARK UNBOUND:                -0.585
REMARK SMILES O=C([O-])CCCCCCCC(=O)[O-]
REMARK SMILES IDX 7 1 6 2 5 3 4 4 2 5 1 6 3 7 8 8 9 9 10 10 11 11 12 12 13 13
REMARK H PARENT
REMARK Flexibility Score: inf
ROOT
ATOM      1  C   UNL     1      27.573  -0.179   7.222  1.00  0.00     0.000 C 
ENDROOT
BRANCH   1   2
ATOM      2  C   UNL     1      28.188  -0.032   8.621  1.00  0.00     0.000 C 
BRANCH   2   3
ATOM      3  C   UNL     1      29.342   0.985   8.669  1.00  0.00     0.006 C 
BRANCH   3   4
ATOM      4  C   UNL     1      30.604   0.466   9.380  1.00  0.00     0.053 C 
BRANCH   4   5
ATOM      5  C   UNL     1      31.863   1.060   8.825  1.00  0.00     0.041 C 
ATOM      6  O   UNL     1      32.026   2.308   8.819  1.00  0.00    -0.550 OA
ATOM      7  O   UNL     1      32.873   0.234   8.347  1.00  0.00    -0.550 OA
ENDBRANCH   4   5
ENDBRANCH   3   4
ENDBRANCH   2   3
ENDBRANCH   1   2
BRANCH   1   8
ATOM      8  C   UNL     1      27.363  -1.656   6.865  1.00  0.00     0.000 C 
BRANCH   8   9
ATOM      9  C   UNL     1      28.235  -2.065   5.672  1.00  0.00     0.006 C 
BRANCH   9  10
ATOM     10  C   UNL     1      29.375  -2.987   6.114  1.00  0.00     0.053 C 
BRANCH  10  11
ATOM     11  C   UNL     1      30.558  -2.184   6.553  1.00  0.00     0.041 C 
ATOM     12  O   UNL     1      30.878  -1.137   5.932  1.00  0.00    -0.550 OA
ATOM     13  O   UNL     1      31.336  -2.616   7.620  1.00  0.00    -0.550 OA
ENDBRANCH  10  11
ENDBRANCH   9  10
ENDBRANCH   8   9
ENDBRANCH   1   8
TORSDOF 8
ENDMDL
MODEL 9
REMARK VINA RESULT:    -4.927      1.867      4.751
REMARK INTER + INTRA:          -7.817
REMARK INTER:                  -7.001
REMARK INTRA:                  -0.816
REMARK UNBOUND:                -0.585
REMARK SMILES O=C([O-])CCCCCCCC(=O)[O-]
REMARK SMILES IDX 7 1 6 2 5 3 4 4 2 5 1 6 3 7 8 8 9 9 10 10 11 11 12 12 13 13
REMARK H PARENT
REMARK Flexibility Score: inf
ROOT
ATOM      1  C   UNL     1      12.882   3.468  16.739  1.00  0.00     0.000 C 
ENDROOT
BRANCH   1   2
ATOM      2  C   UNL     1      14.148   3.564  17.603  1.00  0.00     0.000 C 
BRANCH   2   3
ATOM      3  C   UNL     1      13.988   2.904  18.984  1.00  0.00     0.006 C 
BRANCH   3   4
ATOM      4  C   UNL     1      13.948   1.367  18.942  1.00  0.00     0.053 C 
BRANCH   4   5
ATOM      5  C   UNL     1      14.919   0.739  19.895  1.00  0.00     0.041 C 
ATOM      6  O   UNL     1      16.156   0.793  19.665  1.00  0.00    -0.550 OA
ATOM      7  O   UNL     1      14.464   0.125  21.055  1.00  0.00    -0.550 OA
ENDBRANCH   4   5
ENDBRANCH   3   4
ENDBRANCH   2   3
ENDBRANCH   1   2
BRANCH   1   8
ATOM      8  C   UNL     1      13.164   2.718  15.431  1.00  0.00     0.000 C 
BRANCH   8   9
ATOM      9  C   UNL     1      14.669   2.658  15.143  1.00  0.00     0.006 C 
BRANCH   9  10
ATOM     10  C   UNL     1      15.112   1.226  14.828  1.00  0.00     0.053 C 
BRANCH  10  11
ATOM     11  C   UNL     1      16.009   0.706  15.906  1.00  0.00     0.041 C 
ATOM     12  O   UNL     1      16.811   1.480  16.491  1.00  0.00    -0.550 OA
ATOM     13  O   UNL     1      15.994  -0.645  16.232  1.00  0.00    -0.550 OA
ENDBRANCH  10  11
ENDBRANCH   9  10
ENDBRANCH   8   9
ENDBRANCH   1   8
TORSDOF 8
ENDMDL
