MODEL 1
REMARK VINA RESULT:    -4.074      0.000      0.000
REMARK INTER + INTRA:          -6.510
REMARK INTER:                  -5.741
REMARK INTRA:                  -0.769
REMARK UNBOUND:                -0.769
REMARK SMILES CCCCCCCCC(=O)[O-]
REMARK SMILES IDX 6 1 7 2 8 3 9 4 10 5 11 6 5 7 4 8 3 9 2 10 1 11
REMARK H PARENT
REMARK Flexibility Score: inf
ROOT
ATOM      1  C   UNL     1      62.635  29.898  13.055  1.00  0.00     0.000 C 
ENDROOT
BRANCH   1   2
ATOM      2  C   UNL     1      61.897  28.681  12.473  1.00  0.00     0.006 C 
BRANCH   2   3
ATOM      3  C   UNL     1      60.616  28.344  13.247  1.00  0.00     0.053 C 
BRANCH   3   4
ATOM      4  C   UNL     1      59.420  28.480  12.359  1.00  0.00     0.041 C 
ATOM      5  O   UNL     1      58.344  27.893  12.651  1.00  0.00    -0.550 OA
ATOM      6  O   UNL     1      59.476  29.293  11.234  1.00  0.00    -0.550 OA
ENDBRANCH   3   4
ENDBRANCH   2   3
ENDBRANCH   1   2
BRANCH   1   7
ATOM      7  C   UNL     1      62.443  31.166  12.204  1.00  0.00     0.000 C 
BRANCH   7   8
ATOM      8  C   UNL     1      62.076  32.394  13.054  1.00  0.00    -0.000 C 
BRANCH   8   9
ATOM      9  C   UNL     1      60.581  32.751  12.959  1.00  0.00    -0.000 C 
BRANCH   9  10
ATOM     10  C   UNL     1      59.726  31.972  13.970  1.00  0.00    -0.003 C 
ATOM     11  C   UNL     1      60.351  31.931  15.364  1.00  0.00     0.004 C 
ENDBRANCH   9  10
ENDBRANCH   8   9
ENDBRANCH   7   8
ENDBRANCH   1   7
TORSDOF 7
ENDMDL
MODEL 2
REMARK VINA RESULT:    -4.003     11.849     13.016
REMARK INTER + INTRA:          -6.411
REMARK INTER:                  -5.805
REMARK INTRA:                  -0.606
REMARK UNBOUND:                -0.769
REMARK SMILES CCCCCCCCC(=O)[O-]
REMARK SMILES IDX 6 1 7 2 8 3 9 4 10 5 11 6 5 7 4 8 3 9 2 10 1 11
REMARK H PARENT
REMARK Flexibility Score: inf
ROOT
ATOM      1  C   UNL     1      63.344  29.583  24.861  1.00  0.00     0.000 C 
ENDROOT
BRANCH   1   2
ATOM      2  C   UNL     1      61.826  29.354  24.955  1.00  0.00     0.006 C 
BRANCH   2   3
ATOM      3  C   UNL     1      61.407  27.969  24.447  1.00  0.00     0.053 C 
BRANCH   3   4
ATOM      4  C   UNL     1      60.616  27.248  25.492  1.00  0.00     0.041 C 
ATOM      5  O   UNL     1      59.500  26.739  25.204  1.00  0.00    -0.550 OA
ATOM      6  O   UNL     1      61.133  27.093  26.773  1.00  0.00    -0.550 OA
ENDBRANCH   3   4
ENDBRANCH   2   3
ENDBRANCH   1   2
BRANCH   1   7
ATOM      7  C   UNL     1      64.128  28.779  25.914  1.00  0.00     0.000 C 
BRANCH   7   8
ATOM      8  C   UNL     1      65.200  27.874  25.286  1.00  0.00    -0.000 C 
BRANCH   8   9
ATOM      9  C   UNL     1      64.702  26.435  25.065  1.00  0.00    -0.000 C 
BRANCH   9  10
ATOM     10  C   UNL     1      65.249  25.816  23.770  1.00  0.00    -0.003 C 
ATOM     11  C   UNL     1      65.880  26.853  22.841  1.00  0.00     0.004 C 
ENDBRANCH   9  10
ENDBRANCH   8   9
ENDBRANCH   7   8
ENDBRANCH   1   7
TORSDOF 7
ENDMDL
MODEL 3
REMARK VINA RESULT:    -3.973     12.721     14.367
REMARK INTER + INTRA:          -6.369
REMARK INTER:                  -5.612
REMARK INTRA:                  -0.757
REMARK UNBOUND:                -0.769
REMARK SMILES CCCCCCCCC(=O)[O-]
REMARK SMILES IDX 6 1 7 2 8 3 9 4 10 5 11 6 5 7 4 8 3 9 2 10 1 11
REMARK H PARENT
REMARK Flexibility Score: inf
ROOT
ATOM      1  C   UNL     1      61.173  27.275  27.067  1.00  0.00     0.000 C 
ENDROOT
BRANCH   1   2
ATOM      2  C   UNL     1      61.276  28.671  27.704  1.00  0.00     0.006 C 
BRANCH   2   3
ATOM      3  C   UNL     1      62.696  28.996  28.182  1.00  0.00     0.053 C 
BRANCH   3   4
ATOM      4  C   UNL     1      63.029  30.426  27.895  1.00  0.00     0.041 C 
ATOM      5  O   UNL     1      63.004  31.281  28.821  1.00  0.00    -0.550 OA
ATOM      6  O   UNL     1      63.415  30.808  26.616  1.00  0.00    -0.550 OA
ENDBRANCH   3   4
ENDBRANCH   2   3
ENDBRANCH   1   2
BRANCH   1   7
ATOM      7  C   UNL     1      60.723  27.330  25.596  1.00  0.00     0.000 C 
BRANCH   7   8
ATOM      8  C   UNL     1      61.470  28.406  24.791  1.00  0.00    -0.000 C 
BRANCH   8   9
ATOM      9  C   UNL     1      62.657  27.830  23.998  1.00  0.00    -0.000 C 
BRANCH   9  10
ATOM     10  C   UNL     1      63.970  27.867  24.795  1.00  0.00    -0.003 C 
ATOM     11  C   UNL     1      64.408  26.484  25.276  1.00  0.00     0.004 C 
ENDBRANCH   9  10
ENDBRANCH   8   9
ENDBRANCH   7   8
ENDBRANCH   1   7
TORSDOF 7
ENDMDL
MODEL 4
REMARK VINA RESULT:    -3.936      1.869      2.828
REMARK INTER + INTRA:          -6.317
REMARK INTER:                  -5.566
REMARK INTRA:                  -0.750
REMARK UNBOUND:                -0.769
REMARK SMILES CCCCCCCCC(=O)[O-]
REMARK SMILES IDX 6 1 7 2 8 3 9 4 10 5 11 6 5 7 4 8 3 9 2 10 1 11
REMARK H PARENT
REMARK Flexibility Score: inf
ROOT
ATOM      1  C   UNL     1      60.374  28.251  12.805  1.00  0.00     0.000 C 
ENDROOT
BRANCH   1   2
ATOM      2  C   UNL     1      59.625  29.173  11.829  1.00  0.00     0.006 C 
BRANCH   2   3
ATOM      3  C   UNL     1      60.520  29.673  10.687  1.00  0.00     0.053 C 
BRANCH   3   4
ATOM      4  C   UNL     1      60.383  28.786   9.490  1.00  0.00     0.041 C 
ATOM      5  O   UNL     1      59.249  28.582   8.979  1.00  0.00    -0.550 OA
ATOM      6  O   UNL     1      61.512  28.224   8.907  1.00  0.00    -0.550 OA
ENDBRANCH   3   4
ENDBRANCH   2   3
ENDBRANCH   1   2
BRANCH   1   7
ATOM      7  C   UNL     1      61.706  28.857  13.285  1.00  0.00     0.000 C 
BRANCH   7   8
ATOM      8  C   UNL     1      61.501  30.024  14.265  1.00  0.00    -0.000 C 
BRANCH   8   9
ATOM      9  C   UNL     1      62.467  31.192  14.000  1.00  0.00    -0.000 C 
BRANCH   9  10
ATOM     10  C   UNL     1      61.856  32.263  13.084  1.00  0.00    -0.003 C 
ATOM     11  C   UNL     1      60.378  32.518  13.377  1.00  0.00     0.004 C 
ENDBRANCH   9  10
ENDBRANCH   8   9
ENDBRANCH   7   8
ENDBRANCH   1   7
TORSDOF 7
ENDMDL
MODEL 5
REMARK VINA RESULT:    -3.918     12.517     13.908
REMARK INTER + INTRA:          -6.291
REMARK INTER:                  -5.494
REMARK INTRA:                  -0.797
REMARK UNBOUND:                -0.769
REMARK SMILES CCCCCCCCC(=O)[O-]
REMARK SMILES IDX 6 1 7 2 8 3 9 4 10 5 11 6 5 7 4 8 3 9 2 10 1 11
REMARK H PARENT
REMARK Flexibility Score: inf
ROOT
ATOM      1  C   UNL     1      60.771  28.244  25.418  1.00  0.00     0.000 C 
ENDROOT
BRANCH   1   2
ATOM      2  C   UNL     1      61.108  27.194  26.490  1.00  0.00     0.006 C 
BRANCH   2   3
ATOM      3  C   UNL     1      62.185  27.676  27.469  1.00  0.00     0.053 C 
BRANCH   3   4
ATOM      4  C   UNL     1      61.763  28.955  28.120  1.00  0.00     0.041 C 
ATOM      5  O   UNL     1      62.376  30.027  27.867  1.00  0.00    -0.550 OA
ATOM      6  O   UNL     1      60.663  28.975  28.969  1.00  0.00    -0.550 OA
ENDBRANCH   3   4
ENDBRANCH   2   3
ENDBRANCH   1   2
BRANCH   1   7
ATOM      7  C   UNL     1      61.757  28.218  24.236  1.00  0.00     0.000 C 
BRANCH   7   8
ATOM      8  C   UNL     1      62.819  29.326  24.332  1.00  0.00    -0.000 C 
BRANCH   8   9
ATOM      9  C   UNL     1      64.245  28.765  24.478  1.00  0.00    -0.000 C 
BRANCH   9  10
ATOM     10  C   UNL     1      64.361  27.318  23.976  1.00  0.00    -0.003 C 
ATOM     11  C   UNL     1      64.868  26.358  25.053  1.00  0.00     0.004 C 
ENDBRANCH   9  10
ENDBRANCH   8   9
ENDBRANCH   7   8
ENDBRANCH   1   7
TORSDOF 7
ENDMDL
MODEL 6
REMARK VINA RESULT:    -3.907     12.227     13.236
REMARK INTER + INTRA:          -6.276
REMARK INTER:                  -5.495
REMARK INTRA:                  -0.781
REMARK UNBOUND:                -0.769
REMARK SMILES CCCCCCCCC(=O)[O-]
REMARK SMILES IDX 6 1 7 2 8 3 9 4 10 5 11 6 5 7 4 8 3 9 2 10 1 11
REMARK H PARENT
REMARK Flexibility Score: inf
ROOT
ATOM      1  C   UNL     1      62.241  29.629  24.632  1.00  0.00     0.000 C 
ENDROOT
BRANCH   1   2
ATOM      2  C   UNL     1      61.577  28.271  24.354  1.00  0.00     0.006 C 
BRANCH   2   3
ATOM      3  C   UNL     1      60.630  27.836  25.480  1.00  0.00     0.053 C 
BRANCH   3   4
ATOM      4  C   UNL     1      61.369  27.751  26.778  1.00  0.00     0.041 C 
ATOM      5  O   UNL     1      62.289  26.904  26.929  1.00  0.00    -0.550 OA
ATOM      6  O   UNL     1      61.075  28.638  27.806  1.00  0.00    -0.550 OA
ENDBRANCH   3   4
ENDBRANCH   2   3
ENDBRANCH   1   2
BRANCH   1   7
ATOM      7  C   UNL     1      63.667  29.718  24.058  1.00  0.00     0.000 C 
BRANCH   7   8
ATOM      8  C   UNL     1      64.746  29.670  25.151  1.00  0.00    -0.000 C 
BRANCH   8   9
ATOM      9  C   UNL     1      65.248  28.240  25.422  1.00  0.00    -0.000 C 
BRANCH   9  10
ATOM     10  C   UNL     1      65.307  27.386  24.146  1.00  0.00    -0.003 C 
ATOM     11  C   UNL     1      64.613  26.034  24.307  1.00  0.00     0.004 C 
ENDBRANCH   9  10
ENDBRANCH   8   9
ENDBRANCH   7   8
ENDBRANCH   1   7
TORSDOF 7
ENDMDL
MODEL 7
REMARK VINA RESULT:    -3.894      2.038      2.902
REMARK INTER + INTRA:          -6.257
REMARK INTER:                  -5.539
REMARK INTRA:                  -0.718
REMARK UNBOUND:                -0.769
REMARK SMILES CCCCCCCCC(=O)[O-]
REMARK SMILES IDX 6 1 7 2 8 3 9 4 10 5 11 6 5 7 4 8 3 9 2 10 1 11
REMARK H PARENT
REMARK Flexibility Score: inf
ROOT
ATOM      1  C   UNL     1      61.037  29.448  13.633  1.00  0.00     0.000 C 
ENDROOT
BRANCH   1   2
ATOM      2  C   UNL     1      62.288  29.000  12.859  1.00  0.00     0.006 C 
BRANCH   2   3
ATOM      3  C   UNL     1      62.519  29.824  11.586  1.00  0.00     0.053 C 
BRANCH   3   4
ATOM      4  C   UNL     1      62.579  28.928  10.389  1.00  0.00     0.041 C 
ATOM      5  O   UNL     1      61.573  28.245  10.057  1.00  0.00    -0.550 OA
ATOM      6  O   UNL     1      63.728  28.884   9.609  1.00  0.00    -0.550 OA
ENDBRANCH   3   4
ENDBRANCH   2   3
ENDBRANCH   1   2
BRANCH   1   7
ATOM      7  C   UNL     1      60.066  30.266  12.763  1.00  0.00     0.000 C 
BRANCH   7   8
ATOM      8  C   UNL     1      59.685  31.608  13.408  1.00  0.00    -0.000 C 
BRANCH   8   9
ATOM      9  C   UNL     1      60.689  32.728  13.079  1.00  0.00    -0.000 C 
BRANCH   9  10
ATOM     10  C   UNL     1      61.537  33.133  14.295  1.00  0.00    -0.003 C 
ATOM     11  C   UNL     1      63.038  33.078  14.012  1.00  0.00     0.004 C 
ENDBRANCH   9  10
ENDBRANCH   8   9
ENDBRANCH   7   8
ENDBRANCH   1   7
TORSDOF 7
ENDMDL
MODEL 8
REMARK VINA RESULT:    -3.867     11.756     12.549
REMARK INTER + INTRA:          -6.219
REMARK INTER:                  -5.340
REMARK INTRA:                  -0.879
REMARK UNBOUND:                -0.769
REMARK SMILES CCCCCCCCC(=O)[O-]
REMARK SMILES IDX 6 1 7 2 8 3 9 4 10 5 11 6 5 7 4 8 3 9 2 10 1 11
REMARK H PARENT
REMARK Flexibility Score: inf
ROOT
ATOM      1  C   UNL     1      64.170  28.726  23.902  1.00  0.00     0.000 C 
ENDROOT
BRANCH   1   2
ATOM      2  C   UNL     1      65.231  28.067  24.800  1.00  0.00     0.006 C 
BRANCH   2   3
ATOM      3  C   UNL     1      64.885  26.615  25.150  1.00  0.00     0.053 C 
BRANCH   3   4
ATOM      4  C   UNL     1      64.657  25.818  23.905  1.00  0.00     0.041 C 
ATOM      5  O   UNL     1      65.602  25.625  23.094  1.00  0.00    -0.550 OA
ATOM      6  O   UNL     1      63.414  25.245  23.663  1.00  0.00    -0.550 OA
ENDBRANCH   3   4
ENDBRANCH   2   3
ENDBRANCH   1   2
BRANCH   1   7
ATOM      7  C   UNL     1      63.453  29.897  24.598  1.00  0.00     0.000 C 
BRANCH   7   8
ATOM      8  C   UNL     1      62.006  29.554  24.985  1.00  0.00    -0.000 C 
BRANCH   8   9
ATOM      9  C   UNL     1      61.520  28.241  24.345  1.00  0.00    -0.000 C 
BRANCH   9  10
ATOM     10  C   UNL     1      60.971  27.249  25.382  1.00  0.00    -0.003 C 
ATOM     11  C   UNL     1      61.593  27.438  26.766  1.00  0.00     0.004 C 
ENDBRANCH   9  10
ENDBRANCH   8   9
ENDBRANCH   7   8
ENDBRANCH   1   7
TORSDOF 7
ENDMDL
MODEL 9
REMARK VINA RESULT:    -3.825      2.379      4.522
REMARK INTER + INTRA:          -6.159
REMARK INTER:                  -5.272
REMARK INTRA:                  -0.888
REMARK UNBOUND:                -0.769
REMARK SMILES CCCCCCCCC(=O)[O-]
REMARK SMILES IDX 6 1 7 2 8 3 9 4 10 5 11 6 5 7 4 8 3 9 2 10 1 11
REMARK H PARENT
REMARK Flexibility Score: inf
ROOT
ATOM      1  C   UNL     1      60.842  28.251  13.004  1.00  0.00     0.000 C 
ENDROOT
BRANCH   1   2
ATOM      2  C   UNL     1      61.210  29.406  13.951  1.00  0.00     0.006 C 
BRANCH   2   3
ATOM      3  C   UNL     1      62.495  30.127  13.527  1.00  0.00     0.053 C 
BRANCH   3   4
ATOM      4  C   UNL     1      62.167  31.394  12.802  1.00  0.00     0.041 C 
ATOM      5  O   UNL     1      63.081  32.060  12.245  1.00  0.00    -0.550 OA
ATOM      6  O   UNL     1      60.847  31.816  12.698  1.00  0.00    -0.550 OA
ENDBRANCH   3   4
ENDBRANCH   2   3
ENDBRANCH   1   2
BRANCH   1   7
ATOM      7  C   UNL     1      59.541  28.519  12.225  1.00  0.00     0.000 C 
BRANCH   7   8
ATOM      8  C   UNL     1      59.803  29.009  10.792  1.00  0.00    -0.000 C 
BRANCH   8   9
ATOM      9  C   UNL     1      61.105  28.435  10.202  1.00  0.00    -0.000 C 
BRANCH   9  10
ATOM     10  C   UNL     1      62.056  29.532   9.701  1.00  0.00    -0.003 C 
ATOM     11  C   UNL     1      63.527  29.119   9.780  1.00  0.00     0.004 C 
ENDBRANCH   9  10
ENDBRANCH   8   9
ENDBRANCH   7   8
ENDBRANCH   1   7
TORSDOF 7
ENDMDL
