MODEL 1
REMARK VINA RESULT:    -4.516      0.000      0.000
REMARK INTER + INTRA:          -5.792
REMARK INTER:                  -6.364
REMARK INTRA:                   0.572
REMARK UNBOUND:                 0.572
REMARK SMILES CC1=CCC(=C(C)C)C(=O)CC(C)=CCC1
REMARK SMILES IDX 12 1 14 2 13 3 15 4 16 5 2 6 1 7 3 8 11 10 9 11 10 12 5 13
REMARK SMILES IDX 6 14 7 15 8 16 4 17
REMARK H PARENT
REMARK Flexibility Score: 60.00
ROOT
ATOM      1  C   UNL     1       2.767  16.962  -5.381  1.00  0.00    -0.070 C 
ATOM      2  C   UNL     1       2.623  18.262  -5.751  1.00  0.00    -0.027 C 
ATOM      3  C   UNL     1       1.497  16.173  -5.170  1.00  0.00     0.039 C 
ENDROOT
BRANCH   2   4
ATOM      4  C   UNL     1       3.716  19.230  -6.137  1.00  0.00     0.032 C 
BRANCH   4   5
ATOM      5  C   UNL     1       3.993  19.318  -7.647  1.00  0.00     0.034 C 
BRANCH   5   6
ATOM      6  C   UNL     1       3.022  18.564  -8.539  1.00  0.00    -0.077 C 
ATOM      7  C   UNL     1       1.797  19.282  -9.048  1.00  0.00     0.039 C 
ATOM      8  C   UNL     1       3.146  17.247  -8.834  1.00  0.00    -0.023 CG0
ATOM      9  G   UNL     1       4.358  16.399  -8.548  1.00  0.00     0.000 G0
ENDBRANCH   5   6
ENDBRANCH   4   5
ENDBRANCH   2   4
BRANCH   1  10
ATOM     10  C   UNL     1       4.087  16.273  -5.045  1.00  0.00     0.111 C 
BRANCH  10  11
ATOM     11  C   UNL     1       4.711  15.481  -6.159  1.00  0.00     0.163 C 
ATOM     12  O   UNL     1       5.870  15.008  -6.016  1.00  0.00    -0.294 OA
BRANCH  11  13
ATOM     13  C   UNL     1       4.020  15.350  -7.468  1.00  0.00    -0.002 C 
ATOM     14  C   UNL     1       3.162  14.315  -7.682  1.00  0.00    -0.069 C 
ATOM     15  C   UNL     1       2.471  14.118  -9.010  1.00  0.00     0.039 C 
ATOM     16  C   UNL     1       2.890  13.301  -6.592  1.00  0.00     0.039 C 
BRANCH  13  17
ATOM     17  C   UNL     1       4.363  16.371  -8.543  1.00  0.00     0.066 CG0
ATOM     18  G   UNL     1       3.173  17.255  -8.812  1.00  0.00     0.000 G0
ENDBRANCH  13  17
ENDBRANCH  11  13
ENDBRANCH  10  11
ENDBRANCH   1  10
TORSDOF 0
ENDMDL
MODEL 2
REMARK VINA RESULT:    -4.231      2.323      4.920
REMARK INTER + INTRA:          -5.391
REMARK INTER:                  -5.942
REMARK INTRA:                   0.552
REMARK UNBOUND:                 0.572
REMARK SMILES CC1=CCC(=C(C)C)C(=O)CC(C)=CCC1
REMARK SMILES IDX 12 1 14 2 13 3 15 4 16 5 2 6 1 7 3 8 11 10 9 11 10 12 5 13
REMARK SMILES IDX 6 14 7 15 8 16 4 17
REMARK H PARENT
REMARK Flexibility Score: 60.00
ROOT
ATOM      1  C   UNL     1       6.016  13.266  -6.315  1.00  0.00    -0.070 C 
ATOM      2  C   UNL     1       5.888  12.341  -7.303  1.00  0.00    -0.027 C 
ATOM      3  C   UNL     1       6.628  12.793  -5.019  1.00  0.00     0.039 C 
ENDROOT
BRANCH   2   4
ATOM      4  C   UNL     1       5.423  12.573  -8.721  1.00  0.00     0.032 C 
BRANCH   4   5
ATOM      5  C   UNL     1       4.170  11.778  -9.125  1.00  0.00     0.034 C 
BRANCH   5   6
ATOM      6  C   UNL     1       2.939  12.009  -8.265  1.00  0.00    -0.077 C 
ATOM      7  C   UNL     1       2.261  10.817  -7.634  1.00  0.00     0.039 C 
ATOM      8  C   UNL     1       2.358  13.222  -8.102  1.00  0.00    -0.023 CG0
ATOM      9  G   UNL     1       2.955  14.540  -8.522  1.00  0.00     0.000 G0
ENDBRANCH   5   6
ENDBRANCH   4   5
ENDBRANCH   2   4
BRANCH   1  10
ATOM     10  C   UNL     1       5.485  14.696  -6.363  1.00  0.00     0.111 C 
BRANCH  10  11
ATOM     11  C   UNL     1       4.002  14.848  -6.176  1.00  0.00     0.163 C 
ATOM     12  O   UNL     1       3.455  14.407  -5.130  1.00  0.00    -0.294 OA
BRANCH  11  13
ATOM     13  C   UNL     1       3.160  15.406  -7.266  1.00  0.00    -0.002 C 
ATOM     14  C   UNL     1       2.567  16.622  -7.109  1.00  0.00    -0.069 C 
ATOM     15  C   UNL     1       1.670  17.210  -8.172  1.00  0.00     0.039 C 
ATOM     16  C   UNL     1       2.771  17.421  -5.840  1.00  0.00     0.039 C 
BRANCH  13  17
ATOM     17  C   UNL     1       2.955  14.543  -8.502  1.00  0.00     0.066 CG0
ATOM     18  G   UNL     1       2.345  13.222  -8.112  1.00  0.00     0.000 G0
ENDBRANCH  13  17
ENDBRANCH  11  13
ENDBRANCH  10  11
ENDBRANCH   1  10
TORSDOF 0
ENDMDL
MODEL 3
REMARK VINA RESULT:    -4.095      1.812      4.140
REMARK INTER + INTRA:          -5.198
REMARK INTER:                  -5.609
REMARK INTRA:                   0.410
REMARK UNBOUND:                 0.572
REMARK SMILES CC1=CCC(=C(C)C)C(=O)CC(C)=CCC1
REMARK SMILES IDX 12 1 14 2 13 3 15 4 16 5 2 6 1 7 3 8 11 10 9 11 10 12 5 13
REMARK SMILES IDX 6 14 7 15 8 16 4 17
REMARK H PARENT
REMARK Flexibility Score: 60.00
ROOT
ATOM      1  C   UNL     1       3.304  15.842  -5.501  1.00  0.00    -0.070 C 
ATOM      2  C   UNL     1       3.687  14.649  -6.029  1.00  0.00    -0.027 C 
ATOM      3  C   UNL     1       4.354  16.613  -4.737  1.00  0.00     0.039 C 
ENDROOT
BRANCH   2   4
ATOM      4  C   UNL     1       2.879  13.744  -6.927  1.00  0.00     0.032 C 
BRANCH   4   5
ATOM      5  C   UNL     1       3.241  13.830  -8.419  1.00  0.00     0.034 C 
BRANCH   5   6
ATOM      6  C   UNL     1       4.339  14.818  -8.774  1.00  0.00    -0.077 C 
ATOM      7  C   UNL     1       5.755  14.312  -8.904  1.00  0.00     0.039 C 
ATOM      8  C   UNL     1       4.135  16.151  -8.896  1.00  0.00    -0.023 CG0
ATOM      9  G   UNL     1       2.789  16.827  -8.947  1.00  0.00     0.000 G0
ENDBRANCH   5   6
ENDBRANCH   4   5
ENDBRANCH   2   4
BRANCH   1  10
ATOM     10  C   UNL     1       1.886  16.405  -5.510  1.00  0.00     0.111 C 
BRANCH  10  11
ATOM     11  C   UNL     1       1.492  17.161  -6.748  1.00  0.00     0.163 C 
ATOM     12  O   UNL     1       0.273  17.295  -7.038  1.00  0.00    -0.294 OA
BRANCH  11  13
ATOM     13  C   UNL     1       2.529  17.649  -7.693  1.00  0.00    -0.002 C 
ATOM     14  C   UNL     1       3.182  18.817  -7.440  1.00  0.00    -0.069 C 
ATOM     15  C   UNL     1       4.212  19.373  -8.393  1.00  0.00     0.039 C 
ATOM     16  C   UNL     1       2.873  19.618  -6.193  1.00  0.00     0.039 C 
BRANCH  13  17
ATOM     17  C   UNL     1       2.770  16.828  -8.952  1.00  0.00     0.066 CG0
ATOM     18  G   UNL     1       4.116  16.156  -8.879  1.00  0.00     0.000 G0
ENDBRANCH  13  17
ENDBRANCH  11  13
ENDBRANCH  10  11
ENDBRANCH   1  10
TORSDOF 0
ENDMDL
MODEL 4
REMARK VINA RESULT:    -3.632      2.222      3.929
REMARK INTER + INTRA:          -4.547
REMARK INTER:                  -5.134
REMARK INTRA:                   0.587
REMARK UNBOUND:                 0.572
REMARK SMILES CC1=CCC(=C(C)C)C(=O)CC(C)=CCC1
REMARK SMILES IDX 12 1 14 2 13 3 15 4 16 5 2 6 1 7 3 8 11 10 9 11 10 12 5 13
REMARK SMILES IDX 6 14 7 15 8 16 4 17
REMARK H PARENT
REMARK Flexibility Score: 60.00
ROOT
ATOM      1  C   UNL     1       4.299  15.360  -8.873  1.00  0.00    -0.070 C 
ATOM      2  C   UNL     1       3.935  16.642  -8.604  1.00  0.00    -0.027 C 
ATOM      3  C   UNL     1       5.767  15.111  -9.125  1.00  0.00     0.039 C 
ENDROOT
BRANCH   2   4
ATOM      4  C   UNL     1       2.567  17.141  -8.204  1.00  0.00     0.032 C 
BRANCH   4   5
ATOM      5  C   UNL     1       2.246  17.005  -6.707  1.00  0.00     0.034 C 
BRANCH   5   6
ATOM      6  C   UNL     1       3.447  16.872  -5.786  1.00  0.00    -0.077 C 
ATOM      7  C   UNL     1       4.176  18.123  -5.360  1.00  0.00     0.039 C 
ATOM      8  C   UNL     1       3.958  15.681  -5.391  1.00  0.00    -0.023 CG0
ATOM      9  G   UNL     1       3.299  14.341  -5.585  1.00  0.00     0.000 G0
ENDBRANCH   5   6
ENDBRANCH   4   5
ENDBRANCH   2   4
BRANCH   1  10
ATOM     10  C   UNL     1       3.344  14.186  -9.063  1.00  0.00     0.111 C 
BRANCH  10  11
ATOM     11  C   UNL     1       3.218  13.252  -7.893  1.00  0.00     0.163 C 
ATOM     12  O   UNL     1       2.394  12.299  -7.938  1.00  0.00    -0.294 OA
BRANCH  11  13
ATOM     13  C   UNL     1       3.971  13.511  -6.639  1.00  0.00    -0.002 C 
ATOM     14  C   UNL     1       5.210  12.972  -6.467  1.00  0.00    -0.069 C 
ATOM     15  C   UNL     1       5.994  13.174  -5.193  1.00  0.00     0.039 C 
ATOM     16  C   UNL     1       5.837  12.122  -7.551  1.00  0.00     0.039 C 
BRANCH  13  17
ATOM     17  C   UNL     1       3.277  14.337  -5.565  1.00  0.00     0.066 CG0
ATOM     18  G   UNL     1       3.972  15.664  -5.405  1.00  0.00     0.000 G0
ENDBRANCH  13  17
ENDBRANCH  11  13
ENDBRANCH  10  11
ENDBRANCH   1  10
TORSDOF 0
ENDMDL
MODEL 5
REMARK VINA RESULT:    -3.628      1.767      2.201
REMARK INTER + INTRA:          -4.541
REMARK INTER:                  -5.766
REMARK INTRA:                   1.225
REMARK UNBOUND:                 0.572
REMARK SMILES CC1=CCC(=C(C)C)C(=O)CC(C)=CCC1
REMARK SMILES IDX 12 1 14 2 13 3 15 4 16 5 2 6 1 7 3 8 11 10 9 11 10 12 5 13
REMARK SMILES IDX 6 14 7 15 8 16 4 17
REMARK H PARENT
REMARK Flexibility Score: 60.00
ROOT
ATOM      1  C   UNL     1       3.613  16.972  -5.788  1.00  0.00    -0.070 C 
ATOM      2  C   UNL     1       3.590  18.204  -6.364  1.00  0.00    -0.027 C 
ATOM      3  C   UNL     1       4.871  16.597  -5.043  1.00  0.00     0.039 C 
ENDROOT
BRANCH   2   4
ATOM      4  C   UNL     1       2.425  18.868  -7.059  1.00  0.00     0.032 C 
BRANCH   4   5
ATOM      5  C   UNL     1       2.254  18.483  -8.538  1.00  0.00     0.034 C 
BRANCH   5   6
ATOM      6  C   UNL     1       1.405  17.252  -8.803  1.00  0.00    -0.077 C 
ATOM      7  C   UNL     1      -0.097  17.398  -8.828  1.00  0.00     0.039 C 
ATOM      8  C   UNL     1       1.917  16.004  -8.933  1.00  0.00    -0.023 CG0
ATOM      9  G   UNL     1       3.379  15.671  -9.082  1.00  0.00     0.000 G0
ENDBRANCH   5   6
ENDBRANCH   4   5
ENDBRANCH   2   4
BRANCH   1  10
ATOM     10  C   UNL     1       2.536  15.902  -5.935  1.00  0.00     0.111 C 
BRANCH  10  11
ATOM     11  C   UNL     1       2.925  14.690  -6.734  1.00  0.00     0.163 C 
ATOM     12  O   UNL     1       2.550  13.547  -6.359  1.00  0.00    -0.294 OA
BRANCH  11  13
ATOM     13  C   UNL     1       3.844  14.818  -7.894  1.00  0.00    -0.002 C 
ATOM     14  C   UNL     1       5.080  14.248  -7.846  1.00  0.00    -0.069 C 
ATOM     15  C   UNL     1       6.063  14.387  -8.983  1.00  0.00     0.039 C 
ATOM     16  C   UNL     1       5.522  13.469  -6.626  1.00  0.00     0.039 C 
BRANCH  13  17
ATOM     17  C   UNL     1       3.366  15.647  -9.076  1.00  0.00     0.066 CG0
ATOM     18  G   UNL     1       1.913  16.005  -8.901  1.00  0.00     0.000 G0
ENDBRANCH  13  17
ENDBRANCH  11  13
ENDBRANCH  10  11
ENDBRANCH   1  10
TORSDOF 0
ENDMDL
MODEL 6
REMARK VINA RESULT:    -3.441      1.502      2.065
REMARK INTER + INTRA:          -4.277
REMARK INTER:                  -4.751
REMARK INTRA:                   0.473
REMARK UNBOUND:                 0.572
REMARK SMILES CC1=CCC(=C(C)C)C(=O)CC(C)=CCC1
REMARK SMILES IDX 12 1 14 2 13 3 15 4 16 5 2 6 1 7 3 8 11 10 9 11 10 12 5 13
REMARK SMILES IDX 6 14 7 15 8 16 4 17
REMARK H PARENT
REMARK Flexibility Score: 60.00
ROOT
ATOM      1  C   UNL     1       1.385  16.395  -5.967  1.00  0.00    -0.070 C 
ATOM      2  C   UNL     1       0.995  17.349  -6.853  1.00  0.00    -0.027 C 
ATOM      3  C   UNL     1       1.074  16.655  -4.512  1.00  0.00     0.039 C 
ENDROOT
BRANCH   2   4
ATOM      4  C   UNL     1       1.077  17.287  -8.360  1.00  0.00     0.032 C 
BRANCH   4   5
ATOM      5  C   UNL     1       1.941  18.384  -9.002  1.00  0.00     0.034 C 
BRANCH   5   6
ATOM      6  C   UNL     1       3.354  18.513  -8.457  1.00  0.00    -0.077 C 
ATOM      7  C   UNL     1       3.801  19.845  -7.909  1.00  0.00     0.039 C 
ATOM      8  C   UNL     1       4.270  17.517  -8.515  1.00  0.00    -0.023 CG0
ATOM      9  G   UNL     1       3.983  16.085  -8.887  1.00  0.00     0.000 G0
ENDBRANCH   5   6
ENDBRANCH   4   5
ENDBRANCH   2   4
BRANCH   1  10
ATOM     10  C   UNL     1       2.211  15.156  -6.299  1.00  0.00     0.111 C 
BRANCH  10  11
ATOM     11  C   UNL     1       3.693  15.375  -6.427  1.00  0.00     0.163 C 
ATOM     12  O   UNL     1       4.341  15.845  -5.454  1.00  0.00    -0.294 OA
BRANCH  11  13
ATOM     13  C   UNL     1       4.377  15.153  -7.726  1.00  0.00    -0.002 C 
ATOM     14  C   UNL     1       5.335  14.192  -7.834  1.00  0.00    -0.069 C 
ATOM     15  C   UNL     1       6.086  13.959  -9.123  1.00  0.00     0.039 C 
ATOM     16  C   UNL     1       5.700  13.332  -6.643  1.00  0.00     0.039 C 
BRANCH  13  17
ATOM     17  C   UNL     1       4.002  16.074  -8.879  1.00  0.00     0.066 CG0
ATOM     18  G   UNL     1       4.275  17.507  -8.505  1.00  0.00     0.000 G0
ENDBRANCH  13  17
ENDBRANCH  11  13
ENDBRANCH  10  11
ENDBRANCH   1  10
TORSDOF 0
ENDMDL
MODEL 7
REMARK VINA RESULT:    -3.402      1.758      2.161
REMARK INTER + INTRA:          -4.222
REMARK INTER:                  -5.011
REMARK INTRA:                   0.789
REMARK UNBOUND:                 0.572
REMARK SMILES CC1=CCC(=C(C)C)C(=O)CC(C)=CCC1
REMARK SMILES IDX 12 1 14 2 13 3 15 4 16 5 2 6 1 7 3 8 11 10 9 11 10 12 5 13
REMARK SMILES IDX 6 14 7 15 8 16 4 17
REMARK H PARENT
REMARK Flexibility Score: 60.00
ROOT
ATOM      1  C   UNL     1       3.193  16.278  -5.754  1.00  0.00    -0.070 C 
ATOM      2  C   UNL     1       3.761  17.468  -5.425  1.00  0.00    -0.027 C 
ATOM      3  C   UNL     1       3.859  15.036  -5.211  1.00  0.00     0.039 C 
ENDROOT
BRANCH   2   4
ATOM      4  C   UNL     1       3.235  18.850  -5.733  1.00  0.00     0.032 C 
BRANCH   4   5
ATOM      5  C   UNL     1       3.976  19.581  -6.865  1.00  0.00     0.034 C 
BRANCH   5   6
ATOM      6  C   UNL     1       3.380  19.419  -8.253  1.00  0.00    -0.077 C 
ATOM      7  C   UNL     1       2.474  20.502  -8.785  1.00  0.00     0.039 C 
ATOM      8  C   UNL     1       3.546  18.309  -9.013  1.00  0.00    -0.023 CG0
ATOM      9  G   UNL     1       4.518  17.194  -8.728  1.00  0.00     0.000 G0
ENDBRANCH   5   6
ENDBRANCH   4   5
ENDBRANCH   2   4
BRANCH   1  10
ATOM     10  C   UNL     1       2.025  16.085  -6.716  1.00  0.00     0.111 C 
BRANCH  10  11
ATOM     11  C   UNL     1       2.394  15.915  -8.163  1.00  0.00     0.163 C 
ATOM     12  O   UNL     1       1.491  15.707  -9.018  1.00  0.00    -0.294 OA
BRANCH  11  13
ATOM     13  C   UNL     1       3.820  15.872  -8.576  1.00  0.00    -0.002 C 
ATOM     14  C   UNL     1       4.443  14.672  -8.741  1.00  0.00    -0.069 C 
ATOM     15  C   UNL     1       5.902  14.581  -9.118  1.00  0.00     0.039 C 
ATOM     16  C   UNL     1       3.691  13.377  -8.524  1.00  0.00     0.039 C 
BRANCH  13  17
ATOM     17  C   UNL     1       4.540  17.203  -8.739  1.00  0.00     0.066 CG0
ATOM     18  G   UNL     1       3.543  18.298  -9.017  1.00  0.00     0.000 G0
ENDBRANCH  13  17
ENDBRANCH  11  13
ENDBRANCH  10  11
ENDBRANCH   1  10
TORSDOF 0
ENDMDL
MODEL 8
REMARK VINA RESULT:    -3.359      1.578      2.205
REMARK INTER + INTRA:          -4.162
REMARK INTER:                  -4.888
REMARK INTRA:                   0.726
REMARK UNBOUND:                 0.572
REMARK SMILES CC1=CCC(=C(C)C)C(=O)CC(C)=CCC1
REMARK SMILES IDX 12 1 14 2 13 3 15 4 16 5 2 6 1 7 3 8 11 10 9 11 10 12 5 13
REMARK SMILES IDX 6 14 7 15 8 16 4 17
REMARK H PARENT
REMARK Flexibility Score: 60.00
ROOT
ATOM      1  C   UNL     1       3.665  16.569  -5.327  1.00  0.00    -0.070 C 
ATOM      2  C   UNL     1       2.653  17.395  -5.703  1.00  0.00    -0.027 C 
ATOM      3  C   UNL     1       4.887  17.224  -4.728  1.00  0.00     0.039 C 
ENDROOT
BRANCH   2   4
ATOM      4  C   UNL     1       1.289  16.998  -6.213  1.00  0.00     0.032 C 
BRANCH   4   5
ATOM      5  C   UNL     1       1.130  17.064  -7.741  1.00  0.00     0.034 C 
BRANCH   5   6
ATOM      6  C   UNL     1       2.423  17.028  -8.539  1.00  0.00    -0.077 C 
ATOM      7  C   UNL     1       3.078  18.334  -8.917  1.00  0.00     0.039 C 
ATOM      8  C   UNL     1       2.979  15.886  -9.010  1.00  0.00    -0.023 CG0
ATOM      9  G   UNL     1       2.565  14.490  -8.624  1.00  0.00     0.000 G0
ENDBRANCH   5   6
ENDBRANCH   4   5
ENDBRANCH   2   4
BRANCH   1  10
ATOM     10  C   UNL     1       3.722  15.064  -5.571  1.00  0.00     0.111 C 
BRANCH  10  11
ATOM     11  C   UNL     1       4.419  14.634  -6.831  1.00  0.00     0.163 C 
ATOM     12  O   UNL     1       5.581  15.055  -7.078  1.00  0.00    -0.294 OA
BRANCH  11  13
ATOM     13  C   UNL     1       3.707  13.811  -7.842  1.00  0.00    -0.002 C 
ATOM     14  C   UNL     1       4.104  12.529  -8.076  1.00  0.00    -0.069 C 
ATOM     15  C   UNL     1       3.437  11.670  -9.123  1.00  0.00     0.039 C 
ATOM     16  C   UNL     1       5.257  11.927  -7.303  1.00  0.00     0.039 C 
BRANCH  13  17
ATOM     17  C   UNL     1       2.583  14.479  -8.620  1.00  0.00     0.066 CG0
ATOM     18  G   UNL     1       2.975  15.886  -8.987  1.00  0.00     0.000 G0
ENDBRANCH  13  17
ENDBRANCH  11  13
ENDBRANCH  10  11
ENDBRANCH   1  10
TORSDOF 0
ENDMDL
MODEL 9
REMARK VINA RESULT:    -3.296      2.373      5.180
REMARK INTER + INTRA:          -4.072
REMARK INTER:                  -5.053
REMARK INTRA:                   0.981
REMARK UNBOUND:                 0.572
REMARK SMILES CC1=CCC(=C(C)C)C(=O)CC(C)=CCC1
REMARK SMILES IDX 12 1 14 2 13 3 15 4 16 5 2 6 1 7 3 8 11 10 9 11 10 12 5 13
REMARK SMILES IDX 6 14 7 15 8 16 4 17
REMARK H PARENT
REMARK Flexibility Score: 60.00
ROOT
ATOM      1  C   UNL     1       2.833  12.032  -8.551  1.00  0.00    -0.070 C 
ATOM      2  C   UNL     1       4.119  11.705  -8.848  1.00  0.00    -0.027 C 
ATOM      3  C   UNL     1       1.891  10.886  -8.268  1.00  0.00     0.039 C 
ENDROOT
BRANCH   2   4
ATOM      4  C   UNL     1       5.279  12.649  -9.054  1.00  0.00     0.032 C 
BRANCH   4   5
ATOM      5  C   UNL     1       6.376  12.563  -7.980  1.00  0.00     0.034 C 
BRANCH   5   6
ATOM      6  C   UNL     1       6.045  13.213  -6.647  1.00  0.00    -0.077 C 
ATOM      7  C   UNL     1       6.432  12.499  -5.376  1.00  0.00     0.039 C 
ATOM      8  C   UNL     1       5.338  14.363  -6.532  1.00  0.00    -0.023 CG0
ATOM      9  G   UNL     1       4.990  15.291  -7.667  1.00  0.00     0.000 G0
ENDBRANCH   5   6
ENDBRANCH   4   5
ENDBRANCH   2   4
BRANCH   1  10
ATOM     10  C   UNL     1       2.238  13.436  -8.601  1.00  0.00     0.111 C 
BRANCH  10  11
ATOM     11  C   UNL     1       2.618  14.346  -7.468  1.00  0.00     0.163 C 
ATOM     12  O   UNL     1       2.120  14.163  -6.325  1.00  0.00    -0.294 OA
BRANCH  11  13
ATOM     13  C   UNL     1       3.484  15.529  -7.710  1.00  0.00    -0.002 C 
ATOM     14  C   UNL     1       2.921  16.730  -8.020  1.00  0.00    -0.069 C 
ATOM     15  C   UNL     1       3.762  17.948  -8.315  1.00  0.00     0.039 C 
ATOM     16  C   UNL     1       1.417  16.877  -8.102  1.00  0.00     0.039 C 
BRANCH  13  17
ATOM     17  C   UNL     1       4.990  15.315  -7.657  1.00  0.00     0.066 CG0
ATOM     18  G   UNL     1       5.337  14.370  -6.536  1.00  0.00     0.000 G0
ENDBRANCH  13  17
ENDBRANCH  11  13
ENDBRANCH  10  11
ENDBRANCH   1  10
TORSDOF 0
ENDMDL
