MODEL 1
REMARK VINA RESULT:    -5.283      0.000      0.000
REMARK INTER + INTRA:          -6.113
REMARK INTER:                  -5.901
REMARK INTRA:                  -0.212
REMARK UNBOUND:                -0.212
REMARK SMILES CC(C)c1ccc(C(=O)[O-])cc1
REMARK SMILES IDX 7 1 6 2 11 3 5 4 12 5 4 6 8 7 9 8 10 9 2 10 1 11 3 12
REMARK H PARENT
REMARK Flexibility Score: inf
ROOT
ATOM      1  C   UNL     1      17.286 -47.983  70.629  1.00  0.00    -0.003 A 
ATOM      2  C   UNL     1      17.164 -48.657  71.855  1.00  0.00     0.010 A 
ATOM      3  C   UNL     1      16.123 -47.524  69.987  1.00  0.00     0.010 A 
ATOM      4  C   UNL     1      15.906 -48.868  72.429  1.00  0.00     0.004 A 
ATOM      5  C   UNL     1      14.866 -47.734  70.560  1.00  0.00     0.004 A 
ATOM      6  C   UNL     1      14.743 -48.409  71.788  1.00  0.00    -0.045 A 
ENDROOT
BRANCH   1   7
ATOM      7  C   UNL     1      18.618 -47.763  70.026  1.00  0.00     0.071 C 
ATOM      8  O   UNL     1      19.347 -46.809  70.411  1.00  0.00    -0.545 OA
ATOM      9  O   UNL     1      19.086 -48.606  69.025  1.00  0.00    -0.545 OA
ENDBRANCH   1   7
BRANCH   6  10
ATOM     10  C   UNL     1      13.385 -48.645  72.422  1.00  0.00     0.013 C 
ATOM     11  C   UNL     1      13.329 -50.010  73.117  1.00  0.00     0.012 C 
ATOM     12  C   UNL     1      12.261 -48.506  71.388  1.00  0.00     0.012 C 
ENDBRANCH   6  10
TORSDOF 2
ENDMDL
MODEL 2
REMARK VINA RESULT:    -5.103      3.061      5.261
REMARK INTER + INTRA:          -5.911
REMARK INTER:                  -5.699
REMARK INTRA:                  -0.212
REMARK UNBOUND:                -0.212
REMARK SMILES CC(C)c1ccc(C(=O)[O-])cc1
REMARK SMILES IDX 7 1 6 2 11 3 5 4 12 5 4 6 8 7 9 8 10 9 2 10 1 11 3 12
REMARK H PARENT
REMARK Flexibility Score: inf
ROOT
ATOM      1  C   UNL     1      14.709 -48.494  71.865  1.00  0.00    -0.003 A 
ATOM      2  C   UNL     1      14.843 -47.591  70.798  1.00  0.00     0.010 A 
ATOM      3  C   UNL     1      15.867 -49.033  72.450  1.00  0.00     0.010 A 
ATOM      4  C   UNL     1      16.110 -47.233  70.325  1.00  0.00     0.004 A 
ATOM      5  C   UNL     1      17.133 -48.676  71.978  1.00  0.00     0.004 A 
ATOM      6  C   UNL     1      17.269 -47.772  70.909  1.00  0.00    -0.045 A 
ENDROOT
BRANCH   1   7
ATOM      7  C   UNL     1      13.367 -48.869  72.362  1.00  0.00     0.071 C 
ATOM      8  O   UNL     1      13.213 -49.893  73.082  1.00  0.00    -0.545 OA
ATOM      9  O   UNL     1      12.255 -48.098  72.042  1.00  0.00    -0.545 OA
ENDBRANCH   1   7
BRANCH   6  10
ATOM     10  C   UNL     1      18.636 -47.375  70.386  1.00  0.00     0.013 C 
ATOM     11  C   UNL     1      18.608 -45.967  69.779  1.00  0.00     0.012 C 
ATOM     12  C   UNL     1      19.159 -48.401  69.373  1.00  0.00     0.012 C 
ENDBRANCH   6  10
TORSDOF 2
ENDMDL
MODEL 3
REMARK VINA RESULT:    -5.101      5.052      7.141
REMARK INTER + INTRA:          -5.909
REMARK INTER:                  -5.704
REMARK INTRA:                  -0.205
REMARK UNBOUND:                -0.212
REMARK SMILES CC(C)c1ccc(C(=O)[O-])cc1
REMARK SMILES IDX 7 1 6 2 11 3 5 4 12 5 4 6 8 7 9 8 10 9 2 10 1 11 3 12
REMARK H PARENT
REMARK Flexibility Score: inf
ROOT
ATOM      1  C   UNL     1      19.830 -47.746  68.176  1.00  0.00    -0.003 A 
ATOM      2  C   UNL     1      20.600 -46.880  67.383  1.00  0.00     0.010 A 
ATOM      3  C   UNL     1      19.741 -47.504  69.557  1.00  0.00     0.010 A 
ATOM      4  C   UNL     1      21.267 -45.794  67.958  1.00  0.00     0.004 A 
ATOM      5  C   UNL     1      20.407 -46.419  70.133  1.00  0.00     0.004 A 
ATOM      6  C   UNL     1      21.179 -45.550  69.338  1.00  0.00    -0.045 A 
ENDROOT
BRANCH   1   7
ATOM      7  C   UNL     1      19.127 -48.894  67.563  1.00  0.00     0.071 C 
ATOM      8  O   UNL     1      19.773 -49.893  67.145  1.00  0.00    -0.545 OA
ATOM      9  O   UNL     1      17.743 -48.888  67.441  1.00  0.00    -0.545 OA
ENDBRANCH   1   7
BRANCH   6  10
ATOM     10  C   UNL     1      21.907 -44.368  69.948  1.00  0.00     0.013 C 
ATOM     11  C   UNL     1      22.165 -43.278  68.902  1.00  0.00     0.012 C 
ATOM     12  C   UNL     1      23.215 -44.810  70.616  1.00  0.00     0.012 C 
ENDBRANCH   6  10
TORSDOF 2
ENDMDL
MODEL 4
REMARK VINA RESULT:    -4.988      1.414      1.998
REMARK INTER + INTRA:          -5.784
REMARK INTER:                  -5.564
REMARK INTRA:                  -0.220
REMARK UNBOUND:                -0.212
REMARK SMILES CC(C)c1ccc(C(=O)[O-])cc1
REMARK SMILES IDX 7 1 6 2 11 3 5 4 12 5 4 6 8 7 9 8 10 9 2 10 1 11 3 12
REMARK H PARENT
REMARK Flexibility Score: inf
ROOT
ATOM      1  C   UNL     1      16.927 -46.448  70.268  1.00  0.00    -0.003 A 
ATOM      2  C   UNL     1      17.116 -47.529  71.145  1.00  0.00     0.010 A 
ATOM      3  C   UNL     1      15.618 -46.091  69.902  1.00  0.00     0.010 A 
ATOM      4  C   UNL     1      16.020 -48.238  71.646  1.00  0.00     0.004 A 
ATOM      5  C   UNL     1      14.522 -46.799  70.403  1.00  0.00     0.004 A 
ATOM      6  C   UNL     1      14.711 -47.882  71.281  1.00  0.00    -0.045 A 
ENDROOT
BRANCH   1   7
ATOM      7  C   UNL     1      18.089 -45.702  69.740  1.00  0.00     0.071 C 
ATOM      8  O   UNL     1      19.229 -46.237  69.696  1.00  0.00    -0.545 OA
ATOM      9  O   UNL     1      17.940 -44.397  69.284  1.00  0.00    -0.545 OA
ENDBRANCH   1   7
BRANCH   6  10
ATOM     10  C   UNL     1      13.532 -48.660  71.833  1.00  0.00     0.013 C 
ATOM     11  C   UNL     1      12.345 -47.734  72.122  1.00  0.00     0.012 C 
ATOM     12  C   UNL     1      13.930 -49.453  73.084  1.00  0.00     0.012 C 
ENDBRANCH   6  10
TORSDOF 2
ENDMDL
MODEL 5
REMARK VINA RESULT:    -4.959      5.194      7.419
REMARK INTER + INTRA:          -5.751
REMARK INTER:                  -5.544
REMARK INTRA:                  -0.207
REMARK UNBOUND:                -0.212
REMARK SMILES CC(C)c1ccc(C(=O)[O-])cc1
REMARK SMILES IDX 7 1 6 2 11 3 5 4 12 5 4 6 8 7 9 8 10 9 2 10 1 11 3 12
REMARK H PARENT
REMARK Flexibility Score: inf
ROOT
ATOM      1  C   UNL     1      21.893 -43.024  68.748  1.00  0.00    -0.003 A 
ATOM      2  C   UNL     1      20.638 -43.385  68.232  1.00  0.00     0.010 A 
ATOM      3  C   UNL     1      22.558 -43.917  69.606  1.00  0.00     0.010 A 
ATOM      4  C   UNL     1      20.059 -44.613  68.566  1.00  0.00     0.004 A 
ATOM      5  C   UNL     1      21.980 -45.144  69.940  1.00  0.00     0.004 A 
ATOM      6  C   UNL     1      20.723 -45.507  69.423  1.00  0.00    -0.045 A 
ENDROOT
BRANCH   1   7
ATOM      7  C   UNL     1      22.501 -41.723  68.393  1.00  0.00     0.071 C 
ATOM      8  O   UNL     1      21.794 -40.682  68.324  1.00  0.00    -0.545 OA
ATOM      9  O   UNL     1      23.863 -41.630  68.131  1.00  0.00    -0.545 OA
ENDBRANCH   1   7
BRANCH   6  10
ATOM     10  C   UNL     1      20.082 -46.836  69.776  1.00  0.00     0.013 C 
ATOM     11  C   UNL     1      19.972 -47.741  68.543  1.00  0.00     0.012 C 
ATOM     12  C   UNL     1      18.712 -46.631  70.434  1.00  0.00     0.012 C 
ENDBRANCH   6  10
TORSDOF 2
ENDMDL
MODEL 6
REMARK VINA RESULT:    -4.919      2.344      3.877
REMARK INTER + INTRA:          -5.706
REMARK INTER:                  -5.497
REMARK INTRA:                  -0.209
REMARK UNBOUND:                -0.212
REMARK SMILES CC(C)c1ccc(C(=O)[O-])cc1
REMARK SMILES IDX 7 1 6 2 11 3 5 4 12 5 4 6 8 7 9 8 10 9 2 10 1 11 3 12
REMARK H PARENT
REMARK Flexibility Score: inf
ROOT
ATOM      1  C   UNL     1      19.425 -46.902  68.099  1.00  0.00    -0.003 A 
ATOM      2  C   UNL     1      18.081 -47.237  67.864  1.00  0.00     0.010 A 
ATOM      3  C   UNL     1      19.875 -46.791  69.426  1.00  0.00     0.010 A 
ATOM      4  C   UNL     1      17.206 -47.457  68.932  1.00  0.00     0.004 A 
ATOM      5  C   UNL     1      19.002 -47.011  70.494  1.00  0.00     0.004 A 
ATOM      6  C   UNL     1      17.656 -47.347  70.258  1.00  0.00    -0.045 A 
ENDROOT
BRANCH   1   7
ATOM      7  C   UNL     1      20.347 -46.669  66.967  1.00  0.00     0.071 C 
ATOM      8  O   UNL     1      21.349 -47.413  66.792  1.00  0.00    -0.545 OA
ATOM      9  O   UNL     1      20.121 -45.624  66.078  1.00  0.00    -0.545 OA
ENDBRANCH   1   7
BRANCH   6  10
ATOM     10  C   UNL     1      16.694 -47.590  71.407  1.00  0.00     0.013 C 
ATOM     11  C   UNL     1      17.110 -48.817  72.226  1.00  0.00     0.012 C 
ATOM     12  C   UNL     1      15.253 -47.727  70.901  1.00  0.00     0.012 C 
ENDBRANCH   6  10
TORSDOF 2
ENDMDL
MODEL 7
REMARK VINA RESULT:    -4.852      3.080      6.153
REMARK INTER + INTRA:          -5.632
REMARK INTER:                  -5.413
REMARK INTRA:                  -0.218
REMARK UNBOUND:                -0.212
REMARK SMILES CC(C)c1ccc(C(=O)[O-])cc1
REMARK SMILES IDX 7 1 6 2 11 3 5 4 12 5 4 6 8 7 9 8 10 9 2 10 1 11 3 12
REMARK H PARENT
REMARK Flexibility Score: inf
ROOT
ATOM      1  C   UNL     1      17.635 -47.016  70.775  1.00  0.00    -0.003 A 
ATOM      2  C   UNL     1      17.315 -45.884  70.007  1.00  0.00     0.010 A 
ATOM      3  C   UNL     1      18.968 -47.461  70.808  1.00  0.00     0.010 A 
ATOM      4  C   UNL     1      18.307 -45.210  69.288  1.00  0.00     0.004 A 
ATOM      5  C   UNL     1      19.959 -46.788  70.089  1.00  0.00     0.004 A 
ATOM      6  C   UNL     1      19.640 -45.654  69.320  1.00  0.00    -0.045 A 
ENDROOT
BRANCH   1   7
ATOM      7  C   UNL     1      16.583 -47.726  71.534  1.00  0.00     0.071 C 
ATOM      8  O   UNL     1      15.390 -47.730  71.126  1.00  0.00    -0.545 OA
ATOM      9  O   UNL     1      16.895 -48.401  72.708  1.00  0.00    -0.545 OA
ENDBRANCH   1   7
BRANCH   6  10
ATOM     10  C   UNL     1      20.705 -44.912  68.534  1.00  0.00     0.013 C 
ATOM     11  C   UNL     1      21.970 -44.708  69.375  1.00  0.00     0.012 C 
ATOM     12  C   UNL     1      20.171 -43.574  68.008  1.00  0.00     0.012 C 
ENDBRANCH   6  10
TORSDOF 2
ENDMDL
MODEL 8
REMARK VINA RESULT:    -4.817      2.741      5.221
REMARK INTER + INTRA:          -5.592
REMARK INTER:                  -5.381
REMARK INTRA:                  -0.211
REMARK UNBOUND:                -0.212
REMARK SMILES CC(C)c1ccc(C(=O)[O-])cc1
REMARK SMILES IDX 7 1 6 2 11 3 5 4 12 5 4 6 8 7 9 8 10 9 2 10 1 11 3 12
REMARK H PARENT
REMARK Flexibility Score: inf
ROOT
ATOM      1  C   UNL     1      15.996 -48.158  71.238  1.00  0.00    -0.003 A 
ATOM      2  C   UNL     1      17.200 -47.775  71.851  1.00  0.00     0.010 A 
ATOM      3  C   UNL     1      15.923 -48.175  69.835  1.00  0.00     0.010 A 
ATOM      4  C   UNL     1      18.309 -47.417  71.079  1.00  0.00     0.004 A 
ATOM      5  C   UNL     1      17.031 -47.817  69.062  1.00  0.00     0.004 A 
ATOM      6  C   UNL     1      18.237 -47.433  69.676  1.00  0.00    -0.045 A 
ENDROOT
BRANCH   1   7
ATOM      7  C   UNL     1      14.825 -48.535  72.060  1.00  0.00     0.071 C 
ATOM      8  O   UNL     1      14.974 -49.194  73.124  1.00  0.00    -0.545 OA
ATOM      9  O   UNL     1      13.543 -48.169  71.669  1.00  0.00    -0.545 OA
ENDBRANCH   1   7
BRANCH   6  10
ATOM     10  C   UNL     1      19.448 -47.042  68.850  1.00  0.00     0.013 C 
ATOM     11  C   UNL     1      20.093 -48.271  68.198  1.00  0.00     0.012 C 
ATOM     12  C   UNL     1      20.467 -46.269  69.697  1.00  0.00     0.012 C 
ENDBRANCH   6  10
TORSDOF 2
ENDMDL
MODEL 9
REMARK VINA RESULT:    -4.305      0.248      1.680
REMARK INTER + INTRA:          -5.020
REMARK INTER:                  -4.806
REMARK INTRA:                  -0.214
REMARK UNBOUND:                -0.212
REMARK SMILES CC(C)c1ccc(C(=O)[O-])cc1
REMARK SMILES IDX 7 1 6 2 11 3 5 4 12 5 4 6 8 7 9 8 10 9 2 10 1 11 3 12
REMARK H PARENT
REMARK Flexibility Score: inf
ROOT
ATOM      1  C   UNL     1      17.319 -47.879  70.482  1.00  0.00    -0.003 A 
ATOM      2  C   UNL     1      16.144 -47.348  69.927  1.00  0.00     0.010 A 
ATOM      3  C   UNL     1      17.231 -48.638  71.661  1.00  0.00     0.010 A 
ATOM      4  C   UNL     1      14.906 -47.571  70.537  1.00  0.00     0.004 A 
ATOM      5  C   UNL     1      15.995 -48.862  72.271  1.00  0.00     0.004 A 
ATOM      6  C   UNL     1      14.817 -48.330  71.715  1.00  0.00    -0.045 A 
ENDROOT
BRANCH   1   7
ATOM      7  C   UNL     1      18.627 -47.639  69.833  1.00  0.00     0.071 C 
ATOM      8  O   UNL     1      18.880 -48.130  68.700  1.00  0.00    -0.545 OA
ATOM      9  O   UNL     1      19.596 -46.869  70.465  1.00  0.00    -0.545 OA
ENDBRANCH   1   7
BRANCH   6  10
ATOM     10  C   UNL     1      13.466 -48.565  72.366  1.00  0.00     0.013 C 
ATOM     11  C   UNL     1      13.442 -49.896  73.125  1.00  0.00     0.012 C 
ATOM     12  C   UNL     1      12.336 -48.499  71.332  1.00  0.00     0.012 C 
ENDBRANCH   6  10
TORSDOF 2
ENDMDL
