MODEL 1
REMARK VINA RESULT:    -4.316      0.000      0.000
REMARK INTER + INTRA:          -5.081
REMARK INTER:                  -4.946
REMARK INTRA:                  -0.135
REMARK UNBOUND:                -0.135
REMARK SMILES O=C([O-])C=Cc1ccc(O)cc1
REMARK SMILES IDX 6 1 7 2 12 3 8 4 11 5 9 6 5 7 4 8 2 9 1 10 3 11 10 12
REMARK H PARENT 10 13
REMARK Flexibility Score: inf
ROOT
ATOM      1  C   UNL     1     -23.749  27.565   8.291  1.00  0.00    -0.025 A 
ATOM      2  C   UNL     1     -23.359  27.118   9.570  1.00  0.00     0.012 A 
ATOM      3  C   UNL     1     -24.125  26.615   7.327  1.00  0.00     0.012 A 
ATOM      4  C   UNL     1     -23.325  25.751   9.862  1.00  0.00     0.047 A 
ATOM      5  C   UNL     1     -24.088  25.248   7.621  1.00  0.00     0.047 A 
ATOM      6  C   UNL     1     -23.688  24.812   8.887  1.00  0.00     0.115 A 
ENDROOT
BRANCH   1   7
ATOM      7  C   UNL     1     -23.813  29.003   7.933  1.00  0.00     0.010 C 
ATOM      8  C   UNL     1     -22.970  29.929   8.411  1.00  0.00     0.025 C 
BRANCH   8   9
ATOM      9  C   UNL     1     -23.065  31.344   8.019  1.00  0.00     0.064 C 
ATOM     10  O   UNL     1     -22.170  31.847   7.290  1.00  0.00    -0.545 OA
ATOM     11  O   UNL     1     -24.125  32.137   8.443  1.00  0.00    -0.545 OA
ENDBRANCH   8   9
ENDBRANCH   1   7
BRANCH   6  12
ATOM     12  O   UNL     1     -23.656  23.448   9.167  1.00  0.00    -0.508 OA
ATOM     13  H   UNL     1     -22.794  22.917   9.114  1.00  0.00     0.293 HD
ENDBRANCH   6  12
TORSDOF 3
ENDMDL
MODEL 2
REMARK VINA RESULT:    -4.238      3.794      6.725
REMARK INTER + INTRA:          -4.992
REMARK INTER:                  -4.850
REMARK INTRA:                  -0.142
REMARK UNBOUND:                -0.135
REMARK SMILES O=C([O-])C=Cc1ccc(O)cc1
REMARK SMILES IDX 6 1 7 2 12 3 8 4 11 5 9 6 5 7 4 8 2 9 1 10 3 11 10 12
REMARK H PARENT 10 13
REMARK Flexibility Score: inf
ROOT
ATOM      1  C   UNL     1     -22.423  24.870  11.132  1.00  0.00    -0.025 A 
ATOM      2  C   UNL     1     -23.051  26.117  10.932  1.00  0.00     0.012 A 
ATOM      3  C   UNL     1     -21.919  24.179  10.017  1.00  0.00     0.012 A 
ATOM      4  C   UNL     1     -23.190  26.641   9.644  1.00  0.00     0.047 A 
ATOM      5  C   UNL     1     -22.061  24.706   8.730  1.00  0.00     0.047 A 
ATOM      6  C   UNL     1     -22.697  25.936   8.538  1.00  0.00     0.115 A 
ENDROOT
BRANCH   1   7
ATOM      7  C   UNL     1     -22.240  24.274  12.478  1.00  0.00     0.010 C 
ATOM      8  C   UNL     1     -21.045  23.968  13.002  1.00  0.00     0.025 C 
BRANCH   8   9
ATOM      9  C   UNL     1     -20.911  23.388  14.348  1.00  0.00     0.064 C 
ATOM     10  O   UNL     1     -19.766  23.128  14.800  1.00  0.00    -0.545 OA
ATOM     11  O   UNL     1     -22.030  23.119  15.128  1.00  0.00    -0.545 OA
ENDBRANCH   8   9
ENDBRANCH   1   7
BRANCH   6  12
ATOM     12  O   UNL     1     -22.831  26.448   7.250  1.00  0.00    -0.508 OA
ATOM     13  H   UNL     1     -23.255  25.905   6.507  1.00  0.00     0.293 HD
ENDBRANCH   6  12
TORSDOF 3
ENDMDL
MODEL 3
REMARK VINA RESULT:    -4.033      4.797      7.107
REMARK INTER + INTRA:          -4.758
REMARK INTER:                  -4.622
REMARK INTRA:                  -0.136
REMARK UNBOUND:                -0.135
REMARK SMILES O=C([O-])C=Cc1ccc(O)cc1
REMARK SMILES IDX 6 1 7 2 12 3 8 4 11 5 9 6 5 7 4 8 2 9 1 10 3 11 10 12
REMARK H PARENT 10 13
REMARK Flexibility Score: inf
ROOT
ATOM      1  C   UNL     1     -21.474  23.587  12.836  1.00  0.00    -0.025 A 
ATOM      2  C   UNL     1     -22.404  23.248  13.840  1.00  0.00     0.012 A 
ATOM      3  C   UNL     1     -20.169  23.944  13.215  1.00  0.00     0.012 A 
ATOM      4  C   UNL     1     -22.038  23.291  15.188  1.00  0.00     0.047 A 
ATOM      5  C   UNL     1     -19.806  23.988  14.565  1.00  0.00     0.047 A 
ATOM      6  C   UNL     1     -20.738  23.664  15.555  1.00  0.00     0.115 A 
ENDROOT
BRANCH   1   7
ATOM      7  C   UNL     1     -21.808  23.547  11.391  1.00  0.00     0.010 C 
ATOM      8  C   UNL     1     -21.931  24.639  10.623  1.00  0.00     0.025 C 
BRANCH   8   9
ATOM      9  C   UNL     1     -22.252  24.550   9.191  1.00  0.00     0.064 C 
ATOM     10  O   UNL     1     -21.429  24.980   8.342  1.00  0.00    -0.545 OA
ATOM     11  O   UNL     1     -23.454  24.000   8.757  1.00  0.00    -0.545 OA
ENDBRANCH   8   9
ENDBRANCH   1   7
BRANCH   6  12
ATOM     12  O   UNL     1     -20.363  23.712  16.895  1.00  0.00    -0.508 OA
ATOM     13  H   UNL     1     -21.041  23.589  17.639  1.00  0.00     0.293 HD
ENDBRANCH   6  12
TORSDOF 3
ENDMDL
MODEL 4
REMARK VINA RESULT:    -3.777      7.919     10.377
REMARK INTER + INTRA:          -4.464
REMARK INTER:                  -4.321
REMARK INTRA:                  -0.143
REMARK UNBOUND:                -0.135
REMARK SMILES O=C([O-])C=Cc1ccc(O)cc1
REMARK SMILES IDX 6 1 7 2 12 3 8 4 11 5 9 6 5 7 4 8 2 9 1 10 3 11 10 12
REMARK H PARENT 10 13
REMARK Flexibility Score: inf
ROOT
ATOM      1  C   UNL     1     -20.369  23.590  15.662  1.00  0.00    -0.025 A 
ATOM      2  C   UNL     1     -19.512  23.995  14.617  1.00  0.00     0.012 A 
ATOM      3  C   UNL     1     -21.682  23.200  15.348  1.00  0.00     0.012 A 
ATOM      4  C   UNL     1     -19.973  24.029  13.297  1.00  0.00     0.047 A 
ATOM      5  C   UNL     1     -22.139  23.237  14.027  1.00  0.00     0.047 A 
ATOM      6  C   UNL     1     -21.289  23.652  12.999  1.00  0.00     0.115 A 
ENDROOT
BRANCH   1   7
ATOM      7  C   UNL     1     -19.927  23.525  17.076  1.00  0.00     0.010 C 
ATOM      8  C   UNL     1     -18.675  23.229  17.454  1.00  0.00     0.025 C 
BRANCH   8   9
ATOM      9  C   UNL     1     -18.280  23.188  18.870  1.00  0.00     0.064 C 
ATOM     10  O   UNL     1     -19.149  23.366  19.763  1.00  0.00    -0.545 OA
ATOM     11  O   UNL     1     -16.959  22.958  19.240  1.00  0.00    -0.545 OA
ENDBRANCH   8   9
ENDBRANCH   1   7
BRANCH   6  12
ATOM     12  O   UNL     1     -21.758  23.684  11.688  1.00  0.00    -0.508 OA
ATOM     13  H   UNL     1     -21.912  24.560  11.203  1.00  0.00     0.293 HD
ENDBRANCH   6  12
TORSDOF 3
ENDMDL
MODEL 5
REMARK VINA RESULT:    -3.746      5.971      8.293
REMARK INTER + INTRA:          -4.429
REMARK INTER:                  -4.277
REMARK INTRA:                  -0.152
REMARK UNBOUND:                -0.135
REMARK SMILES O=C([O-])C=Cc1ccc(O)cc1
REMARK SMILES IDX 6 1 7 2 12 3 8 4 11 5 9 6 5 7 4 8 2 9 1 10 3 11 10 12
REMARK H PARENT 10 13
REMARK Flexibility Score: inf
ROOT
ATOM      1  C   UNL     1     -20.742  23.715  14.270  1.00  0.00    -0.025 A 
ATOM      2  C   UNL     1     -19.493  23.970  14.873  1.00  0.00     0.012 A 
ATOM      3  C   UNL     1     -21.803  23.267  15.075  1.00  0.00     0.012 A 
ATOM      4  C   UNL     1     -19.311  23.756  16.242  1.00  0.00     0.047 A 
ATOM      5  C   UNL     1     -21.617  23.054  16.444  1.00  0.00     0.047 A 
ATOM      6  C   UNL     1     -20.372  23.295  17.031  1.00  0.00     0.115 A 
ENDROOT
BRANCH   1   7
ATOM      7  C   UNL     1     -20.991  23.935  12.824  1.00  0.00     0.010 C 
ATOM      8  C   UNL     1     -22.206  23.880  12.260  1.00  0.00     0.025 C 
BRANCH   8   9
ATOM      9  C   UNL     1     -22.407  24.117  10.822  1.00  0.00     0.064 C 
ATOM     10  O   UNL     1     -23.330  23.513  10.216  1.00  0.00    -0.545 OA
ATOM     11  O   UNL     1     -21.591  24.997  10.119  1.00  0.00    -0.545 OA
ENDBRANCH   8   9
ENDBRANCH   1   7
BRANCH   6  12
ATOM     12  O   UNL     1     -20.202  23.078  18.396  1.00  0.00    -0.508 OA
ATOM     13  H   UNL     1     -20.772  22.408  18.901  1.00  0.00     0.293 HD
ENDBRANCH   6  12
TORSDOF 3
ENDMDL
MODEL 6
REMARK VINA RESULT:    -3.720      9.561     11.690
REMARK INTER + INTRA:          -4.398
REMARK INTER:                  -4.259
REMARK INTRA:                  -0.139
REMARK UNBOUND:                -0.135
REMARK SMILES O=C([O-])C=Cc1ccc(O)cc1
REMARK SMILES IDX 6 1 7 2 12 3 8 4 11 5 9 6 5 7 4 8 2 9 1 10 3 11 10 12
REMARK H PARENT 10 13
REMARK Flexibility Score: inf
ROOT
ATOM      1  C   UNL     1     -19.293  23.670  17.969  1.00  0.00    -0.025 A 
ATOM      2  C   UNL     1     -19.878  24.450  18.988  1.00  0.00     0.012 A 
ATOM      3  C   UNL     1     -18.049  23.062  18.212  1.00  0.00     0.012 A 
ATOM      4  C   UNL     1     -19.218  24.633  20.207  1.00  0.00     0.047 A 
ATOM      5  C   UNL     1     -17.392  23.248  19.432  1.00  0.00     0.047 A 
ATOM      6  C   UNL     1     -17.972  24.034  20.432  1.00  0.00     0.115 A 
ENDROOT
BRANCH   1   7
ATOM      7  C   UNL     1     -19.955  23.436  16.663  1.00  0.00     0.010 C 
ATOM      8  C   UNL     1     -19.427  23.795  15.484  1.00  0.00     0.025 C 
BRANCH   8   9
ATOM      9  C   UNL     1     -20.116  23.531  14.211  1.00  0.00     0.064 C 
ATOM     10  O   UNL     1     -19.444  23.206  13.198  1.00  0.00    -0.545 OA
ATOM     11  O   UNL     1     -21.498  23.637  14.108  1.00  0.00    -0.545 OA
ENDBRANCH   8   9
ENDBRANCH   1   7
BRANCH   6  12
ATOM     12  O   UNL     1     -17.305  24.210  21.642  1.00  0.00    -0.508 OA
ATOM     13  H   UNL     1     -17.473  25.023  22.224  1.00  0.00     0.293 HD
ENDBRANCH   6  12
TORSDOF 3
ENDMDL
MODEL 7
REMARK VINA RESULT:    -3.577     13.327     14.177
REMARK INTER + INTRA:          -4.234
REMARK INTER:                  -4.095
REMARK INTRA:                  -0.139
REMARK UNBOUND:                -0.135
REMARK SMILES O=C([O-])C=Cc1ccc(O)cc1
REMARK SMILES IDX 6 1 7 2 12 3 8 4 11 5 9 6 5 7 4 8 2 9 1 10 3 11 10 12
REMARK H PARENT 10 13
REMARK Flexibility Score: inf
ROOT
ATOM      1  C   UNL     1     -19.605  29.479  21.637  1.00  0.00    -0.025 A 
ATOM      2  C   UNL     1     -20.093  29.697  20.332  1.00  0.00     0.012 A 
ATOM      3  C   UNL     1     -19.364  28.161  22.058  1.00  0.00     0.012 A 
ATOM      4  C   UNL     1     -20.354  28.616  19.485  1.00  0.00     0.047 A 
ATOM      5  C   UNL     1     -19.628  27.082  21.209  1.00  0.00     0.047 A 
ATOM      6  C   UNL     1     -20.124  27.305  19.922  1.00  0.00     0.115 A 
ENDROOT
BRANCH   1   7
ATOM      7  C   UNL     1     -19.301  30.590  22.572  1.00  0.00     0.010 C 
ATOM      8  C   UNL     1     -20.043  31.702  22.675  1.00  0.00     0.025 C 
BRANCH   8   9
ATOM      9  C   UNL     1     -19.709  32.774  23.626  1.00  0.00     0.064 C 
ATOM     10  O   UNL     1     -18.516  32.925  23.997  1.00  0.00    -0.545 OA
ATOM     11  O   UNL     1     -20.691  33.622  24.125  1.00  0.00    -0.545 OA
ENDBRANCH   8   9
ENDBRANCH   1   7
BRANCH   6  12
ATOM     12  O   UNL     1     -20.382  26.221  19.087  1.00  0.00    -0.508 OA
ATOM     13  H   UNL     1     -21.294  26.084  18.664  1.00  0.00     0.293 HD
ENDBRANCH   6  12
TORSDOF 3
ENDMDL
MODEL 8
REMARK VINA RESULT:    -3.508     13.747     14.686
REMARK INTER + INTRA:          -4.156
REMARK INTER:                  -4.004
REMARK INTRA:                  -0.152
REMARK UNBOUND:                -0.135
REMARK SMILES O=C([O-])C=Cc1ccc(O)cc1
REMARK SMILES IDX 6 1 7 2 12 3 8 4 11 5 9 6 5 7 4 8 2 9 1 10 3 11 10 12
REMARK H PARENT 10 13
REMARK Flexibility Score: inf
ROOT
ATOM      1  C   UNL     1     -20.010  30.346  21.872  1.00  0.00    -0.025 A 
ATOM      2  C   UNL     1     -19.224  29.255  21.446  1.00  0.00     0.012 A 
ATOM      3  C   UNL     1     -19.612  31.060  23.015  1.00  0.00     0.012 A 
ATOM      4  C   UNL     1     -18.085  28.879  22.165  1.00  0.00     0.047 A 
ATOM      5  C   UNL     1     -18.474  30.681  23.733  1.00  0.00     0.047 A 
ATOM      6  C   UNL     1     -17.708  29.590  23.312  1.00  0.00     0.115 A 
ENDROOT
BRANCH   1   7
ATOM      7  C   UNL     1     -21.220  30.793  21.140  1.00  0.00     0.010 C 
ATOM      8  C   UNL     1     -22.066  31.726  21.598  1.00  0.00     0.025 C 
BRANCH   8   9
ATOM      9  C   UNL     1     -23.249  32.146  20.831  1.00  0.00     0.064 C 
ATOM     10  O   UNL     1     -24.125  31.296  20.525  1.00  0.00    -0.545 OA
ATOM     11  O   UNL     1     -23.414  33.469  20.433  1.00  0.00    -0.545 OA
ENDBRANCH   8   9
ENDBRANCH   1   7
BRANCH   6  12
ATOM     12  O   UNL     1     -16.577  29.224  24.037  1.00  0.00    -0.508 OA
ATOM     13  H   UNL     1     -15.887  28.586  23.654  1.00  0.00     0.293 HD
ENDBRANCH   6  12
TORSDOF 3
ENDMDL
