MODEL 1
REMARK VINA RESULT:    -6.086      0.000      0.000
REMARK INTER + INTRA:          -9.514
REMARK INTER:                  -8.577
REMARK INTRA:                  -0.937
REMARK UNBOUND:                -0.937
REMARK SMILES COc1c(O[C@H]2O[C@@H](C(=O)[O-])[C@H](O)[C@H](O)[C@H]2O)cc(O)c2c(=O)cc(-c3ccccc3)oc12
REMARK SMILES IDX 5 1 6 2 8 3 12 4 7 5 14 6 16 7 9 8 10 9 11 10 13 11 15 13
REMARK SMILES IDX 17 15 4 17 3 18 18 19 33 20 19 21 21 22 32 23 22 24 25 25
REMARK SMILES IDX 24 26 23 27 2 28 1 29 20 30 26 32 27 33 31 34 28 35 30 36
REMARK SMILES IDX 29 37
REMARK H PARENT 13 12 15 14 17 16 20 31
REMARK Flexibility Score: inf
ROOT
ATOM      1  O   UNL     1      36.060  22.515  29.167  1.00  0.00    -0.458 OA
ENDROOT
BRANCH   1   2
ATOM      2  C   UNL     1      36.963  23.238  28.327  1.00  0.00     0.339 C 
ATOM      3  C   UNL     1      37.091  21.591  26.601  1.00  0.00     0.199 C 
ATOM      4  C   UNL     1      36.256  22.467  25.629  1.00  0.00     0.180 C 
ATOM      5  O   UNL     1      37.795  22.359  27.573  1.00  0.00    -0.328 OA
ATOM      6  C   UNL     1      35.363  23.460  26.390  1.00  0.00     0.181 C 
ATOM      7  C   UNL     1      36.193  24.226  27.435  1.00  0.00     0.214 C 
BRANCH   3   8
ATOM      8  C   UNL     1      36.327  20.446  27.225  1.00  0.00     0.073 C 
ATOM      9  O   UNL     1      36.919  19.419  27.650  1.00  0.00    -0.547 OA
ATOM     10  O   UNL     1      34.941  20.521  27.326  1.00  0.00    -0.547 OA
ENDBRANCH   3   8
BRANCH   4  11
ATOM     11  O   UNL     1      37.082  23.147  24.713  1.00  0.00    -0.387 OA
ATOM     12  H   UNL     1      37.766  22.508  24.374  1.00  0.00     0.211 HD
ENDBRANCH   4  11
BRANCH   6  13
ATOM     13  O   UNL     1      34.776  24.348  25.474  1.00  0.00    -0.387 OA
ATOM     14  H   UNL     1      33.838  24.046  25.343  1.00  0.00     0.211 HD
ENDBRANCH   6  13
BRANCH   7  15
ATOM     15  O   UNL     1      35.358  25.017  28.242  1.00  0.00    -0.384 OA
ATOM     16  H   UNL     1      35.859  25.199  29.086  1.00  0.00     0.211 HD
ENDBRANCH   7  15
ENDBRANCH   1   2
BRANCH   1  17
ATOM     17  C   UNL     1      36.335  22.086  30.474  1.00  0.00     0.172 A 
ATOM     18  C   UNL     1      35.827  22.850  31.533  1.00  0.00     0.205 A 
ATOM     19  C   UNL     1      37.055  20.909  30.738  1.00  0.00     0.097 A 
ATOM     20  C   UNL     1      36.036  22.428  32.866  1.00  0.00     0.188 A 
ATOM     21  C   UNL     1      37.274  20.482  32.051  1.00  0.00     0.134 A 
ATOM     22  C   UNL     1      36.769  21.242  33.130  1.00  0.00     0.111 A 
ATOM     23  O   UNL     1      35.555  23.147  33.877  1.00  0.00    -0.452 OA
ATOM     24  C   UNL     1      36.960  20.872  34.477  1.00  0.00     0.197 A 
ATOM     25  C   UNL     1      35.722  22.828  35.156  1.00  0.00     0.138 A 
ATOM     26  C   UNL     1      36.436  21.672  35.493  1.00  0.00     0.100 A 
ATOM     27  O   UNL     1      37.595  19.828  34.789  1.00  0.00    -0.289 OA
BRANCH  18  28
ATOM     28  O   UNL     1      35.117  24.017  31.198  1.00  0.00    -0.490 OA
ATOM     29  C   UNL     1      35.626  25.346  31.302  1.00  0.00     0.278 C 
ENDBRANCH  18  28
BRANCH  21  30
ATOM     30  O   UNL     1      37.982  19.303  32.274  1.00  0.00    -0.507 OA
ATOM     31  H   UNL     1      38.833  19.082  31.769  1.00  0.00     0.293 HD
ENDBRANCH  21  30
BRANCH  25  32
ATOM     32  C   UNL     1      35.133  23.705  36.194  1.00  0.00     0.017 A 
ATOM     33  C   UNL     1      33.868  23.401  36.724  1.00  0.00     0.012 A 
ATOM     34  C   UNL     1      35.797  24.864  36.638  1.00  0.00     0.012 A 
ATOM     35  C   UNL     1      33.284  24.233  37.687  1.00  0.00     0.001 A 
ATOM     36  C   UNL     1      35.205  25.696  37.597  1.00  0.00     0.001 A 
ATOM     37  C   UNL     1      33.951  25.378  38.124  1.00  0.00     0.000 A 
ENDBRANCH  25  32
ENDBRANCH   1  17
TORSDOF 9
ENDMDL
MODEL 2
REMARK VINA RESULT:    -6.037      1.986      8.270
REMARK INTER + INTRA:          -9.444
REMARK INTER:                  -8.666
REMARK INTRA:                  -0.778
REMARK UNBOUND:                -0.937
REMARK SMILES COc1c(O[C@H]2O[C@@H](C(=O)[O-])[C@H](O)[C@H](O)[C@H]2O)cc(O)c2c(=O)cc(-c3ccccc3)oc12
REMARK SMILES IDX 5 1 6 2 8 3 12 4 7 5 14 6 16 7 9 8 10 9 11 10 13 11 15 13
REMARK SMILES IDX 17 15 4 17 3 18 18 19 33 20 19 21 21 22 32 23 22 24 25 25
REMARK SMILES IDX 24 26 23 27 2 28 1 29 20 30 26 32 27 33 31 34 28 35 30 36
REMARK SMILES IDX 29 37
REMARK H PARENT 13 12 15 14 17 16 20 31
REMARK Flexibility Score: inf
ROOT
ATOM      1  O   UNL     1      36.604  22.120  33.388  1.00  0.00    -0.458 OA
ENDROOT
BRANCH   1   2
ATOM      2  C   UNL     1      37.426  21.836  34.524  1.00  0.00     0.339 C 
ATOM      3  C   UNL     1      37.225  23.989  35.538  1.00  0.00     0.199 C 
ATOM      4  C   UNL     1      36.316  23.432  36.667  1.00  0.00     0.180 C 
ATOM      5  O   UNL     1      38.096  23.004  34.991  1.00  0.00    -0.328 OA
ATOM      6  C   UNL     1      35.593  22.149  36.228  1.00  0.00     0.181 C 
ATOM      7  C   UNL     1      36.600  21.153  35.627  1.00  0.00     0.214 C 
BRANCH   3   8
ATOM      8  C   UNL     1      36.487  24.757  34.464  1.00  0.00     0.073 C 
ATOM      9  O   UNL     1      35.257  24.579  34.260  1.00  0.00    -0.547 OA
ATOM     10  O   UNL     1      37.179  25.673  33.679  1.00  0.00    -0.547 OA
ENDBRANCH   3   8
BRANCH   4  11
ATOM     11  O   UNL     1      37.049  23.208  37.849  1.00  0.00    -0.387 OA
ATOM     12  H   UNL     1      36.511  22.620  38.444  1.00  0.00     0.211 HD
ENDBRANCH   4  11
BRANCH   6  13
ATOM     13  O   UNL     1      34.940  21.587  37.337  1.00  0.00    -0.387 OA
ATOM     14  H   UNL     1      34.232  20.988  36.978  1.00  0.00     0.211 HD
ENDBRANCH   6  13
BRANCH   7  15
ATOM     15  O   UNL     1      35.928  20.047  35.078  1.00  0.00    -0.384 OA
ATOM     16  H   UNL     1      34.975  20.117  35.363  1.00  0.00     0.211 HD
ENDBRANCH   7  15
ENDBRANCH   1   2
BRANCH   1  17
ATOM     17  C   UNL     1      36.672  21.457  32.153  1.00  0.00     0.172 A 
ATOM     18  C   UNL     1      36.081  22.078  31.045  1.00  0.00     0.205 A 
ATOM     19  C   UNL     1      37.345  20.234  31.998  1.00  0.00     0.097 A 
ATOM     20  C   UNL     1      36.170  21.472  29.771  1.00  0.00     0.188 A 
ATOM     21  C   UNL     1      37.437  19.620  30.746  1.00  0.00     0.134 A 
ATOM     22  C   UNL     1      36.845  20.233  29.619  1.00  0.00     0.111 A 
ATOM     23  O   UNL     1      35.612  22.056  28.714  1.00  0.00    -0.452 OA
ATOM     24  C   UNL     1      36.893  19.665  28.329  1.00  0.00     0.197 A 
ATOM     25  C   UNL     1      35.636  21.544  27.488  1.00  0.00     0.138 A 
ATOM     26  C   UNL     1      36.283  20.323  27.261  1.00  0.00     0.100 A 
ATOM     27  O   UNL     1      37.481  18.569  28.115  1.00  0.00    -0.289 OA
BRANCH  18  28
ATOM     28  O   UNL     1      35.422  23.300  31.271  1.00  0.00    -0.490 OA
ATOM     29  C   UNL     1      35.809  24.557  30.717  1.00  0.00     0.278 C 
ENDBRANCH  18  28
BRANCH  21  30
ATOM     30  O   UNL     1      38.123  18.413  30.628  1.00  0.00    -0.507 OA
ATOM     31  H   UNL     1      39.136  18.368  30.621  1.00  0.00     0.293 HD
ENDBRANCH  21  30
BRANCH  25  32
ATOM     32  C   UNL     1      34.985  22.291  26.388  1.00  0.00     0.017 A 
ATOM     33  C   UNL     1      33.611  22.116  26.147  1.00  0.00     0.012 A 
ATOM     34  C   UNL     1      35.720  23.145  25.545  1.00  0.00     0.012 A 
ATOM     35  C   UNL     1      32.984  22.793  25.095  1.00  0.00     0.001 A 
ATOM     36  C   UNL     1      35.088  23.815  24.489  1.00  0.00     0.001 A 
ATOM     37  C   UNL     1      33.721  23.643  24.267  1.00  0.00     0.000 A 
ENDBRANCH  25  32
ENDBRANCH   1  17
TORSDOF 9
ENDMDL
MODEL 3
REMARK VINA RESULT:    -5.977      1.930      8.109
REMARK INTER + INTRA:          -9.359
REMARK INTER:                  -8.741
REMARK INTRA:                  -0.618
REMARK UNBOUND:                -0.937
REMARK SMILES COc1c(O[C@H]2O[C@@H](C(=O)[O-])[C@H](O)[C@H](O)[C@H]2O)cc(O)c2c(=O)cc(-c3ccccc3)oc12
REMARK SMILES IDX 5 1 6 2 8 3 12 4 7 5 14 6 16 7 9 8 10 9 11 10 13 11 15 13
REMARK SMILES IDX 17 15 4 17 3 18 18 19 33 20 19 21 21 22 32 23 22 24 25 25
REMARK SMILES IDX 24 26 23 27 2 28 1 29 20 30 26 32 27 33 31 34 28 35 30 36
REMARK SMILES IDX 29 37
REMARK H PARENT 13 12 15 14 17 16 20 31
REMARK Flexibility Score: inf
ROOT
ATOM      1  O   UNL     1      36.586  22.585  33.438  1.00  0.00    -0.458 OA
ENDROOT
BRANCH   1   2
ATOM      2  C   UNL     1      35.460  23.279  33.982  1.00  0.00     0.339 C 
ATOM      3  C   UNL     1      35.488  22.196  36.111  1.00  0.00     0.199 C 
ATOM      4  C   UNL     1      36.003  23.479  36.816  1.00  0.00     0.180 C 
ATOM      5  O   UNL     1      34.753  22.474  34.922  1.00  0.00    -0.328 OA
ATOM      6  C   UNL     1      36.745  24.403  35.838  1.00  0.00     0.181 C 
ATOM      7  C   UNL     1      35.896  24.629  34.575  1.00  0.00     0.214 C 
BRANCH   3   8
ATOM      8  C   UNL     1      36.544  21.136  35.892  1.00  0.00     0.073 C 
ATOM      9  O   UNL     1      37.758  21.360  36.143  1.00  0.00    -0.547 OA
ATOM     10  O   UNL     1      36.172  19.890  35.398  1.00  0.00    -0.547 OA
ENDBRANCH   3   8
BRANCH   4  11
ATOM     11  O   UNL     1      34.952  24.172  37.449  1.00  0.00    -0.387 OA
ATOM     12  H   UNL     1      34.619  24.873  36.827  1.00  0.00     0.211 HD
ENDBRANCH   4  11
BRANCH   6  13
ATOM     13  O   UNL     1      37.023  25.623  36.475  1.00  0.00    -0.387 OA
ATOM     14  H   UNL     1      36.338  26.271  36.162  1.00  0.00     0.211 HD
ENDBRANCH   6  13
BRANCH   7  15
ATOM     15  O   UNL     1      36.631  25.337  33.609  1.00  0.00    -0.384 OA
ATOM     16  H   UNL     1      36.300  25.038  32.717  1.00  0.00     0.211 HD
ENDBRANCH   7  15
ENDBRANCH   1   2
BRANCH   1  17
ATOM     17  C   UNL     1      36.569  21.799  32.275  1.00  0.00     0.172 A 
ATOM     18  C   UNL     1      36.020  22.360  31.115  1.00  0.00     0.205 A 
ATOM     19  C   UNL     1      37.122  20.508  32.239  1.00  0.00     0.097 A 
ATOM     20  C   UNL     1      36.029  21.624  29.908  1.00  0.00     0.188 A 
ATOM     21  C   UNL     1      37.133  19.766  31.054  1.00  0.00     0.134 A 
ATOM     22  C   UNL     1      36.582  20.317  29.876  1.00  0.00     0.111 A 
ATOM     23  O   UNL     1      35.511  22.150  28.801  1.00  0.00    -0.452 OA
ATOM     24  C   UNL     1      36.555  19.621  28.650  1.00  0.00     0.197 A 
ATOM     25  C   UNL     1      35.466  21.519  27.634  1.00  0.00     0.138 A 
ATOM     26  C   UNL     1      35.990  20.225  27.526  1.00  0.00     0.100 A 
ATOM     27  O   UNL     1      37.033  18.458  28.543  1.00  0.00    -0.289 OA
BRANCH  18  28
ATOM     28  O   UNL     1      35.483  23.655  31.222  1.00  0.00    -0.490 OA
ATOM     29  C   UNL     1      35.869  24.773  30.423  1.00  0.00     0.278 C 
ENDBRANCH  18  28
BRANCH  21  30
ATOM     30  O   UNL     1      37.700  18.493  31.053  1.00  0.00    -0.507 OA
ATOM     31  H   UNL     1      38.589  18.299  31.503  1.00  0.00     0.293 HD
ENDBRANCH  21  30
BRANCH  25  32
ATOM     32  C   UNL     1      34.868  22.211  26.469  1.00  0.00     0.017 A 
ATOM     33  C   UNL     1      35.639  23.130  25.737  1.00  0.00     0.012 A 
ATOM     34  C   UNL     1      33.527  21.999  26.098  1.00  0.00     0.012 A 
ATOM     35  C   UNL     1      35.083  23.814  24.649  1.00  0.00     0.001 A 
ATOM     36  C   UNL     1      32.974  22.691  25.012  1.00  0.00     0.001 A 
ATOM     37  C   UNL     1      33.753  23.594  24.286  1.00  0.00     0.000 A 
ENDBRANCH  25  32
ENDBRANCH   1  17
TORSDOF 9
ENDMDL
MODEL 4
REMARK VINA RESULT:    -5.223      0.922      2.335
REMARK INTER + INTRA:          -8.297
REMARK INTER:                  -7.800
REMARK INTRA:                  -0.497
REMARK UNBOUND:                -0.937
REMARK SMILES COc1c(O[C@H]2O[C@@H](C(=O)[O-])[C@H](O)[C@H](O)[C@H]2O)cc(O)c2c(=O)cc(-c3ccccc3)oc12
REMARK SMILES IDX 5 1 6 2 8 3 12 4 7 5 14 6 16 7 9 8 10 9 11 10 13 11 15 13
REMARK SMILES IDX 17 15 4 17 3 18 18 19 33 20 19 21 21 22 32 23 22 24 25 25
REMARK SMILES IDX 24 26 23 27 2 28 1 29 20 30 26 32 27 33 31 34 28 35 30 36
REMARK SMILES IDX 29 37
REMARK H PARENT 13 12 15 14 17 16 20 31
REMARK Flexibility Score: inf
ROOT
ATOM      1  O   UNL     1      36.822  22.495  29.292  1.00  0.00    -0.458 OA
ENDROOT
BRANCH   1   2
ATOM      2  C   UNL     1      35.908  22.085  28.271  1.00  0.00     0.339 C 
ATOM      3  C   UNL     1      35.934  24.143  27.056  1.00  0.00     0.199 C 
ATOM      4  C   UNL     1      36.751  23.510  25.898  1.00  0.00     0.180 C 
ATOM      5  O   UNL     1      35.154  23.187  27.770  1.00  0.00    -0.328 OA
ATOM      6  C   UNL     1      37.558  22.293  26.375  1.00  0.00     0.181 C 
ATOM      7  C   UNL     1      36.650  21.328  27.157  1.00  0.00     0.214 C 
BRANCH   3   8
ATOM      8  C   UNL     1      36.741  25.024  27.982  1.00  0.00     0.073 C 
ATOM      9  O   UNL     1      36.190  25.911  28.687  1.00  0.00    -0.547 OA
ATOM     10  O   UNL     1      38.120  24.861  28.054  1.00  0.00    -0.547 OA
ENDBRANCH   3   8
BRANCH   4  11
ATOM     11  O   UNL     1      35.919  23.159  24.817  1.00  0.00    -0.387 OA
ATOM     12  H   UNL     1      36.254  23.619  24.001  1.00  0.00     0.211 HD
ENDBRANCH   4  11
BRANCH   6  13
ATOM     13  O   UNL     1      38.125  21.650  25.262  1.00  0.00    -0.387 OA
ATOM     14  H   UNL     1      37.373  21.405  24.660  1.00  0.00     0.211 HD
ENDBRANCH   6  13
BRANCH   7  15
ATOM     15  O   UNL     1      37.410  20.296  27.733  1.00  0.00    -0.384 OA
ATOM     16  H   UNL     1      36.764  19.665  28.160  1.00  0.00     0.211 HD
ENDBRANCH   7  15
ENDBRANCH   1   2
BRANCH   1  17
ATOM     17  C   UNL     1      36.858  21.985  30.599  1.00  0.00     0.172 A 
ATOM     18  C   UNL     1      36.323  22.775  31.624  1.00  0.00     0.205 A 
ATOM     19  C   UNL     1      37.365  20.707  30.887  1.00  0.00     0.097 A 
ATOM     20  C   UNL     1      36.292  22.280  32.947  1.00  0.00     0.188 A 
ATOM     21  C   UNL     1      37.345  20.206  32.192  1.00  0.00     0.134 A 
ATOM     22  C   UNL     1      36.811  20.992  33.238  1.00  0.00     0.111 A 
ATOM     23  O   UNL     1      35.785  23.025  33.927  1.00  0.00    -0.452 OA
ATOM     24  C   UNL     1      36.767  20.551  34.576  1.00  0.00     0.197 A 
ATOM     25  C   UNL     1      35.733  22.640  35.197  1.00  0.00     0.138 A 
ATOM     26  C   UNL     1      36.228  21.381  35.559  1.00  0.00     0.100 A 
ATOM     27  O   UNL     1      37.204  19.415  34.909  1.00  0.00    -0.289 OA
BRANCH  18  28
ATOM     28  O   UNL     1      35.834  24.044  31.265  1.00  0.00    -0.490 OA
ATOM     29  C   UNL     1      36.323  25.286  31.770  1.00  0.00     0.278 C 
ENDBRANCH  18  28
BRANCH  21  30
ATOM     30  O   UNL     1      37.846  18.929  32.439  1.00  0.00    -0.507 OA
ATOM     31  H   UNL     1      38.000  18.258  31.694  1.00  0.00     0.293 HD
ENDBRANCH  21  30
BRANCH  25  32
ATOM     32  C   UNL     1      35.139  23.555  36.199  1.00  0.00     0.017 A 
ATOM     33  C   UNL     1      33.859  23.285  36.712  1.00  0.00     0.012 A 
ATOM     34  C   UNL     1      35.810  24.717  36.621  1.00  0.00     0.012 A 
ATOM     35  C   UNL     1      33.270  24.152  37.640  1.00  0.00     0.001 A 
ATOM     36  C   UNL     1      35.213  25.585  37.544  1.00  0.00     0.001 A 
ATOM     37  C   UNL     1      33.946  25.301  38.056  1.00  0.00     0.000 A 
ENDBRANCH  25  32
ENDBRANCH   1  17
TORSDOF 9
ENDMDL
MODEL 5
REMARK VINA RESULT:    -5.209      2.275      8.754
REMARK INTER + INTRA:          -8.277
REMARK INTER:                  -7.117
REMARK INTRA:                  -1.160
REMARK UNBOUND:                -0.937
REMARK SMILES COc1c(O[C@H]2O[C@@H](C(=O)[O-])[C@H](O)[C@H](O)[C@H]2O)cc(O)c2c(=O)cc(-c3ccccc3)oc12
REMARK SMILES IDX 5 1 6 2 8 3 12 4 7 5 14 6 16 7 9 8 10 9 11 10 13 11 15 13
REMARK SMILES IDX 17 15 4 17 3 18 18 19 33 20 19 21 21 22 32 23 22 24 25 25
REMARK SMILES IDX 24 26 23 27 2 28 1 29 20 30 26 32 27 33 31 34 28 35 30 36
REMARK SMILES IDX 29 37
REMARK H PARENT 13 12 15 14 17 16 20 31
REMARK Flexibility Score: inf
ROOT
ATOM      1  O   UNL     1      36.460  22.782  34.028  1.00  0.00    -0.458 OA
ENDROOT
BRANCH   1   2
ATOM      2  C   UNL     1      37.435  22.298  34.955  1.00  0.00     0.339 C 
ATOM      3  C   UNL     1      36.155  22.721  36.927  1.00  0.00     0.199 C 
ATOM      4  C   UNL     1      35.901  21.206  37.151  1.00  0.00     0.180 C 
ATOM      5  O   UNL     1      37.355  22.980  36.203  1.00  0.00    -0.328 OA
ATOM      6  C   UNL     1      36.011  20.414  35.839  1.00  0.00     0.181 C 
ATOM      7  C   UNL     1      37.317  20.772  35.111  1.00  0.00     0.214 C 
BRANCH   3   8
ATOM      8  C   UNL     1      34.974  23.474  36.359  1.00  0.00     0.073 C 
ATOM      9  O   UNL     1      33.909  22.880  36.042  1.00  0.00    -0.547 OA
ATOM     10  O   UNL     1      35.063  24.850  36.175  1.00  0.00    -0.547 OA
ENDBRANCH   3   8
BRANCH   4  11
ATOM     11  O   UNL     1      36.777  20.679  38.121  1.00  0.00    -0.387 OA
ATOM     12  H   UNL     1      36.376  20.826  39.019  1.00  0.00     0.211 HD
ENDBRANCH   4  11
BRANCH   6  13
ATOM     13  O   UNL     1      35.961  19.040  36.124  1.00  0.00    -0.387 OA
ATOM     14  H   UNL     1      36.542  18.891  36.916  1.00  0.00     0.211 HD
ENDBRANCH   6  13
BRANCH   7  15
ATOM     15  O   UNL     1      37.350  20.178  33.838  1.00  0.00    -0.384 OA
ATOM     16  H   UNL     1      38.021  20.684  33.300  1.00  0.00     0.211 HD
ENDBRANCH   7  15
ENDBRANCH   1   2
BRANCH   1  17
ATOM     17  C   UNL     1      36.706  23.707  33.001  1.00  0.00     0.172 A 
ATOM     18  C   UNL     1      36.394  23.326  31.690  1.00  0.00     0.205 A 
ATOM     19  C   UNL     1      37.204  24.994  33.260  1.00  0.00     0.097 A 
ATOM     20  C   UNL     1      36.577  24.244  30.631  1.00  0.00     0.188 A 
ATOM     21  C   UNL     1      37.395  25.911  32.223  1.00  0.00     0.134 A 
ATOM     22  C   UNL     1      37.087  25.542  30.894  1.00  0.00     0.111 A 
ATOM     23  O   UNL     1      36.283  23.890  29.382  1.00  0.00    -0.452 OA
ATOM     24  C   UNL     1      37.263  26.414  29.800  1.00  0.00     0.197 A 
ATOM     25  C   UNL     1      36.442  24.687  28.331  1.00  0.00     0.138 A 
ATOM     26  C   UNL     1      36.941  25.982  28.514  1.00  0.00     0.100 A 
ATOM     27  O   UNL     1      37.705  27.586  29.958  1.00  0.00    -0.289 OA
BRANCH  18  28
ATOM     28  O   UNL     1      35.901  22.022  31.501  1.00  0.00    -0.490 OA
ATOM     29  C   UNL     1      36.506  21.027  30.677  1.00  0.00     0.278 C 
ENDBRANCH  18  28
BRANCH  21  30
ATOM     30  O   UNL     1      37.879  27.184  32.519  1.00  0.00    -0.507 OA
ATOM     31  H   UNL     1      38.337  27.394  33.399  1.00  0.00     0.293 HD
ENDBRANCH  21  30
BRANCH  25  32
ATOM     32  C   UNL     1      36.072  24.182  26.989  1.00  0.00     0.017 A 
ATOM     33  C   UNL     1      37.060  24.055  25.998  1.00  0.00     0.012 A 
ATOM     34  C   UNL     1      34.739  23.864  26.666  1.00  0.00     0.012 A 
ATOM     35  C   UNL     1      36.724  23.606  24.715  1.00  0.00     0.001 A 
ATOM     36  C   UNL     1      34.408  23.421  25.379  1.00  0.00     0.001 A 
ATOM     37  C   UNL     1      35.400  23.288  24.406  1.00  0.00     0.000 A 
ENDBRANCH  25  32
ENDBRANCH   1  17
TORSDOF 9
ENDMDL
MODEL 6
REMARK VINA RESULT:    -4.875      2.386      8.728
REMARK INTER + INTRA:          -7.807
REMARK INTER:                  -8.114
REMARK INTRA:                   0.307
REMARK UNBOUND:                -0.937
REMARK SMILES COc1c(O[C@H]2O[C@@H](C(=O)[O-])[C@H](O)[C@H](O)[C@H]2O)cc(O)c2c(=O)cc(-c3ccccc3)oc12
REMARK SMILES IDX 5 1 6 2 8 3 12 4 7 5 14 6 16 7 9 8 10 9 11 10 13 11 15 13
REMARK SMILES IDX 17 15 4 17 3 18 18 19 33 20 19 21 21 22 32 23 22 24 25 25
REMARK SMILES IDX 24 26 23 27 2 28 1 29 20 30 26 32 27 33 31 34 28 35 30 36
REMARK SMILES IDX 29 37
REMARK H PARENT 13 12 15 14 17 16 20 31
REMARK Flexibility Score: inf
ROOT
ATOM      1  O   UNL     1      35.922  24.070  34.814  1.00  0.00    -0.458 OA
ENDROOT
BRANCH   1   2
ATOM      2  C   UNL     1      35.205  22.915  35.258  1.00  0.00     0.339 C 
ATOM      3  C   UNL     1      35.107  23.539  37.562  1.00  0.00     0.199 C 
ATOM      4  C   UNL     1      33.588  23.845  37.469  1.00  0.00     0.180 C 
ATOM      5  O   UNL     1      35.538  22.578  36.602  1.00  0.00    -0.328 OA
ATOM      6  C   UNL     1      33.167  24.182  36.031  1.00  0.00     0.181 C 
ATOM      7  C   UNL     1      33.693  23.112  35.059  1.00  0.00     0.214 C 
BRANCH   3   8
ATOM      8  C   UNL     1      35.992  24.764  37.577  1.00  0.00     0.073 C 
ATOM      9  O   UNL     1      35.505  25.924  37.502  1.00  0.00    -0.547 OA
ATOM     10  O   UNL     1      37.372  24.612  37.668  1.00  0.00    -0.547 OA
ENDBRANCH   3   8
BRANCH   4  11
ATOM     11  O   UNL     1      32.820  22.777  37.972  1.00  0.00    -0.387 OA
ATOM     12  H   UNL     1      32.010  22.678  37.402  1.00  0.00     0.211 HD
ENDBRANCH   4  11
BRANCH   6  13
ATOM     13  O   UNL     1      31.766  24.264  35.968  1.00  0.00    -0.387 OA
ATOM     14  H   UNL     1      31.512  25.139  36.366  1.00  0.00     0.211 HD
ENDBRANCH   6  13
BRANCH   7  15
ATOM     15  O   UNL     1      33.452  23.495  33.729  1.00  0.00    -0.384 OA
ATOM     16  H   UNL     1      34.269  23.257  33.207  1.00  0.00     0.211 HD
ENDBRANCH   7  15
ENDBRANCH   1   2
BRANCH   1  17
ATOM     17  C   UNL     1      36.382  24.285  33.505  1.00  0.00     0.172 A 
ATOM     18  C   UNL     1      36.536  23.167  32.674  1.00  0.00     0.205 A 
ATOM     19  C   UNL     1      36.639  25.573  33.007  1.00  0.00     0.097 A 
ATOM     20  C   UNL     1      36.946  23.342  31.333  1.00  0.00     0.188 A 
ATOM     21  C   UNL     1      37.051  25.760  31.684  1.00  0.00     0.134 A 
ATOM     22  C   UNL     1      37.213  24.643  30.834  1.00  0.00     0.111 A 
ATOM     23  O   UNL     1      37.095  22.286  30.538  1.00  0.00    -0.452 OA
ATOM     24  C   UNL     1      37.631  24.761  29.493  1.00  0.00     0.197 A 
ATOM     25  C   UNL     1      37.492  22.363  29.273  1.00  0.00     0.138 A 
ATOM     26  C   UNL     1      37.774  23.614  28.711  1.00  0.00     0.100 A 
ATOM     27  O   UNL     1      37.880  25.885  28.978  1.00  0.00    -0.289 OA
BRANCH  18  28
ATOM     28  O   UNL     1      36.262  21.908  33.238  1.00  0.00    -0.490 OA
ATOM     29  C   UNL     1      37.152  20.793  33.226  1.00  0.00     0.278 C 
ENDBRANCH  18  28
BRANCH  21  30
ATOM     30  O   UNL     1      37.286  27.053  31.221  1.00  0.00    -0.507 OA
ATOM     31  H   UNL     1      36.750  27.849  31.551  1.00  0.00     0.293 HD
ENDBRANCH  21  30
BRANCH  25  32
ATOM     32  C   UNL     1      37.613  21.116  28.483  1.00  0.00     0.017 A 
ATOM     33  C   UNL     1      37.396  19.875  29.106  1.00  0.00     0.012 A 
ATOM     34  C   UNL     1      37.984  21.140  27.125  1.00  0.00     0.012 A 
ATOM     35  C   UNL     1      37.533  18.684  28.383  1.00  0.00     0.001 A 
ATOM     36  C   UNL     1      38.125  19.945  26.408  1.00  0.00     0.001 A 
ATOM     37  C   UNL     1      37.895  18.719  27.035  1.00  0.00     0.000 A 
ENDBRANCH  25  32
ENDBRANCH   1  17
TORSDOF 9
ENDMDL
MODEL 7
REMARK VINA RESULT:    -3.547      2.041      3.918
REMARK INTER + INTRA:          -5.935
REMARK INTER:                  -6.838
REMARK INTRA:                   0.902
REMARK UNBOUND:                -0.937
REMARK SMILES COc1c(O[C@H]2O[C@@H](C(=O)[O-])[C@H](O)[C@H](O)[C@H]2O)cc(O)c2c(=O)cc(-c3ccccc3)oc12
REMARK SMILES IDX 5 1 6 2 8 3 12 4 7 5 14 6 16 7 9 8 10 9 11 10 13 11 15 13
REMARK SMILES IDX 17 15 4 17 3 18 18 19 33 20 19 21 21 22 32 23 22 24 25 25
REMARK SMILES IDX 24 26 23 27 2 28 1 29 20 30 26 32 27 33 31 34 28 35 30 36
REMARK SMILES IDX 29 37
REMARK H PARENT 13 12 15 14 17 16 20 31
REMARK Flexibility Score: inf
ROOT
ATOM      1  O   UNL     1      36.134  21.738  28.594  1.00  0.00    -0.458 OA
ENDROOT
BRANCH   1   2
ATOM      2  C   UNL     1      37.334  21.797  27.818  1.00  0.00     0.339 C 
ATOM      3  C   UNL     1      36.276  22.322  25.741  1.00  0.00     0.199 C 
ATOM      4  C   UNL     1      36.807  23.780  25.778  1.00  0.00     0.180 C 
ATOM      5  O   UNL     1      37.101  21.413  26.465  1.00  0.00    -0.328 OA
ATOM      6  C   UNL     1      37.109  24.235  27.215  1.00  0.00     0.181 C 
ATOM      7  C   UNL     1      37.979  23.188  27.931  1.00  0.00     0.214 C 
BRANCH   3   8
ATOM      8  C   UNL     1      34.816  22.180  26.106  1.00  0.00     0.073 C 
ATOM      9  O   UNL     1      34.045  23.176  26.122  1.00  0.00    -0.547 OA
ATOM     10  O   UNL     1      34.312  20.926  26.438  1.00  0.00    -0.547 OA
ENDBRANCH   3   8
BRANCH   4  11
ATOM     11  O   UNL     1      37.946  23.931  24.963  1.00  0.00    -0.387 OA
ATOM     12  H   UNL     1      37.692  24.468  24.165  1.00  0.00     0.211 HD
ENDBRANCH   4  11
BRANCH   6  13
ATOM     13  O   UNL     1      37.758  25.480  27.178  1.00  0.00    -0.387 OA
ATOM     14  H   UNL     1      37.173  26.123  27.659  1.00  0.00     0.211 HD
ENDBRANCH   6  13
BRANCH   7  15
ATOM     15  O   UNL     1      38.124  23.516  29.290  1.00  0.00    -0.384 OA
ATOM     16  H   UNL     1      37.795  24.452  29.398  1.00  0.00     0.211 HD
ENDBRANCH   7  15
ENDBRANCH   1   2
BRANCH   1  17
ATOM     17  C   UNL     1      36.007  22.169  29.924  1.00  0.00     0.172 A 
ATOM     18  C   UNL     1      36.350  21.267  30.939  1.00  0.00     0.205 A 
ATOM     19  C   UNL     1      35.596  23.472  30.249  1.00  0.00     0.097 A 
ATOM     20  C   UNL     1      36.287  21.676  32.291  1.00  0.00     0.188 A 
ATOM     21  C   UNL     1      35.524  23.889  31.582  1.00  0.00     0.134 A 
ATOM     22  C   UNL     1      35.865  22.991  32.617  1.00  0.00     0.111 A 
ATOM     23  O   UNL     1      36.613  20.826  33.261  1.00  0.00    -0.452 OA
ATOM     24  C   UNL     1      35.808  23.343  33.982  1.00  0.00     0.197 A 
ATOM     25  C   UNL     1      36.564  21.125  34.554  1.00  0.00     0.138 A 
ATOM     26  C   UNL     1      36.156  22.404  34.953  1.00  0.00     0.100 A 
ATOM     27  O   UNL     1      35.449  24.496  34.348  1.00  0.00    -0.289 OA
BRANCH  18  28
ATOM     28  O   UNL     1      36.752  19.979  30.542  1.00  0.00    -0.490 OA
ATOM     29  C   UNL     1      38.101  19.568  30.331  1.00  0.00     0.278 C 
ENDBRANCH  18  28
BRANCH  21  30
ATOM     30  O   UNL     1      35.123  25.193  31.867  1.00  0.00    -0.507 OA
ATOM     31  H   UNL     1      35.462  25.988  31.336  1.00  0.00     0.293 HD
ENDBRANCH  21  30
BRANCH  25  32
ATOM     32  C   UNL     1      36.958  20.096  35.543  1.00  0.00     0.017 A 
ATOM     33  C   UNL     1      36.585  20.247  36.889  1.00  0.00     0.012 A 
ATOM     34  C   UNL     1      37.736  18.983  35.173  1.00  0.00     0.012 A 
ATOM     35  C   UNL     1      36.971  19.298  37.843  1.00  0.00     0.001 A 
ATOM     36  C   UNL     1      38.125  18.039  36.132  1.00  0.00     0.001 A 
ATOM     37  C   UNL     1      37.739  18.194  37.466  1.00  0.00     0.000 A 
ENDBRANCH  25  32
ENDBRANCH   1  17
TORSDOF 9
ENDMDL
MODEL 8
REMARK VINA RESULT:    -3.527      3.195      7.913
REMARK INTER + INTRA:          -5.907
REMARK INTER:                  -5.618
REMARK INTRA:                  -0.289
REMARK UNBOUND:                -0.937
REMARK SMILES COc1c(O[C@H]2O[C@@H](C(=O)[O-])[C@H](O)[C@H](O)[C@H]2O)cc(O)c2c(=O)cc(-c3ccccc3)oc12
REMARK SMILES IDX 5 1 6 2 8 3 12 4 7 5 14 6 16 7 9 8 10 9 11 10 13 11 15 13
REMARK SMILES IDX 17 15 4 17 3 18 18 19 33 20 19 21 21 22 32 23 22 24 25 25
REMARK SMILES IDX 24 26 23 27 2 28 1 29 20 30 26 32 27 33 31 34 28 35 30 36
REMARK SMILES IDX 29 37
REMARK H PARENT 13 12 15 14 17 16 20 31
REMARK Flexibility Score: inf
ROOT
ATOM      1  O   UNL     1      36.615  22.702  33.459  1.00  0.00    -0.458 OA
ENDROOT
BRANCH   1   2
ATOM      2  C   UNL     1      37.629  22.356  34.407  1.00  0.00     0.339 C 
ATOM      3  C   UNL     1      36.324  22.803  36.358  1.00  0.00     0.199 C 
ATOM      4  C   UNL     1      36.192  21.290  36.681  1.00  0.00     0.180 C 
ATOM      5  O   UNL     1      37.498  23.109  35.611  1.00  0.00    -0.328 OA
ATOM      6  C   UNL     1      36.360  20.427  35.421  1.00  0.00     0.181 C 
ATOM      7  C   UNL     1      37.632  20.840  34.661  1.00  0.00     0.214 C 
BRANCH   3   8
ATOM      8  C   UNL     1      35.086  23.423  35.753  1.00  0.00     0.073 C 
ATOM      9  O   UNL     1      34.846  24.654  35.871  1.00  0.00    -0.547 OA
ATOM     10  O   UNL     1      34.188  22.621  35.056  1.00  0.00    -0.547 OA
ENDBRANCH   3   8
BRANCH   4  11
ATOM     11  O   UNL     1      37.109  20.897  37.675  1.00  0.00    -0.387 OA
ATOM     12  H   UNL     1      36.635  20.311  38.325  1.00  0.00     0.211 HD
ENDBRANCH   4  11
BRANCH   6  13
ATOM     13  O   UNL     1      36.420  19.074  35.793  1.00  0.00    -0.387 OA
ATOM     14  H   UNL     1      36.383  19.049  36.786  1.00  0.00     0.211 HD
ENDBRANCH   6  13
BRANCH   7  15
ATOM     15  O   UNL     1      37.708  20.169  33.429  1.00  0.00    -0.384 OA
ATOM     16  H   UNL     1      37.288  19.274  33.560  1.00  0.00     0.211 HD
ENDBRANCH   7  15
ENDBRANCH   1   2
BRANCH   1  17
ATOM     17  C   UNL     1      36.820  23.456  32.293  1.00  0.00     0.172 A 
ATOM     18  C   UNL     1      36.972  24.842  32.430  1.00  0.00     0.205 A 
ATOM     19  C   UNL     1      36.920  22.859  31.026  1.00  0.00     0.097 A 
ATOM     20  C   UNL     1      37.231  25.635  31.289  1.00  0.00     0.188 A 
ATOM     21  C   UNL     1      37.171  23.631  29.888  1.00  0.00     0.134 A 
ATOM     22  C   UNL     1      37.325  25.030  30.008  1.00  0.00     0.111 A 
ATOM     23  O   UNL     1      37.377  26.952  31.410  1.00  0.00    -0.452 OA
ATOM     24  C   UNL     1      37.572  25.868  28.901  1.00  0.00     0.197 A 
ATOM     25  C   UNL     1      37.606  27.768  30.387  1.00  0.00     0.138 A 
ATOM     26  C   UNL     1      37.709  27.242  29.093  1.00  0.00     0.100 A 
ATOM     27  O   UNL     1      37.674  25.401  27.734  1.00  0.00    -0.289 OA
BRANCH  18  28
ATOM     28  O   UNL     1      36.859  25.374  33.727  1.00  0.00    -0.490 OA
ATOM     29  C   UNL     1      37.946  25.854  34.515  1.00  0.00     0.278 C 
ENDBRANCH  18  28
BRANCH  21  30
ATOM     30  O   UNL     1      37.275  23.002  28.648  1.00  0.00    -0.507 OA
ATOM     31  H   UNL     1      38.070  23.150  28.035  1.00  0.00     0.293 HD
ENDBRANCH  21  30
BRANCH  25  32
ATOM     32  C   UNL     1      37.758  29.217  30.648  1.00  0.00     0.017 A 
ATOM     33  C   UNL     1      37.952  30.100  29.572  1.00  0.00     0.012 A 
ATOM     34  C   UNL     1      37.753  29.731  31.958  1.00  0.00     0.012 A 
ATOM     35  C   UNL     1      38.125  31.470  29.801  1.00  0.00     0.001 A 
ATOM     36  C   UNL     1      37.932  31.103  32.182  1.00  0.00     0.001 A 
ATOM     37  C   UNL     1      38.113  31.972  31.104  1.00  0.00     0.000 A 
ENDBRANCH  25  32
ENDBRANCH   1  17
TORSDOF 9
ENDMDL
