MODEL 1
REMARK VINA RESULT:    23.014      0.000      0.000
REMARK INTER + INTRA:          23.687
REMARK INTER:                  23.687
REMARK INTRA:                   0.000
REMARK UNBOUND:                 0.000
REMARK SMILES C=C1[C@H]2C[C@@]3(C[C@@H]1O)[C@H](CC[C@@H]3C)C2(C)C
REMARK SMILES IDX 13 1 12 2 11 3 10 4 9 5 5 6 4 7 3 8 14 9 15 10 16 11 2 12
REMARK SMILES IDX 1 13 7 14 6 15 8 16
REMARK H PARENT 8 17
REMARK Flexibility Score: inf
ROOT
ATOM      1  C   UNL     1     -32.979  23.707   6.181  1.00  0.00     0.008 C 
ATOM      2  C   UNL     1     -34.330  24.369   5.847  1.00  0.00    -0.008 C 
ATOM      3  C   UNL     1     -34.505  24.466   4.330  1.00  0.00     0.004 C 
ATOM      4  C   UNL     1     -35.201  23.179   3.911  1.00  0.00     0.005 C 
ATOM      5  C   UNL     1     -36.049  22.723   5.117  1.00  0.00     0.002 C 
ATOM      6  C   UNL     1     -35.573  23.569   6.325  1.00  0.00    -0.020 C 
ATOM      7  C   UNL     1     -36.749  24.505   6.634  1.00  0.00     0.016 C 
ATOM      8  C   UNL     1     -37.934  23.586   6.414  1.00  0.00     0.023 C 
ATOM      9  C   UNL     1     -37.607  22.913   5.049  1.00  0.00    -0.025 C 
ATOM     10  C   UNL     1     -38.093  23.845   3.903  1.00  0.00     0.012 C 
ATOM     11  C   UNL     1     -38.333  21.558   4.863  1.00  0.00     0.012 C 
ATOM     12  C   UNL     1     -37.953  22.595   7.578  1.00  0.00    -0.045 C 
ATOM     13  C   UNL     1     -39.124  22.234   8.125  1.00  0.00     0.011 C 
ATOM     14  C   UNL     1     -36.652  21.968   8.089  1.00  0.00     0.140 C 
ATOM     15  C   UNL     1     -35.361  22.687   7.593  1.00  0.00     0.044 C 
ENDROOT
BRANCH  14  16
ATOM     16  O   UNL     1     -36.597  20.616   7.712  1.00  0.00    -0.389 OA
ATOM     17  H   UNL     1     -37.509  20.240   7.830  1.00  0.00     0.211 HD
ENDBRANCH  14  16
TORSDOF 1
ENDMDL
