MODEL 1
REMARK VINA RESULT:    -4.578      0.000      0.000
REMARK INTER + INTRA:          -7.218
REMARK INTER:                  -5.649
REMARK INTRA:                  -1.569
REMARK UNBOUND:                -1.569
REMARK SMILES CC(C)=CCC[C@H](C)c1ccc(C)cc1
REMARK SMILES IDX 6 1 7 2 8 3 9 4 13 5 12 6 11 7 14 8 10 9 15 10 5 11 4 12
REMARK SMILES IDX 2 13 1 14 3 15
REMARK H PARENT
REMARK Flexibility Score: inf
ROOT
ATOM      1  C   UNL     1     127.110 145.806 106.390  1.00  0.00     0.012 C 
ENDROOT
BRANCH   1   2
ATOM      2  C   UNL     1     127.767 144.674 105.560  1.00  0.00     0.016 C 
ATOM      3  C   UNL     1     127.216 143.286 105.922  1.00  0.00     0.013 C 
BRANCH   2   4
ATOM      4  C   UNL     1     129.275 144.708 105.734  1.00  0.00    -0.045 A 
ATOM      5  C   UNL     1     133.565 144.841 106.228  1.00  0.00     0.044 C 
ATOM      6  C   UNL     1     132.072 144.793 106.087  1.00  0.00    -0.051 A 
ATOM      7  C   UNL     1     131.328 145.980 106.044  1.00  0.00     0.004 A 
ATOM      8  C   UNL     1     131.417 143.564 105.931  1.00  0.00     0.004 A 
ATOM      9  C   UNL     1     129.941 145.939 105.876  1.00  0.00     0.004 A 
ATOM     10  C   UNL     1     130.029 143.520 105.763  1.00  0.00     0.004 A 
ENDBRANCH   2   4
ENDBRANCH   1   2
BRANCH   1  11
ATOM     11  C   UNL     1     126.903 145.462 107.876  1.00  0.00     0.028 C 
BRANCH  11  12
ATOM     12  C   UNL     1     127.981 146.050 108.758  1.00  0.00    -0.028 C 
ATOM     13  C   UNL     1     128.938 145.332 109.385  1.00  0.00    -0.080 C 
ATOM     14  C   UNL     1     129.968 146.070 110.200  1.00  0.00     0.039 C 
ATOM     15  C   UNL     1     128.989 143.825 109.310  1.00  0.00     0.039 C 
ENDBRANCH  11  12
ENDBRANCH   1  11
TORSDOF 4
ENDMDL
MODEL 2
REMARK VINA RESULT:    -4.514      1.995      3.180
REMARK INTER + INTRA:          -7.138
REMARK INTER:                  -5.725
REMARK INTRA:                  -1.413
REMARK UNBOUND:                -1.569
REMARK SMILES CC(C)=CCC[C@H](C)c1ccc(C)cc1
REMARK SMILES IDX 6 1 7 2 8 3 9 4 13 5 12 6 11 7 14 8 10 9 15 10 5 11 4 12
REMARK SMILES IDX 2 13 1 14 3 15
REMARK H PARENT
REMARK Flexibility Score: inf
ROOT
ATOM      1  C   UNL     1     126.876 145.939 107.200  1.00  0.00     0.012 C 
ENDROOT
BRANCH   1   2
ATOM      2  C   UNL     1     127.678 145.506 105.947  1.00  0.00     0.016 C 
ATOM      3  C   UNL     1     126.905 145.751 104.643  1.00  0.00     0.013 C 
BRANCH   2   4
ATOM      4  C   UNL     1     128.077 144.045 106.061  1.00  0.00    -0.045 A 
ATOM      5  C   UNL     1     129.175 139.881 106.399  1.00  0.00     0.044 C 
ATOM      6  C   UNL     1     128.784 141.322 106.253  1.00  0.00    -0.051 A 
ATOM      7  C   UNL     1     127.494 141.744 106.602  1.00  0.00     0.004 A 
ATOM      8  C   UNL     1     129.727 142.269 105.828  1.00  0.00     0.004 A 
ATOM      9  C   UNL     1     127.140 143.092 106.501  1.00  0.00     0.004 A 
ATOM     10  C   UNL     1     129.374 143.618 105.726  1.00  0.00     0.004 A 
ENDBRANCH   2   4
ENDBRANCH   1   2
BRANCH   1  11
ATOM     11  C   UNL     1     127.742 146.195 108.447  1.00  0.00     0.028 C 
BRANCH  11  12
ATOM     12  C   UNL     1     127.328 145.337 109.621  1.00  0.00    -0.028 C 
ATOM     13  C   UNL     1     128.047 144.301 110.108  1.00  0.00    -0.080 C 
ATOM     14  C   UNL     1     127.517 143.565 111.311  1.00  0.00     0.039 C 
ATOM     15  C   UNL     1     129.340 143.852 109.471  1.00  0.00     0.039 C 
ENDBRANCH  11  12
ENDBRANCH   1  11
TORSDOF 4
ENDMDL
MODEL 3
REMARK VINA RESULT:    -4.464      1.582      3.365
REMARK INTER + INTRA:          -7.076
REMARK INTER:                  -5.523
REMARK INTRA:                  -1.553
REMARK UNBOUND:                -1.569
REMARK SMILES CC(C)=CCC[C@H](C)c1ccc(C)cc1
REMARK SMILES IDX 6 1 7 2 8 3 9 4 13 5 12 6 11 7 14 8 10 9 15 10 5 11 4 12
REMARK SMILES IDX 2 13 1 14 3 15
REMARK H PARENT
REMARK Flexibility Score: inf
ROOT
ATOM      1  C   UNL     1     127.240 143.621 106.699  1.00  0.00     0.012 C 
ENDROOT
BRANCH   1   2
ATOM      2  C   UNL     1     127.546 145.123 106.474  1.00  0.00     0.016 C 
ATOM      3  C   UNL     1     127.206 145.584 105.048  1.00  0.00     0.013 C 
BRANCH   2   4
ATOM      4  C   UNL     1     129.003 145.412 106.792  1.00  0.00    -0.045 A 
ATOM      5  C   UNL     1     133.140 146.223 107.730  1.00  0.00     0.044 C 
ATOM      6  C   UNL     1     131.712 145.913 107.395  1.00  0.00    -0.051 A 
ATOM      7  C   UNL     1     130.856 145.383 108.371  1.00  0.00     0.004 A 
ATOM      8  C   UNL     1     131.204 146.213 106.123  1.00  0.00     0.004 A 
ATOM      9  C   UNL     1     129.515 145.128 108.071  1.00  0.00     0.004 A 
ATOM     10  C   UNL     1     129.863 145.957 105.821  1.00  0.00     0.004 A 
ENDBRANCH   2   4
ENDBRANCH   1   2
BRANCH   1  11
ATOM     11  C   UNL     1     127.968 142.675 105.728  1.00  0.00     0.028 C 
BRANCH  11  12
ATOM     12  C   UNL     1     128.931 141.752 106.438  1.00  0.00    -0.028 C 
ATOM     13  C   UNL     1     130.268 141.736 106.241  1.00  0.00    -0.080 C 
ATOM     14  C   UNL     1     131.100 140.780 107.055  1.00  0.00     0.039 C 
ATOM     15  C   UNL     1     130.940 142.623 105.220  1.00  0.00     0.039 C 
ENDBRANCH  11  12
ENDBRANCH   1  11
TORSDOF 4
ENDMDL
MODEL 4
REMARK VINA RESULT:    -4.402      1.654      4.536
REMARK INTER + INTRA:          -7.000
REMARK INTER:                  -5.505
REMARK INTRA:                  -1.495
REMARK UNBOUND:                -1.569
REMARK SMILES CC(C)=CCC[C@H](C)c1ccc(C)cc1
REMARK SMILES IDX 6 1 7 2 8 3 9 4 13 5 12 6 11 7 14 8 10 9 15 10 5 11 4 12
REMARK SMILES IDX 2 13 1 14 3 15
REMARK H PARENT
REMARK Flexibility Score: inf
ROOT
ATOM      1  C   UNL     1     127.356 145.300 105.435  1.00  0.00     0.012 C 
ENDROOT
BRANCH   1   2
ATOM      2  C   UNL     1     128.451 145.931 106.332  1.00  0.00     0.016 C 
ATOM      3  C   UNL     1     129.870 145.609 105.839  1.00  0.00     0.013 C 
BRANCH   2   4
ATOM      4  C   UNL     1     128.274 145.477 107.770  1.00  0.00    -0.045 A 
ATOM      5  C   UNL     1     127.734 144.200 111.862  1.00  0.00     0.044 C 
ATOM      6  C   UNL     1     127.911 144.615 110.432  1.00  0.00    -0.051 A 
ATOM      7  C   UNL     1     126.875 145.273 109.753  1.00  0.00     0.004 A 
ATOM      8  C   UNL     1     129.137 144.409 109.783  1.00  0.00     0.004 A 
ATOM      9  C   UNL     1     127.051 145.693 108.432  1.00  0.00     0.004 A 
ATOM     10  C   UNL     1     129.315 144.829 108.461  1.00  0.00     0.004 A 
ENDBRANCH   2   4
ENDBRANCH   1   2
BRANCH   1  11
ATOM     11  C   UNL     1     127.697 143.891 104.919  1.00  0.00     0.028 C 
BRANCH  11  12
ATOM     12  C   UNL     1     127.304 142.808 105.898  1.00  0.00    -0.028 C 
ATOM     13  C   UNL     1     128.166 141.941 106.473  1.00  0.00    -0.080 C 
ATOM     14  C   UNL     1     127.624 140.941 107.461  1.00  0.00     0.039 C 
ATOM     15  C   UNL     1     129.638 141.931 106.137  1.00  0.00     0.039 C 
ENDBRANCH  11  12
ENDBRANCH   1  11
TORSDOF 4
ENDMDL
MODEL 5
REMARK VINA RESULT:    -4.309      1.900      3.751
REMARK INTER + INTRA:          -6.886
REMARK INTER:                  -5.426
REMARK INTRA:                  -1.460
REMARK UNBOUND:                -1.569
REMARK SMILES CC(C)=CCC[C@H](C)c1ccc(C)cc1
REMARK SMILES IDX 6 1 7 2 8 3 9 4 13 5 12 6 11 7 14 8 10 9 15 10 5 11 4 12
REMARK SMILES IDX 2 13 1 14 3 15
REMARK H PARENT
REMARK Flexibility Score: inf
ROOT
ATOM      1  C   UNL     1     127.624 143.559 104.997  1.00  0.00     0.012 C 
ENDROOT
BRANCH   1   2
ATOM      2  C   UNL     1     127.016 144.805 105.690  1.00  0.00     0.016 C 
ATOM      3  C   UNL     1     126.875 145.998 104.732  1.00  0.00     0.013 C 
BRANCH   2   4
ATOM      4  C   UNL     1     127.853 145.191 106.897  1.00  0.00    -0.045 A 
ATOM      5  C   UNL     1     130.263 146.283 110.311  1.00  0.00     0.044 C 
ATOM      6  C   UNL     1     129.424 145.934 109.118  1.00  0.00    -0.051 A 
ATOM      7  C   UNL     1     130.032 145.620 107.895  1.00  0.00     0.004 A 
ATOM      8  C   UNL     1     128.029 145.853 109.234  1.00  0.00     0.004 A 
ATOM      9  C   UNL     1     129.253 145.259 106.791  1.00  0.00     0.004 A 
ATOM     10  C   UNL     1     127.249 145.493 108.132  1.00  0.00     0.004 A 
ENDBRANCH   2   4
ENDBRANCH   1   2
BRANCH   1  11
ATOM     11  C   UNL     1     127.453 142.250 105.789  1.00  0.00     0.028 C 
BRANCH  11  12
ATOM     12  C   UNL     1     128.762 141.741 106.348  1.00  0.00    -0.028 C 
ATOM     13  C   UNL     1     129.029 141.589 107.664  1.00  0.00    -0.080 C 
ATOM     14  C   UNL     1     130.371 141.032 108.062  1.00  0.00     0.039 C 
ATOM     15  C   UNL     1     128.039 141.980 108.734  1.00  0.00     0.039 C 
ENDBRANCH  11  12
ENDBRANCH   1  11
TORSDOF 4
ENDMDL
MODEL 6
REMARK VINA RESULT:    -4.218      1.391      3.424
REMARK INTER + INTRA:          -6.773
REMARK INTER:                  -5.737
REMARK INTRA:                  -1.036
REMARK UNBOUND:                -1.569
REMARK SMILES CC(C)=CCC[C@H](C)c1ccc(C)cc1
REMARK SMILES IDX 6 1 7 2 8 3 9 4 13 5 12 6 11 7 14 8 10 9 15 10 5 11 4 12
REMARK SMILES IDX 2 13 1 14 3 15
REMARK H PARENT
REMARK Flexibility Score: inf
ROOT
ATOM      1  C   UNL     1     128.487 146.312 108.841  1.00  0.00     0.012 C 
ENDROOT
BRANCH   1   2
ATOM      2  C   UNL     1     129.633 145.311 109.131  1.00  0.00     0.016 C 
ATOM      3  C   UNL     1     130.168 145.431 110.566  1.00  0.00     0.013 C 
BRANCH   2   4
ATOM      4  C   UNL     1     130.758 145.500 108.128  1.00  0.00    -0.045 A 
ATOM      5  C   UNL     1     133.932 146.050 105.250  1.00  0.00     0.044 C 
ATOM      6  C   UNL     1     132.835 145.888 106.260  1.00  0.00    -0.051 A 
ATOM      7  C   UNL     1     131.510 146.195 105.919  1.00  0.00     0.004 A 
ATOM      8  C   UNL     1     133.115 145.366 107.530  1.00  0.00     0.004 A 
ATOM      9  C   UNL     1     130.481 146.009 106.847  1.00  0.00     0.004 A 
ATOM     10  C   UNL     1     132.087 145.181 108.460  1.00  0.00     0.004 A 
ENDBRANCH   2   4
ENDBRANCH   1   2
BRANCH   1  11
ATOM     11  C   UNL     1     127.152 145.650 108.454  1.00  0.00     0.028 C 
BRANCH  11  12
ATOM     12  C   UNL     1     127.340 144.483 107.514  1.00  0.00    -0.028 C 
ATOM     13  C   UNL     1     127.262 144.560 106.167  1.00  0.00    -0.080 C 
ATOM     14  C   UNL     1     127.513 143.311 105.362  1.00  0.00     0.039 C 
ATOM     15  C   UNL     1     126.911 145.845 105.455  1.00  0.00     0.039 C 
ENDBRANCH  11  12
ENDBRANCH   1  11
TORSDOF 4
ENDMDL
MODEL 7
REMARK VINA RESULT:    -4.205      1.877      3.738
REMARK INTER + INTRA:          -6.758
REMARK INTER:                  -5.163
REMARK INTRA:                  -1.595
REMARK UNBOUND:                -1.569
REMARK SMILES CC(C)=CCC[C@H](C)c1ccc(C)cc1
REMARK SMILES IDX 6 1 7 2 8 3 9 4 13 5 12 6 11 7 14 8 10 9 15 10 5 11 4 12
REMARK SMILES IDX 2 13 1 14 3 15
REMARK H PARENT
REMARK Flexibility Score: inf
ROOT
ATOM      1  C   UNL     1     129.488 145.565 106.136  1.00  0.00     0.012 C 
ENDROOT
BRANCH   1   2
ATOM      2  C   UNL     1     128.337 144.911 105.331  1.00  0.00     0.016 C 
ATOM      3  C   UNL     1     126.994 145.629 105.541  1.00  0.00     0.013 C 
BRANCH   2   4
ATOM      4  C   UNL     1     128.214 143.442 105.693  1.00  0.00    -0.045 A 
ATOM      5  C   UNL     1     127.903 139.257 106.716  1.00  0.00     0.044 C 
ATOM      6  C   UNL     1     128.017 140.716 106.391  1.00  0.00    -0.051 A 
ATOM      7  C   UNL     1     129.253 141.264 106.020  1.00  0.00     0.004 A 
ATOM      8  C   UNL     1     126.875 141.530 106.390  1.00  0.00     0.004 A 
ATOM      9  C   UNL     1     129.353 142.616 105.681  1.00  0.00     0.004 A 
ATOM     10  C   UNL     1     126.974 142.883 106.052  1.00  0.00     0.004 A 
ENDBRANCH   2   4
ENDBRANCH   1   2
BRANCH   1  11
ATOM     11  C   UNL     1     129.204 145.710 107.641  1.00  0.00     0.028 C 
BRANCH  11  12
ATOM     12  C   UNL     1     130.031 144.761 108.478  1.00  0.00    -0.028 C 
ATOM     13  C   UNL     1     129.524 143.778 109.254  1.00  0.00    -0.080 C 
ATOM     14  C   UNL     1     130.484 142.888 110.000  1.00  0.00     0.039 C 
ATOM     15  C   UNL     1     128.037 143.565 109.411  1.00  0.00     0.039 C 
ENDBRANCH  11  12
ENDBRANCH   1  11
TORSDOF 4
ENDMDL
MODEL 8
REMARK VINA RESULT:    -4.205      1.512      4.500
REMARK INTER + INTRA:          -6.757
REMARK INTER:                  -5.204
REMARK INTRA:                  -1.554
REMARK UNBOUND:                -1.569
REMARK SMILES CC(C)=CCC[C@H](C)c1ccc(C)cc1
REMARK SMILES IDX 6 1 7 2 8 3 9 4 13 5 12 6 11 7 14 8 10 9 15 10 5 11 4 12
REMARK SMILES IDX 2 13 1 14 3 15
REMARK H PARENT
REMARK Flexibility Score: inf
ROOT
ATOM      1  C   UNL     1     128.533 142.613 105.622  1.00  0.00     0.012 C 
ENDROOT
BRANCH   1   2
ATOM      2  C   UNL     1     127.393 143.555 106.082  1.00  0.00     0.016 C 
ATOM      3  C   UNL     1     127.388 144.887 105.317  1.00  0.00     0.013 C 
BRANCH   2   4
ATOM      4  C   UNL     1     127.493 143.803 107.577  1.00  0.00    -0.045 A 
ATOM      5  C   UNL     1     127.781 144.473 111.835  1.00  0.00     0.044 C 
ATOM      6  C   UNL     1     127.712 144.246 110.354  1.00  0.00    -0.051 A 
ATOM      7  C   UNL     1     127.864 142.955 109.829  1.00  0.00     0.004 A 
ATOM      8  C   UNL     1     127.427 145.312 109.489  1.00  0.00     0.004 A 
ATOM      9  C   UNL     1     127.763 142.736 108.452  1.00  0.00     0.004 A 
ATOM     10  C   UNL     1     127.326 145.094 108.111  1.00  0.00     0.004 A 
ENDBRANCH   2   4
ENDBRANCH   1   2
BRANCH   1  11
ATOM     11  C   UNL     1     129.873 143.323 105.360  1.00  0.00     0.028 C 
BRANCH  11  12
ATOM     12  C   UNL     1     130.733 143.406 106.600  1.00  0.00    -0.028 C 
ATOM     13  C   UNL     1     131.082 144.556 107.218  1.00  0.00    -0.080 C 
ATOM     14  C   UNL     1     131.915 144.471 108.471  1.00  0.00     0.039 C 
ATOM     15  C   UNL     1     130.686 145.910 106.678  1.00  0.00     0.039 C 
ENDBRANCH  11  12
ENDBRANCH   1  11
TORSDOF 4
ENDMDL
MODEL 9
REMARK VINA RESULT:    -4.179      1.875      4.440
REMARK INTER + INTRA:          -6.725
REMARK INTER:                  -5.239
REMARK INTRA:                  -1.486
REMARK UNBOUND:                -1.569
REMARK SMILES CC(C)=CCC[C@H](C)c1ccc(C)cc1
REMARK SMILES IDX 6 1 7 2 8 3 9 4 13 5 12 6 11 7 14 8 10 9 15 10 5 11 4 12
REMARK SMILES IDX 2 13 1 14 3 15
REMARK H PARENT
REMARK Flexibility Score: inf
ROOT
ATOM      1  C   UNL     1     128.177 145.629 105.815  1.00  0.00     0.012 C 
ENDROOT
BRANCH   1   2
ATOM      2  C   UNL     1     127.163 145.135 106.877  1.00  0.00     0.016 C 
ATOM      3  C   UNL     1     127.263 145.921 108.194  1.00  0.00     0.013 C 
BRANCH   2   4
ATOM      4  C   UNL     1     127.355 143.650 107.131  1.00  0.00    -0.045 A 
ATOM      5  C   UNL     1     127.910 139.434 107.888  1.00  0.00     0.044 C 
ATOM      6  C   UNL     1     127.687 140.894 107.633  1.00  0.00    -0.051 A 
ATOM      7  C   UNL     1     127.897 141.831 108.656  1.00  0.00     0.004 A 
ATOM      8  C   UNL     1     127.333 141.342 106.353  1.00  0.00     0.004 A 
ATOM      9  C   UNL     1     127.725 143.196 108.410  1.00  0.00     0.004 A 
ATOM     10  C   UNL     1     127.160 142.707 106.105  1.00  0.00     0.004 A 
ENDBRANCH   2   4
ENDBRANCH   1   2
BRANCH   1  11
ATOM     11  C   UNL     1     129.649 145.538 106.256  1.00  0.00     0.028 C 
BRANCH  11  12
ATOM     12  C   UNL     1     130.326 144.287 105.747  1.00  0.00    -0.028 C 
ATOM     13  C   UNL     1     130.969 143.389 106.526  1.00  0.00    -0.080 C 
ATOM     14  C   UNL     1     131.562 142.168 105.872  1.00  0.00     0.039 C 
ATOM     15  C   UNL     1     131.128 143.586 108.014  1.00  0.00     0.039 C 
ENDBRANCH  11  12
ENDBRANCH   1  11
TORSDOF 4
ENDMDL
