MODEL 1
REMARK VINA RESULT:    -4.784      0.000      0.000
REMARK INTER + INTRA:          -6.558
REMARK INTER:                  -6.183
REMARK INTRA:                  -0.376
REMARK UNBOUND:                -0.376
REMARK SMILES CCO[C@H]1O[C@@H](CO)[C@@H](O)[C@@H](O)[C@@H]1O
REMARK SMILES IDX 4 1 13 2 11 3 9 4 6 5 5 6 3 7 2 8 1 9 14 10 12 12 7 14 8 15
REMARK SMILES IDX 10 17
REMARK H PARENT 14 11 12 13 8 16 10 18
REMARK Flexibility Score: inf
ROOT
ATOM      1  C   UNL     1      51.408  -2.310  11.873  1.00  0.00     0.281 C 
ATOM      2  C   UNL     1      51.831  -3.649  12.504  1.00  0.00     0.202 C 
ATOM      3  C   UNL     1      52.883  -4.360  11.636  1.00  0.00     0.179 C 
ATOM      4  C   UNL     1      52.388  -4.449  10.187  1.00  0.00     0.177 C 
ATOM      5  C   UNL     1      51.863  -3.086   9.654  1.00  0.00     0.178 C 
ATOM      6  O   UNL     1      50.935  -2.466  10.539  1.00  0.00    -0.341 OA
ENDROOT
BRANCH   1   7
ATOM      7  O   UNL     1      52.473  -1.378  11.945  1.00  0.00    -0.350 OA
BRANCH   7   8
ATOM      8  C   UNL     1      51.974  -0.076  12.176  1.00  0.00     0.160 C 
ATOM      9  C   UNL     1      53.044   0.752  12.870  1.00  0.00     0.035 C 
ENDBRANCH   7   8
ENDBRANCH   1   7
BRANCH   2  10
ATOM     10  O   UNL     1      50.696  -4.465  12.650  1.00  0.00    -0.385 OA
ATOM     11  H   UNL     1      50.153  -4.352  11.826  1.00  0.00     0.211 HD
ENDBRANCH   2  10
BRANCH   3  12
ATOM     12  O   UNL     1      54.113  -3.684  11.694  1.00  0.00    -0.387 OA
ATOM     13  H   UNL     1      53.930  -2.780  12.060  1.00  0.00     0.211 HD
ENDBRANCH   3  12
BRANCH   5  14
ATOM     14  C   UNL     1      52.957  -2.102   9.171  1.00  0.00     0.191 C 
BRANCH  14  15
ATOM     15  O   UNL     1      52.399  -0.862   8.826  1.00  0.00    -0.394 OA
ATOM     16  H   UNL     1      53.146  -0.208   8.807  1.00  0.00     0.210 HD
ENDBRANCH  14  15
ENDBRANCH   5  14
BRANCH   4  17
ATOM     17  O   UNL     1      53.406  -4.963   9.369  1.00  0.00    -0.387 OA
ATOM     18  H   UNL     1      54.262  -4.588   9.707  1.00  0.00     0.211 HD
ENDBRANCH   4  17
TORSDOF 7
ENDMDL
MODEL 2
REMARK VINA RESULT:    -4.753      1.662      2.350
REMARK INTER + INTRA:          -6.518
REMARK INTER:                  -6.134
REMARK INTRA:                  -0.385
REMARK UNBOUND:                -0.376
REMARK SMILES CCO[C@H]1O[C@@H](CO)[C@@H](O)[C@@H](O)[C@@H]1O
REMARK SMILES IDX 4 1 13 2 11 3 9 4 6 5 5 6 3 7 2 8 1 9 14 10 12 12 7 14 8 15
REMARK SMILES IDX 10 17
REMARK H PARENT 14 11 12 13 8 16 10 18
REMARK Flexibility Score: inf
ROOT
ATOM      1  C   UNL     1      52.524  -2.871  12.662  1.00  0.00     0.281 C 
ATOM      2  C   UNL     1      52.095  -4.208  12.031  1.00  0.00     0.202 C 
ATOM      3  C   UNL     1      52.095  -4.117  10.496  1.00  0.00     0.179 C 
ATOM      4  C   UNL     1      51.285  -2.895  10.046  1.00  0.00     0.177 C 
ATOM      5  C   UNL     1      51.688  -1.603  10.812  1.00  0.00     0.178 C 
ATOM      6  O   UNL     1      51.717  -1.782  12.225  1.00  0.00    -0.341 OA
ENDROOT
BRANCH   1   7
ATOM      7  O   UNL     1      53.900  -2.634  12.419  1.00  0.00    -0.350 OA
BRANCH   7   8
ATOM      8  C   UNL     1      54.593  -2.460  13.638  1.00  0.00     0.160 C 
ATOM      9  C   UNL     1      55.623  -3.569  13.788  1.00  0.00     0.035 C 
ENDBRANCH   7   8
ENDBRANCH   1   7
BRANCH   2  10
ATOM     10  O   UNL     1      50.810  -4.541  12.494  1.00  0.00    -0.385 OA
ATOM     11  H   UNL     1      50.165  -4.202  11.820  1.00  0.00     0.211 HD
ENDBRANCH   2  10
BRANCH   3  12
ATOM     12  O   UNL     1      53.408  -4.046  10.003  1.00  0.00    -0.387 OA
ATOM     13  H   UNL     1      54.006  -4.382  10.721  1.00  0.00     0.211 HD
ENDBRANCH   3  12
BRANCH   5  14
ATOM     14  C   UNL     1      52.961  -0.895  10.286  1.00  0.00     0.191 C 
BRANCH  14  15
ATOM     15  O   UNL     1      52.644   0.017   9.269  1.00  0.00    -0.394 OA
ATOM     16  H   UNL     1      51.740  -0.226   8.938  1.00  0.00     0.210 HD
ENDBRANCH  14  15
ENDBRANCH   5  14
BRANCH   4  17
ATOM     17  O   UNL     1      51.409  -2.728   8.658  1.00  0.00    -0.387 OA
ATOM     18  H   UNL     1      50.551  -3.029   8.256  1.00  0.00     0.211 HD
ENDBRANCH   4  17
TORSDOF 7
ENDMDL
MODEL 3
REMARK VINA RESULT:    -4.571      2.547      4.209
REMARK INTER + INTRA:          -6.283
REMARK INTER:                  -5.902
REMARK INTRA:                  -0.381
REMARK UNBOUND:                -0.376
REMARK SMILES CCO[C@H]1O[C@@H](CO)[C@@H](O)[C@@H](O)[C@@H]1O
REMARK SMILES IDX 4 1 13 2 11 3 9 4 6 5 5 6 3 7 2 8 1 9 14 10 12 12 7 14 8 15
REMARK SMILES IDX 10 17
REMARK H PARENT 14 11 12 13 8 16 10 18
REMARK Flexibility Score: inf
ROOT
ATOM      1  C   UNL     1      51.197  -3.547   8.274  1.00  0.00     0.281 C 
ATOM      2  C   UNL     1      51.613  -2.929   9.621  1.00  0.00     0.202 C 
ATOM      3  C   UNL     1      53.120  -2.627   9.646  1.00  0.00     0.179 C 
ATOM      4  C   UNL     1      53.909  -3.875   9.230  1.00  0.00     0.177 C 
ATOM      5  C   UNL     1      53.357  -4.517   7.925  1.00  0.00     0.178 C 
ATOM      6  O   UNL     1      51.947  -4.715   7.959  1.00  0.00    -0.341 OA
ENDROOT
BRANCH   1   7
ATOM      7  O   UNL     1      51.281  -2.577   7.244  1.00  0.00    -0.350 OA
BRANCH   7   8
ATOM      8  C   UNL     1      50.299  -2.818   6.258  1.00  0.00     0.160 C 
ATOM      9  C   UNL     1      49.313  -1.660   6.243  1.00  0.00     0.035 C 
ENDBRANCH   7   8
ENDBRANCH   1   7
BRANCH   2  10
ATOM     10  O   UNL     1      51.283  -3.822  10.655  1.00  0.00    -0.385 OA
ATOM     11  H   UNL     1      50.403  -3.535  11.013  1.00  0.00     0.211 HD
ENDBRANCH   2  10
BRANCH   3  12
ATOM     12  O   UNL     1      53.425  -1.548   8.800  1.00  0.00    -0.387 OA
ATOM     13  H   UNL     1      53.631  -1.930   7.907  1.00  0.00     0.211 HD
ENDBRANCH   3  12
BRANCH   5  14
ATOM     14  C   UNL     1      53.822  -3.843   6.611  1.00  0.00     0.191 C 
BRANCH  14  15
ATOM     15  O   UNL     1      55.069  -4.339   6.206  1.00  0.00    -0.394 OA
ATOM     16  H   UNL     1      55.129  -5.272   6.543  1.00  0.00     0.210 HD
ENDBRANCH  14  15
ENDBRANCH   5  14
BRANCH   4  17
ATOM     17  O   UNL     1      55.271  -3.558   9.110  1.00  0.00    -0.387 OA
ATOM     18  H   UNL     1      55.774  -4.407   9.222  1.00  0.00     0.211 HD
ENDBRANCH   4  17
TORSDOF 7
ENDMDL
MODEL 4
REMARK VINA RESULT:    -4.533      1.377      3.251
REMARK INTER + INTRA:          -6.234
REMARK INTER:                  -5.820
REMARK INTRA:                  -0.414
REMARK UNBOUND:                -0.376
REMARK SMILES CCO[C@H]1O[C@@H](CO)[C@@H](O)[C@@H](O)[C@@H]1O
REMARK SMILES IDX 4 1 13 2 11 3 9 4 6 5 5 6 3 7 2 8 1 9 14 10 12 12 7 14 8 15
REMARK SMILES IDX 10 17
REMARK H PARENT 14 11 12 13 8 16 10 18
REMARK Flexibility Score: inf
ROOT
ATOM      1  C   UNL     1      53.100  -1.669  10.093  1.00  0.00     0.281 C 
ATOM      2  C   UNL     1      53.135  -2.706   8.955  1.00  0.00     0.202 C 
ATOM      3  C   UNL     1      52.231  -3.907   9.276  1.00  0.00     0.179 C 
ATOM      4  C   UNL     1      52.568  -4.455  10.668  1.00  0.00     0.177 C 
ATOM      5  C   UNL     1      52.635  -3.336  11.746  1.00  0.00     0.178 C 
ATOM      6  O   UNL     1      53.448  -2.235  11.352  1.00  0.00    -0.341 OA
ENDROOT
BRANCH   1   7
ATOM      7  O   UNL     1      51.834  -1.033  10.136  1.00  0.00    -0.350 OA
BRANCH   7   8
ATOM      8  C   UNL     1      51.989   0.370  10.179  1.00  0.00     0.160 C 
ATOM      9  C   UNL     1      51.983   0.827  11.630  1.00  0.00     0.035 C 
ENDBRANCH   7   8
ENDBRANCH   1   7
BRANCH   2  10
ATOM     10  O   UNL     1      54.460  -3.136   8.769  1.00  0.00    -0.385 OA
ATOM     11  H   UNL     1      54.573  -3.961   9.309  1.00  0.00     0.211 HD
ENDBRANCH   2  10
BRANCH   3  12
ATOM     12  O   UNL     1      50.876  -3.542   9.207  1.00  0.00    -0.387 OA
ATOM     13  H   UNL     1      50.376  -4.342   8.897  1.00  0.00     0.211 HD
ENDBRANCH   3  12
BRANCH   5  14
ATOM     14  C   UNL     1      51.266  -2.881  12.309  1.00  0.00     0.191 C 
BRANCH  14  15
ATOM     15  O   UNL     1      50.665  -3.904  13.055  1.00  0.00    -0.394 OA
ATOM     16  H   UNL     1      51.136  -4.746  12.820  1.00  0.00     0.210 HD
ENDBRANCH  14  15
ENDBRANCH   5  14
BRANCH   4  17
ATOM     17  O   UNL     1      51.647  -5.454  11.021  1.00  0.00    -0.387 OA
ATOM     18  H   UNL     1      51.111  -5.096  11.777  1.00  0.00     0.211 HD
ENDBRANCH   4  17
TORSDOF 7
ENDMDL
MODEL 5
REMARK VINA RESULT:    -4.509      1.569      3.592
REMARK INTER + INTRA:          -6.203
REMARK INTER:                  -5.805
REMARK INTRA:                  -0.397
REMARK UNBOUND:                -0.376
REMARK SMILES CCO[C@H]1O[C@@H](CO)[C@@H](O)[C@@H](O)[C@@H]1O
REMARK SMILES IDX 4 1 13 2 11 3 9 4 6 5 5 6 3 7 2 8 1 9 14 10 12 12 7 14 8 15
REMARK SMILES IDX 10 17
REMARK H PARENT 14 11 12 13 8 16 10 18
REMARK Flexibility Score: inf
ROOT
ATOM      1  C   UNL     1      52.419  -3.414   9.954  1.00  0.00     0.281 C 
ATOM      2  C   UNL     1      51.776  -4.594  10.706  1.00  0.00     0.202 C 
ATOM      3  C   UNL     1      51.548  -4.246  12.185  1.00  0.00     0.179 C 
ATOM      4  C   UNL     1      52.847  -3.711  12.801  1.00  0.00     0.177 C 
ATOM      5  C   UNL     1      53.506  -2.606  11.928  1.00  0.00     0.178 C 
ATOM      6  O   UNL     1      53.633  -2.983  10.560  1.00  0.00    -0.341 OA
ENDROOT
BRANCH   1   7
ATOM      7  O   UNL     1      51.491  -2.351   9.827  1.00  0.00    -0.350 OA
BRANCH   7   8
ATOM      8  C   UNL     1      51.575  -1.775   8.540  1.00  0.00     0.160 C 
ATOM      9  C   UNL     1      50.670  -2.544   7.590  1.00  0.00     0.035 C 
ENDBRANCH   7   8
ENDBRANCH   1   7
BRANCH   2  10
ATOM     10  O   UNL     1      52.615  -5.717  10.599  1.00  0.00    -0.385 OA
ATOM     11  H   UNL     1      52.271  -6.395  11.237  1.00  0.00     0.211 HD
ENDBRANCH   2  10
BRANCH   3  12
ATOM     12  O   UNL     1      50.515  -3.303  12.320  1.00  0.00    -0.387 OA
ATOM     13  H   UNL     1      49.660  -3.807  12.317  1.00  0.00     0.211 HD
ENDBRANCH   3  12
BRANCH   5  14
ATOM     14  C   UNL     1      52.901  -1.190  12.089  1.00  0.00     0.191 C 
BRANCH  14  15
ATOM     15  O   UNL     1      53.543  -0.484  13.117  1.00  0.00    -0.394 OA
ATOM     16  H   UNL     1      54.404  -0.949  13.289  1.00  0.00     0.210 HD
ENDBRANCH  14  15
ENDBRANCH   5  14
BRANCH   4  17
ATOM     17  O   UNL     1      52.601  -3.255  14.106  1.00  0.00    -0.387 OA
ATOM     18  H   UNL     1      51.633  -3.041  14.158  1.00  0.00     0.211 HD
ENDBRANCH   4  17
TORSDOF 7
ENDMDL
MODEL 6
REMARK VINA RESULT:    -4.507      2.521      4.998
REMARK INTER + INTRA:          -6.200
REMARK INTER:                  -5.819
REMARK INTRA:                  -0.382
REMARK UNBOUND:                -0.376
REMARK SMILES CCO[C@H]1O[C@@H](CO)[C@@H](O)[C@@H](O)[C@@H]1O
REMARK SMILES IDX 4 1 13 2 11 3 9 4 6 5 5 6 3 7 2 8 1 9 14 10 12 12 7 14 8 15
REMARK SMILES IDX 10 17
REMARK H PARENT 14 11 12 13 8 16 10 18
REMARK Flexibility Score: inf
ROOT
ATOM      1  C   UNL     1      53.427  -4.233   7.337  1.00  0.00     0.281 C 
ATOM      2  C   UNL     1      52.863  -2.836   7.023  1.00  0.00     0.202 C 
ATOM      3  C   UNL     1      52.324  -2.160   8.294  1.00  0.00     0.179 C 
ATOM      4  C   UNL     1      51.356  -3.106   9.016  1.00  0.00     0.177 C 
ATOM      5  C   UNL     1      51.945  -4.535   9.192  1.00  0.00     0.178 C 
ATOM      6  O   UNL     1      52.472  -5.070   7.982  1.00  0.00    -0.341 OA
ENDROOT
BRANCH   1   7
ATOM      7  O   UNL     1      54.620  -4.120   8.092  1.00  0.00    -0.350 OA
BRANCH   7   8
ATOM      8  C   UNL     1      55.746  -4.376   7.277  1.00  0.00     0.160 C 
ATOM      9  C   UNL     1      56.978  -4.509   8.158  1.00  0.00     0.035 C 
ENDBRANCH   7   8
ENDBRANCH   1   7
BRANCH   2  10
ATOM     10  O   UNL     1      51.836  -2.960   6.071  1.00  0.00    -0.385 OA
ATOM     11  H   UNL     1      51.792  -2.098   5.580  1.00  0.00     0.211 HD
ENDBRANCH   2  10
BRANCH   3  12
ATOM     12  O   UNL     1      53.378  -1.792   9.146  1.00  0.00    -0.387 OA
ATOM     13  H   UNL     1      54.217  -2.116   8.725  1.00  0.00     0.211 HD
ENDBRANCH   3  12
BRANCH   5  14
ATOM     14  C   UNL     1      52.923  -4.703  10.380  1.00  0.00     0.191 C 
BRANCH  14  15
ATOM     15  O   UNL     1      52.225  -4.880  11.584  1.00  0.00    -0.394 OA
ATOM     16  H   UNL     1      51.280  -5.069  11.342  1.00  0.00     0.210 HD
ENDBRANCH  14  15
ENDBRANCH   5  14
BRANCH   4  17
ATOM     17  O   UNL     1      50.981  -2.550  10.249  1.00  0.00    -0.387 OA
ATOM     18  H   UNL     1      51.415  -1.659  10.306  1.00  0.00     0.211 HD
ENDBRANCH   4  17
TORSDOF 7
ENDMDL
MODEL 7
REMARK VINA RESULT:    -4.447      1.542      2.917
REMARK INTER + INTRA:          -6.123
REMARK INTER:                  -5.690
REMARK INTRA:                  -0.433
REMARK UNBOUND:                -0.376
REMARK SMILES CCO[C@H]1O[C@@H](CO)[C@@H](O)[C@@H](O)[C@@H]1O
REMARK SMILES IDX 4 1 13 2 11 3 9 4 6 5 5 6 3 7 2 8 1 9 14 10 12 12 7 14 8 15
REMARK SMILES IDX 10 17
REMARK H PARENT 14 11 12 13 8 16 10 18
REMARK Flexibility Score: inf
ROOT
ATOM      1  C   UNL     1      52.054  -1.670  10.778  1.00  0.00     0.281 C 
ATOM      2  C   UNL     1      51.096  -2.863  10.608  1.00  0.00     0.202 C 
ATOM      3  C   UNL     1      51.344  -3.928  11.688  1.00  0.00     0.179 C 
ATOM      4  C   UNL     1      52.834  -4.289  11.731  1.00  0.00     0.177 C 
ATOM      5  C   UNL     1      53.747  -3.032  11.782  1.00  0.00     0.178 C 
ATOM      6  O   UNL     1      53.420  -2.069  10.784  1.00  0.00    -0.341 OA
ENDROOT
BRANCH   1   7
ATOM      7  O   UNL     1      51.718  -0.936  11.943  1.00  0.00    -0.350 OA
BRANCH   7   8
ATOM      8  C   UNL     1      51.958   0.442  11.744  1.00  0.00     0.160 C 
ATOM      9  C   UNL     1      52.383   1.069  13.063  1.00  0.00     0.035 C 
ENDBRANCH   7   8
ENDBRANCH   1   7
BRANCH   2  10
ATOM     10  O   UNL     1      51.282  -3.420   9.331  1.00  0.00    -0.385 OA
ATOM     11  H   UNL     1      50.874  -2.791   8.680  1.00  0.00     0.211 HD
ENDBRANCH   2  10
BRANCH   3  12
ATOM     12  O   UNL     1      50.912  -3.471  12.945  1.00  0.00    -0.387 OA
ATOM     13  H   UNL     1      50.653  -4.271  13.471  1.00  0.00     0.211 HD
ENDBRANCH   3  12
BRANCH   5  14
ATOM     14  C   UNL     1      53.910  -2.391  13.181  1.00  0.00     0.191 C 
BRANCH  14  15
ATOM     15  O   UNL     1      54.757  -3.162  13.991  1.00  0.00    -0.394 OA
ATOM     16  H   UNL     1      54.413  -3.085  14.920  1.00  0.00     0.210 HD
ENDBRANCH  14  15
ENDBRANCH   5  14
BRANCH   4  17
ATOM     17  O   UNL     1      53.083  -5.149  12.814  1.00  0.00    -0.387 OA
ATOM     18  H   UNL     1      52.805  -6.058  12.527  1.00  0.00     0.211 HD
ENDBRANCH   4  17
TORSDOF 7
ENDMDL
MODEL 8
REMARK VINA RESULT:    -4.333     14.484     16.045
REMARK INTER + INTRA:          -5.976
REMARK INTER:                  -5.522
REMARK INTRA:                  -0.454
REMARK UNBOUND:                -0.376
REMARK SMILES CCO[C@H]1O[C@@H](CO)[C@@H](O)[C@@H](O)[C@@H]1O
REMARK SMILES IDX 4 1 13 2 11 3 9 4 6 5 5 6 3 7 2 8 1 9 14 10 12 12 7 14 8 15
REMARK SMILES IDX 10 17
REMARK H PARENT 14 11 12 13 8 16 10 18
REMARK Flexibility Score: inf
ROOT
ATOM      1  C   UNL     1      62.449  -3.429  22.297  1.00  0.00     0.281 C 
ATOM      2  C   UNL     1      63.734  -3.756  21.515  1.00  0.00     0.202 C 
ATOM      3  C   UNL     1      64.240  -5.168  21.853  1.00  0.00     0.179 C 
ATOM      4  C   UNL     1      64.342  -5.334  23.374  1.00  0.00     0.177 C 
ATOM      5  C   UNL     1      63.053  -4.871  24.109  1.00  0.00     0.178 C 
ATOM      6  O   UNL     1      62.617  -3.577  23.703  1.00  0.00    -0.341 OA
ENDROOT
BRANCH   1   7
ATOM      7  O   UNL     1      61.370  -4.211  21.813  1.00  0.00    -0.350 OA
BRANCH   7   8
ATOM      8  C   UNL     1      60.257  -3.389  21.523  1.00  0.00     0.160 C 
ATOM      9  C   UNL     1      58.980  -4.187  21.738  1.00  0.00     0.035 C 
ENDBRANCH   7   8
ENDBRANCH   1   7
BRANCH   2  10
ATOM     10  O   UNL     1      64.717  -2.803  21.832  1.00  0.00    -0.385 OA
ATOM     11  H   UNL     1      65.442  -2.903  21.160  1.00  0.00     0.211 HD
ENDBRANCH   2  10
BRANCH   3  12
ATOM     12  O   UNL     1      63.390  -6.144  21.307  1.00  0.00    -0.387 OA
ATOM     13  H   UNL     1      62.862  -5.701  20.592  1.00  0.00     0.211 HD
ENDBRANCH   3  12
BRANCH   5  14
ATOM     14  C   UNL     1      61.896  -5.900  24.121  1.00  0.00     0.191 C 
BRANCH  14  15
ATOM     15  O   UNL     1      60.724  -5.331  24.642  1.00  0.00    -0.394 OA
ATOM     16  H   UNL     1      60.979  -4.870  25.484  1.00  0.00     0.210 HD
ENDBRANCH  14  15
ENDBRANCH   5  14
BRANCH   4  17
ATOM     17  O   UNL     1      64.661  -6.665  23.685  1.00  0.00    -0.387 OA
ATOM     18  H   UNL     1      64.083  -7.239  23.117  1.00  0.00     0.211 HD
ENDBRANCH   4  17
TORSDOF 7
ENDMDL
MODEL 9
REMARK VINA RESULT:    -4.308      1.817      4.353
REMARK INTER + INTRA:          -5.943
REMARK INTER:                  -5.567
REMARK INTRA:                  -0.375
REMARK UNBOUND:                -0.376
REMARK SMILES CCO[C@H]1O[C@@H](CO)[C@@H](O)[C@@H](O)[C@@H]1O
REMARK SMILES IDX 4 1 13 2 11 3 9 4 6 5 5 6 3 7 2 8 1 9 14 10 12 12 7 14 8 15
REMARK SMILES IDX 10 17
REMARK H PARENT 14 11 12 13 8 16 10 18
REMARK Flexibility Score: inf
ROOT
ATOM      1  C   UNL     1      52.494  -4.224   9.256  1.00  0.00     0.281 C 
ATOM      2  C   UNL     1      51.863  -2.947   8.672  1.00  0.00     0.202 C 
ATOM      3  C   UNL     1      52.076  -1.748   9.611  1.00  0.00     0.179 C 
ATOM      4  C   UNL     1      51.620  -2.111  11.030  1.00  0.00     0.177 C 
ATOM      5  C   UNL     1      52.199  -3.472  11.509  1.00  0.00     0.178 C 
ATOM      6  O   UNL     1      52.010  -4.519  10.562  1.00  0.00    -0.341 OA
ENDROOT
BRANCH   1   7
ATOM      7  O   UNL     1      53.908  -4.126   9.231  1.00  0.00    -0.350 OA
BRANCH   7   8
ATOM      8  C   UNL     1      54.388  -4.274   7.911  1.00  0.00     0.160 C 
ATOM      9  C   UNL     1      55.881  -4.563   7.954  1.00  0.00     0.035 C 
ENDBRANCH   7   8
ENDBRANCH   1   7
BRANCH   2  10
ATOM     10  O   UNL     1      50.489  -3.165   8.473  1.00  0.00    -0.385 OA
ATOM     11  H   UNL     1      50.151  -3.630   9.284  1.00  0.00     0.211 HD
ENDBRANCH   2  10
BRANCH   3  12
ATOM     12  O   UNL     1      53.424  -1.353   9.614  1.00  0.00    -0.387 OA
ATOM     13  H   UNL     1      53.847  -1.773  10.407  1.00  0.00     0.211 HD
ENDBRANCH   3  12
BRANCH   5  14
ATOM     14  C   UNL     1      53.652  -3.419  12.040  1.00  0.00     0.191 C 
BRANCH  14  15
ATOM     15  O   UNL     1      53.673  -3.215  13.427  1.00  0.00    -0.394 OA
ATOM     16  H   UNL     1      53.630  -2.233  13.573  1.00  0.00     0.210 HD
ENDBRANCH  14  15
ENDBRANCH   5  14
BRANCH   4  17
ATOM     17  O   UNL     1      51.950  -1.071  11.914  1.00  0.00    -0.387 OA
ATOM     18  H   UNL     1      52.699  -0.568  11.499  1.00  0.00     0.211 HD
ENDBRANCH   4  17
TORSDOF 7
ENDMDL
