MODEL 1
REMARK VINA RESULT:    -5.518      0.000      0.000
REMARK INTER + INTRA:         -18.330
REMARK INTER:                 -14.549
REMARK INTRA:                  -3.781
REMARK UNBOUND:                -3.781
REMARK SMILES CCCCCCCCCCCCCCCCCCCCCCCCCCCCCC(=O)[O-]
REMARK SMILES IDX 16 1 17 2 18 3 19 4 20 5 21 6 22 7 23 8 24 9 25 10 26 11
REMARK SMILES IDX 27 12 28 13 29 14 30 15 31 16 32 17 15 18 14 19 13 20 12 21
REMARK SMILES IDX 11 22 10 23 9 24 8 25 7 26 6 27 5 28 4 29 3 30 2 31 1 32
REMARK H PARENT
REMARK Flexibility Score: inf
ROOT
ATOM      1  C   UNL     1     -20.517 -26.120  16.173  1.00  0.00     0.000 C 
ENDROOT
BRANCH   1   2
ATOM      2  C   UNL     1     -20.824 -25.542  14.782  1.00  0.00     0.000 C 
BRANCH   2   3
ATOM      3  C   UNL     1     -20.050 -24.245  14.496  1.00  0.00     0.000 C 
BRANCH   3   4
ATOM      4  C   UNL     1     -20.625 -23.463  13.302  1.00  0.00     0.000 C 
BRANCH   4   5
ATOM      5  C   UNL     1     -19.540 -22.702  12.524  1.00  0.00     0.000 C 
BRANCH   5   6
ATOM      6  C   UNL     1     -19.493 -23.094  11.036  1.00  0.00     0.000 C 
BRANCH   6   7
ATOM      7  C   UNL     1     -20.601 -24.090  10.654  1.00  0.00     0.000 C 
BRANCH   7   8
ATOM      8  C   UNL     1     -20.039 -25.412  10.105  1.00  0.00     0.000 C 
BRANCH   8   9
ATOM      9  C   UNL     1     -18.644 -25.249   9.481  1.00  0.00     0.000 C 
BRANCH   9  10
ATOM     10  C   UNL     1     -17.623 -26.259  10.034  1.00  0.00     0.000 C 
BRANCH  10  11
ATOM     11  C   UNL     1     -16.801 -25.694  11.203  1.00  0.00     0.000 C 
BRANCH  11  12
ATOM     12  C   UNL     1     -17.432 -26.002  12.572  1.00  0.00     0.000 C 
BRANCH  12  13
ATOM     13  C   UNL     1     -16.501 -25.643  13.742  1.00  0.00     0.006 C 
BRANCH  13  14
ATOM     14  C   UNL     1     -17.005 -26.191  15.083  1.00  0.00     0.053 C 
BRANCH  14  15
ATOM     15  C   UNL     1     -15.852 -26.542  15.970  1.00  0.00     0.041 C 
ATOM     16  O   UNL     1     -14.993 -25.671  16.266  1.00  0.00    -0.550 OA
ATOM     17  O   UNL     1     -15.753 -27.820  16.507  1.00  0.00    -0.550 OA
ENDBRANCH  14  15
ENDBRANCH  13  14
ENDBRANCH  12  13
ENDBRANCH  11  12
ENDBRANCH  10  11
ENDBRANCH   9  10
ENDBRANCH   8   9
ENDBRANCH   7   8
ENDBRANCH   6   7
ENDBRANCH   5   6
ENDBRANCH   4   5
ENDBRANCH   3   4
ENDBRANCH   2   3
ENDBRANCH   1   2
BRANCH   1  18
ATOM     18  C   UNL     1     -20.332 -27.642  16.108  1.00  0.00     0.000 C 
BRANCH  18  19
ATOM     19  C   UNL     1     -21.543 -28.370  15.497  1.00  0.00     0.000 C 
BRANCH  19  20
ATOM     20  C   UNL     1     -22.305 -29.300  16.464  1.00  0.00     0.000 C 
BRANCH  20  21
ATOM     21  C   UNL     1     -21.977 -29.090  17.953  1.00  0.00     0.000 C 
BRANCH  21  22
ATOM     22  C   UNL     1     -23.126 -28.409  18.719  1.00  0.00     0.000 C 
BRANCH  22  23
ATOM     23  C   UNL     1     -23.238 -26.906  18.417  1.00  0.00     0.000 C 
BRANCH  23  24
ATOM     24  C   UNL     1     -24.485 -26.499  17.606  1.00  0.00    -0.000 C 
BRANCH  24  25
ATOM     25  C   UNL     1     -24.199 -25.475  16.484  1.00  0.00    -0.000 C 
BRANCH  25  26
ATOM     26  C   UNL     1     -25.474 -25.021  15.753  1.00  0.00    -0.000 C 
BRANCH  26  27
ATOM     27  C   UNL     1     -26.755 -25.658  16.329  1.00  0.00    -0.000 C 
BRANCH  27  28
ATOM     28  C   UNL     1     -28.025 -25.399  15.494  1.00  0.00    -0.000 C 
BRANCH  28  29
ATOM     29  C   UNL     1     -28.316 -23.905  15.247  1.00  0.00    -0.000 C 
BRANCH  29  30
ATOM     30  C   UNL     1     -28.407 -23.110  16.562  1.00  0.00    -0.000 C 
BRANCH  30  31
ATOM     31  C   UNL     1     -29.803 -22.520  16.803  1.00  0.00    -0.003 C 
ATOM     32  C   UNL     1     -30.629 -23.349  17.787  1.00  0.00     0.004 C 
ENDBRANCH  30  31
ENDBRANCH  29  30
ENDBRANCH  28  29
ENDBRANCH  27  28
ENDBRANCH  26  27
ENDBRANCH  25  26
ENDBRANCH  24  25
ENDBRANCH  23  24
ENDBRANCH  22  23
ENDBRANCH  21  22
ENDBRANCH  20  21
ENDBRANCH  19  20
ENDBRANCH  18  19
ENDBRANCH   1  18
TORSDOF 28
ENDMDL
MODEL 2
REMARK VINA RESULT:    -5.452      3.423      9.857
REMARK INTER + INTRA:         -18.158
REMARK INTER:                 -13.479
REMARK INTRA:                  -4.679
REMARK UNBOUND:                -3.781
REMARK SMILES CCCCCCCCCCCCCCCCCCCCCCCCCCCCCC(=O)[O-]
REMARK SMILES IDX 16 1 17 2 18 3 19 4 20 5 21 6 22 7 23 8 24 9 25 10 26 11
REMARK SMILES IDX 27 12 28 13 29 14 30 15 31 16 32 17 15 18 14 19 13 20 12 21
REMARK SMILES IDX 11 22 10 23 9 24 8 25 7 26 6 27 5 28 4 29 3 30 2 31 1 32
REMARK H PARENT
REMARK Flexibility Score: inf
ROOT
ATOM      1  C   UNL     1     -19.502 -21.118  11.806  1.00  0.00     0.000 C 
ENDROOT
BRANCH   1   2
ATOM      2  C   UNL     1     -19.183 -22.463  12.477  1.00  0.00     0.000 C 
BRANCH   2   3
ATOM      3  C   UNL     1     -20.419 -23.111  13.121  1.00  0.00     0.000 C 
BRANCH   3   4
ATOM      4  C   UNL     1     -20.196 -24.592  13.474  1.00  0.00     0.000 C 
BRANCH   4   5
ATOM      5  C   UNL     1     -20.069 -24.820  14.989  1.00  0.00     0.000 C 
BRANCH   5   6
ATOM      6  C   UNL     1     -19.930 -26.309  15.354  1.00  0.00     0.000 C 
BRANCH   6   7
ATOM      7  C   UNL     1     -20.355 -27.239  14.205  1.00  0.00     0.000 C 
BRANCH   7   8
ATOM      8  C   UNL     1     -21.312 -28.349  14.671  1.00  0.00     0.000 C 
BRANCH   8   9
ATOM      9  C   UNL     1     -21.127 -28.706  16.155  1.00  0.00     0.000 C 
BRANCH   9  10
ATOM     10  C   UNL     1     -22.450 -29.085  16.845  1.00  0.00     0.000 C 
BRANCH  10  11
ATOM     11  C   UNL     1     -22.840 -28.105  17.961  1.00  0.00     0.000 C 
BRANCH  11  12
ATOM     12  C   UNL     1     -23.905 -27.089  17.511  1.00  0.00     0.000 C 
BRANCH  12  13
ATOM     13  C   UNL     1     -23.287 -25.790  16.970  1.00  0.00     0.006 C 
BRANCH  13  14
ATOM     14  C   UNL     1     -23.786 -25.444  15.561  1.00  0.00     0.053 C 
BRANCH  14  15
ATOM     15  C   UNL     1     -25.116 -24.765  15.629  1.00  0.00     0.041 C 
ATOM     16  O   UNL     1     -26.176 -25.437  15.524  1.00  0.00    -0.550 OA
ATOM     17  O   UNL     1     -25.187 -23.395  15.856  1.00  0.00    -0.550 OA
ENDBRANCH  14  15
ENDBRANCH  13  14
ENDBRANCH  12  13
ENDBRANCH  11  12
ENDBRANCH  10  11
ENDBRANCH   9  10
ENDBRANCH   8   9
ENDBRANCH   7   8
ENDBRANCH   6   7
ENDBRANCH   5   6
ENDBRANCH   4   5
ENDBRANCH   3   4
ENDBRANCH   2   3
ENDBRANCH   1   2
BRANCH   1  18
ATOM     18  C   UNL     1     -19.171 -21.159  10.307  1.00  0.00     0.000 C 
BRANCH  18  19
ATOM     19  C   UNL     1     -20.108 -22.084   9.509  1.00  0.00     0.000 C 
BRANCH  19  20
ATOM     20  C   UNL     1     -19.508 -23.454   9.130  1.00  0.00     0.000 C 
BRANCH  20  21
ATOM     21  C   UNL     1     -20.241 -24.668   9.727  1.00  0.00     0.000 C 
BRANCH  21  22
ATOM     22  C   UNL     1     -19.289 -25.833  10.048  1.00  0.00     0.000 C 
BRANCH  22  23
ATOM     23  C   UNL     1     -17.947 -25.365  10.634  1.00  0.00     0.000 C 
BRANCH  23  24
ATOM     24  C   UNL     1     -17.171 -26.443  11.418  1.00  0.00    -0.000 C 
BRANCH  24  25
ATOM     25  C   UNL     1     -17.688 -27.881  11.191  1.00  0.00    -0.000 C 
BRANCH  25  26
ATOM     26  C   UNL     1     -16.947 -28.609  10.056  1.00  0.00    -0.000 C 
BRANCH  26  27
ATOM     27  C   UNL     1     -17.903 -29.322   9.077  1.00  0.00    -0.000 C 
BRANCH  27  28
ATOM     28  C   UNL     1     -18.198 -28.531   7.787  1.00  0.00    -0.000 C 
BRANCH  28  29
ATOM     29  C   UNL     1     -17.084 -28.631   6.724  1.00  0.00    -0.000 C 
BRANCH  29  30
ATOM     30  C   UNL     1     -16.669 -27.249   6.193  1.00  0.00    -0.000 C 
BRANCH  30  31
ATOM     31  C   UNL     1     -16.695 -26.164   7.279  1.00  0.00    -0.003 C 
ATOM     32  C   UNL     1     -15.295 -25.753   7.734  1.00  0.00     0.004 C 
ENDBRANCH  30  31
ENDBRANCH  29  30
ENDBRANCH  28  29
ENDBRANCH  27  28
ENDBRANCH  26  27
ENDBRANCH  25  26
ENDBRANCH  24  25
ENDBRANCH  23  24
ENDBRANCH  22  23
ENDBRANCH  21  22
ENDBRANCH  20  21
ENDBRANCH  19  20
ENDBRANCH  18  19
ENDBRANCH   1  18
TORSDOF 28
ENDMDL
MODEL 3
REMARK VINA RESULT:    -5.442      3.085      5.261
REMARK INTER + INTRA:         -18.132
REMARK INTER:                 -14.143
REMARK INTRA:                  -3.990
REMARK UNBOUND:                -3.781
REMARK SMILES CCCCCCCCCCCCCCCCCCCCCCCCCCCCCC(=O)[O-]
REMARK SMILES IDX 16 1 17 2 18 3 19 4 20 5 21 6 22 7 23 8 24 9 25 10 26 11
REMARK SMILES IDX 27 12 28 13 29 14 30 15 31 16 32 17 15 18 14 19 13 20 12 21
REMARK SMILES IDX 11 22 10 23 9 24 8 25 7 26 6 27 5 28 4 29 3 30 2 31 1 32
REMARK H PARENT
REMARK Flexibility Score: inf
ROOT
ATOM      1  C   UNL     1     -20.027 -29.024  12.049  1.00  0.00     0.000 C 
ENDROOT
BRANCH   1   2
ATOM      2  C   UNL     1     -18.992 -29.409  10.979  1.00  0.00     0.000 C 
BRANCH   2   3
ATOM      3  C   UNL     1     -18.412 -28.186  10.251  1.00  0.00     0.000 C 
BRANCH   3   4
ATOM      4  C   UNL     1     -16.877 -28.123  10.328  1.00  0.00     0.000 C 
BRANCH   4   5
ATOM      5  C   UNL     1     -16.345 -26.683  10.253  1.00  0.00     0.000 C 
BRANCH   5   6
ATOM      6  C   UNL     1     -17.150 -25.707  11.130  1.00  0.00     0.000 C 
BRANCH   6   7
ATOM      7  C   UNL     1     -16.768 -25.799  12.617  1.00  0.00     0.000 C 
BRANCH   7   8
ATOM      8  C   UNL     1     -17.953 -26.214  13.504  1.00  0.00     0.000 C 
BRANCH   8   9
ATOM      9  C   UNL     1     -18.059 -25.369  14.784  1.00  0.00     0.000 C 
BRANCH   9  10
ATOM     10  C   UNL     1     -19.292 -24.448  14.789  1.00  0.00     0.000 C 
BRANCH  10  11
ATOM     11  C   UNL     1     -19.966 -24.349  13.412  1.00  0.00     0.000 C 
BRANCH  11  12
ATOM     12  C   UNL     1     -20.054 -22.901  12.899  1.00  0.00     0.000 C 
BRANCH  12  13
ATOM     13  C   UNL     1     -19.185 -22.664  11.653  1.00  0.00     0.006 C 
BRANCH  13  14
ATOM     14  C   UNL     1     -19.933 -22.968  10.348  1.00  0.00     0.053 C 
BRANCH  14  15
ATOM     15  C   UNL     1     -20.035 -21.737   9.505  1.00  0.00     0.041 C 
ATOM     16  O   UNL     1     -20.355 -21.826   8.291  1.00  0.00    -0.550 OA
ATOM     17  O   UNL     1     -19.821 -20.486  10.073  1.00  0.00    -0.550 OA
ENDBRANCH  14  15
ENDBRANCH  13  14
ENDBRANCH  12  13
ENDBRANCH  11  12
ENDBRANCH  10  11
ENDBRANCH   9  10
ENDBRANCH   8   9
ENDBRANCH   7   8
ENDBRANCH   6   7
ENDBRANCH   5   6
ENDBRANCH   4   5
ENDBRANCH   3   4
ENDBRANCH   2   3
ENDBRANCH   1   2
BRANCH   1  18
ATOM     18  C   UNL     1     -21.137 -30.081  12.145  1.00  0.00     0.000 C 
BRANCH  18  19
ATOM     19  C   UNL     1     -21.039 -30.942  13.416  1.00  0.00     0.000 C 
BRANCH  19  20
ATOM     20  C   UNL     1     -22.347 -31.065  14.226  1.00  0.00     0.000 C 
BRANCH  20  21
ATOM     21  C   UNL     1     -22.153 -31.249  15.742  1.00  0.00     0.000 C 
BRANCH  21  22
ATOM     22  C   UNL     1     -22.230 -29.919  16.511  1.00  0.00     0.000 C 
BRANCH  22  23
ATOM     23  C   UNL     1     -20.845 -29.319  16.808  1.00  0.00     0.000 C 
BRANCH  23  24
ATOM     24  C   UNL     1     -20.473 -28.093  15.949  1.00  0.00    -0.000 C 
BRANCH  24  25
ATOM     25  C   UNL     1     -21.629 -27.566  15.069  1.00  0.00    -0.000 C 
BRANCH  25  26
ATOM     26  C   UNL     1     -22.264 -26.279  15.626  1.00  0.00    -0.000 C 
BRANCH  26  27
ATOM     27  C   UNL     1     -23.550 -26.547  16.434  1.00  0.00    -0.000 C 
BRANCH  27  28
ATOM     28  C   UNL     1     -24.392 -25.288  16.724  1.00  0.00    -0.000 C 
BRANCH  28  29
ATOM     29  C   UNL     1     -25.051 -24.676  15.471  1.00  0.00    -0.000 C 
BRANCH  29  30
ATOM     30  C   UNL     1     -26.558 -24.438  15.671  1.00  0.00    -0.000 C 
BRANCH  30  31
ATOM     31  C   UNL     1     -27.422 -25.519  15.004  1.00  0.00    -0.003 C 
ATOM     32  C   UNL     1     -27.660 -25.246  13.519  1.00  0.00     0.004 C 
ENDBRANCH  30  31
ENDBRANCH  29  30
ENDBRANCH  28  29
ENDBRANCH  27  28
ENDBRANCH  26  27
ENDBRANCH  25  26
ENDBRANCH  24  25
ENDBRANCH  23  24
ENDBRANCH  22  23
ENDBRANCH  21  22
ENDBRANCH  20  21
ENDBRANCH  19  20
ENDBRANCH  18  19
ENDBRANCH   1  18
TORSDOF 28
ENDMDL
MODEL 4
REMARK VINA RESULT:    -5.389      3.888      9.028
REMARK INTER + INTRA:         -17.991
REMARK INTER:                 -14.032
REMARK INTRA:                  -3.959
REMARK UNBOUND:                -3.781
REMARK SMILES CCCCCCCCCCCCCCCCCCCCCCCCCCCCCC(=O)[O-]
REMARK SMILES IDX 16 1 17 2 18 3 19 4 20 5 21 6 22 7 23 8 24 9 25 10 26 11
REMARK SMILES IDX 27 12 28 13 29 14 30 15 31 16 32 17 15 18 14 19 13 20 12 21
REMARK SMILES IDX 11 22 10 23 9 24 8 25 7 26 6 27 5 28 4 29 3 30 2 31 1 32
REMARK H PARENT
REMARK Flexibility Score: inf
ROOT
ATOM      1  C   UNL     1     -21.791 -31.360  13.475  1.00  0.00     0.000 C 
ENDROOT
BRANCH   1   2
ATOM      2  C   UNL     1     -21.736 -30.354  14.636  1.00  0.00     0.000 C 
BRANCH   2   3
ATOM      3  C   UNL     1     -22.112 -30.987  15.986  1.00  0.00     0.000 C 
BRANCH   3   4
ATOM      4  C   UNL     1     -21.527 -30.219  17.184  1.00  0.00     0.000 C 
BRANCH   4   5
ATOM      5  C   UNL     1     -21.587 -28.696  16.988  1.00  0.00     0.000 C 
BRANCH   5   6
ATOM      6  C   UNL     1     -22.899 -28.082  17.508  1.00  0.00     0.000 C 
BRANCH   6   7
ATOM      7  C   UNL     1     -23.234 -26.744  16.828  1.00  0.00     0.000 C 
BRANCH   7   8
ATOM      8  C   UNL     1     -21.994 -26.066  16.222  1.00  0.00     0.000 C 
BRANCH   8   9
ATOM      9  C   UNL     1     -22.321 -25.253  14.959  1.00  0.00     0.000 C 
BRANCH   9  10
ATOM     10  C   UNL     1     -21.068 -24.892  14.143  1.00  0.00     0.000 C 
BRANCH  10  11
ATOM     11  C   UNL     1     -21.143 -23.486  13.528  1.00  0.00     0.000 C 
BRANCH  11  12
ATOM     12  C   UNL     1     -19.869 -23.110  12.752  1.00  0.00     0.000 C 
BRANCH  12  13
ATOM     13  C   UNL     1     -19.815 -23.761  11.360  1.00  0.00     0.006 C 
BRANCH  13  14
ATOM     14  C   UNL     1     -20.897 -23.222  10.417  1.00  0.00     0.053 C 
BRANCH  14  15
ATOM     15  C   UNL     1     -20.301 -22.278   9.422  1.00  0.00     0.041 C 
ATOM     16  O   UNL     1     -20.693 -21.082   9.370  1.00  0.00    -0.550 OA
ATOM     17  O   UNL     1     -19.278 -22.706   8.583  1.00  0.00    -0.550 OA
ENDBRANCH  14  15
ENDBRANCH  13  14
ENDBRANCH  12  13
ENDBRANCH  11  12
ENDBRANCH  10  11
ENDBRANCH   9  10
ENDBRANCH   8   9
ENDBRANCH   7   8
ENDBRANCH   6   7
ENDBRANCH   5   6
ENDBRANCH   4   5
ENDBRANCH   3   4
ENDBRANCH   2   3
ENDBRANCH   1   2
BRANCH   1  18
ATOM     18  C   UNL     1     -20.622 -31.144  12.505  1.00  0.00     0.000 C 
BRANCH  18  19
ATOM     19  C   UNL     1     -20.685 -29.788  11.779  1.00  0.00     0.000 C 
BRANCH  19  20
ATOM     20  C   UNL     1     -19.398 -28.941  11.862  1.00  0.00     0.000 C 
BRANCH  20  21
ATOM     21  C   UNL     1     -19.498 -27.701  12.768  1.00  0.00     0.000 C 
BRANCH  21  22
ATOM     22  C   UNL     1     -19.095 -27.999  14.223  1.00  0.00     0.000 C 
BRANCH  22  23
ATOM     23  C   UNL     1     -17.729 -27.402  14.599  1.00  0.00     0.000 C 
BRANCH  23  24
ATOM     24  C   UNL     1     -17.554 -25.911  14.246  1.00  0.00    -0.000 C 
BRANCH  24  25
ATOM     25  C   UNL     1     -16.388 -25.628  13.271  1.00  0.00    -0.000 C 
BRANCH  25  26
ATOM     26  C   UNL     1     -16.841 -25.569  11.802  1.00  0.00    -0.000 C 
BRANCH  26  27
ATOM     27  C   UNL     1     -15.765 -26.084  10.822  1.00  0.00    -0.000 C 
BRANCH  27  28
ATOM     28  C   UNL     1     -16.176 -27.344  10.034  1.00  0.00    -0.000 C 
BRANCH  28  29
ATOM     29  C   UNL     1     -17.366 -27.122   9.078  1.00  0.00    -0.000 C 
BRANCH  29  30
ATOM     30  C   UNL     1     -17.328 -25.731   8.423  1.00  0.00    -0.000 C 
BRANCH  30  31
ATOM     31  C   UNL     1     -16.563 -25.723   7.091  1.00  0.00    -0.003 C 
ATOM     32  C   UNL     1     -15.096 -25.328   7.258  1.00  0.00     0.004 C 
ENDBRANCH  30  31
ENDBRANCH  29  30
ENDBRANCH  28  29
ENDBRANCH  27  28
ENDBRANCH  26  27
ENDBRANCH  25  26
ENDBRANCH  24  25
ENDBRANCH  23  24
ENDBRANCH  22  23
ENDBRANCH  21  22
ENDBRANCH  20  21
ENDBRANCH  19  20
ENDBRANCH  18  19
ENDBRANCH   1  18
TORSDOF 28
ENDMDL
MODEL 5
REMARK VINA RESULT:    -5.345      3.664      8.114
REMARK INTER + INTRA:         -17.875
REMARK INTER:                 -12.704
REMARK INTRA:                  -5.171
REMARK UNBOUND:                -3.781
REMARK SMILES CCCCCCCCCCCCCCCCCCCCCCCCCCCCCC(=O)[O-]
REMARK SMILES IDX 16 1 17 2 18 3 19 4 20 5 21 6 22 7 23 8 24 9 25 10 26 11
REMARK SMILES IDX 27 12 28 13 29 14 30 15 31 16 32 17 15 18 14 19 13 20 12 21
REMARK SMILES IDX 11 22 10 23 9 24 8 25 7 26 6 27 5 28 4 29 3 30 2 31 1 32
REMARK H PARENT
REMARK Flexibility Score: inf
ROOT
ATOM      1  C   UNL     1     -20.021 -25.141  10.026  1.00  0.00     0.000 C 
ENDROOT
BRANCH   1   2
ATOM      2  C   UNL     1     -21.304 -24.310   9.866  1.00  0.00     0.000 C 
BRANCH   2   3
ATOM      3  C   UNL     1     -21.019 -22.853   9.466  1.00  0.00     0.000 C 
BRANCH   3   4
ATOM      4  C   UNL     1     -19.520 -22.508   9.512  1.00  0.00     0.000 C 
BRANCH   4   5
ATOM      5  C   UNL     1     -19.193 -21.460  10.587  1.00  0.00     0.000 C 
BRANCH   5   6
ATOM      6  C   UNL     1     -19.877 -21.759  11.934  1.00  0.00     0.000 C 
BRANCH   6   7
ATOM      7  C   UNL     1     -19.208 -22.920  12.689  1.00  0.00     0.000 C 
BRANCH   7   8
ATOM      8  C   UNL     1     -20.194 -23.678  13.594  1.00  0.00     0.000 C 
BRANCH   8   9
ATOM      9  C   UNL     1     -19.514 -24.283  14.833  1.00  0.00     0.000 C 
BRANCH   9  10
ATOM     10  C   UNL     1     -20.457 -25.188  15.646  1.00  0.00     0.000 C 
BRANCH  10  11
ATOM     11  C   UNL     1     -21.803 -25.427  14.945  1.00  0.00     0.000 C 
BRANCH  11  12
ATOM     12  C   UNL     1     -22.568 -26.628  15.527  1.00  0.00     0.000 C 
BRANCH  12  13
ATOM     13  C   UNL     1     -22.096 -26.997  16.943  1.00  0.00     0.006 C 
BRANCH  13  14
ATOM     14  C   UNL     1     -22.626 -28.360  17.404  1.00  0.00     0.053 C 
BRANCH  14  15
ATOM     15  C   UNL     1     -21.771 -29.463  16.864  1.00  0.00     0.041 C 
ATOM     16  O   UNL     1     -20.578 -29.583  17.247  1.00  0.00    -0.550 OA
ATOM     17  O   UNL     1     -22.307 -30.385  15.973  1.00  0.00    -0.550 OA
ENDBRANCH  14  15
ENDBRANCH  13  14
ENDBRANCH  12  13
ENDBRANCH  11  12
ENDBRANCH  10  11
ENDBRANCH   9  10
ENDBRANCH   8   9
ENDBRANCH   7   8
ENDBRANCH   6   7
ENDBRANCH   5   6
ENDBRANCH   4   5
ENDBRANCH   3   4
ENDBRANCH   2   3
ENDBRANCH   1   2
BRANCH   1  18
ATOM     18  C   UNL     1     -20.241 -26.587   9.561  1.00  0.00     0.000 C 
BRANCH  18  19
ATOM     19  C   UNL     1     -18.930 -27.311   9.206  1.00  0.00     0.000 C 
BRANCH  19  20
ATOM     20  C   UNL     1     -19.099 -28.607   8.386  1.00  0.00     0.000 C 
BRANCH  20  21
ATOM     21  C   UNL     1     -18.693 -29.895   9.124  1.00  0.00     0.000 C 
BRANCH  21  22
ATOM     22  C   UNL     1     -18.069 -29.614  10.502  1.00  0.00     0.000 C 
BRANCH  22  23
ATOM     23  C   UNL     1     -18.270 -30.770  11.496  1.00  0.00     0.000 C 
BRANCH  23  24
ATOM     24  C   UNL     1     -19.622 -30.760  12.238  1.00  0.00    -0.000 C 
BRANCH  24  25
ATOM     25  C   UNL     1     -20.410 -29.439  12.091  1.00  0.00    -0.000 C 
BRANCH  25  26
ATOM     26  C   UNL     1     -20.524 -28.662  13.414  1.00  0.00    -0.000 C 
BRANCH  26  27
ATOM     27  C   UNL     1     -19.172 -28.097  13.895  1.00  0.00    -0.000 C 
BRANCH  27  28
ATOM     28  C   UNL     1     -18.489 -27.144  12.894  1.00  0.00    -0.000 C 
BRANCH  28  29
ATOM     29  C   UNL     1     -17.160 -26.549  13.403  1.00  0.00    -0.000 C 
BRANCH  29  30
ATOM     30  C   UNL     1     -16.674 -25.385  12.522  1.00  0.00    -0.000 C 
BRANCH  30  31
ATOM     31  C   UNL     1     -15.436 -25.749  11.690  1.00  0.00    -0.003 C 
ATOM     32  C   UNL     1     -15.786 -26.135  10.253  1.00  0.00     0.004 C 
ENDBRANCH  30  31
ENDBRANCH  29  30
ENDBRANCH  28  29
ENDBRANCH  27  28
ENDBRANCH  26  27
ENDBRANCH  25  26
ENDBRANCH  24  25
ENDBRANCH  23  24
ENDBRANCH  22  23
ENDBRANCH  21  22
ENDBRANCH  20  21
ENDBRANCH  19  20
ENDBRANCH  18  19
ENDBRANCH   1  18
TORSDOF 28
ENDMDL
MODEL 6
REMARK VINA RESULT:    -5.274      4.198      9.471
REMARK INTER + INTRA:         -17.687
REMARK INTER:                 -14.212
REMARK INTRA:                  -3.475
REMARK UNBOUND:                -3.781
REMARK SMILES CCCCCCCCCCCCCCCCCCCCCCCCCCCCCC(=O)[O-]
REMARK SMILES IDX 16 1 17 2 18 3 19 4 20 5 21 6 22 7 23 8 24 9 25 10 26 11
REMARK SMILES IDX 27 12 28 13 29 14 30 15 31 16 32 17 15 18 14 19 13 20 12 21
REMARK SMILES IDX 11 22 10 23 9 24 8 25 7 26 6 27 5 28 4 29 3 30 2 31 1 32
REMARK H PARENT
REMARK Flexibility Score: inf
ROOT
ATOM      1  C   UNL     1     -20.241 -29.151  11.736  1.00  0.00     0.000 C 
ENDROOT
BRANCH   1   2
ATOM      2  C   UNL     1     -20.460 -30.283  12.752  1.00  0.00     0.000 C 
BRANCH   2   3
ATOM      3  C   UNL     1     -21.315 -29.844  13.952  1.00  0.00     0.000 C 
BRANCH   3   4
ATOM      4  C   UNL     1     -22.055 -31.019  14.613  1.00  0.00     0.000 C 
BRANCH   4   5
ATOM      5  C   UNL     1     -22.174 -30.853  16.137  1.00  0.00     0.000 C 
BRANCH   5   6
ATOM      6  C   UNL     1     -21.633 -29.499  16.629  1.00  0.00     0.000 C 
BRANCH   6   7
ATOM      7  C   UNL     1     -22.743 -28.584  17.172  1.00  0.00     0.000 C 
BRANCH   7   8
ATOM      8  C   UNL     1     -22.839 -27.256  16.402  1.00  0.00     0.000 C 
BRANCH   8   9
ATOM      9  C   UNL     1     -23.951 -26.340  16.937  1.00  0.00     0.000 C 
BRANCH   9  10
ATOM     10  C   UNL     1     -24.320 -25.214  15.955  1.00  0.00     0.000 C 
BRANCH  10  11
ATOM     11  C   UNL     1     -25.799 -24.810  16.041  1.00  0.00     0.000 C 
BRANCH  11  12
ATOM     12  C   UNL     1     -26.540 -24.988  14.704  1.00  0.00     0.000 C 
BRANCH  12  13
ATOM     13  C   UNL     1     -27.991 -24.483  14.764  1.00  0.00     0.006 C 
BRANCH  13  14
ATOM     14  C   UNL     1     -28.277 -23.663  16.029  1.00  0.00     0.053 C 
BRANCH  14  15
ATOM     15  C   UNL     1     -29.674 -23.129  16.000  1.00  0.00     0.041 C 
ATOM     16  O   UNL     1     -30.089 -22.394  16.935  1.00  0.00    -0.550 OA
ATOM     17  O   UNL     1     -30.502 -23.404  14.919  1.00  0.00    -0.550 OA
ENDBRANCH  14  15
ENDBRANCH  13  14
ENDBRANCH  12  13
ENDBRANCH  11  12
ENDBRANCH  10  11
ENDBRANCH   9  10
ENDBRANCH   8   9
ENDBRANCH   7   8
ENDBRANCH   6   7
ENDBRANCH   5   6
ENDBRANCH   4   5
ENDBRANCH   3   4
ENDBRANCH   2   3
ENDBRANCH   1   2
BRANCH   1  18
ATOM     18  C   UNL     1     -19.076 -29.477  10.791  1.00  0.00     0.000 C 
BRANCH  18  19
ATOM     19  C   UNL     1     -17.736 -28.884  11.260  1.00  0.00     0.000 C 
BRANCH  19  20
ATOM     20  C   UNL     1     -17.063 -27.918  10.263  1.00  0.00     0.000 C 
BRANCH  20  21
ATOM     21  C   UNL     1     -17.282 -26.424  10.563  1.00  0.00     0.000 C 
BRANCH  21  22
ATOM     22  C   UNL     1     -16.288 -25.879  11.604  1.00  0.00     0.000 C 
BRANCH  22  23
ATOM     23  C   UNL     1     -16.974 -25.415  12.900  1.00  0.00     0.000 C 
BRANCH  23  24
ATOM     24  C   UNL     1     -16.454 -26.090  14.185  1.00  0.00    -0.000 C 
BRANCH  24  25
ATOM     25  C   UNL     1     -17.269 -27.330  14.617  1.00  0.00    -0.000 C 
BRANCH  25  26
ATOM     26  C   UNL     1     -18.789 -27.108  14.523  1.00  0.00    -0.000 C 
BRANCH  26  27
ATOM     27  C   UNL     1     -19.355 -26.323  15.724  1.00  0.00    -0.000 C 
BRANCH  27  28
ATOM     28  C   UNL     1     -20.309 -25.174  15.339  1.00  0.00    -0.000 C 
BRANCH  28  29
ATOM     29  C   UNL     1     -19.632 -24.042  14.539  1.00  0.00    -0.000 C 
BRANCH  29  30
ATOM     30  C   UNL     1     -20.495 -23.578  13.353  1.00  0.00    -0.000 C 
BRANCH  30  31
ATOM     31  C   UNL     1     -19.877 -22.393  12.598  1.00  0.00    -0.003 C 
ATOM     32  C   UNL     1     -19.129 -22.826  11.337  1.00  0.00     0.004 C 
ENDBRANCH  30  31
ENDBRANCH  29  30
ENDBRANCH  28  29
ENDBRANCH  27  28
ENDBRANCH  26  27
ENDBRANCH  25  26
ENDBRANCH  24  25
ENDBRANCH  23  24
ENDBRANCH  22  23
ENDBRANCH  21  22
ENDBRANCH  20  21
ENDBRANCH  19  20
ENDBRANCH  18  19
ENDBRANCH   1  18
TORSDOF 28
ENDMDL
MODEL 7
REMARK VINA RESULT:    -5.269      5.859     10.099
REMARK INTER + INTRA:         -17.676
REMARK INTER:                 -15.583
REMARK INTRA:                  -2.092
REMARK UNBOUND:                -3.781
REMARK SMILES CCCCCCCCCCCCCCCCCCCCCCCCCCCCCC(=O)[O-]
REMARK SMILES IDX 16 1 17 2 18 3 19 4 20 5 21 6 22 7 23 8 24 9 25 10 26 11
REMARK SMILES IDX 27 12 28 13 29 14 30 15 31 16 32 17 15 18 14 19 13 20 12 21
REMARK SMILES IDX 11 22 10 23 9 24 8 25 7 26 6 27 5 28 4 29 3 30 2 31 1 32
REMARK H PARENT
REMARK Flexibility Score: inf
ROOT
ATOM      1  C   UNL     1     -25.223 -25.759   8.730  1.00  0.00     0.000 C 
ENDROOT
BRANCH   1   2
ATOM      2  C   UNL     1     -24.586 -24.376   8.940  1.00  0.00     0.000 C 
BRANCH   2   3
ATOM      3  C   UNL     1     -23.559 -24.026   7.851  1.00  0.00     0.000 C 
BRANCH   3   4
ATOM      4  C   UNL     1     -23.674 -22.568   7.374  1.00  0.00     0.000 C 
BRANCH   4   5
ATOM      5  C   UNL     1     -22.885 -21.596   8.265  1.00  0.00     0.000 C 
BRANCH   5   6
ATOM      6  C   UNL     1     -21.373 -21.625   7.979  1.00  0.00     0.000 C 
BRANCH   6   7
ATOM      7  C   UNL     1     -20.553 -22.101   9.190  1.00  0.00     0.000 C 
BRANCH   7   8
ATOM      8  C   UNL     1     -19.757 -20.961   9.847  1.00  0.00     0.000 C 
BRANCH   8   9
ATOM      9  C   UNL     1     -19.254 -21.325  11.253  1.00  0.00     0.000 C 
BRANCH   9  10
ATOM     10  C   UNL     1     -19.838 -22.651  11.770  1.00  0.00     0.000 C 
BRANCH  10  11
ATOM     11  C   UNL     1     -18.771 -23.574  12.378  1.00  0.00     0.000 C 
BRANCH  11  12
ATOM     12  C   UNL     1     -18.252 -24.619  11.374  1.00  0.00     0.000 C 
BRANCH  12  13
ATOM     13  C   UNL     1     -17.786 -25.913  12.061  1.00  0.00     0.006 C 
BRANCH  13  14
ATOM     14  C   UNL     1     -16.454 -25.740  12.801  1.00  0.00     0.053 C 
BRANCH  14  15
ATOM     15  C   UNL     1     -16.637 -25.973  14.267  1.00  0.00     0.041 C 
ATOM     16  O   UNL     1     -15.688 -25.752  15.066  1.00  0.00    -0.550 OA
ATOM     17  O   UNL     1     -17.869 -26.390  14.757  1.00  0.00    -0.550 OA
ENDBRANCH  14  15
ENDBRANCH  13  14
ENDBRANCH  12  13
ENDBRANCH  11  12
ENDBRANCH  10  11
ENDBRANCH   9  10
ENDBRANCH   8   9
ENDBRANCH   7   8
ENDBRANCH   6   7
ENDBRANCH   5   6
ENDBRANCH   4   5
ENDBRANCH   3   4
ENDBRANCH   2   3
ENDBRANCH   1   2
BRANCH   1  18
ATOM     18  C   UNL     1     -26.619 -25.823   9.364  1.00  0.00     0.000 C 
BRANCH  18  19
ATOM     19  C   UNL     1     -27.004 -27.239   9.830  1.00  0.00     0.000 C 
BRANCH  19  20
ATOM     20  C   UNL     1     -26.366 -28.389   9.024  1.00  0.00     0.000 C 
BRANCH  20  21
ATOM     21  C   UNL     1     -27.231 -28.924   7.868  1.00  0.00     0.000 C 
BRANCH  21  22
ATOM     22  C   UNL     1     -26.388 -29.526   6.730  1.00  0.00     0.000 C 
BRANCH  22  23
ATOM     23  C   UNL     1     -26.206 -28.562   5.547  1.00  0.00     0.000 C 
BRANCH  23  24
ATOM     24  C   UNL     1     -24.912 -27.724   5.586  1.00  0.00    -0.000 C 
BRANCH  24  25
ATOM     25  C   UNL     1     -23.649 -28.496   5.145  1.00  0.00    -0.000 C 
BRANCH  25  26
ATOM     26  C   UNL     1     -23.774 -29.083   3.727  1.00  0.00    -0.000 C 
BRANCH  26  27
ATOM     27  C   UNL     1     -22.490 -28.906   2.890  1.00  0.00    -0.000 C 
BRANCH  27  28
ATOM     28  C   UNL     1     -22.516 -27.696   1.935  1.00  0.00    -0.000 C 
BRANCH  28  29
ATOM     29  C   UNL     1     -21.470 -26.614   2.269  1.00  0.00    -0.000 C 
BRANCH  29  30
ATOM     30  C   UNL     1     -21.400 -25.525   1.184  1.00  0.00    -0.000 C 
BRANCH  30  31
ATOM     31  C   UNL     1     -20.189 -25.691   0.255  1.00  0.00    -0.003 C 
ATOM     32  C   UNL     1     -19.114 -26.601   0.848  1.00  0.00     0.004 C 
ENDBRANCH  30  31
ENDBRANCH  29  30
ENDBRANCH  28  29
ENDBRANCH  27  28
ENDBRANCH  26  27
ENDBRANCH  25  26
ENDBRANCH  24  25
ENDBRANCH  23  24
ENDBRANCH  22  23
ENDBRANCH  21  22
ENDBRANCH  20  21
ENDBRANCH  19  20
ENDBRANCH  18  19
ENDBRANCH   1  18
TORSDOF 28
ENDMDL
MODEL 8
REMARK VINA RESULT:    -5.259      2.131      5.949
REMARK INTER + INTRA:         -17.649
REMARK INTER:                 -13.845
REMARK INTRA:                  -3.804
REMARK UNBOUND:                -3.781
REMARK SMILES CCCCCCCCCCCCCCCCCCCCCCCCCCCCCC(=O)[O-]
REMARK SMILES IDX 16 1 17 2 18 3 19 4 20 5 21 6 22 7 23 8 24 9 25 10 26 11
REMARK SMILES IDX 27 12 28 13 29 14 30 15 31 16 32 17 15 18 14 19 13 20 12 21
REMARK SMILES IDX 11 22 10 23 9 24 8 25 7 26 6 27 5 28 4 29 3 30 2 31 1 32
REMARK H PARENT
REMARK Flexibility Score: inf
ROOT
ATOM      1  C   UNL     1     -24.384 -25.561  15.766  1.00  0.00     0.000 C 
ENDROOT
BRANCH   1   2
ATOM      2  C   UNL     1     -23.624 -25.730  17.091  1.00  0.00     0.000 C 
BRANCH   2   3
ATOM      3  C   UNL     1     -24.036 -27.001  17.851  1.00  0.00     0.000 C 
BRANCH   3   4
ATOM      4  C   UNL     1     -22.848 -27.944  18.114  1.00  0.00     0.000 C 
BRANCH   4   5
ATOM      5  C   UNL     1     -22.469 -28.768  16.874  1.00  0.00     0.000 C 
BRANCH   5   6
ATOM      6  C   UNL     1     -20.995 -28.587  16.470  1.00  0.00     0.000 C 
BRANCH   6   7
ATOM      7  C   UNL     1     -20.813 -27.537  15.360  1.00  0.00     0.000 C 
BRANCH   7   8
ATOM      8  C   UNL     1     -20.278 -26.199  15.899  1.00  0.00     0.000 C 
BRANCH   8   9
ATOM      9  C   UNL     1     -20.660 -25.007  15.007  1.00  0.00     0.000 C 
BRANCH   9  10
ATOM     10  C   UNL     1     -19.463 -24.095  14.688  1.00  0.00     0.000 C 
BRANCH  10  11
ATOM     11  C   UNL     1     -19.284 -23.852  13.182  1.00  0.00     0.000 C 
BRANCH  11  12
ATOM     12  C   UNL     1     -18.506 -24.984  12.489  1.00  0.00     0.000 C 
BRANCH  12  13
ATOM     13  C   UNL     1     -17.219 -25.360  13.241  1.00  0.00     0.006 C 
BRANCH  13  14
ATOM     14  C   UNL     1     -17.225 -26.815  13.726  1.00  0.00     0.053 C 
BRANCH  14  15
ATOM     15  C   UNL     1     -16.863 -26.885  15.175  1.00  0.00     0.041 C 
ATOM     16  O   UNL     1     -16.933 -27.980  15.793  1.00  0.00    -0.550 OA
ATOM     17  O   UNL     1     -16.404 -25.750  15.833  1.00  0.00    -0.550 OA
ENDBRANCH  14  15
ENDBRANCH  13  14
ENDBRANCH  12  13
ENDBRANCH  11  12
ENDBRANCH  10  11
ENDBRANCH   9  10
ENDBRANCH   8   9
ENDBRANCH   7   8
ENDBRANCH   6   7
ENDBRANCH   5   6
ENDBRANCH   4   5
ENDBRANCH   3   4
ENDBRANCH   2   3
ENDBRANCH   1   2
BRANCH   1  18
ATOM     18  C   UNL     1     -25.712 -24.823  15.983  1.00  0.00     0.000 C 
BRANCH  18  19
ATOM     19  C   UNL     1     -26.710 -25.027  14.829  1.00  0.00     0.000 C 
BRANCH  19  20
ATOM     20  C   UNL     1     -27.849 -23.989  14.757  1.00  0.00     0.000 C 
BRANCH  20  21
ATOM     21  C   UNL     1     -28.303 -23.433  16.119  1.00  0.00     0.000 C 
BRANCH  21  22
ATOM     22  C   UNL     1     -29.404 -24.289  16.769  1.00  0.00     0.000 C 
BRANCH  22  23
ATOM     23  C   UNL     1     -30.551 -23.447  17.351  1.00  0.00     0.000 C 
BRANCH  23  24
ATOM     24  C   UNL     1     -30.916 -22.194  16.530  1.00  0.00    -0.000 C 
BRANCH  24  25
ATOM     25  C   UNL     1     -32.243 -22.319  15.748  1.00  0.00    -0.000 C 
BRANCH  25  26
ATOM     26  C   UNL     1     -33.202 -23.354  16.362  1.00  0.00    -0.000 C 
BRANCH  26  27
ATOM     27  C   UNL     1     -33.921 -24.210  15.299  1.00  0.00    -0.000 C 
BRANCH  27  28
ATOM     28  C   UNL     1     -33.418 -25.664  15.207  1.00  0.00    -0.000 C 
BRANCH  28  29
ATOM     29  C   UNL     1     -32.662 -25.983  13.901  1.00  0.00    -0.000 C 
BRANCH  29  30
ATOM     30  C   UNL     1     -31.275 -25.319  13.861  1.00  0.00    -0.000 C 
BRANCH  30  31
ATOM     31  C   UNL     1     -31.169 -24.233  12.780  1.00  0.00    -0.003 C 
ATOM     32  C   UNL     1     -30.105 -24.552  11.729  1.00  0.00     0.004 C 
ENDBRANCH  30  31
ENDBRANCH  29  30
ENDBRANCH  28  29
ENDBRANCH  27  28
ENDBRANCH  26  27
ENDBRANCH  25  26
ENDBRANCH  24  25
ENDBRANCH  23  24
ENDBRANCH  22  23
ENDBRANCH  21  22
ENDBRANCH  20  21
ENDBRANCH  19  20
ENDBRANCH  18  19
ENDBRANCH   1  18
TORSDOF 28
ENDMDL
MODEL 9
REMARK VINA RESULT:    -5.226      3.327      8.242
REMARK INTER + INTRA:         -17.562
REMARK INTER:                 -13.752
REMARK INTRA:                  -3.809
REMARK UNBOUND:                -3.781
REMARK SMILES CCCCCCCCCCCCCCCCCCCCCCCCCCCCCC(=O)[O-]
REMARK SMILES IDX 16 1 17 2 18 3 19 4 20 5 21 6 22 7 23 8 24 9 25 10 26 11
REMARK SMILES IDX 27 12 28 13 29 14 30 15 31 16 32 17 15 18 14 19 13 20 12 21
REMARK SMILES IDX 11 22 10 23 9 24 8 25 7 26 6 27 5 28 4 29 3 30 2 31 1 32
REMARK H PARENT
REMARK Flexibility Score: inf
ROOT
ATOM      1  C   UNL     1     -16.591 -27.505   8.241  1.00  0.00     0.000 C 
ENDROOT
BRANCH   1   2
ATOM      2  C   UNL     1     -17.578 -28.639   7.919  1.00  0.00     0.000 C 
BRANCH   2   3
ATOM      3  C   UNL     1     -18.591 -28.878   9.049  1.00  0.00     0.000 C 
BRANCH   3   4
ATOM      4  C   UNL     1     -18.619 -30.343   9.519  1.00  0.00     0.000 C 
BRANCH   4   5
ATOM      5  C   UNL     1     -18.558 -30.469  11.050  1.00  0.00     0.000 C 
BRANCH   5   6
ATOM      6  C   UNL     1     -19.883 -30.081  11.730  1.00  0.00     0.000 C 
BRANCH   6   7
ATOM      7  C   UNL     1     -20.461 -31.220  12.586  1.00  0.00     0.000 C 
BRANCH   7   8
ATOM      8  C   UNL     1     -21.837 -30.871  13.177  1.00  0.00     0.000 C 
BRANCH   8   9
ATOM      9  C   UNL     1     -21.785 -30.625  14.693  1.00  0.00     0.000 C 
BRANCH   9  10
ATOM     10  C   UNL     1     -21.429 -29.170  15.047  1.00  0.00     0.000 C 
BRANCH  10  11
ATOM     11  C   UNL     1     -21.239 -28.954  16.556  1.00  0.00     0.000 C 
BRANCH  11  12
ATOM     12  C   UNL     1     -22.410 -28.188  17.196  1.00  0.00     0.000 C 
BRANCH  12  13
ATOM     13  C   UNL     1     -22.816 -26.948  16.383  1.00  0.00     0.006 C 
BRANCH  13  14
ATOM     14  C   UNL     1     -24.039 -26.234  16.972  1.00  0.00     0.053 C 
BRANCH  14  15
ATOM     15  C   UNL     1     -24.708 -25.397  15.928  1.00  0.00     0.041 C 
ATOM     16  O   UNL     1     -24.042 -24.937  14.963  1.00  0.00    -0.550 OA
ATOM     17  O   UNL     1     -26.076 -25.163  15.997  1.00  0.00    -0.550 OA
ENDBRANCH  14  15
ENDBRANCH  13  14
ENDBRANCH  12  13
ENDBRANCH  11  12
ENDBRANCH  10  11
ENDBRANCH   9  10
ENDBRANCH   8   9
ENDBRANCH   7   8
ENDBRANCH   6   7
ENDBRANCH   5   6
ENDBRANCH   4   5
ENDBRANCH   3   4
ENDBRANCH   2   3
ENDBRANCH   1   2
BRANCH   1  18
ATOM     18  C   UNL     1     -16.230 -27.496   9.733  1.00  0.00     0.000 C 
BRANCH  18  19
ATOM     19  C   UNL     1     -16.363 -26.104  10.376  1.00  0.00     0.000 C 
BRANCH  19  20
ATOM     20  C   UNL     1     -16.653 -26.108  11.892  1.00  0.00     0.000 C 
BRANCH  20  21
ATOM     21  C   UNL     1     -18.006 -26.725  12.288  1.00  0.00     0.000 C 
BRANCH  21  22
ATOM     22  C   UNL     1     -17.903 -27.622  13.535  1.00  0.00     0.000 C 
BRANCH  22  23
ATOM     23  C   UNL     1     -18.579 -27.006  14.771  1.00  0.00     0.000 C 
BRANCH  23  24
ATOM     24  C   UNL     1     -18.299 -25.505  14.983  1.00  0.00    -0.000 C 
BRANCH  24  25
ATOM     25  C   UNL     1     -19.573 -24.633  15.062  1.00  0.00    -0.000 C 
BRANCH  25  26
ATOM     26  C   UNL     1     -20.620 -25.010  13.998  1.00  0.00    -0.000 C 
BRANCH  26  27
ATOM     27  C   UNL     1     -20.916 -23.859  13.014  1.00  0.00    -0.000 C 
BRANCH  27  28
ATOM     28  C   UNL     1     -19.785 -22.818  12.896  1.00  0.00    -0.000 C 
BRANCH  28  29
ATOM     29  C   UNL     1     -19.270 -22.616  11.456  1.00  0.00    -0.000 C 
BRANCH  29  30
ATOM     30  C   UNL     1     -19.170 -21.126  11.083  1.00  0.00    -0.000 C 
BRANCH  30  31
ATOM     31  C   UNL     1     -19.867 -20.800   9.755  1.00  0.00    -0.003 C 
ATOM     32  C   UNL     1     -20.588 -22.009   9.158  1.00  0.00     0.004 C 
ENDBRANCH  30  31
ENDBRANCH  29  30
ENDBRANCH  28  29
ENDBRANCH  27  28
ENDBRANCH  26  27
ENDBRANCH  25  26
ENDBRANCH  24  25
ENDBRANCH  23  24
ENDBRANCH  22  23
ENDBRANCH  21  22
ENDBRANCH  20  21
ENDBRANCH  19  20
ENDBRANCH  18  19
ENDBRANCH   1  18
TORSDOF 28
ENDMDL
