MODEL 1
REMARK VINA RESULT:    -5.227      0.000      0.000
REMARK INTER + INTRA:         -10.097
REMARK INTER:                  -7.976
REMARK INTRA:                  -2.120
REMARK UNBOUND:                -2.120
REMARK SMILES CC(=O)CCC=C(C)CCC=C(C)CCC=C(C)C
REMARK SMILES IDX 10 1 11 2 12 3 13 4 14 5 15 6 16 7 18 8 17 9 19 10 9 11 7 12
REMARK SMILES IDX 6 13 8 14 5 15 4 16 2 17 3 18 1 19
REMARK H PARENT
REMARK Flexibility Score: inf
ROOT
ATOM      1  C   UNL     1       8.999 -17.460  23.209  1.00  0.00     0.032 C 
ENDROOT
BRANCH   1   2
ATOM      2  C   UNL     1       9.719 -18.648  22.624  1.00  0.00    -0.028 C 
ATOM      3  C   UNL     1      11.015 -18.641  22.237  1.00  0.00    -0.077 C 
ATOM      4  C   UNL     1      11.902 -17.435  22.444  1.00  0.00     0.039 C 
BRANCH   3   5
ATOM      5  C   UNL     1      11.596 -19.879  21.585  1.00  0.00     0.034 C 
BRANCH   5   6
ATOM      6  C   UNL     1      12.033 -19.612  20.138  1.00  0.00     0.032 C 
BRANCH   6   7
ATOM      7  C   UNL     1      13.527 -19.760  19.965  1.00  0.00    -0.028 C 
ATOM      8  C   UNL     1      15.792 -19.162  19.226  1.00  0.00     0.039 C 
ATOM      9  C   UNL     1      14.325 -18.847  19.369  1.00  0.00    -0.080 C 
ATOM     10  C   UNL     1      13.795 -17.526  18.865  1.00  0.00     0.039 C 
ENDBRANCH   6   7
ENDBRANCH   5   6
ENDBRANCH   3   5
ENDBRANCH   1   2
BRANCH   1  11
ATOM     11  C   UNL     1       8.059 -16.836  22.173  1.00  0.00     0.034 C 
BRANCH  11  12
ATOM     12  C   UNL     1       8.719 -15.650  21.499  1.00  0.00    -0.077 C 
ATOM     13  C   UNL     1       9.256 -15.711  20.259  1.00  0.00    -0.028 C 
ATOM     14  C   UNL     1       8.715 -14.322  22.213  1.00  0.00     0.039 C 
BRANCH  13  15
ATOM     15  C   UNL     1       9.342 -16.960  19.417  1.00  0.00     0.035 C 
BRANCH  15  16
ATOM     16  C   UNL     1       8.436 -16.850  18.187  1.00  0.00     0.079 C 
BRANCH  16  17
ATOM     17  C   UNL     1       7.517 -18.039  18.095  1.00  0.00     0.130 C 
ATOM     18  O   UNL     1       6.925 -18.263  17.050  1.00  0.00    -0.300 OA
ATOM     19  C   UNL     1       7.302 -18.953  19.265  1.00  0.00     0.087 C 
ENDBRANCH  16  17
ENDBRANCH  15  16
ENDBRANCH  13  15
ENDBRANCH  11  12
ENDBRANCH   1  11
TORSDOF 9
ENDMDL
MODEL 2
REMARK VINA RESULT:    -5.185      8.633     11.002
REMARK INTER + INTRA:         -10.033
REMARK INTER:                  -7.980
REMARK INTRA:                  -2.052
REMARK UNBOUND:                -2.120
REMARK SMILES CC(=O)CCC=C(C)CCC=C(C)CCC=C(C)C
REMARK SMILES IDX 10 1 11 2 12 3 13 4 14 5 15 6 16 7 18 8 17 9 19 10 9 11 7 12
REMARK SMILES IDX 6 13 8 14 5 15 4 16 2 17 3 18 1 19
REMARK H PARENT
REMARK Flexibility Score: inf
ROOT
ATOM      1  C   UNL     1       0.930 -23.843  22.709  1.00  0.00     0.032 C 
ENDROOT
BRANCH   1   2
ATOM      2  C   UNL     1       2.294 -24.477  22.628  1.00  0.00    -0.028 C 
ATOM      3  C   UNL     1       2.573 -25.741  23.020  1.00  0.00    -0.077 C 
ATOM      4  C   UNL     1       1.495 -26.682  23.506  1.00  0.00     0.039 C 
BRANCH   3   5
ATOM      5  C   UNL     1       4.006 -26.231  22.964  1.00  0.00     0.034 C 
BRANCH   5   6
ATOM      6  C   UNL     1       5.011 -25.075  23.072  1.00  0.00     0.032 C 
BRANCH   6   7
ATOM      7  C   UNL     1       5.421 -24.819  24.503  1.00  0.00    -0.028 C 
ATOM      8  C   UNL     1       6.847 -24.041  26.347  1.00  0.00     0.039 C 
ATOM      9  C   UNL     1       6.549 -24.173  24.875  1.00  0.00    -0.080 C 
ATOM     10  C   UNL     1       7.498 -23.572  23.866  1.00  0.00     0.039 C 
ENDBRANCH   6   7
ENDBRANCH   5   6
ENDBRANCH   3   5
ENDBRANCH   1   2
BRANCH   1  11
ATOM     11  C   UNL     1       0.890 -22.792  23.822  1.00  0.00     0.034 C 
BRANCH  11  12
ATOM     12  C   UNL     1       0.505 -23.428  25.143  1.00  0.00    -0.077 C 
ATOM     13  C   UNL     1       1.375 -23.586  26.167  1.00  0.00    -0.028 C 
ATOM     14  C   UNL     1      -0.930 -23.838  25.353  1.00  0.00     0.039 C 
BRANCH  13  15
ATOM     15  C   UNL     1       2.839 -23.230  26.116  1.00  0.00     0.035 C 
BRANCH  15  16
ATOM     16  C   UNL     1       3.201 -22.251  27.236  1.00  0.00     0.079 C 
BRANCH  16  17
ATOM     17  C   UNL     1       3.567 -20.905  26.668  1.00  0.00     0.130 C 
ATOM     18  O   UNL     1       2.734 -20.272  26.036  1.00  0.00    -0.300 OA
ATOM     19  C   UNL     1       4.939 -20.326  26.850  1.00  0.00     0.087 C 
ENDBRANCH  16  17
ENDBRANCH  15  16
ENDBRANCH  13  15
ENDBRANCH  11  12
ENDBRANCH   1  11
TORSDOF 9
ENDMDL
MODEL 3
REMARK VINA RESULT:    -5.164      9.107     11.038
REMARK INTER + INTRA:         -10.001
REMARK INTER:                  -7.458
REMARK INTRA:                  -2.544
REMARK UNBOUND:                -2.120
REMARK SMILES CC(=O)CCC=C(C)CCC=C(C)CCC=C(C)C
REMARK SMILES IDX 10 1 11 2 12 3 13 4 14 5 15 6 16 7 18 8 17 9 19 10 9 11 7 12
REMARK SMILES IDX 6 13 8 14 5 15 4 16 2 17 3 18 1 19
REMARK H PARENT
REMARK Flexibility Score: inf
ROOT
ATOM      1  C   UNL     1       3.722 -24.158  28.678  1.00  0.00     0.032 C 
ENDROOT
BRANCH   1   2
ATOM      2  C   UNL     1       5.003 -23.923  27.920  1.00  0.00    -0.028 C 
ATOM      3  C   UNL     1       5.266 -22.814  27.190  1.00  0.00    -0.077 C 
ATOM      4  C   UNL     1       4.308 -21.646  27.141  1.00  0.00     0.039 C 
BRANCH   3   5
ATOM      5  C   UNL     1       6.560 -22.738  26.406  1.00  0.00     0.034 C 
BRANCH   5   6
ATOM      6  C   UNL     1       6.881 -24.064  25.701  1.00  0.00     0.032 C 
BRANCH   6   7
ATOM      7  C   UNL     1       6.197 -24.165  24.357  1.00  0.00    -0.028 C 
ATOM      8  C   UNL     1       4.774 -25.139  22.607  1.00  0.00     0.039 C 
ATOM      9  C   UNL     1       5.336 -25.146  24.005  1.00  0.00    -0.080 C 
ATOM     10  C   UNL     1       4.914 -26.226  24.973  1.00  0.00     0.039 C 
ENDBRANCH   6   7
ENDBRANCH   5   6
ENDBRANCH   3   5
ENDBRANCH   1   2
BRANCH   1  11
ATOM     11  C   UNL     1       2.716 -24.921  27.810  1.00  0.00     0.034 C 
BRANCH  11  12
ATOM     12  C   UNL     1       1.498 -24.064  27.527  1.00  0.00    -0.077 C 
ATOM     13  C   UNL     1       1.193 -23.600  26.293  1.00  0.00    -0.028 C 
ATOM     14  C   UNL     1       0.543 -23.774  28.656  1.00  0.00     0.039 C 
BRANCH  13  15
ATOM     15  C   UNL     1       2.044 -23.799  25.063  1.00  0.00     0.035 C 
BRANCH  15  16
ATOM     16  C   UNL     1       1.469 -24.909  24.178  1.00  0.00     0.079 C 
BRANCH  16  17
ATOM     17  C   UNL     1       0.711 -24.323  23.016  1.00  0.00     0.130 C 
ATOM     18  O   UNL     1       1.310 -24.039  21.989  1.00  0.00    -0.300 OA
ATOM     19  C   UNL     1      -0.764 -24.067  23.093  1.00  0.00     0.087 C 
ENDBRANCH  16  17
ENDBRANCH  15  16
ENDBRANCH  13  15
ENDBRANCH  11  12
ENDBRANCH   1  11
TORSDOF 9
ENDMDL
MODEL 4
REMARK VINA RESULT:    -5.135     10.362     12.290
REMARK INTER + INTRA:          -9.957
REMARK INTER:                  -7.424
REMARK INTRA:                  -2.533
REMARK UNBOUND:                -2.120
REMARK SMILES CC(=O)CCC=C(C)CCC=C(C)CCC=C(C)C
REMARK SMILES IDX 10 1 11 2 12 3 13 4 14 5 15 6 16 7 18 8 17 9 19 10 9 11 7 12
REMARK SMILES IDX 6 13 8 14 5 15 4 16 2 17 3 18 1 19
REMARK H PARENT
REMARK Flexibility Score: inf
ROOT
ATOM      1  C   UNL     1       0.566 -24.653  22.167  1.00  0.00     0.032 C 
ENDROOT
BRANCH   1   2
ATOM      2  C   UNL     1       1.983 -24.389  22.608  1.00  0.00    -0.028 C 
ATOM      3  C   UNL     1       2.795 -25.318  23.162  1.00  0.00    -0.077 C 
ATOM      4  C   UNL     1       2.371 -26.761  23.312  1.00  0.00     0.039 C 
BRANCH   3   5
ATOM      5  C   UNL     1       4.172 -24.902  23.639  1.00  0.00     0.034 C 
BRANCH   5   6
ATOM      6  C   UNL     1       5.079 -26.113  23.898  1.00  0.00     0.032 C 
BRANCH   6   7
ATOM      7  C   UNL     1       5.914 -25.934  25.144  1.00  0.00    -0.028 C 
ATOM      8  C   UNL     1       6.434 -25.954  27.545  1.00  0.00     0.039 C 
ATOM      9  C   UNL     1       5.503 -26.238  26.395  1.00  0.00    -0.080 C 
ATOM     10  C   UNL     1       4.156 -26.866  26.665  1.00  0.00     0.039 C 
ENDBRANCH   6   7
ENDBRANCH   5   6
ENDBRANCH   3   5
ENDBRANCH   1   2
BRANCH   1  11
ATOM     11  C   UNL     1      -0.428 -24.041  23.160  1.00  0.00     0.034 C 
BRANCH  11  12
ATOM     12  C   UNL     1      -0.847 -25.066  24.195  1.00  0.00    -0.077 C 
ATOM     13  C   UNL     1      -0.676 -24.884  25.524  1.00  0.00    -0.028 C 
ATOM     14  C   UNL     1      -1.551 -26.315  23.728  1.00  0.00     0.039 C 
BRANCH  13  15
ATOM     15  C   UNL     1       0.011 -23.696  26.150  1.00  0.00     0.035 C 
BRANCH  15  16
ATOM     16  C   UNL     1       1.477 -24.014  26.456  1.00  0.00     0.079 C 
BRANCH  16  17
ATOM     17  C   UNL     1       2.358 -22.842  26.116  1.00  0.00     0.130 C 
ATOM     18  O   UNL     1       1.983 -22.029  25.284  1.00  0.00    -0.300 OA
ATOM     19  C   UNL     1       3.696 -22.654  26.767  1.00  0.00     0.087 C 
ENDBRANCH  16  17
ENDBRANCH  15  16
ENDBRANCH  13  15
ENDBRANCH  11  12
ENDBRANCH   1  11
TORSDOF 9
ENDMDL
MODEL 5
REMARK VINA RESULT:    -5.073      1.946      2.734
REMARK INTER + INTRA:          -9.862
REMARK INTER:                  -7.370
REMARK INTRA:                  -2.492
REMARK UNBOUND:                -2.120
REMARK SMILES CC(=O)CCC=C(C)CCC=C(C)CCC=C(C)C
REMARK SMILES IDX 10 1 11 2 12 3 13 4 14 5 15 6 16 7 18 8 17 9 19 10 9 11 7 12
REMARK SMILES IDX 6 13 8 14 5 15 4 16 2 17 3 18 1 19
REMARK H PARENT
REMARK Flexibility Score: inf
ROOT
ATOM      1  C   UNL     1      11.619 -15.476  20.730  1.00  0.00     0.032 C 
ENDROOT
BRANCH   1   2
ATOM      2  C   UNL     1      12.115 -16.898  20.789  1.00  0.00    -0.028 C 
ATOM      3  C   UNL     1      11.955 -17.720  21.851  1.00  0.00    -0.077 C 
ATOM      4  C   UNL     1      11.167 -17.301  23.071  1.00  0.00     0.039 C 
BRANCH   3   5
ATOM      5  C   UNL     1      12.576 -19.101  21.814  1.00  0.00     0.034 C 
BRANCH   5   6
ATOM      6  C   UNL     1      12.839 -19.573  20.377  1.00  0.00     0.032 C 
BRANCH   6   7
ATOM      7  C   UNL     1      14.313 -19.770  20.111  1.00  0.00    -0.028 C 
ATOM      8  C   UNL     1      16.473 -19.457  18.983  1.00  0.00     0.039 C 
ATOM      9  C   UNL     1      15.017 -19.113  19.163  1.00  0.00    -0.080 C 
ATOM     10  C   UNL     1      14.394 -18.040  18.302  1.00  0.00     0.039 C 
ENDBRANCH   6   7
ENDBRANCH   5   6
ENDBRANCH   3   5
ENDBRANCH   1   2
BRANCH   1  11
ATOM     11  C   UNL     1      10.402 -15.369  19.805  1.00  0.00     0.034 C 
BRANCH  11  12
ATOM     12  C   UNL     1      10.809 -15.587  18.362  1.00  0.00    -0.077 C 
ATOM     13  C   UNL     1      10.224 -16.508  17.562  1.00  0.00    -0.028 C 
ATOM     14  C   UNL     1      11.865 -14.691  17.767  1.00  0.00     0.039 C 
BRANCH  13  15
ATOM     15  C   UNL     1       9.159 -17.481  18.003  1.00  0.00     0.035 C 
BRANCH  15  16
ATOM     16  C   UNL     1       9.787 -18.791  18.490  1.00  0.00     0.079 C 
BRANCH  16  17
ATOM     17  C   UNL     1       9.185 -19.213  19.804  1.00  0.00     0.130 C 
ATOM     18  O   UNL     1       9.402 -20.336  20.232  1.00  0.00    -0.300 OA
ATOM     19  C   UNL     1       8.311 -18.287  20.597  1.00  0.00     0.087 C 
ENDBRANCH  16  17
ENDBRANCH  15  16
ENDBRANCH  13  15
ENDBRANCH  11  12
ENDBRANCH   1  11
TORSDOF 9
ENDMDL
MODEL 6
REMARK VINA RESULT:    -5.066      1.942      4.215
REMARK INTER + INTRA:          -9.851
REMARK INTER:                  -7.005
REMARK INTRA:                  -2.846
REMARK UNBOUND:                -2.120
REMARK SMILES CC(=O)CCC=C(C)CCC=C(C)CCC=C(C)C
REMARK SMILES IDX 10 1 11 2 12 3 13 4 14 5 15 6 16 7 18 8 17 9 19 10 9 11 7 12
REMARK SMILES IDX 6 13 8 14 5 15 4 16 2 17 3 18 1 19
REMARK H PARENT
REMARK Flexibility Score: inf
ROOT
ATOM      1  C   UNL     1       7.500 -17.678  20.552  1.00  0.00     0.032 C 
ENDROOT
BRANCH   1   2
ATOM      2  C   UNL     1       8.607 -17.354  21.522  1.00  0.00    -0.028 C 
ATOM      3  C   UNL     1       9.400 -16.262  21.439  1.00  0.00    -0.077 C 
ATOM      4  C   UNL     1       9.184 -15.197  20.388  1.00  0.00     0.039 C 
BRANCH   3   5
ATOM      5  C   UNL     1      10.533 -16.097  22.431  1.00  0.00     0.034 C 
BRANCH   5   6
ATOM      6  C   UNL     1      10.896 -17.424  23.112  1.00  0.00     0.032 C 
BRANCH   6   7
ATOM      7  C   UNL     1      12.105 -18.071  22.475  1.00  0.00    -0.028 C 
ATOM      8  C   UNL     1      13.415 -19.832  21.372  1.00  0.00     0.039 C 
ATOM      9  C   UNL     1      12.115 -19.304  21.924  1.00  0.00    -0.080 C 
ATOM     10  C   UNL     1      10.868 -20.151  21.831  1.00  0.00     0.039 C 
ENDBRANCH   6   7
ENDBRANCH   5   6
ENDBRANCH   3   5
ENDBRANCH   1   2
BRANCH   1  11
ATOM     11  C   UNL     1       7.961 -18.734  19.542  1.00  0.00     0.034 C 
BRANCH  11  12
ATOM     12  C   UNL     1       8.350 -18.083  18.230  1.00  0.00    -0.077 C 
ATOM     13  C   UNL     1       9.634 -17.950  17.825  1.00  0.00    -0.028 C 
ATOM     14  C   UNL     1       7.256 -17.626  17.300  1.00  0.00     0.039 C 
BRANCH  13  15
ATOM     15  C   UNL     1      10.840 -18.352  18.637  1.00  0.00     0.035 C 
BRANCH  15  16
ATOM     16  C   UNL     1      11.796 -17.168  18.813  1.00  0.00     0.079 C 
BRANCH  16  17
ATOM     17  C   UNL     1      12.953 -17.272  17.855  1.00  0.00     0.130 C 
ATOM     18  O   UNL     1      12.831 -16.848  16.716  1.00  0.00    -0.300 OA
ATOM     19  C   UNL     1      14.253 -17.898  18.265  1.00  0.00     0.087 C 
ENDBRANCH  16  17
ENDBRANCH  15  16
ENDBRANCH  13  15
ENDBRANCH  11  12
ENDBRANCH   1  11
TORSDOF 9
ENDMDL
MODEL 7
REMARK VINA RESULT:    -5.030      4.658      6.747
REMARK INTER + INTRA:          -9.797
REMARK INTER:                  -8.083
REMARK INTRA:                  -1.714
REMARK UNBOUND:                -2.120
REMARK SMILES CC(=O)CCC=C(C)CCC=C(C)CCC=C(C)C
REMARK SMILES IDX 10 1 11 2 12 3 13 4 14 5 15 6 16 7 18 8 17 9 19 10 9 11 7 12
REMARK SMILES IDX 6 13 8 14 5 15 4 16 2 17 3 18 1 19
REMARK H PARENT
REMARK Flexibility Score: inf
ROOT
ATOM      1  C   UNL     1       6.870 -16.049  23.406  1.00  0.00     0.032 C 
ENDROOT
BRANCH   1   2
ATOM      2  C   UNL     1       8.355 -16.122  23.651  1.00  0.00    -0.028 C 
ATOM      3  C   UNL     1       9.256 -15.247  23.149  1.00  0.00    -0.077 C 
ATOM      4  C   UNL     1       8.831 -14.036  22.349  1.00  0.00     0.039 C 
BRANCH   3   5
ATOM      5  C   UNL     1      10.731 -15.481  23.401  1.00  0.00     0.034 C 
BRANCH   5   6
ATOM      6  C   UNL     1      11.019 -16.935  23.800  1.00  0.00     0.032 C 
BRANCH   6   7
ATOM      7  C   UNL     1      11.627 -17.721  22.662  1.00  0.00    -0.028 C 
ATOM      8  C   UNL     1      11.882 -19.577  21.072  1.00  0.00     0.039 C 
ATOM      9  C   UNL     1      11.133 -18.883  22.180  1.00  0.00    -0.080 C 
ATOM     10  C   UNL     1       9.853 -19.489  22.706  1.00  0.00     0.039 C 
ENDBRANCH   6   7
ENDBRANCH   5   6
ENDBRANCH   3   5
ENDBRANCH   1   2
BRANCH   1  11
ATOM     11  C   UNL     1       6.130 -15.680  24.696  1.00  0.00     0.034 C 
BRANCH  11  12
ATOM     12  C   UNL     1       6.116 -14.177  24.891  1.00  0.00    -0.077 C 
ATOM     13  C   UNL     1       6.656 -13.568  25.972  1.00  0.00    -0.028 C 
ATOM     14  C   UNL     1       5.538 -13.314  23.799  1.00  0.00     0.039 C 
BRANCH  13  15
ATOM     15  C   UNL     1       7.267 -14.286  27.150  1.00  0.00     0.035 C 
BRANCH  15  16
ATOM     16  C   UNL     1       6.506 -13.963  28.439  1.00  0.00     0.079 C 
BRANCH  16  17
ATOM     17  C   UNL     1       5.826 -15.193  28.978  1.00  0.00     0.130 C 
ATOM     18  O   UNL     1       6.503 -16.122  29.393  1.00  0.00    -0.300 OA
ATOM     19  C   UNL     1       4.331 -15.312  29.006  1.00  0.00     0.087 C 
ENDBRANCH  16  17
ENDBRANCH  15  16
ENDBRANCH  13  15
ENDBRANCH  11  12
ENDBRANCH   1  11
TORSDOF 9
ENDMDL
MODEL 8
REMARK VINA RESULT:    -5.028      2.062      4.118
REMARK INTER + INTRA:          -9.793
REMARK INTER:                  -7.520
REMARK INTRA:                  -2.273
REMARK UNBOUND:                -2.120
REMARK SMILES CC(=O)CCC=C(C)CCC=C(C)CCC=C(C)C
REMARK SMILES IDX 10 1 11 2 12 3 13 4 14 5 15 6 16 7 18 8 17 9 19 10 9 11 7 12
REMARK SMILES IDX 6 13 8 14 5 15 4 16 2 17 3 18 1 19
REMARK H PARENT
REMARK Flexibility Score: inf
ROOT
ATOM      1  C   UNL     1      12.835 -17.325  20.892  1.00  0.00     0.032 C 
ENDROOT
BRANCH   1   2
ATOM      2  C   UNL     1      13.592 -17.244  19.591  1.00  0.00    -0.028 C 
ATOM      3  C   UNL     1      14.296 -18.265  19.053  1.00  0.00    -0.077 C 
ATOM      4  C   UNL     1      14.314 -19.640  19.681  1.00  0.00     0.039 C 
BRANCH   3   5
ATOM      5  C   UNL     1      15.083 -18.028  17.780  1.00  0.00     0.034 C 
BRANCH   5   6
ATOM      6  C   UNL     1      14.688 -16.709  17.100  1.00  0.00     0.032 C 
BRANCH   6   7
ATOM      7  C   UNL     1      13.618 -16.915  16.053  1.00  0.00    -0.028 C 
ATOM      8  C   UNL     1      11.468 -16.578  14.914  1.00  0.00     0.039 C 
ATOM      9  C   UNL     1      12.461 -16.220  15.990  1.00  0.00    -0.080 C 
ATOM     10  C   UNL     1      12.148 -15.095  16.947  1.00  0.00     0.039 C 
ENDBRANCH   6   7
ENDBRANCH   5   6
ENDBRANCH   3   5
ENDBRANCH   1   2
BRANCH   1  11
ATOM     11  C   UNL     1      11.325 -17.275  20.639  1.00  0.00     0.034 C 
BRANCH  11  12
ATOM     12  C   UNL     1      10.788 -18.661  20.340  1.00  0.00    -0.077 C 
ATOM     13  C   UNL     1      10.233 -18.996  19.153  1.00  0.00    -0.028 C 
ATOM     14  C   UNL     1      10.945 -19.735  21.386  1.00  0.00     0.039 C 
BRANCH  13  15
ATOM     15  C   UNL     1      10.002 -18.041  18.009  1.00  0.00     0.035 C 
BRANCH  15  16
ATOM     16  C   UNL     1       8.740 -17.205  18.245  1.00  0.00     0.079 C 
BRANCH  16  17
ATOM     17  C   UNL     1       7.507 -18.062  18.142  1.00  0.00     0.130 C 
ATOM     18  O   UNL     1       7.132 -18.447  17.044  1.00  0.00    -0.300 OA
ATOM     19  C   UNL     1       6.718 -18.447  19.358  1.00  0.00     0.087 C 
ENDBRANCH  16  17
ENDBRANCH  15  16
ENDBRANCH  13  15
ENDBRANCH  11  12
ENDBRANCH   1  11
TORSDOF 9
ENDMDL
MODEL 9
REMARK VINA RESULT:    -4.990      1.418      2.377
REMARK INTER + INTRA:          -9.736
REMARK INTER:                  -7.751
REMARK INTRA:                  -1.984
REMARK UNBOUND:                -2.120
REMARK SMILES CC(=O)CCC=C(C)CCC=C(C)CCC=C(C)C
REMARK SMILES IDX 10 1 11 2 12 3 13 4 14 5 15 6 16 7 18 8 17 9 19 10 9 11 7 12
REMARK SMILES IDX 6 13 8 14 5 15 4 16 2 17 3 18 1 19
REMARK H PARENT
REMARK Flexibility Score: inf
ROOT
ATOM      1  C   UNL     1      10.379 -14.883  22.752  1.00  0.00     0.032 C 
ENDROOT
BRANCH   1   2
ATOM      2  C   UNL     1      11.309 -15.010  21.573  1.00  0.00    -0.028 C 
ATOM      3  C   UNL     1      12.013 -16.125  21.272  1.00  0.00    -0.077 C 
ATOM      4  C   UNL     1      11.858 -17.404  22.064  1.00  0.00     0.039 C 
BRANCH   3   5
ATOM      5  C   UNL     1      12.979 -16.095  20.105  1.00  0.00     0.034 C 
BRANCH   5   6
ATOM      6  C   UNL     1      12.840 -17.337  19.214  1.00  0.00     0.032 C 
BRANCH   6   7
ATOM      7  C   UNL     1      14.185 -17.874  18.784  1.00  0.00    -0.028 C 
ATOM      8  C   UNL     1      16.135 -19.369  18.791  1.00  0.00     0.039 C 
ATOM      9  C   UNL     1      14.763 -18.988  19.285  1.00  0.00    -0.080 C 
ATOM     10  C   UNL     1      14.070 -19.863  20.303  1.00  0.00     0.039 C 
ENDBRANCH   6   7
ENDBRANCH   5   6
ENDBRANCH   3   5
ENDBRANCH   1   2
BRANCH   1  11
ATOM     11  C   UNL     1       8.920 -14.854  22.285  1.00  0.00     0.034 C 
BRANCH  11  12
ATOM     12  C   UNL     1       8.287 -16.223  22.428  1.00  0.00    -0.077 C 
ATOM     13  C   UNL     1       8.202 -17.107  21.406  1.00  0.00    -0.028 C 
ATOM     14  C   UNL     1       7.792 -16.650  23.786  1.00  0.00     0.039 C 
BRANCH  13  15
ATOM     15  C   UNL     1       8.646 -16.833  19.991  1.00  0.00     0.035 C 
BRANCH  15  16
ATOM     16  C   UNL     1       9.135 -18.118  19.316  1.00  0.00     0.079 C 
BRANCH  16  17
ATOM     17  C   UNL     1       8.046 -18.723  18.471  1.00  0.00     0.130 C 
ATOM     18  O   UNL     1       7.706 -19.880  18.667  1.00  0.00    -0.300 OA
ATOM     19  C   UNL     1       7.374 -17.940  17.383  1.00  0.00     0.087 C 
ENDBRANCH  16  17
ENDBRANCH  15  16
ENDBRANCH  13  15
ENDBRANCH  11  12
ENDBRANCH   1  11
TORSDOF 9
ENDMDL
