MODEL 1
REMARK VINA RESULT:    -5.281      0.000      0.000
REMARK INTER + INTRA:          -5.985
REMARK INTER:                  -5.898
REMARK INTRA:                  -0.087
REMARK UNBOUND:                -0.087
REMARK SMILES CCc1ccc(O)cc1O
REMARK SMILES IDX 3 1 9 2 8 3 6 4 5 5 4 6 2 7 1 8 10 9 7 11
REMARK H PARENT 10 10 7 12
REMARK Flexibility Score: inf
ROOT
ATOM      1  C   UNL     1      18.566  28.026  36.747  1.00  0.00    -0.006 A 
ATOM      2  C   UNL     1      19.670  27.345  36.196  1.00  0.00     0.122 A 
ATOM      3  C   UNL     1      19.546  25.997  35.827  1.00  0.00     0.092 A 
ATOM      4  C   UNL     1      18.329  25.327  35.991  1.00  0.00     0.119 A 
ATOM      5  C   UNL     1      17.227  26.008  36.524  1.00  0.00     0.047 A 
ATOM      6  C   UNL     1      17.343  27.350  36.895  1.00  0.00     0.011 A 
ENDROOT
BRANCH   1   7
ATOM      7  C   UNL     1      18.664  29.483  37.124  1.00  0.00     0.036 C 
ATOM      8  C   UNL     1      17.290  30.145  37.083  1.00  0.00     0.009 C 
ENDBRANCH   1   7
BRANCH   2   9
ATOM      9  O   UNL     1      20.885  28.006  36.016  1.00  0.00    -0.508 OA
ATOM     10  H   UNL     1      21.058  28.918  36.422  1.00  0.00     0.293 HD
ENDBRANCH   2   9
BRANCH   4  11
ATOM     11  O   UNL     1      18.224  23.989  35.618  1.00  0.00    -0.508 OA
ATOM     12  H   UNL     1      17.338  23.585  35.337  1.00  0.00     0.293 HD
ENDBRANCH   4  11
TORSDOF 3
ENDMDL
MODEL 2
REMARK VINA RESULT:    -5.092      1.682      3.633
REMARK INTER + INTRA:          -5.774
REMARK INTER:                  -5.673
REMARK INTRA:                  -0.101
REMARK UNBOUND:                -0.087
REMARK SMILES CCc1ccc(O)cc1O
REMARK SMILES IDX 3 1 9 2 8 3 6 4 5 5 4 6 2 7 1 8 10 9 7 11
REMARK H PARENT 10 10 7 12
REMARK Flexibility Score: inf
ROOT
ATOM      1  C   UNL     1      18.901  26.168  36.387  1.00  0.00    -0.006 A 
ATOM      2  C   UNL     1      19.604  27.388  36.323  1.00  0.00     0.122 A 
ATOM      3  C   UNL     1      18.933  28.595  36.567  1.00  0.00     0.092 A 
ATOM      4  C   UNL     1      17.571  28.596  36.886  1.00  0.00     0.119 A 
ATOM      5  C   UNL     1      16.875  27.383  36.964  1.00  0.00     0.047 A 
ATOM      6  C   UNL     1      17.537  26.177  36.722  1.00  0.00     0.011 A 
ENDROOT
BRANCH   1   7
ATOM      7  C   UNL     1      19.606  24.854  36.159  1.00  0.00     0.036 C 
ATOM      8  C   UNL     1      19.225  24.266  34.804  1.00  0.00     0.009 C 
ENDBRANCH   1   7
BRANCH   2   9
ATOM      9  O   UNL     1      20.966  27.399  36.019  1.00  0.00    -0.508 OA
ATOM     10  H   UNL     1      21.608  28.032  36.480  1.00  0.00     0.293 HD
ENDBRANCH   2   9
BRANCH   4  11
ATOM     11  O   UNL     1      16.921  29.804  37.125  1.00  0.00    -0.508 OA
ATOM     12  H   UNL     1      16.162  29.874  37.793  1.00  0.00     0.293 HD
ENDBRANCH   4  11
TORSDOF 3
ENDMDL
MODEL 3
REMARK VINA RESULT:    -4.793     16.439     17.593
REMARK INTER + INTRA:          -5.440
REMARK INTER:                  -5.351
REMARK INTRA:                  -0.089
REMARK UNBOUND:                -0.087
REMARK SMILES CCc1ccc(O)cc1O
REMARK SMILES IDX 3 1 9 2 8 3 6 4 5 5 4 6 2 7 1 8 10 9 7 11
REMARK H PARENT 10 10 7 12
REMARK Flexibility Score: inf
ROOT
ATOM      1  C   UNL     1      21.295  23.206  20.341  1.00  0.00    -0.006 A 
ATOM      2  C   UNL     1      20.200  24.060  20.576  1.00  0.00     0.122 A 
ATOM      3  C   UNL     1      19.569  24.701  19.499  1.00  0.00     0.092 A 
ATOM      4  C   UNL     1      20.013  24.488  18.190  1.00  0.00     0.119 A 
ATOM      5  C   UNL     1      21.092  23.628  17.954  1.00  0.00     0.047 A 
ATOM      6  C   UNL     1      21.727  22.987  19.022  1.00  0.00     0.011 A 
ENDROOT
BRANCH   1   7
ATOM      7  C   UNL     1      21.972  22.482  21.477  1.00  0.00     0.036 C 
ATOM      8  C   UNL     1      22.318  21.051  21.076  1.00  0.00     0.009 C 
ENDBRANCH   1   7
BRANCH   2   9
ATOM      9  O   UNL     1      19.739  24.270  21.877  1.00  0.00    -0.508 OA
ATOM     10  H   UNL     1      19.552  23.498  22.504  1.00  0.00     0.293 HD
ENDBRANCH   2   9
BRANCH   4  11
ATOM     11  O   UNL     1      19.375  25.133  17.134  1.00  0.00    -0.508 OA
ATOM     12  H   UNL     1      19.038  24.621  16.327  1.00  0.00     0.293 HD
ENDBRANCH   4  11
TORSDOF 3
ENDMDL
MODEL 4
REMARK VINA RESULT:    -4.712     16.010     17.056
REMARK INTER + INTRA:          -5.350
REMARK INTER:                  -5.246
REMARK INTRA:                  -0.104
REMARK UNBOUND:                -0.087
REMARK SMILES CCc1ccc(O)cc1O
REMARK SMILES IDX 3 1 9 2 8 3 6 4 5 5 4 6 2 7 1 8 10 9 7 11
REMARK H PARENT 10 10 7 12
REMARK Flexibility Score: inf
ROOT
ATOM      1  C   UNL     1      19.881  23.280  21.060  1.00  0.00    -0.006 A 
ATOM      2  C   UNL     1      19.536  23.701  19.760  1.00  0.00     0.122 A 
ATOM      3  C   UNL     1      20.371  23.385  18.678  1.00  0.00     0.092 A 
ATOM      4  C   UNL     1      21.539  22.643  18.879  1.00  0.00     0.119 A 
ATOM      5  C   UNL     1      21.875  22.211  20.168  1.00  0.00     0.047 A 
ATOM      6  C   UNL     1      21.049  22.523  21.251  1.00  0.00     0.011 A 
ENDROOT
BRANCH   1   7
ATOM      7  C   UNL     1      18.986  23.580  22.236  1.00  0.00     0.036 C 
ATOM      8  C   UNL     1      17.986  22.449  22.457  1.00  0.00     0.009 C 
ENDBRANCH   1   7
BRANCH   2   9
ATOM      9  O   UNL     1      18.366  24.431  19.546  1.00  0.00    -0.508 OA
ATOM     10  H   UNL     1      17.592  24.397  20.199  1.00  0.00     0.293 HD
ENDBRANCH   2   9
BRANCH   4  11
ATOM     11  O   UNL     1      22.356  22.338  17.793  1.00  0.00    -0.508 OA
ATOM     12  H   UNL     1      23.296  21.981  17.921  1.00  0.00     0.293 HD
ENDBRANCH   4  11
TORSDOF 3
ENDMDL
MODEL 5
REMARK VINA RESULT:    -4.681     16.307     17.442
REMARK INTER + INTRA:          -5.315
REMARK INTER:                  -5.222
REMARK INTRA:                  -0.093
REMARK UNBOUND:                -0.087
REMARK SMILES CCc1ccc(O)cc1O
REMARK SMILES IDX 3 1 9 2 8 3 6 4 5 5 4 6 2 7 1 8 10 9 7 11
REMARK H PARENT 10 10 7 12
REMARK Flexibility Score: inf
ROOT
ATOM      1  C   UNL     1      21.444  22.426  20.653  1.00  0.00    -0.006 A 
ATOM      2  C   UNL     1      21.505  22.685  19.270  1.00  0.00     0.122 A 
ATOM      3  C   UNL     1      20.488  23.429  18.653  1.00  0.00     0.092 A 
ATOM      4  C   UNL     1      19.420  23.927  19.405  1.00  0.00     0.119 A 
ATOM      5  C   UNL     1      19.366  23.683  20.782  1.00  0.00     0.047 A 
ATOM      6  C   UNL     1      20.374  22.941  21.404  1.00  0.00     0.011 A 
ENDROOT
BRANCH   1   7
ATOM      7  C   UNL     1      22.539  21.655  21.346  1.00  0.00     0.036 C 
ATOM      8  C   UNL     1      22.244  20.158  21.322  1.00  0.00     0.009 C 
ENDBRANCH   1   7
BRANCH   2   9
ATOM      9  O   UNL     1      22.573  22.205  18.511  1.00  0.00    -0.508 OA
ATOM     10  H   UNL     1      22.473  21.999  17.524  1.00  0.00     0.293 HD
ENDBRANCH   2   9
BRANCH   4  11
ATOM     11  O   UNL     1      18.419  24.664  18.775  1.00  0.00    -0.508 OA
ATOM     12  H   UNL     1      18.576  25.113  17.880  1.00  0.00     0.293 HD
ENDBRANCH   4  11
TORSDOF 3
ENDMDL
MODEL 6
REMARK VINA RESULT:    -4.661     20.503     22.057
REMARK INTER + INTRA:          -5.293
REMARK INTER:                  -5.201
REMARK INTRA:                  -0.092
REMARK UNBOUND:                -0.087
REMARK SMILES CCc1ccc(O)cc1O
REMARK SMILES IDX 3 1 9 2 8 3 6 4 5 5 4 6 2 7 1 8 10 9 7 11
REMARK H PARENT 10 10 7 12
REMARK Flexibility Score: inf
ROOT
ATOM      1  C   UNL     1      31.803  15.957  22.208  1.00  0.00    -0.006 A 
ATOM      2  C   UNL     1      32.067  15.492  23.511  1.00  0.00     0.122 A 
ATOM      3  C   UNL     1      31.004  15.137  24.356  1.00  0.00     0.092 A 
ATOM      4  C   UNL     1      29.683  15.231  23.907  1.00  0.00     0.119 A 
ATOM      5  C   UNL     1      29.420  15.680  22.607  1.00  0.00     0.047 A 
ATOM      6  C   UNL     1      30.473  16.036  21.761  1.00  0.00     0.011 A 
ENDROOT
BRANCH   1   7
ATOM      7  C   UNL     1      32.928  16.316  21.270  1.00  0.00     0.036 C 
ATOM      8  C   UNL     1      32.729  15.655  19.909  1.00  0.00     0.009 C 
ENDBRANCH   1   7
BRANCH   2   9
ATOM      9  O   UNL     1      33.382  15.381  23.965  1.00  0.00    -0.508 OA
ATOM     10  H   UNL     1      33.927  14.541  23.814  1.00  0.00     0.293 HD
ENDBRANCH   2   9
BRANCH   4  11
ATOM     11  O   UNL     1      28.641  14.875  24.760  1.00  0.00    -0.508 OA
ATOM     12  H   UNL     1      27.889  14.268  24.452  1.00  0.00     0.293 HD
ENDBRANCH   4  11
TORSDOF 3
ENDMDL
MODEL 7
REMARK VINA RESULT:    -4.528     16.112     17.292
REMARK INTER + INTRA:          -5.144
REMARK INTER:                  -5.043
REMARK INTRA:                  -0.101
REMARK UNBOUND:                -0.087
REMARK SMILES CCc1ccc(O)cc1O
REMARK SMILES IDX 3 1 9 2 8 3 6 4 5 5 4 6 2 7 1 8 10 9 7 11
REMARK H PARENT 10 10 7 12
REMARK Flexibility Score: inf
ROOT
ATOM      1  C   UNL     1      19.799  22.672  19.313  1.00  0.00    -0.006 A 
ATOM      2  C   UNL     1      19.311  23.972  19.553  1.00  0.00     0.122 A 
ATOM      3  C   UNL     1      19.708  24.666  20.706  1.00  0.00     0.092 A 
ATOM      4  C   UNL     1      20.596  24.080  21.614  1.00  0.00     0.119 A 
ATOM      5  C   UNL     1      21.093  22.794  21.369  1.00  0.00     0.047 A 
ATOM      6  C   UNL     1      20.701  22.096  20.223  1.00  0.00     0.011 A 
ENDROOT
BRANCH   1   7
ATOM      7  C   UNL     1      19.411  21.916  18.067  1.00  0.00     0.036 C 
ATOM      8  C   UNL     1      18.427  20.798  18.397  1.00  0.00     0.009 C 
ENDBRANCH   1   7
BRANCH   2   9
ATOM      9  O   UNL     1      18.435  24.572  18.647  1.00  0.00    -0.508 OA
ATOM     10  H   UNL     1      17.829  25.336  18.922  1.00  0.00     0.293 HD
ENDBRANCH   2   9
BRANCH   4  11
ATOM     11  O   UNL     1      20.979  24.784  22.753  1.00  0.00    -0.508 OA
ATOM     12  H   UNL     1      20.620  24.543  23.670  1.00  0.00     0.293 HD
ENDBRANCH   4  11
TORSDOF 3
ENDMDL
MODEL 8
REMARK VINA RESULT:    -4.355     17.020     18.108
REMARK INTER + INTRA:          -4.951
REMARK INTER:                  -4.856
REMARK INTRA:                  -0.095
REMARK UNBOUND:                -0.087
REMARK SMILES CCc1ccc(O)cc1O
REMARK SMILES IDX 3 1 9 2 8 3 6 4 5 5 4 6 2 7 1 8 10 9 7 11
REMARK H PARENT 10 10 7 12
REMARK Flexibility Score: inf
ROOT
ATOM      1  C   UNL     1      19.874  22.603  18.611  1.00  0.00    -0.006 A 
ATOM      2  C   UNL     1      21.271  22.753  18.506  1.00  0.00     0.122 A 
ATOM      3  C   UNL     1      22.049  22.882  19.667  1.00  0.00     0.092 A 
ATOM      4  C   UNL     1      21.448  22.852  20.929  1.00  0.00     0.119 A 
ATOM      5  C   UNL     1      20.061  22.689  21.035  1.00  0.00     0.047 A 
ATOM      6  C   UNL     1      19.280  22.560  19.883  1.00  0.00     0.011 A 
ENDROOT
BRANCH   1   7
ATOM      7  C   UNL     1      19.019  22.432  17.381  1.00  0.00     0.036 C 
ATOM      8  C   UNL     1      18.201  21.146  17.466  1.00  0.00     0.009 C 
ENDBRANCH   1   7
BRANCH   2   9
ATOM      9  O   UNL     1      21.884  22.771  17.253  1.00  0.00    -0.508 OA
ATOM     10  H   UNL     1      21.396  23.101  16.429  1.00  0.00     0.293 HD
ENDBRANCH   2   9
BRANCH   4  11
ATOM     11  O   UNL     1      22.236  22.982  22.070  1.00  0.00    -0.508 OA
ATOM     12  H   UNL     1      22.089  22.398  22.885  1.00  0.00     0.293 HD
ENDBRANCH   4  11
TORSDOF 3
ENDMDL
MODEL 9
REMARK VINA RESULT:    -4.353     16.500     17.534
REMARK INTER + INTRA:          -4.948
REMARK INTER:                  -4.852
REMARK INTRA:                  -0.096
REMARK UNBOUND:                -0.087
REMARK SMILES CCc1ccc(O)cc1O
REMARK SMILES IDX 3 1 9 2 8 3 6 4 5 5 4 6 2 7 1 8 10 9 7 11
REMARK H PARENT 10 10 7 12
REMARK Flexibility Score: inf
ROOT
ATOM      1  C   UNL     1      20.843  24.035  18.957  1.00  0.00    -0.006 A 
ATOM      2  C   UNL     1      20.461  24.141  20.309  1.00  0.00     0.122 A 
ATOM      3  C   UNL     1      21.009  23.267  21.261  1.00  0.00     0.092 A 
ATOM      4  C   UNL     1      21.943  22.299  20.878  1.00  0.00     0.119 A 
ATOM      5  C   UNL     1      22.334  22.203  19.537  1.00  0.00     0.047 A 
ATOM      6  C   UNL     1      21.792  23.068  18.583  1.00  0.00     0.011 A 
ENDROOT
BRANCH   1   7
ATOM      7  C   UNL     1      20.292  24.980  17.920  1.00  0.00     0.036 C 
ATOM      8  C   UNL     1      19.461  24.224  16.887  1.00  0.00     0.009 C 
ENDBRANCH   1   7
BRANCH   2   9
ATOM      9  O   UNL     1      19.540  25.111  20.705  1.00  0.00    -0.508 OA
ATOM     10  H   UNL     1      19.078  25.710  20.032  1.00  0.00     0.293 HD
ENDBRANCH   2   9
BRANCH   4  11
ATOM     11  O   UNL     1      22.476  21.441  21.837  1.00  0.00    -0.508 OA
ATOM     12  H   UNL     1      21.942  20.665  22.209  1.00  0.00     0.293 HD
ENDBRANCH   4  11
TORSDOF 3
ENDMDL
