MODEL 1
REMARK VINA RESULT:    -7.472      0.000      0.000
REMARK INTER + INTRA:          -9.596
REMARK INTER:                  -9.219
REMARK INTRA:                  -0.377
REMARK UNBOUND:                -0.377
REMARK SMILES Oc1cc(O)c2cc(O)c(-c3cc(O)c(O)c(O)c3)[o+]c2c1.[Cl-]
REMARK SMILES IDX 10 1 20 2 21 3 22 4 2 5 3 6 4 7 6 8 7 9 8 10 11 11 12 12
REMARK SMILES IDX 13 13 19 14 15 15 17 16 14 17 16 19 18 21 9 23 1 25 5 27
REMARK H PARENT 14 18 16 20 18 22 9 24 1 26 5 28
REMARK Flexibility Score: inf
ROOT
ATOM      1  C   UNL     1      -6.674  -7.801  13.741  1.00  0.00     0.402 A 
ATOM      2  O   UNL     1      -7.125  -8.252  14.909  1.00  0.00    -0.202 OA
ATOM      3  C   UNL     1      -8.415  -8.295  15.227  1.00  0.00     0.368 A 
ATOM      4  C   UNL     1      -8.791  -8.788  16.478  1.00  0.00     0.162 A 
ATOM      5  C   UNL     1     -10.141  -8.848  16.837  1.00  0.00     0.128 A 
ATOM      6  C   UNL     1     -11.118  -8.412  15.940  1.00  0.00     0.093 A 
ATOM      7  C   UNL     1     -10.767  -7.913  14.679  1.00  0.00     0.136 A 
ATOM      8  C   UNL     1      -9.399  -7.848  14.311  1.00  0.00     0.125 A 
ATOM      9  C   UNL     1      -8.953  -7.351  13.075  1.00  0.00     0.078 A 
ATOM     10  C   UNL     1      -7.586  -7.315  12.786  1.00  0.00     0.223 A 
ENDROOT
BRANCH   1  11
ATOM     11  C   UNL     1      -5.214  -7.814  13.502  1.00  0.00     0.091 A 
ATOM     12  C   UNL     1      -4.400  -6.736  13.885  1.00  0.00     0.068 A 
ATOM     13  C   UNL     1      -3.026  -6.755  13.630  1.00  0.00     0.162 A 
ATOM     14  C   UNL     1      -4.635  -8.897  12.826  1.00  0.00     0.068 A 
ATOM     15  C   UNL     1      -2.441  -7.854  12.975  1.00  0.00     0.200 A 
ATOM     16  C   UNL     1      -3.261  -8.934  12.564  1.00  0.00     0.162 A 
BRANCH  13  17
ATOM     17  O   UNL     1      -2.255  -5.665  14.036  1.00  0.00    -0.504 OA
ATOM     18  H   UNL     1      -1.253  -5.730  14.166  1.00  0.00     0.293 HD
ENDBRANCH  13  17
BRANCH  15  19
ATOM     19  O   UNL     1      -1.063  -7.836  12.747  1.00  0.00    -0.502 OA
ATOM     20  H   UNL     1      -0.367  -7.906  13.475  1.00  0.00     0.293 HD
ENDBRANCH  15  19
BRANCH  16  21
ATOM     21  O   UNL     1      -2.758 -10.052  11.897  1.00  0.00    -0.504 OA
ATOM     22  H   UNL     1      -3.277 -10.587  11.215  1.00  0.00     0.293 HD
ENDBRANCH  16  21
ENDBRANCH   1  11
BRANCH  10  23
ATOM     23  O   UNL     1      -7.141  -6.775  11.579  1.00  0.00    -0.500 OA
ATOM     24  H   UNL     1      -7.566  -5.948  11.175  1.00  0.00     0.294 HD
ENDBRANCH  10  23
BRANCH   5  25
ATOM     25  O   UNL     1     -10.523  -9.339  18.083  1.00  0.00    -0.507 OA
ATOM     26  H   UNL     1     -11.485  -9.290  18.399  1.00  0.00     0.293 HD
ENDBRANCH   5  25
BRANCH   7  27
ATOM     27  O   UNL     1     -11.805  -7.499  13.838  1.00  0.00    -0.507 OA
ATOM     28  H   UNL     1     -12.620  -8.055  13.624  1.00  0.00     0.293 HD
ENDBRANCH   7  27
TORSDOF 7
ENDMDL
MODEL 2
REMARK VINA RESULT:    -7.428      0.073      1.806
REMARK INTER + INTRA:          -9.543
REMARK INTER:                  -9.158
REMARK INTRA:                  -0.384
REMARK UNBOUND:                -0.377
REMARK SMILES Oc1cc(O)c2cc(O)c(-c3cc(O)c(O)c(O)c3)[o+]c2c1.[Cl-]
REMARK SMILES IDX 10 1 20 2 21 3 22 4 2 5 3 6 4 7 6 8 7 9 8 10 11 11 12 12
REMARK SMILES IDX 13 13 19 14 15 15 17 16 14 17 16 19 18 21 9 23 1 25 5 27
REMARK H PARENT 14 18 16 20 18 22 9 24 1 26 5 28
REMARK Flexibility Score: inf
ROOT
ATOM      1  C   UNL     1      -6.709  -7.826  13.695  1.00  0.00     0.402 A 
ATOM      2  O   UNL     1      -7.131  -8.282  14.871  1.00  0.00    -0.202 OA
ATOM      3  C   UNL     1      -8.412  -8.319  15.224  1.00  0.00     0.368 A 
ATOM      4  C   UNL     1      -8.757  -8.818  16.482  1.00  0.00     0.162 A 
ATOM      5  C   UNL     1     -10.097  -8.871  16.877  1.00  0.00     0.128 A 
ATOM      6  C   UNL     1     -11.096  -8.422  16.010  1.00  0.00     0.093 A 
ATOM      7  C   UNL     1     -10.775  -7.917  14.743  1.00  0.00     0.136 A 
ATOM      8  C   UNL     1      -9.417  -7.859  14.338  1.00  0.00     0.125 A 
ATOM      9  C   UNL     1      -9.002  -7.355  13.095  1.00  0.00     0.078 A 
ATOM     10  C   UNL     1      -7.643  -7.327  12.768  1.00  0.00     0.223 A 
ENDROOT
BRANCH   1  11
ATOM     11  C   UNL     1      -5.256  -7.847  13.415  1.00  0.00     0.091 A 
ATOM     12  C   UNL     1      -4.644  -8.953  12.805  1.00  0.00     0.068 A 
ATOM     13  C   UNL     1      -3.267  -8.965  12.569  1.00  0.00     0.162 A 
ATOM     14  C   UNL     1      -4.460  -6.766  13.818  1.00  0.00     0.068 A 
ATOM     15  C   UNL     1      -2.472  -7.869  12.951  1.00  0.00     0.200 A 
ATOM     16  C   UNL     1      -3.080  -6.760  13.589  1.00  0.00     0.162 A 
BRANCH  13  17
ATOM     17  O   UNL     1      -2.703 -10.083  11.953  1.00  0.00    -0.504 OA
ATOM     18  H   UNL     1      -3.183 -10.600  11.227  1.00  0.00     0.293 HD
ENDBRANCH  13  17
BRANCH  15  19
ATOM     19  O   UNL     1      -1.100  -7.919  12.690  1.00  0.00    -0.502 OA
ATOM     20  H   UNL     1      -0.630  -8.712  12.277  1.00  0.00     0.293 HD
ENDBRANCH  15  19
BRANCH  16  21
ATOM     21  O   UNL     1      -2.357  -5.642  14.009  1.00  0.00    -0.504 OA
ATOM     22  H   UNL     1      -2.077  -5.475  14.965  1.00  0.00     0.293 HD
ENDBRANCH  16  21
ENDBRANCH   1  11
BRANCH  10  23
ATOM     23  O   UNL     1      -7.227  -6.782  11.553  1.00  0.00    -0.500 OA
ATOM     24  H   UNL     1      -7.862  -6.264  10.956  1.00  0.00     0.294 HD
ENDBRANCH  10  23
BRANCH   5  25
ATOM     25  O   UNL     1     -10.449  -9.368  18.129  1.00  0.00    -0.507 OA
ATOM     26  H   UNL     1     -10.064  -8.978  18.982  1.00  0.00     0.293 HD
ENDBRANCH   5  25
BRANCH   7  27
ATOM     27  O   UNL     1     -11.833  -7.490  13.934  1.00  0.00    -0.507 OA
ATOM     28  H   UNL     1     -12.557  -6.853  14.232  1.00  0.00     0.293 HD
ENDBRANCH   7  27
TORSDOF 7
ENDMDL
MODEL 3
REMARK VINA RESULT:    -7.044      4.071      8.679
REMARK INTER + INTRA:          -9.068
REMARK INTER:                  -8.729
REMARK INTRA:                  -0.339
REMARK UNBOUND:                -0.377
REMARK SMILES Oc1cc(O)c2cc(O)c(-c3cc(O)c(O)c(O)c3)[o+]c2c1.[Cl-]
REMARK SMILES IDX 10 1 20 2 21 3 22 4 2 5 3 6 4 7 6 8 7 9 8 10 11 11 12 12
REMARK SMILES IDX 13 13 19 14 15 15 17 16 14 17 16 19 18 21 9 23 1 25 5 27
REMARK H PARENT 14 18 16 20 18 22 9 24 1 26 5 28
REMARK Flexibility Score: inf
ROOT
ATOM      1  C   UNL     1      -0.858  -7.934  13.816  1.00  0.00     0.402 A 
ATOM      2  O   UNL     1      -0.481  -8.017  15.090  1.00  0.00    -0.202 OA
ATOM      3  C   UNL     1       0.725  -7.660  15.519  1.00  0.00     0.368 A 
ATOM      4  C   UNL     1       1.026  -7.782  16.878  1.00  0.00     0.162 A 
ATOM      5  C   UNL     1       2.285  -7.410  17.358  1.00  0.00     0.128 A 
ATOM      6  C   UNL     1       3.247  -6.914  16.475  1.00  0.00     0.093 A 
ATOM      7  C   UNL     1       2.969  -6.782  15.109  1.00  0.00     0.136 A 
ATOM      8  C   UNL     1       1.694  -7.160  14.616  1.00  0.00     0.125 A 
ATOM      9  C   UNL     1       1.332  -7.075  13.261  1.00  0.00     0.078 A 
ATOM     10  C   UNL     1       0.056  -7.471  12.851  1.00  0.00     0.223 A 
ENDROOT
BRANCH   1  11
ATOM     11  C   UNL     1      -2.232  -8.353  13.463  1.00  0.00     0.091 A 
ATOM     12  C   UNL     1      -3.232  -7.413  13.168  1.00  0.00     0.068 A 
ATOM     13  C   UNL     1      -4.530  -7.826  12.858  1.00  0.00     0.162 A 
ATOM     14  C   UNL     1      -2.563  -9.715  13.478  1.00  0.00     0.068 A 
ATOM     15  C   UNL     1      -4.855  -9.195  12.849  1.00  0.00     0.200 A 
ATOM     16  C   UNL     1      -3.857 -10.147  13.169  1.00  0.00     0.162 A 
BRANCH  13  17
ATOM     17  O   UNL     1      -5.489  -6.856  12.565  1.00  0.00    -0.504 OA
ATOM     18  H   UNL     1      -5.466  -5.931  12.976  1.00  0.00     0.293 HD
ENDBRANCH  13  17
BRANCH  15  19
ATOM     19  O   UNL     1      -6.164  -9.565  12.527  1.00  0.00    -0.502 OA
ATOM     20  H   UNL     1      -6.657 -10.336  12.954  1.00  0.00     0.293 HD
ENDBRANCH  15  19
BRANCH  16  21
ATOM     21  O   UNL     1      -4.106 -11.521  13.194  1.00  0.00    -0.504 OA
ATOM     22  H   UNL     1      -5.018 -11.935  13.068  1.00  0.00     0.293 HD
ENDBRANCH  16  21
ENDBRANCH   1  11
BRANCH  10  23
ATOM     23  O   UNL     1      -0.287  -7.433  11.499  1.00  0.00    -0.500 OA
ATOM     24  H   UNL     1      -0.513  -8.275  10.982  1.00  0.00     0.294 HD
ENDBRANCH  10  23
BRANCH   5  25
ATOM     25  O   UNL     1       2.593  -7.529  18.711  1.00  0.00    -0.507 OA
ATOM     26  H   UNL     1       3.054  -8.353  19.079  1.00  0.00     0.293 HD
ENDBRANCH   5  25
BRANCH   7  27
ATOM     27  O   UNL     1       3.985  -6.274  14.292  1.00  0.00    -0.507 OA
ATOM     28  H   UNL     1       4.847  -5.877  14.634  1.00  0.00     0.293 HD
ENDBRANCH   7  27
TORSDOF 7
ENDMDL
MODEL 4
REMARK VINA RESULT:    -7.025      3.471      8.460
REMARK INTER + INTRA:          -9.046
REMARK INTER:                  -8.705
REMARK INTRA:                  -0.341
REMARK UNBOUND:                -0.377
REMARK SMILES Oc1cc(O)c2cc(O)c(-c3cc(O)c(O)c(O)c3)[o+]c2c1.[Cl-]
REMARK SMILES IDX 10 1 20 2 21 3 22 4 2 5 3 6 4 7 6 8 7 9 8 10 11 11 12 12
REMARK SMILES IDX 13 13 19 14 15 15 17 16 14 17 16 19 18 21 9 23 1 25 5 27
REMARK H PARENT 14 18 16 20 18 22 9 24 1 26 5 28
REMARK Flexibility Score: inf
ROOT
ATOM      1  C   UNL     1      -1.571  -7.435  13.872  1.00  0.00     0.402 A 
ATOM      2  O   UNL     1      -1.199  -7.426  15.150  1.00  0.00    -0.202 OA
ATOM      3  C   UNL     1       0.067  -7.334  15.541  1.00  0.00     0.368 A 
ATOM      4  C   UNL     1       0.359  -7.330  16.907  1.00  0.00     0.162 A 
ATOM      5  C   UNL     1       1.682  -7.231  17.346  1.00  0.00     0.128 A 
ATOM      6  C   UNL     1       2.718  -7.136  16.415  1.00  0.00     0.093 A 
ATOM      7  C   UNL     1       2.452  -7.137  15.040  1.00  0.00     0.136 A 
ATOM      8  C   UNL     1       1.111  -7.239  14.588  1.00  0.00     0.125 A 
ATOM      9  C   UNL     1       0.752  -7.263  13.231  1.00  0.00     0.078 A 
ATOM     10  C   UNL     1      -0.592  -7.370  12.863  1.00  0.00     0.223 A 
ENDROOT
BRANCH   1  11
ATOM     11  C   UNL     1      -3.015  -7.531  13.563  1.00  0.00     0.091 A 
ATOM     12  C   UNL     1      -3.602  -8.745  13.174  1.00  0.00     0.068 A 
ATOM     13  C   UNL     1      -4.962  -8.813  12.865  1.00  0.00     0.162 A 
ATOM     14  C   UNL     1      -3.808  -6.375  13.602  1.00  0.00     0.068 A 
ATOM     15  C   UNL     1      -5.763  -7.658  12.928  1.00  0.00     0.200 A 
ATOM     16  C   UNL     1      -5.172  -6.424  13.297  1.00  0.00     0.162 A 
BRANCH  13  17
ATOM     17  O   UNL     1      -5.503 -10.044  12.491  1.00  0.00    -0.504 OA
ATOM     18  H   UNL     1      -6.400 -10.122  12.027  1.00  0.00     0.293 HD
ENDBRANCH  13  17
BRANCH  15  19
ATOM     19  O   UNL     1      -7.120  -7.771  12.618  1.00  0.00    -0.502 OA
ATOM     20  H   UNL     1      -7.631  -7.107  12.054  1.00  0.00     0.293 HD
ENDBRANCH  15  19
BRANCH  16  21
ATOM     21  O   UNL     1      -5.896  -5.233  13.370  1.00  0.00    -0.504 OA
ATOM     22  H   UNL     1      -6.235  -4.725  12.565  1.00  0.00     0.293 HD
ENDBRANCH  16  21
ENDBRANCH   1  11
BRANCH  10  23
ATOM     23  O   UNL     1      -0.945  -7.443  11.515  1.00  0.00    -0.500 OA
ATOM     24  H   UNL     1      -1.899  -7.301  11.205  1.00  0.00     0.294 HD
ENDBRANCH  10  23
BRANCH   5  25
ATOM     25  O   UNL     1       1.980  -7.227  18.707  1.00  0.00    -0.507 OA
ATOM     26  H   UNL     1       1.263  -7.379  19.407  1.00  0.00     0.293 HD
ENDBRANCH   5  25
BRANCH   7  27
ATOM     27  O   UNL     1       3.545  -7.035  14.173  1.00  0.00    -0.507 OA
ATOM     28  H   UNL     1       4.488  -7.305  14.410  1.00  0.00     0.293 HD
ENDBRANCH   7  27
TORSDOF 7
ENDMDL
MODEL 5
REMARK VINA RESULT:    -6.967      4.932      9.399
REMARK INTER + INTRA:          -8.974
REMARK INTER:                  -8.759
REMARK INTRA:                  -0.215
REMARK UNBOUND:                -0.377
REMARK SMILES Oc1cc(O)c2cc(O)c(-c3cc(O)c(O)c(O)c3)[o+]c2c1.[Cl-]
REMARK SMILES IDX 10 1 20 2 21 3 22 4 2 5 3 6 4 7 6 8 7 9 8 10 11 11 12 12
REMARK SMILES IDX 13 13 19 14 15 15 17 16 14 17 16 19 18 21 9 23 1 25 5 27
REMARK H PARENT 14 18 16 20 18 22 9 24 1 26 5 28
REMARK Flexibility Score: inf
ROOT
ATOM      1  C   UNL     1       0.326  -7.971  14.547  1.00  0.00     0.402 A 
ATOM      2  O   UNL     1       0.620  -8.695  15.624  1.00  0.00    -0.202 OA
ATOM      3  C   UNL     1       1.759  -8.570  16.298  1.00  0.00     0.368 A 
ATOM      4  C   UNL     1       1.976  -9.374  17.420  1.00  0.00     0.162 A 
ATOM      5  C   UNL     1       3.163  -9.261  18.150  1.00  0.00     0.128 A 
ATOM      6  C   UNL     1       4.137  -8.341  17.756  1.00  0.00     0.093 A 
ATOM      7  C   UNL     1       3.943  -7.524  16.635  1.00  0.00     0.136 A 
ATOM      8  C   UNL     1       2.741  -7.635  15.890  1.00  0.00     0.125 A 
ATOM      9  C   UNL     1       2.467  -6.868  14.746  1.00  0.00     0.078 A 
ATOM     10  C   UNL     1       1.260  -7.038  14.060  1.00  0.00     0.223 A 
ENDROOT
BRANCH   1  11
ATOM     11  C   UNL     1      -0.980  -8.195  13.888  1.00  0.00     0.091 A 
ATOM     12  C   UNL     1      -1.924  -7.163  13.765  1.00  0.00     0.068 A 
ATOM     13  C   UNL     1      -3.162  -7.398  13.160  1.00  0.00     0.162 A 
ATOM     14  C   UNL     1      -1.310  -9.477  13.427  1.00  0.00     0.068 A 
ATOM     15  C   UNL     1      -3.482  -8.679  12.675  1.00  0.00     0.200 A 
ATOM     16  C   UNL     1      -2.543  -9.730  12.817  1.00  0.00     0.162 A 
BRANCH  13  17
ATOM     17  O   UNL     1      -4.066  -6.340  13.053  1.00  0.00    -0.504 OA
ATOM     18  H   UNL     1      -3.988  -5.503  13.617  1.00  0.00     0.293 HD
ENDBRANCH  13  17
BRANCH  15  19
ATOM     19  O   UNL     1      -4.728  -8.868  12.070  1.00  0.00    -0.502 OA
ATOM     20  H   UNL     1      -5.267  -9.719  12.137  1.00  0.00     0.293 HD
ENDBRANCH  15  19
BRANCH  16  21
ATOM     21  O   UNL     1      -2.793 -11.030  12.374  1.00  0.00    -0.504 OA
ATOM     22  H   UNL     1      -3.044 -11.267  11.424  1.00  0.00     0.293 HD
ENDBRANCH  16  21
ENDBRANCH   1  11
BRANCH  10  23
ATOM     23  O   UNL     1       1.009  -6.311  12.897  1.00  0.00    -0.500 OA
ATOM     24  H   UNL     1       0.066  -6.143  12.565  1.00  0.00     0.294 HD
ENDBRANCH  10  23
BRANCH   5  25
ATOM     25  O   UNL     1       3.386 -10.059  19.269  1.00  0.00    -0.507 OA
ATOM     26  H   UNL     1       4.056 -10.820  19.253  1.00  0.00     0.293 HD
ENDBRANCH   5  25
BRANCH   7  27
ATOM     27  O   UNL     1       4.964  -6.626  16.309  1.00  0.00    -0.507 OA
ATOM     28  H   UNL     1       5.702  -6.819  15.647  1.00  0.00     0.293 HD
ENDBRANCH   7  27
TORSDOF 7
ENDMDL
MODEL 6
REMARK VINA RESULT:    -6.959      2.169      3.219
REMARK INTER + INTRA:          -8.964
REMARK INTER:                  -8.589
REMARK INTRA:                  -0.375
REMARK UNBOUND:                -0.377
REMARK SMILES Oc1cc(O)c2cc(O)c(-c3cc(O)c(O)c(O)c3)[o+]c2c1.[Cl-]
REMARK SMILES IDX 10 1 20 2 21 3 22 4 2 5 3 6 4 7 6 8 7 9 8 10 11 11 12 12
REMARK SMILES IDX 13 13 19 14 15 15 17 16 14 17 16 19 18 21 9 23 1 25 5 27
REMARK H PARENT 14 18 16 20 18 22 9 24 1 26 5 28
REMARK Flexibility Score: inf
ROOT
ATOM      1  C   UNL     1      -4.419  -8.104  13.950  1.00  0.00     0.402 A 
ATOM      2  O   UNL     1      -4.644  -9.087  14.818  1.00  0.00    -0.202 OA
ATOM      3  C   UNL     1      -5.857  -9.555  15.092  1.00  0.00     0.368 A 
ATOM      4  C   UNL     1      -5.992 -10.593  16.018  1.00  0.00     0.162 A 
ATOM      5  C   UNL     1      -7.256 -11.107  16.323  1.00  0.00     0.128 A 
ATOM      6  C   UNL     1      -8.389 -10.581  15.699  1.00  0.00     0.093 A 
ATOM      7  C   UNL     1      -8.280  -9.541  14.768  1.00  0.00     0.136 A 
ATOM      8  C   UNL     1      -7.001  -9.014  14.456  1.00  0.00     0.125 A 
ATOM      9  C   UNL     1      -6.798  -7.963  13.547  1.00  0.00     0.078 A 
ATOM     10  C   UNL     1      -5.505  -7.494  13.294  1.00  0.00     0.223 A 
ENDROOT
BRANCH   1  11
ATOM     11  C   UNL     1      -3.021  -7.677  13.722  1.00  0.00     0.091 A 
ATOM     12  C   UNL     1      -2.286  -8.136  12.618  1.00  0.00     0.068 A 
ATOM     13  C   UNL     1      -0.959  -7.740  12.431  1.00  0.00     0.162 A 
ATOM     14  C   UNL     1      -2.394  -6.841  14.656  1.00  0.00     0.068 A 
ATOM     15  C   UNL     1      -0.338  -6.881  13.355  1.00  0.00     0.200 A 
ATOM     16  C   UNL     1      -1.067  -6.432  14.484  1.00  0.00     0.162 A 
BRANCH  13  17
ATOM     17  O   UNL     1      -0.270  -8.217  11.315  1.00  0.00    -0.504 OA
ATOM     18  H   UNL     1       0.736  -8.143  11.228  1.00  0.00     0.293 HD
ENDBRANCH  13  17
BRANCH  15  19
ATOM     19  O   UNL     1       0.988  -6.503  13.126  1.00  0.00    -0.502 OA
ATOM     20  H   UNL     1       1.762  -6.762  13.720  1.00  0.00     0.293 HD
ENDBRANCH  15  19
BRANCH  16  21
ATOM     21  O   UNL     1      -0.516  -5.590  15.452  1.00  0.00    -0.504 OA
ATOM     22  H   UNL     1      -0.969  -5.357  16.324  1.00  0.00     0.293 HD
ENDBRANCH  16  21
ENDBRANCH   1  11
BRANCH  10  23
ATOM     23  O   UNL     1      -5.309  -6.418  12.428  1.00  0.00    -0.500 OA
ATOM     24  H   UNL     1      -5.431  -6.511  11.426  1.00  0.00     0.294 HD
ENDBRANCH  10  23
BRANCH   5  25
ATOM     25  O   UNL     1      -7.398 -12.142  17.244  1.00  0.00    -0.507 OA
ATOM     26  H   UNL     1      -7.188 -13.102  16.999  1.00  0.00     0.293 HD
ENDBRANCH   5  25
BRANCH   7  27
ATOM     27  O   UNL     1      -9.463  -9.072  14.186  1.00  0.00    -0.507 OA
ATOM     28  H   UNL     1      -9.882  -9.460  13.354  1.00  0.00     0.293 HD
ENDBRANCH   7  27
TORSDOF 7
ENDMDL
MODEL 7
REMARK VINA RESULT:    -6.939      2.173      2.781
REMARK INTER + INTRA:          -8.940
REMARK INTER:                  -8.559
REMARK INTRA:                  -0.380
REMARK UNBOUND:                -0.377
REMARK SMILES Oc1cc(O)c2cc(O)c(-c3cc(O)c(O)c(O)c3)[o+]c2c1.[Cl-]
REMARK SMILES IDX 10 1 20 2 21 3 22 4 2 5 3 6 4 7 6 8 7 9 8 10 11 11 12 12
REMARK SMILES IDX 13 13 19 14 15 15 17 16 14 17 16 19 18 21 9 23 1 25 5 27
REMARK H PARENT 14 18 16 20 18 22 9 24 1 26 5 28
REMARK Flexibility Score: inf
ROOT
ATOM      1  C   UNL     1      -4.294  -8.088  13.912  1.00  0.00     0.402 A 
ATOM      2  O   UNL     1      -4.612  -9.119  14.690  1.00  0.00    -0.202 OA
ATOM      3  C   UNL     1      -5.863  -9.513  14.905  1.00  0.00     0.368 A 
ATOM      4  C   UNL     1      -6.097 -10.610  15.738  1.00  0.00     0.162 A 
ATOM      5  C   UNL     1      -7.403 -11.048  15.978  1.00  0.00     0.128 A 
ATOM      6  C   UNL     1      -8.479 -10.385  15.383  1.00  0.00     0.093 A 
ATOM      7  C   UNL     1      -8.270  -9.283  14.544  1.00  0.00     0.136 A 
ATOM      8  C   UNL     1      -6.947  -8.833  14.298  1.00  0.00     0.125 A 
ATOM      9  C   UNL     1      -6.645  -7.730  13.484  1.00  0.00     0.078 A 
ATOM     10  C   UNL     1      -5.315  -7.343  13.293  1.00  0.00     0.223 A 
ENDROOT
BRANCH   1  11
ATOM     11  C   UNL     1      -2.862  -7.753  13.743  1.00  0.00     0.091 A 
ATOM     12  C   UNL     1      -2.216  -6.847  14.598  1.00  0.00     0.068 A 
ATOM     13  C   UNL     1      -0.870  -6.525  14.411  1.00  0.00     0.162 A 
ATOM     14  C   UNL     1      -2.146  -8.305  12.672  1.00  0.00     0.068 A 
ATOM     15  C   UNL     1      -0.144  -7.099  13.351  1.00  0.00     0.200 A 
ATOM     16  C   UNL     1      -0.797  -7.996  12.470  1.00  0.00     0.162 A 
BRANCH  13  17
ATOM     17  O   UNL     1      -0.268  -5.625  15.291  1.00  0.00    -0.504 OA
ATOM     18  H   UNL     1       0.732  -5.465  15.301  1.00  0.00     0.293 HD
ENDBRANCH  13  17
BRANCH  15  19
ATOM     19  O   UNL     1       1.202  -6.756  13.203  1.00  0.00    -0.502 OA
ATOM     20  H   UNL     1       1.611  -5.901  13.552  1.00  0.00     0.293 HD
ENDBRANCH  15  19
BRANCH  16  21
ATOM     21  O   UNL     1      -0.149  -8.596  11.388  1.00  0.00    -0.504 OA
ATOM     22  H   UNL     1      -0.595  -9.229  10.740  1.00  0.00     0.293 HD
ENDBRANCH  16  21
ENDBRANCH   1  11
BRANCH  10  23
ATOM     23  O   UNL     1      -5.018  -6.218  12.523  1.00  0.00    -0.500 OA
ATOM     24  H   UNL     1      -5.647  -5.883  11.803  1.00  0.00     0.294 HD
ENDBRANCH  10  23
BRANCH   5  25
ATOM     25  O   UNL     1      -7.644 -12.140  16.807  1.00  0.00    -0.507 OA
ATOM     26  H   UNL     1      -8.082 -12.985  16.457  1.00  0.00     0.293 HD
ENDBRANCH   5  25
BRANCH   7  27
ATOM     27  O   UNL     1      -9.400  -8.677  13.985  1.00  0.00    -0.507 OA
ATOM     28  H   UNL     1      -9.622  -8.685  13.000  1.00  0.00     0.293 HD
ENDBRANCH   7  27
TORSDOF 7
ENDMDL
MODEL 8
REMARK VINA RESULT:    -6.909      3.374      7.852
REMARK INTER + INTRA:          -8.902
REMARK INTER:                  -8.522
REMARK INTRA:                  -0.380
REMARK UNBOUND:                -0.377
REMARK SMILES Oc1cc(O)c2cc(O)c(-c3cc(O)c(O)c(O)c3)[o+]c2c1.[Cl-]
REMARK SMILES IDX 10 1 20 2 21 3 22 4 2 5 3 6 4 7 6 8 7 9 8 10 11 11 12 12
REMARK SMILES IDX 13 13 19 14 15 15 17 16 14 17 16 19 18 21 9 23 1 25 5 27
REMARK H PARENT 14 18 16 20 18 22 9 24 1 26 5 28
REMARK Flexibility Score: inf
ROOT
ATOM      1  C   UNL     1      -2.908  -9.259  14.117  1.00  0.00     0.402 A 
ATOM      2  O   UNL     1      -2.005  -8.954  15.045  1.00  0.00    -0.202 OA
ATOM      3  C   UNL     1      -0.912  -8.241  14.794  1.00  0.00     0.368 A 
ATOM      4  C   UNL     1      -0.023  -7.970  15.836  1.00  0.00     0.162 A 
ATOM      5  C   UNL     1       1.133  -7.219  15.601  1.00  0.00     0.128 A 
ATOM      6  C   UNL     1       1.400  -6.738  14.317  1.00  0.00     0.093 A 
ATOM      7  C   UNL     1       0.524  -6.996  13.256  1.00  0.00     0.136 A 
ATOM      8  C   UNL     1      -0.649  -7.759  13.488  1.00  0.00     0.125 A 
ATOM      9  C   UNL     1      -1.576  -8.079  12.482  1.00  0.00     0.078 A 
ATOM     10  C   UNL     1      -2.708  -8.840  12.788  1.00  0.00     0.223 A 
ENDROOT
BRANCH   1  11
ATOM     11  C   UNL     1      -4.091 -10.051  14.522  1.00  0.00     0.091 A 
ATOM     12  C   UNL     1      -5.247  -9.435  15.026  1.00  0.00     0.068 A 
ATOM     13  C   UNL     1      -6.346 -10.201  15.425  1.00  0.00     0.162 A 
ATOM     14  C   UNL     1      -4.039 -11.451  14.459  1.00  0.00     0.068 A 
ATOM     15  C   UNL     1      -6.302 -11.604  15.338  1.00  0.00     0.200 A 
ATOM     16  C   UNL     1      -5.129 -12.233  14.853  1.00  0.00     0.162 A 
BRANCH  13  17
ATOM     17  O   UNL     1      -7.477  -9.544  15.912  1.00  0.00    -0.504 OA
ATOM     18  H   UNL     1      -8.351  -9.522  15.402  1.00  0.00     0.293 HD
ENDBRANCH  13  17
BRANCH  15  19
ATOM     19  O   UNL     1      -7.426 -12.330  15.741  1.00  0.00    -0.502 OA
ATOM     20  H   UNL     1      -7.494 -13.337  15.703  1.00  0.00     0.293 HD
ENDBRANCH  15  19
BRANCH  16  21
ATOM     21  O   UNL     1      -5.004 -13.620  14.750  1.00  0.00    -0.504 OA
ATOM     22  H   UNL     1      -4.637 -14.212  15.481  1.00  0.00     0.293 HD
ENDBRANCH  16  21
ENDBRANCH   1  11
BRANCH  10  23
ATOM     23  O   UNL     1      -3.602  -9.199  11.779  1.00  0.00    -0.500 OA
ATOM     24  H   UNL     1      -3.386  -9.928  11.109  1.00  0.00     0.294 HD
ENDBRANCH  10  23
BRANCH   5  25
ATOM     25  O   UNL     1       2.024  -6.945  16.636  1.00  0.00    -0.507 OA
ATOM     26  H   UNL     1       1.708  -6.841  17.593  1.00  0.00     0.293 HD
ENDBRANCH   5  25
BRANCH   7  27
ATOM     27  O   UNL     1       0.862  -6.477  12.002  1.00  0.00    -0.507 OA
ATOM     28  H   UNL     1       1.345  -5.602  11.859  1.00  0.00     0.293 HD
ENDBRANCH   7  27
TORSDOF 7
ENDMDL
MODEL 9
REMARK VINA RESULT:    -6.888      3.493      5.532
REMARK INTER + INTRA:          -8.877
REMARK INTER:                  -8.555
REMARK INTRA:                  -0.322
REMARK UNBOUND:                -0.377
REMARK SMILES Oc1cc(O)c2cc(O)c(-c3cc(O)c(O)c(O)c3)[o+]c2c1.[Cl-]
REMARK SMILES IDX 10 1 20 2 21 3 22 4 2 5 3 6 4 7 6 8 7 9 8 10 11 11 12 12
REMARK SMILES IDX 13 13 19 14 15 15 17 16 14 17 16 19 18 21 9 23 1 25 5 27
REMARK H PARENT 14 18 16 20 18 22 9 24 1 26 5 28
REMARK Flexibility Score: inf
ROOT
ATOM      1  C   UNL     1      -1.989  -8.603  13.218  1.00  0.00     0.402 A 
ATOM      2  O   UNL     1      -2.171  -9.869  13.587  1.00  0.00    -0.202 OA
ATOM      3  C   UNL     1      -3.365 -10.389  13.850  1.00  0.00     0.368 A 
ATOM      4  C   UNL     1      -3.454 -11.731  14.228  1.00  0.00     0.162 A 
ATOM      5  C   UNL     1      -4.698 -12.305  14.506  1.00  0.00     0.128 A 
ATOM      6  C   UNL     1      -5.857 -11.533  14.406  1.00  0.00     0.093 A 
ATOM      7  C   UNL     1      -5.795 -10.186  14.029  1.00  0.00     0.136 A 
ATOM      8  C   UNL     1      -4.535  -9.598  13.747  1.00  0.00     0.125 A 
ATOM      9  C   UNL     1      -4.375  -8.253  13.376  1.00  0.00     0.078 A 
ATOM     10  C   UNL     1      -3.099  -7.743  13.118  1.00  0.00     0.223 A 
ENDROOT
BRANCH   1  11
ATOM     11  C   UNL     1      -0.610  -8.144  12.943  1.00  0.00     0.091 A 
ATOM     12  C   UNL     1       0.064  -8.512  11.769  1.00  0.00     0.068 A 
ATOM     13  C   UNL     1       1.375  -8.088  11.536  1.00  0.00     0.162 A 
ATOM     14  C   UNL     1       0.064  -7.371  13.900  1.00  0.00     0.068 A 
ATOM     15  C   UNL     1       2.042  -7.291  12.485  1.00  0.00     0.200 A 
ATOM     16  C   UNL     1       1.375  -6.936  13.683  1.00  0.00     0.162 A 
BRANCH  13  17
ATOM     17  O   UNL     1       2.002  -8.473  10.350  1.00  0.00    -0.504 OA
ATOM     18  H   UNL     1       1.483  -8.795   9.543  1.00  0.00     0.293 HD
ENDBRANCH  13  17
BRANCH  15  19
ATOM     19  O   UNL     1       3.349  -6.882  12.209  1.00  0.00    -0.502 OA
ATOM     20  H   UNL     1       3.691  -6.661  11.285  1.00  0.00     0.293 HD
ENDBRANCH  15  19
BRANCH  16  21
ATOM     21  O   UNL     1       1.974  -6.160  14.678  1.00  0.00    -0.504 OA
ATOM     22  H   UNL     1       1.507  -5.863  15.523  1.00  0.00     0.293 HD
ENDBRANCH  16  21
ENDBRANCH   1  11
BRANCH  10  23
ATOM     23  O   UNL     1      -2.936  -6.396  12.797  1.00  0.00    -0.500 OA
ATOM     24  H   UNL     1      -2.041  -6.021  12.506  1.00  0.00     0.294 HD
ENDBRANCH  10  23
BRANCH   5  25
ATOM     25  O   UNL     1      -4.794 -13.642  14.883  1.00  0.00    -0.507 OA
ATOM     26  H   UNL     1      -4.288 -14.005  15.683  1.00  0.00     0.293 HD
ENDBRANCH   5  25
BRANCH   7  27
ATOM     27  O   UNL     1      -7.001  -9.484  13.949  1.00  0.00    -0.507 OA
ATOM     28  H   UNL     1      -7.124  -8.615  13.450  1.00  0.00     0.293 HD
ENDBRANCH   7  27
TORSDOF 7
ENDMDL
