MODEL 1
REMARK VINA RESULT:    -3.726      0.000      0.000
REMARK INTER + INTRA:          -3.835
REMARK INTER:                  -3.835
REMARK INTRA:                   0.000
REMARK UNBOUND:                 0.000
REMARK SMILES CC1(C)[C@@H]2CC[C@@](C)(C2)[C@H]1O
REMARK SMILES IDX 1 1 2 2 4 3 5 4 6 5 7 6 9 7 10 8 8 9 3 10 11 11
REMARK H PARENT 11 12
REMARK Flexibility Score: inf
ROOT
ATOM      1  C   UNL     1     115.685 114.614 118.976  1.00  0.00     0.014 C 
ATOM      2  C   UNL     1     114.856 115.571 119.867  1.00  0.00    -0.006 C 
ATOM      3  C   UNL     1     115.029 117.083 119.490  1.00  0.00    -0.002 C 
ATOM      4  C   UNL     1     116.519 117.463 119.354  1.00  0.00     0.005 C 
ATOM      5  C   UNL     1     117.029 117.376 120.802  1.00  0.00     0.010 C 
ATOM      6  C   UNL     1     115.743 117.048 121.598  1.00  0.00    -0.006 C 
ATOM      7  C   UNL     1     114.698 117.792 120.793  1.00  0.00     0.013 C 
ATOM      8  C   UNL     1     115.374 115.555 121.348  1.00  0.00     0.126 C 
ATOM      9  C   UNL     1     115.829 117.465 123.073  1.00  0.00     0.014 C 
ATOM     10  C   UNL     1     113.367 115.158 119.718  1.00  0.00     0.014 C 
ENDROOT
BRANCH   8  11
ATOM     11  O   UNL     1     114.431 115.047 122.267  1.00  0.00    -0.392 OA
ATOM     12  H   UNL     1     114.863 114.952 123.153  1.00  0.00     0.211 HD
ENDBRANCH   8  11
TORSDOF 1
ENDMDL
MODEL 2
REMARK VINA RESULT:    -3.697      2.032      2.791
REMARK INTER + INTRA:          -3.805
REMARK INTER:                  -3.805
REMARK INTRA:                   0.000
REMARK UNBOUND:                 0.000
REMARK SMILES CC1(C)[C@@H]2CC[C@@](C)(C2)[C@H]1O
REMARK SMILES IDX 1 1 2 2 4 3 5 4 6 5 7 6 9 7 10 8 8 9 3 10 11 11
REMARK H PARENT 11 12
REMARK Flexibility Score: inf
ROOT
ATOM      1  C   UNL     1     114.616 117.581 118.870  1.00  0.00     0.014 C 
ATOM      2  C   UNL     1     115.575 118.367 119.799  1.00  0.00    -0.006 C 
ATOM      3  C   UNL     1     117.090 118.164 119.446  1.00  0.00    -0.002 C 
ATOM      4  C   UNL     1     117.435 116.669 119.284  1.00  0.00     0.005 C 
ATOM      5  C   UNL     1     117.308 116.129 120.718  1.00  0.00     0.010 C 
ATOM      6  C   UNL     1     116.996 117.404 121.537  1.00  0.00    -0.006 C 
ATOM      7  C   UNL     1     117.781 118.449 120.770  1.00  0.00     0.013 C 
ATOM      8  C   UNL     1     115.517 117.816 121.266  1.00  0.00     0.126 C 
ATOM      9  C   UNL     1     117.381 117.276 123.017  1.00  0.00     0.014 C 
ATOM     10  C   UNL     1     115.202 119.868 119.675  1.00  0.00     0.014 C 
ENDROOT
BRANCH   8  11
ATOM     11  O   UNL     1     115.015 118.751 122.197  1.00  0.00    -0.392 OA
ATOM     12  H   UNL     1     115.775 119.206 122.640  1.00  0.00     0.211 HD
ENDBRANCH   8  11
TORSDOF 1
ENDMDL
MODEL 3
REMARK VINA RESULT:    -3.697      1.838      3.261
REMARK INTER + INTRA:          -3.805
REMARK INTER:                  -3.805
REMARK INTRA:                   0.000
REMARK UNBOUND:                 0.000
REMARK SMILES CC1(C)[C@@H]2CC[C@@](C)(C2)[C@H]1O
REMARK SMILES IDX 1 1 2 2 4 3 5 4 6 5 7 6 9 7 10 8 8 9 3 10 11 11
REMARK H PARENT 11 12
REMARK Flexibility Score: inf
ROOT
ATOM      1  C   UNL     1     115.126 115.124 123.125  1.00  0.00     0.014 C 
ATOM      2  C   UNL     1     115.754 116.244 122.259  1.00  0.00    -0.006 C 
ATOM      3  C   UNL     1     115.169 116.311 120.805  1.00  0.00    -0.002 C 
ATOM      4  C   UNL     1     115.152 114.919 120.140  1.00  0.00     0.005 C 
ATOM      5  C   UNL     1     116.646 114.621 119.931  1.00  0.00     0.010 C 
ATOM      6  C   UNL     1     117.326 115.922 120.418  1.00  0.00    -0.006 C 
ATOM      7  C   UNL     1     116.297 116.961 120.022  1.00  0.00     0.013 C 
ATOM      8  C   UNL     1     117.269 115.956 121.976  1.00  0.00     0.126 C 
ATOM      9  C   UNL     1     118.718 116.137 119.808  1.00  0.00     0.014 C 
ATOM     10  C   UNL     1     115.495 117.587 122.993  1.00  0.00     0.014 C 
ENDROOT
BRANCH   8  11
ATOM     11  O   UNL     1     118.138 116.910 122.550  1.00  0.00    -0.392 OA
ATOM     12  H   UNL     1     118.953 116.449 122.872  1.00  0.00     0.211 HD
ENDBRANCH   8  11
TORSDOF 1
ENDMDL
MODEL 4
REMARK VINA RESULT:    -3.687      2.411      3.900
REMARK INTER + INTRA:          -3.795
REMARK INTER:                  -3.795
REMARK INTRA:                   0.000
REMARK UNBOUND:                 0.000
REMARK SMILES CC1(C)[C@@H]2CC[C@@](C)(C2)[C@H]1O
REMARK SMILES IDX 1 1 2 2 4 3 5 4 6 5 7 6 9 7 10 8 8 9 3 10 11 11
REMARK H PARENT 11 12
REMARK Flexibility Score: inf
ROOT
ATOM      1  C   UNL     1     117.549 118.499 118.850  1.00  0.00     0.014 C 
ATOM      2  C   UNL     1     118.333 117.541 119.782  1.00  0.00    -0.006 C 
ATOM      3  C   UNL     1     118.154 116.027 119.413  1.00  0.00    -0.002 C 
ATOM      4  C   UNL     1     116.666 115.665 119.224  1.00  0.00     0.005 C 
ATOM      5  C   UNL     1     116.103 115.773 120.651  1.00  0.00     0.010 C 
ATOM      6  C   UNL     1     117.361 116.093 121.492  1.00  0.00    -0.006 C 
ATOM      7  C   UNL     1     118.427 115.328 120.734  1.00  0.00     0.013 C 
ATOM      8  C   UNL     1     117.759 117.579 121.241  1.00  0.00     0.126 C 
ATOM      9  C   UNL     1     117.215 115.693 122.967  1.00  0.00     0.014 C 
ATOM     10  C   UNL     1     119.831 117.933 119.684  1.00  0.00     0.014 C 
ENDROOT
BRANCH   8  11
ATOM     11  O   UNL     1     118.674 118.085 122.190  1.00  0.00    -0.392 OA
ATOM     12  H   UNL     1     118.237 118.810 122.703  1.00  0.00     0.211 HD
ENDBRANCH   8  11
TORSDOF 1
ENDMDL
MODEL 5
REMARK VINA RESULT:    -3.680      2.047      2.789
REMARK INTER + INTRA:          -3.788
REMARK INTER:                  -3.788
REMARK INTRA:                   0.000
REMARK UNBOUND:                 0.000
REMARK SMILES CC1(C)[C@@H]2CC[C@@](C)(C2)[C@H]1O
REMARK SMILES IDX 1 1 2 2 4 3 5 4 6 5 7 6 9 7 10 8 8 9 3 10 11 11
REMARK H PARENT 11 12
REMARK Flexibility Score: inf
ROOT
ATOM      1  C   UNL     1     118.501 115.528 118.825  1.00  0.00     0.014 C 
ATOM      2  C   UNL     1     117.586 114.755 119.807  1.00  0.00    -0.006 C 
ATOM      3  C   UNL     1     116.057 114.944 119.516  1.00  0.00    -0.002 C 
ATOM      4  C   UNL     1     115.696 116.434 119.341  1.00  0.00     0.005 C 
ATOM      5  C   UNL     1     115.881 117.001 120.758  1.00  0.00     0.010 C 
ATOM      6  C   UNL     1     116.235 115.743 121.586  1.00  0.00    -0.006 C 
ATOM      7  C   UNL     1     115.424 114.680 120.872  1.00  0.00     0.013 C 
ATOM      8  C   UNL     1     117.703 115.333 121.261  1.00  0.00     0.126 C 
ATOM      9  C   UNL     1     115.912 115.897 123.079  1.00  0.00     0.014 C 
ATOM     10  C   UNL     1     117.962 113.254 119.695  1.00  0.00     0.014 C 
ENDROOT
BRANCH   8  11
ATOM     11  O   UNL     1     118.250 114.418 122.186  1.00  0.00    -0.392 OA
ATOM     12  H   UNL     1     117.514 113.905 122.605  1.00  0.00     0.211 HD
ENDBRANCH   8  11
TORSDOF 1
ENDMDL
MODEL 6
REMARK VINA RESULT:    -3.651      2.059      3.150
REMARK INTER + INTRA:          -3.758
REMARK INTER:                  -3.758
REMARK INTRA:                   0.000
REMARK UNBOUND:                 0.000
REMARK SMILES CC1(C)[C@@H]2CC[C@@](C)(C2)[C@H]1O
REMARK SMILES IDX 1 1 2 2 4 3 5 4 6 5 7 6 9 7 10 8 8 9 3 10 11 11
REMARK H PARENT 11 12
REMARK Flexibility Score: inf
ROOT
ATOM      1  C   UNL     1     117.997 115.160 123.125  1.00  0.00     0.014 C 
ATOM      2  C   UNL     1     116.885 115.803 122.259  1.00  0.00    -0.006 C 
ATOM      3  C   UNL     1     116.859 115.274 120.783  1.00  0.00    -0.002 C 
ATOM      4  C   UNL     1     118.265 115.303 120.148  1.00  0.00     0.005 C 
ATOM      5  C   UNL     1     118.544 116.808 120.002  1.00  0.00     0.010 C 
ATOM      6  C   UNL     1     117.222 117.450 120.486  1.00  0.00    -0.006 C 
ATOM      7  C   UNL     1     116.208 116.421 120.029  1.00  0.00     0.013 C 
ATOM      8  C   UNL     1     117.155 117.333 122.039  1.00  0.00     0.126 C 
ATOM      9  C   UNL     1     116.998 118.860 119.924  1.00  0.00     0.014 C 
ATOM     10  C   UNL     1     115.532 115.497 122.953  1.00  0.00     0.014 C 
ENDROOT
BRANCH   8  11
ATOM     11  O   UNL     1     116.176 118.165 122.625  1.00  0.00    -0.392 OA
ATOM     12  H   UNL     1     115.923 117.793 123.507  1.00  0.00     0.211 HD
ENDBRANCH   8  11
TORSDOF 1
ENDMDL
