MODEL 1
REMARK VINA RESULT:    -3.224      0.000      0.000
REMARK INTER + INTRA:          -5.332
REMARK INTER:                  -4.920
REMARK INTRA:                  -0.412
REMARK UNBOUND:                -0.412
REMARK SMILES CC1=CCC[C@H](C)C(=O)C[C@H](C(C)C)C(=O)C1
REMARK SMILES IDX 8 1 9 2 6 3 7 4 5 5 4 6 3 7 2 8 1 9 10 11 11 12 15 13 16 14
REMARK SMILES IDX 17 15 12 17 13 18 14 19
REMARK H PARENT
REMARK Flexibility Score: 70.00
ROOT
ATOM      1  C   UNL     1       5.873  23.391  67.813  1.00  0.00     0.136 C 
ATOM      2  O   UNL     1       6.379  22.515  68.503  1.00  0.00    -0.299 OA
ENDROOT
BRANCH   1   3
ATOM      3  C   UNL     1       6.536  23.750  66.486  1.00  0.00     0.053 C 
ATOM      4  C   UNL     1       5.844  23.057  65.299  1.00  0.00     0.016 C 
BRANCH   3   5
ATOM      5  C   UNL     1       6.678  25.271  66.203  1.00  0.00     0.015 C 
BRANCH   5   6
ATOM      6  C   UNL     1       5.629  25.991  65.303  1.00  0.00     0.028 C 
BRANCH   6   7
ATOM      7  C   UNL     1       5.242  27.406  65.671  1.00  0.00    -0.028 C 
ATOM      8  C   UNL     1       4.315  27.793  66.586  1.00  0.00    -0.070 CG0
ATOM      9  C   UNL     1       4.132  29.277  66.798  1.00  0.00     0.039 C 
ATOM     10  G   UNL     1       3.527  26.852  67.484  1.00  0.00     0.000 G0
ENDBRANCH   6   7
ENDBRANCH   5   6
ENDBRANCH   3   5
ENDBRANCH   1   3
BRANCH   1  11
ATOM     11  C   UNL     1       4.696  24.136  68.413  1.00  0.00     0.087 C 
BRANCH  11  12
ATOM     12  C   UNL     1       4.970  25.424  69.239  1.00  0.00     0.066 C 
BRANCH  12  13
ATOM     13  C   UNL     1       4.082  26.613  68.870  1.00  0.00     0.140 C 
ATOM     14  O   UNL     1       3.707  27.350  69.771  1.00  0.00    -0.299 OA
BRANCH  13  15
ATOM     15  C   UNL     1       3.509  26.852  67.495  1.00  0.00     0.106 CG0
ATOM     16  G   UNL     1       4.308  27.775  66.588  1.00  0.00     0.000 G0
ENDBRANCH  13  15
ENDBRANCH  12  13
BRANCH  12  17
ATOM     17  C   UNL     1       4.862  25.143  70.779  1.00  0.00    -0.006 C 
ATOM     18  C   UNL     1       6.190  24.625  71.367  1.00  0.00     0.008 C 
ATOM     19  C   UNL     1       3.748  24.131  71.116  1.00  0.00     0.008 C 
ENDBRANCH  12  17
ENDBRANCH  11  12
ENDBRANCH   1  11
TORSDOF 1
ENDMDL
MODEL 2
REMARK VINA RESULT:    -3.212      6.993     10.082
REMARK INTER + INTRA:          -5.314
REMARK INTER:                  -5.016
REMARK INTRA:                  -0.298
REMARK UNBOUND:                -0.412
REMARK SMILES CC1=CCC[C@H](C)C(=O)C[C@H](C(C)C)C(=O)C1
REMARK SMILES IDX 8 1 9 2 6 3 7 4 5 5 4 6 3 7 2 8 1 9 10 11 11 12 15 13 16 14
REMARK SMILES IDX 17 15 12 17 13 18 14 19
REMARK H PARENT
REMARK Flexibility Score: 70.00
ROOT
ATOM      1  C   UNL     1       7.202  35.503  67.245  1.00  0.00     0.136 C 
ATOM      2  O   UNL     1       7.268  36.398  66.412  1.00  0.00    -0.299 OA
ENDROOT
BRANCH   1   3
ATOM      3  C   UNL     1       7.615  35.811  68.681  1.00  0.00     0.053 C 
ATOM      4  C   UNL     1       9.061  36.332  68.757  1.00  0.00     0.016 C 
BRANCH   3   5
ATOM      5  C   UNL     1       6.666  36.766  69.457  1.00  0.00     0.015 C 
BRANCH   5   6
ATOM      6  C   UNL     1       5.243  36.277  69.866  1.00  0.00     0.028 C 
BRANCH   6   7
ATOM      7  C   UNL     1       4.061  36.860  69.124  1.00  0.00    -0.028 C 
ATOM      8  C   UNL     1       3.221  36.210  68.276  1.00  0.00    -0.070 CG0
ATOM      9  C   UNL     1       2.088  37.010  67.679  1.00  0.00     0.039 C 
ATOM     10  G   UNL     1       3.270  34.722  67.967  1.00  0.00     0.000 G0
ENDBRANCH   6   7
ENDBRANCH   5   6
ENDBRANCH   3   5
ENDBRANCH   1   3
BRANCH   1  11
ATOM     11  C   UNL     1       6.837  34.123  66.733  1.00  0.00     0.087 C 
BRANCH  11  12
ATOM     12  C   UNL     1       5.526  33.461  67.240  1.00  0.00     0.066 C 
BRANCH  12  13
ATOM     13  C   UNL     1       4.255  34.251  66.923  1.00  0.00     0.140 C 
ATOM     14  O   UNL     1       4.101  34.653  65.777  1.00  0.00    -0.299 OA
BRANCH  13  15
ATOM     15  C   UNL     1       3.254  34.705  67.956  1.00  0.00     0.106 CG0
ATOM     16  G   UNL     1       3.228  36.196  68.252  1.00  0.00     0.000 G0
ENDBRANCH  13  15
ENDBRANCH  12  13
BRANCH  12  17
ATOM     17  C   UNL     1       5.385  31.996  66.698  1.00  0.00    -0.006 C 
ATOM     18  C   UNL     1       6.031  30.964  67.644  1.00  0.00     0.008 C 
ATOM     19  C   UNL     1       5.998  31.825  65.294  1.00  0.00     0.008 C 
ENDBRANCH  12  17
ENDBRANCH  11  12
ENDBRANCH   1  11
TORSDOF 1
ENDMDL
MODEL 3
REMARK VINA RESULT:    -2.996     10.737     13.258
REMARK INTER + INTRA:          -4.984
REMARK INTER:                  -4.718
REMARK INTRA:                  -0.266
REMARK UNBOUND:                -0.412
REMARK SMILES CC1=CCC[C@H](C)C(=O)C[C@H](C(C)C)C(=O)C1
REMARK SMILES IDX 8 1 9 2 6 3 7 4 5 5 4 6 3 7 2 8 1 9 10 11 11 12 15 13 16 14
REMARK SMILES IDX 17 15 12 17 13 18 14 19
REMARK H PARENT
REMARK Flexibility Score: 70.00
ROOT
ATOM      1  C   UNL     1       9.154  36.195  69.871  1.00  0.00     0.136 C 
ATOM      2  O   UNL     1       9.177  35.105  70.430  1.00  0.00    -0.299 OA
ENDROOT
BRANCH   1   3
ATOM      3  C   UNL     1       9.756  37.397  70.593  1.00  0.00     0.053 C 
ATOM      4  C   UNL     1      10.497  36.978  71.875  1.00  0.00     0.016 C 
BRANCH   3   5
ATOM      5  C   UNL     1      10.670  38.305  69.724  1.00  0.00     0.015 C 
BRANCH   5   6
ATOM      6  C   UNL     1      10.144  39.686  69.230  1.00  0.00     0.028 C 
BRANCH   6   7
ATOM      7  C   UNL     1      10.328  40.023  67.767  1.00  0.00    -0.028 C 
ATOM      8  C   UNL     1       9.383  39.990  66.790  1.00  0.00    -0.070 CG0
ATOM      9  C   UNL     1       9.810  40.405  65.402  1.00  0.00     0.039 C 
ATOM     10  G   UNL     1       7.912  39.672  67.007  1.00  0.00     0.000 G0
ENDBRANCH   6   7
ENDBRANCH   5   6
ENDBRANCH   3   5
ENDBRANCH   1   3
BRANCH   1  11
ATOM     11  C   UNL     1       8.400  36.271  68.557  1.00  0.00     0.087 C 
BRANCH  11  12
ATOM     12  C   UNL     1       7.357  37.406  68.360  1.00  0.00     0.066 C 
BRANCH  12  13
ATOM     13  C   UNL     1       7.533  38.208  67.069  1.00  0.00     0.140 C 
ATOM     14  O   UNL     1       7.498  37.601  66.008  1.00  0.00    -0.299 OA
BRANCH  13  15
ATOM     15  C   UNL     1       7.903  39.670  67.020  1.00  0.00     0.106 CG0
ATOM     16  G   UNL     1       9.369  39.981  66.762  1.00  0.00     0.000 G0
ENDBRANCH  13  15
ENDBRANCH  12  13
BRANCH  12  17
ATOM     17  C   UNL     1       5.893  36.849  68.439  1.00  0.00    -0.006 C 
ATOM     18  C   UNL     1       5.337  36.885  69.877  1.00  0.00     0.008 C 
ATOM     19  C   UNL     1       5.781  35.407  67.907  1.00  0.00     0.008 C 
ENDBRANCH  12  17
ENDBRANCH  11  12
ENDBRANCH   1  11
TORSDOF 1
ENDMDL
MODEL 4
REMARK VINA RESULT:    -2.961      1.670      3.824
REMARK INTER + INTRA:          -4.930
REMARK INTER:                  -4.665
REMARK INTRA:                  -0.265
REMARK UNBOUND:                -0.412
REMARK SMILES CC1=CCC[C@H](C)C(=O)C[C@H](C(C)C)C(=O)C1
REMARK SMILES IDX 8 1 9 2 6 3 7 4 5 5 4 6 3 7 2 8 1 9 10 11 11 12 15 13 16 14
REMARK SMILES IDX 17 15 12 17 13 18 14 19
REMARK H PARENT
REMARK Flexibility Score: 70.00
ROOT
ATOM      1  C   UNL     1       6.412  23.841  69.467  1.00  0.00     0.136 C 
ATOM      2  O   UNL     1       7.231  23.308  70.205  1.00  0.00    -0.299 OA
ENDROOT
BRANCH   1   3
ATOM      3  C   UNL     1       5.046  24.212  70.038  1.00  0.00     0.053 C 
ATOM      4  C   UNL     1       4.751  23.451  71.343  1.00  0.00     0.016 C 
BRANCH   3   5
ATOM      5  C   UNL     1       4.802  25.732  70.244  1.00  0.00     0.015 C 
BRANCH   5   6
ATOM      6  C   UNL     1       3.687  26.454  69.428  1.00  0.00     0.028 C 
BRANCH   6   7
ATOM      7  C   UNL     1       4.108  27.575  68.504  1.00  0.00    -0.028 C 
ATOM      8  C   UNL     1       4.397  27.485  67.180  1.00  0.00    -0.070 CG0
ATOM      9  C   UNL     1       4.766  28.763  66.465  1.00  0.00     0.039 C 
ATOM     10  G   UNL     1       4.275  26.221  66.342  1.00  0.00     0.000 G0
ENDBRANCH   6   7
ENDBRANCH   5   6
ENDBRANCH   3   5
ENDBRANCH   1   3
BRANCH   1  11
ATOM     11  C   UNL     1       6.791  23.959  68.003  1.00  0.00     0.087 C 
BRANCH  11  12
ATOM     12  C   UNL     1       5.658  24.011  66.940  1.00  0.00     0.066 C 
BRANCH  12  13
ATOM     13  C   UNL     1       5.509  25.364  66.241  1.00  0.00     0.140 C 
ATOM     14  O   UNL     1       6.491  25.832  65.681  1.00  0.00    -0.299 OA
BRANCH  13  15
ATOM     15  C   UNL     1       4.280  26.235  66.327  1.00  0.00     0.106 CG0
ATOM     16  G   UNL     1       4.409  27.492  67.173  1.00  0.00     0.000 G0
ENDBRANCH  13  15
ENDBRANCH  12  13
BRANCH  12  17
ATOM     17  C   UNL     1       5.836  22.881  65.868  1.00  0.00    -0.006 C 
ATOM     18  C   UNL     1       4.485  22.274  65.437  1.00  0.00     0.008 C 
ATOM     19  C   UNL     1       6.750  21.741  66.359  1.00  0.00     0.008 C 
ENDBRANCH  12  17
ENDBRANCH  11  12
ENDBRANCH   1  11
TORSDOF 1
ENDMDL
MODEL 5
REMARK VINA RESULT:    -2.844      8.628     10.573
REMARK INTER + INTRA:          -4.752
REMARK INTER:                  -4.569
REMARK INTRA:                  -0.184
REMARK UNBOUND:                -0.412
REMARK SMILES CC1=CCC[C@H](C)C(=O)C[C@H](C(C)C)C(=O)C1
REMARK SMILES IDX 8 1 9 2 6 3 7 4 5 5 4 6 3 7 2 8 1 9 10 11 11 12 15 13 16 14
REMARK SMILES IDX 17 15 12 17 13 18 14 19
REMARK H PARENT
REMARK Flexibility Score: 70.00
ROOT
ATOM      1  C   UNL     1       6.521  36.335  69.054  1.00  0.00     0.136 C 
ATOM      2  O   UNL     1       7.193  37.123  69.708  1.00  0.00    -0.299 OA
ENDROOT
BRANCH   1   3
ATOM      3  C   UNL     1       7.142  35.704  67.810  1.00  0.00     0.053 C 
ATOM      4  C   UNL     1       8.610  36.128  67.631  1.00  0.00     0.016 C 
BRANCH   3   5
ATOM      5  C   UNL     1       7.022  34.157  67.719  1.00  0.00     0.015 C 
BRANCH   5   6
ATOM      6  C   UNL     1       6.096  33.516  66.641  1.00  0.00     0.028 C 
BRANCH   6   7
ATOM      7  C   UNL     1       5.440  34.442  65.640  1.00  0.00    -0.028 C 
ATOM      8  C   UNL     1       4.136  34.824  65.606  1.00  0.00    -0.070 CG0
ATOM      9  C   UNL     1       3.728  35.789  64.518  1.00  0.00     0.039 C 
ATOM     10  G   UNL     1       3.085  34.442  66.636  1.00  0.00     0.000 G0
ENDBRANCH   6   7
ENDBRANCH   5   6
ENDBRANCH   3   5
ENDBRANCH   1   3
BRANCH   1  11
ATOM     11  C   UNL     1       5.073  36.163  69.472  1.00  0.00     0.087 C 
BRANCH  11  12
ATOM     12  C   UNL     1       3.964  36.283  68.390  1.00  0.00     0.066 C 
BRANCH  12  13
ATOM     13  C   UNL     1       3.281  34.961  68.036  1.00  0.00     0.140 C 
ATOM     14  O   UNL     1       2.999  34.198  68.950  1.00  0.00    -0.299 OA
BRANCH  13  15
ATOM     15  C   UNL     1       3.071  34.462  66.628  1.00  0.00     0.106 CG0
ATOM     16  G   UNL     1       4.145  34.836  65.619  1.00  0.00     0.000 G0
ENDBRANCH  13  15
ENDBRANCH  12  13
BRANCH  12  17
ATOM     17  C   UNL     1       2.883  37.342  68.803  1.00  0.00    -0.006 C 
ATOM     18  C   UNL     1       2.552  38.311  67.651  1.00  0.00     0.008 C 
ATOM     19  C   UNL     1       3.307  38.168  70.034  1.00  0.00     0.008 C 
ENDBRANCH  12  17
ENDBRANCH  11  12
ENDBRANCH   1  11
TORSDOF 1
ENDMDL
MODEL 6
REMARK VINA RESULT:    -2.840      8.499     10.935
REMARK INTER + INTRA:          -4.746
REMARK INTER:                  -4.233
REMARK INTRA:                  -0.513
REMARK UNBOUND:                -0.412
REMARK SMILES CC1=CCC[C@H](C)C(=O)C[C@H](C(C)C)C(=O)C1
REMARK SMILES IDX 8 1 9 2 6 3 7 4 5 5 4 6 3 7 2 8 1 9 10 11 11 12 15 13 16 14
REMARK SMILES IDX 17 15 12 17 13 18 14 19
REMARK H PARENT
REMARK Flexibility Score: 70.00
ROOT
ATOM      1  C   UNL     1       6.764  36.621  69.175  1.00  0.00     0.136 C 
ATOM      2  O   UNL     1       7.494  36.549  70.155  1.00  0.00    -0.299 OA
ENDROOT
BRANCH   1   3
ATOM      3  C   UNL     1       7.404  36.685  67.791  1.00  0.00     0.053 C 
ATOM      4  C   UNL     1       8.817  37.291  67.846  1.00  0.00     0.016 C 
BRANCH   3   5
ATOM      5  C   UNL     1       7.431  35.343  67.008  1.00  0.00     0.015 C 
BRANCH   5   6
ATOM      6  C   UNL     1       6.763  34.076  67.623  1.00  0.00     0.028 C 
BRANCH   6   7
ATOM      7  C   UNL     1       5.614  33.452  66.863  1.00  0.00    -0.028 C 
ATOM      8  C   UNL     1       4.289  33.555  67.145  1.00  0.00    -0.070 CG0
ATOM      9  C   UNL     1       3.327  32.860  66.210  1.00  0.00     0.039 C 
ATOM     10  G   UNL     1       3.696  34.400  68.262  1.00  0.00     0.000 G0
ENDBRANCH   6   7
ENDBRANCH   5   6
ENDBRANCH   3   5
ENDBRANCH   1   3
BRANCH   1  11
ATOM     11  C   UNL     1       5.279  36.778  69.443  1.00  0.00     0.087 C 
BRANCH  11  12
ATOM     12  C   UNL     1       4.326  37.027  68.240  1.00  0.00     0.066 C 
BRANCH  12  13
ATOM     13  C   UNL     1       3.393  35.857  67.921  1.00  0.00     0.140 C 
ATOM     14  O   UNL     1       2.283  36.115  67.475  1.00  0.00    -0.299 OA
BRANCH  13  15
ATOM     15  C   UNL     1       3.685  34.417  68.264  1.00  0.00     0.106 CG0
ATOM     16  G   UNL     1       4.283  33.573  67.149  1.00  0.00     0.000 G0
ENDBRANCH  13  15
ENDBRANCH  12  13
BRANCH  12  17
ATOM     17  C   UNL     1       3.483  38.333  68.447  1.00  0.00    -0.006 C 
ATOM     18  C   UNL     1       4.282  39.601  68.085  1.00  0.00     0.008 C 
ATOM     19  C   UNL     1       2.963  38.477  69.892  1.00  0.00     0.008 C 
ENDBRANCH  12  17
ENDBRANCH  11  12
ENDBRANCH   1  11
TORSDOF 1
ENDMDL
MODEL 7
REMARK VINA RESULT:    -2.816      7.153      9.991
REMARK INTER + INTRA:          -4.710
REMARK INTER:                  -4.815
REMARK INTRA:                   0.105
REMARK UNBOUND:                -0.412
REMARK SMILES CC1=CCC[C@H](C)C(=O)C[C@H](C(C)C)C(=O)C1
REMARK SMILES IDX 8 1 9 2 6 3 7 4 5 5 4 6 3 7 2 8 1 9 10 11 11 12 15 13 16 14
REMARK SMILES IDX 17 15 12 17 13 18 14 19
REMARK H PARENT
REMARK Flexibility Score: 70.00
ROOT
ATOM      1  C   UNL     1       4.270  33.124  67.287  1.00  0.00     0.136 C 
ATOM      2  O   UNL     1       3.407  32.296  67.025  1.00  0.00    -0.299 OA
ENDROOT
BRANCH   1   3
ATOM      3  C   UNL     1       5.718  32.809  66.926  1.00  0.00     0.053 C 
ATOM      4  C   UNL     1       6.090  31.360  67.287  1.00  0.00     0.016 C 
BRANCH   3   5
ATOM      5  C   UNL     1       6.117  33.108  65.454  1.00  0.00     0.015 C 
BRANCH   5   6
ATOM      6  C   UNL     1       6.871  34.429  65.111  1.00  0.00     0.028 C 
BRANCH   6   7
ATOM      7  C   UNL     1       7.829  34.977  66.145  1.00  0.00    -0.028 C 
ATOM      8  C   UNL     1       7.681  36.107  66.886  1.00  0.00    -0.070 CG0
ATOM      9  C   UNL     1       8.770  36.428  67.882  1.00  0.00     0.039 C 
ATOM     10  G   UNL     1       6.459  37.012  66.866  1.00  0.00     0.000 G0
ENDBRANCH   6   7
ENDBRANCH   5   6
ENDBRANCH   3   5
ENDBRANCH   1   3
BRANCH   1  11
ATOM     11  C   UNL     1       3.828  34.341  68.078  1.00  0.00     0.087 C 
BRANCH  11  12
ATOM     12  C   UNL     1       4.860  35.472  68.348  1.00  0.00     0.066 C 
BRANCH  12  13
ATOM     13  C   UNL     1       5.144  36.368  67.142  1.00  0.00     0.140 C 
ATOM     14  O   UNL     1       4.278  36.468  66.284  1.00  0.00    -0.299 OA
BRANCH  13  15
ATOM     15  C   UNL     1       6.477  37.016  66.857  1.00  0.00     0.106 CG0
ATOM     16  G   UNL     1       7.689  36.097  66.897  1.00  0.00     0.000 G0
ENDBRANCH  13  15
ENDBRANCH  12  13
BRANCH  12  17
ATOM     17  C   UNL     1       4.428  36.353  69.571  1.00  0.00    -0.006 C 
ATOM     18  C   UNL     1       3.347  37.384  69.188  1.00  0.00     0.008 C 
ATOM     19  C   UNL     1       5.616  37.102  70.207  1.00  0.00     0.008 C 
ENDBRANCH  12  17
ENDBRANCH  11  12
ENDBRANCH   1  11
TORSDOF 1
ENDMDL
MODEL 8
REMARK VINA RESULT:    -2.706      9.892     11.519
REMARK INTER + INTRA:          -4.541
REMARK INTER:                  -4.584
REMARK INTRA:                   0.043
REMARK UNBOUND:                -0.412
REMARK SMILES CC1=CCC[C@H](C)C(=O)C[C@H](C(C)C)C(=O)C1
REMARK SMILES IDX 8 1 9 2 6 3 7 4 5 5 4 6 3 7 2 8 1 9 10 11 11 12 15 13 16 14
REMARK SMILES IDX 17 15 12 17 13 18 14 19
REMARK H PARENT
REMARK Flexibility Score: 70.00
ROOT
ATOM      1  C   UNL     1       4.326  36.575  69.457  1.00  0.00     0.136 C 
ATOM      2  O   UNL     1       3.444  37.088  70.134  1.00  0.00    -0.299 OA
ENDROOT
BRANCH   1   3
ATOM      3  C   UNL     1       3.925  35.607  68.348  1.00  0.00     0.053 C 
ATOM      4  C   UNL     1       3.020  34.480  68.878  1.00  0.00     0.016 C 
BRANCH   3   5
ATOM      5  C   UNL     1       3.280  36.260  67.095  1.00  0.00     0.015 C 
BRANCH   5   6
ATOM      6  C   UNL     1       3.956  36.091  65.700  1.00  0.00     0.028 C 
BRANCH   6   7
ATOM      7  C   UNL     1       5.288  35.376  65.650  1.00  0.00    -0.028 C 
ATOM      8  C   UNL     1       6.521  35.923  65.817  1.00  0.00    -0.070 CG0
ATOM      9  C   UNL     1       7.706  34.988  65.752  1.00  0.00     0.039 C 
ATOM     10  G   UNL     1       6.792  37.377  66.170  1.00  0.00     0.000 G0
ENDBRANCH   6   7
ENDBRANCH   5   6
ENDBRANCH   3   5
ENDBRANCH   1   3
BRANCH   1  11
ATOM     11  C   UNL     1       5.756  36.854  69.878  1.00  0.00     0.087 C 
BRANCH  11  12
ATOM     12  C   UNL     1       6.873  36.819  68.798  1.00  0.00     0.066 C 
BRANCH  12  13
ATOM     13  C   UNL     1       6.640  37.763  67.617  1.00  0.00     0.140 C 
ATOM     14  O   UNL     1       6.169  38.868  67.851  1.00  0.00    -0.299 OA
BRANCH  13  15
ATOM     15  C   UNL     1       6.803  37.373  66.169  1.00  0.00     0.106 CG0
ATOM     16  G   UNL     1       6.523  35.916  65.834  1.00  0.00     0.000 G0
ENDBRANCH  13  15
ENDBRANCH  12  13
BRANCH  12  17
ATOM     17  C   UNL     1       8.281  37.101  69.429  1.00  0.00    -0.006 C 
ATOM     18  C   UNL     1       9.339  37.437  68.359  1.00  0.00     0.008 C 
ATOM     19  C   UNL     1       8.796  35.918  70.274  1.00  0.00     0.008 C 
ENDBRANCH  12  17
ENDBRANCH  11  12
ENDBRANCH   1  11
TORSDOF 1
ENDMDL
MODEL 9
REMARK VINA RESULT:    -2.668      9.047     11.200
REMARK INTER + INTRA:          -4.483
REMARK INTER:                  -4.452
REMARK INTRA:                  -0.031
REMARK UNBOUND:                -0.412
REMARK SMILES CC1=CCC[C@H](C)C(=O)C[C@H](C(C)C)C(=O)C1
REMARK SMILES IDX 8 1 9 2 6 3 7 4 5 5 4 6 3 7 2 8 1 9 10 11 11 12 15 13 16 14
REMARK SMILES IDX 17 15 12 17 13 18 14 19
REMARK H PARENT
REMARK Flexibility Score: 70.00
ROOT
ATOM      1  C   UNL     1       4.967  33.853  67.319  1.00  0.00     0.136 C 
ATOM      2  O   UNL     1       4.515  32.742  67.071  1.00  0.00    -0.299 OA
ENDROOT
BRANCH   1   3
ATOM      3  C   UNL     1       4.000  34.960  67.728  1.00  0.00     0.053 C 
ATOM      4  C   UNL     1       2.542  34.587  67.406  1.00  0.00     0.016 C 
BRANCH   3   5
ATOM      5  C   UNL     1       4.114  35.431  69.204  1.00  0.00     0.015 C 
BRANCH   5   6
ATOM      6  C   UNL     1       5.048  36.625  69.565  1.00  0.00     0.028 C 
BRANCH   6   7
ATOM      7  C   UNL     1       5.125  37.775  68.586  1.00  0.00    -0.028 C 
ATOM      8  C   UNL     1       6.233  38.248  67.958  1.00  0.00    -0.070 CG0
ATOM      9  C   UNL     1       6.044  39.396  66.994  1.00  0.00     0.039 C 
ATOM     10  G   UNL     1       7.625  37.645  68.067  1.00  0.00     0.000 G0
ENDBRANCH   6   7
ENDBRANCH   5   6
ENDBRANCH   3   5
ENDBRANCH   1   3
BRANCH   1  11
ATOM     11  C   UNL     1       6.448  34.058  67.061  1.00  0.00     0.087 C 
BRANCH  11  12
ATOM     12  C   UNL     1       6.945  35.471  66.646  1.00  0.00     0.066 C 
BRANCH  12  13
ATOM     13  C   UNL     1       7.772  36.189  67.713  1.00  0.00     0.140 C 
ATOM     14  O   UNL     1       8.505  35.513  68.422  1.00  0.00    -0.299 OA
BRANCH  13  15
ATOM     15  C   UNL     1       7.632  37.651  68.058  1.00  0.00     0.106 CG0
ATOM     16  G   UNL     1       6.232  38.234  67.947  1.00  0.00     0.000 G0
ENDBRANCH  13  15
ENDBRANCH  12  13
BRANCH  12  17
ATOM     17  C   UNL     1       7.751  35.415  65.302  1.00  0.00    -0.006 C 
ATOM     18  C   UNL     1       7.546  36.684  64.450  1.00  0.00     0.008 C 
ATOM     19  C   UNL     1       7.386  34.186  64.446  1.00  0.00     0.008 C 
ENDBRANCH  12  17
ENDBRANCH  11  12
ENDBRANCH   1  11
TORSDOF 1
ENDMDL
