MODEL 1
REMARK VINA RESULT:    -0.581      0.000      0.000
REMARK INTER + INTRA:          -0.916
REMARK INTER:                  -0.666
REMARK INTRA:                  -0.251
REMARK UNBOUND:                -0.251
REMARK SMILES COc1ccc(C(C)=O)c(O)c1
REMARK SMILES IDX 6 1 10 2 12 3 3 4 4 5 5 6 7 7 8 8 9 9 11 10 2 12 1 13
REMARK H PARENT 11 11
REMARK Flexibility Score: inf
ROOT
ATOM      1  C   UNL     1      17.463  95.861   8.607  1.00  0.00     0.059 A 
ATOM      2  C   UNL     1      16.573  96.806   9.170  1.00  0.00     0.130 A 
ATOM      3  C   UNL     1      16.861  98.177   9.092  1.00  0.00     0.093 A 
ATOM      4  C   UNL     1      18.019  98.633   8.459  1.00  0.00     0.122 A 
ATOM      5  C   UNL     1      18.903  97.700   7.896  1.00  0.00     0.047 A 
ATOM      6  C   UNL     1      18.627  96.332   7.969  1.00  0.00     0.019 A 
ENDROOT
BRANCH   1   7
ATOM      7  C   UNL     1      17.187  94.398   8.683  1.00  0.00     0.163 C 
ATOM      8  C   UNL     1      18.291  93.384   8.633  1.00  0.00     0.093 C 
ATOM      9  O   UNL     1      16.005  93.983   8.824  1.00  0.00    -0.294 OA
ENDBRANCH   1   7
BRANCH   2  10
ATOM     10  O   UNL     1      15.397  96.392   9.798  1.00  0.00    -0.507 OA
ATOM     11  H   UNL     1      14.717  95.811   9.324  1.00  0.00     0.293 HD
ENDBRANCH   2  10
BRANCH   4  12
ATOM     12  O   UNL     1      18.253 100.016   8.412  1.00  0.00    -0.497 OA
ATOM     13  C   UNL     1      18.994 100.739   9.389  1.00  0.00     0.278 C 
ENDBRANCH   4  12
TORSDOF 3
ENDMDL
MODEL 2
REMARK VINA RESULT:     0.818      1.237      4.943
REMARK INTER + INTRA:           0.687
REMARK INTER:                   0.858
REMARK INTRA:                  -0.172
REMARK UNBOUND:                -0.251
REMARK SMILES COc1ccc(C(C)=O)c(O)c1
REMARK SMILES IDX 6 1 10 2 12 3 3 4 4 5 5 6 7 7 8 8 9 9 11 10 2 12 1 13
REMARK H PARENT 11 11
REMARK Flexibility Score: inf
ROOT
ATOM      1  C   UNL     1      17.811  98.220   8.771  1.00  0.00     0.059 A 
ATOM      2  C   UNL     1      18.383  97.108   8.108  1.00  0.00     0.130 A 
ATOM      3  C   UNL     1      17.723  95.870   8.115  1.00  0.00     0.093 A 
ATOM      4  C   UNL     1      16.497  95.713   8.765  1.00  0.00     0.122 A 
ATOM      5  C   UNL     1      15.924  96.814   9.421  1.00  0.00     0.047 A 
ATOM      6  C   UNL     1      16.574  98.051   9.422  1.00  0.00     0.019 A 
ENDROOT
BRANCH   1   7
ATOM      7  C   UNL     1      18.495  99.545   8.788  1.00  0.00     0.163 C 
ATOM      8  C   UNL     1      19.499  99.900   9.845  1.00  0.00     0.093 C 
ATOM      9  O   UNL     1      18.261 100.391   7.884  1.00  0.00    -0.294 OA
ENDBRANCH   1   7
BRANCH   2  10
ATOM     10  O   UNL     1      19.598  97.228   7.434  1.00  0.00    -0.507 OA
ATOM     11  H   UNL     1      19.784  97.998   6.803  1.00  0.00     0.293 HD
ENDBRANCH   2  10
BRANCH   4  12
ATOM     12  O   UNL     1      15.884  94.451   8.737  1.00  0.00    -0.497 OA
ATOM     13  C   UNL     1      16.556  93.225   9.001  1.00  0.00     0.278 C 
ENDBRANCH   4  12
TORSDOF 3
ENDMDL
MODEL 3
REMARK VINA RESULT:     1.281      1.129      4.575
REMARK INTER + INTRA:           1.217
REMARK INTER:                   1.478
REMARK INTRA:                  -0.261
REMARK UNBOUND:                -0.251
REMARK SMILES COc1ccc(C(C)=O)c(O)c1
REMARK SMILES IDX 6 1 10 2 12 3 3 4 4 5 5 6 7 7 8 8 9 9 11 10 2 12 1 13
REMARK H PARENT 11 11
REMARK Flexibility Score: inf
ROOT
ATOM      1  C   UNL     1      17.905  97.933   8.670  1.00  0.00     0.059 A 
ATOM      2  C   UNL     1      16.609  97.564   9.100  1.00  0.00     0.130 A 
ATOM      3  C   UNL     1      16.216  96.218   9.074  1.00  0.00     0.093 A 
ATOM      4  C   UNL     1      17.090  95.223   8.632  1.00  0.00     0.122 A 
ATOM      5  C   UNL     1      18.379  95.583   8.207  1.00  0.00     0.047 A 
ATOM      6  C   UNL     1      18.780  96.921   8.226  1.00  0.00     0.019 A 
ENDROOT
BRANCH   1   7
ATOM      7  C   UNL     1      18.346  99.358   8.677  1.00  0.00     0.163 C 
ATOM      8  C   UNL     1      19.317  99.877   9.696  1.00  0.00     0.093 C 
ATOM      9  O   UNL     1      17.928 100.155   7.795  1.00  0.00    -0.294 OA
ENDBRANCH   1   7
BRANCH   2  10
ATOM     10  O   UNL     1      15.712  98.527   9.564  1.00  0.00    -0.507 OA
ATOM     11  H   UNL     1      14.776  98.283   9.865  1.00  0.00     0.293 HD
ENDBRANCH   2  10
BRANCH   4  12
ATOM     12  O   UNL     1      16.641  93.894   8.629  1.00  0.00    -0.497 OA
ATOM     13  C   UNL     1      15.350  93.480   9.064  1.00  0.00     0.278 C 
ENDBRANCH   4  12
TORSDOF 3
ENDMDL
MODEL 4
REMARK VINA RESULT:     1.436      2.067      4.551
REMARK INTER + INTRA:           1.395
REMARK INTER:                   1.546
REMARK INTRA:                  -0.150
REMARK UNBOUND:                -0.251
REMARK SMILES COc1ccc(C(C)=O)c(O)c1
REMARK SMILES IDX 6 1 10 2 12 3 3 4 4 5 5 6 7 7 8 8 9 9 11 10 2 12 1 13
REMARK H PARENT 11 11
REMARK Flexibility Score: inf
ROOT
ATOM      1  C   UNL     1      16.466  96.380   9.019  1.00  0.00     0.059 A 
ATOM      2  C   UNL     1      17.685  96.764   8.412  1.00  0.00     0.130 A 
ATOM      3  C   UNL     1      18.561  95.788   7.917  1.00  0.00     0.093 A 
ATOM      4  C   UNL     1      18.250  94.429   8.007  1.00  0.00     0.122 A 
ATOM      5  C   UNL     1      17.040  94.044   8.605  1.00  0.00     0.047 A 
ATOM      6  C   UNL     1      16.160  95.007   9.104  1.00  0.00     0.019 A 
ENDROOT
BRANCH   1   7
ATOM      7  C   UNL     1      15.519  97.396   9.563  1.00  0.00     0.163 C 
ATOM      8  C   UNL     1      14.184  97.007  10.125  1.00  0.00     0.093 C 
ATOM      9  O   UNL     1      15.842  98.614   9.587  1.00  0.00    -0.294 OA
ENDBRANCH   1   7
BRANCH   2  10
ATOM     10  O   UNL     1      18.025  98.112   8.288  1.00  0.00    -0.507 OA
ATOM     11  H   UNL     1      18.912  98.470   8.621  1.00  0.00     0.293 HD
ENDBRANCH   2  10
BRANCH   4  12
ATOM     12  O   UNL     1      19.166  93.499   7.493  1.00  0.00    -0.497 OA
ATOM     13  C   UNL     1      19.973  92.640   8.291  1.00  0.00     0.278 C 
ENDBRANCH   4  12
TORSDOF 3
ENDMDL
MODEL 5
REMARK VINA RESULT:     1.459      1.397      2.194
REMARK INTER + INTRA:           1.422
REMARK INTER:                   1.720
REMARK INTRA:                  -0.298
REMARK UNBOUND:                -0.251
REMARK SMILES COc1ccc(C(C)=O)c(O)c1
REMARK SMILES IDX 6 1 10 2 12 3 3 4 4 5 5 6 7 7 8 8 9 9 11 10 2 12 1 13
REMARK H PARENT 11 11
REMARK Flexibility Score: inf
ROOT
ATOM      1  C   UNL     1      17.290  95.708   8.702  1.00  0.00     0.059 A 
ATOM      2  C   UNL     1      18.400  96.180   7.962  1.00  0.00     0.130 A 
ATOM      3  C   UNL     1      18.668  97.555   7.897  1.00  0.00     0.093 A 
ATOM      4  C   UNL     1      17.855  98.478   8.559  1.00  0.00     0.122 A 
ATOM      5  C   UNL     1      16.755  98.014   9.298  1.00  0.00     0.047 A 
ATOM      6  C   UNL     1      16.478  96.647   9.368  1.00  0.00     0.019 A 
ENDROOT
BRANCH   1   7
ATOM      7  C   UNL     1      16.975  94.252   8.781  1.00  0.00     0.163 C 
ATOM      8  C   UNL     1      15.564  93.756   8.889  1.00  0.00     0.093 C 
ATOM      9  O   UNL     1      17.902  93.400   8.726  1.00  0.00    -0.294 OA
ENDBRANCH   1   7
BRANCH   2  10
ATOM     10  O   UNL     1      19.244  95.288   7.299  1.00  0.00    -0.507 OA
ATOM     11  H   UNL     1      19.909  95.602   6.603  1.00  0.00     0.293 HD
ENDBRANCH   2  10
BRANCH   4  12
ATOM     12  O   UNL     1      18.174  99.840   8.458  1.00  0.00    -0.497 OA
ATOM     13  C   UNL     1      19.030 100.535   9.359  1.00  0.00     0.278 C 
ENDBRANCH   4  12
TORSDOF 3
ENDMDL
MODEL 6
REMARK VINA RESULT:     1.594      1.199      4.447
REMARK INTER + INTRA:           1.576
REMARK INTER:                   1.796
REMARK INTRA:                  -0.220
REMARK UNBOUND:                -0.251
REMARK SMILES COc1ccc(C(C)=O)c(O)c1
REMARK SMILES IDX 6 1 10 2 12 3 3 4 4 5 5 6 7 7 8 8 9 9 11 10 2 12 1 13
REMARK H PARENT 11 11
REMARK Flexibility Score: inf
ROOT
ATOM      1  C   UNL     1      17.436  97.832   8.696  1.00  0.00     0.059 A 
ATOM      2  C   UNL     1      16.482  96.911   9.190  1.00  0.00     0.130 A 
ATOM      3  C   UNL     1      16.668  95.535   8.997  1.00  0.00     0.093 A 
ATOM      4  C   UNL     1      17.792  95.049   8.324  1.00  0.00     0.122 A 
ATOM      5  C   UNL     1      18.742  95.959   7.835  1.00  0.00     0.047 A 
ATOM      6  C   UNL     1      18.565  97.332   8.020  1.00  0.00     0.019 A 
ENDROOT
BRANCH   1   7
ATOM      7  C   UNL     1      17.258  99.302   8.879  1.00  0.00     0.163 C 
ATOM      8  C   UNL     1      18.398 100.261   8.708  1.00  0.00     0.093 C 
ATOM      9  O   UNL     1      16.122  99.773   9.154  1.00  0.00    -0.294 OA
ENDBRANCH   1   7
BRANCH   2  10
ATOM     10  O   UNL     1      15.354  97.356   9.882  1.00  0.00    -0.507 OA
ATOM     11  H   UNL     1      14.442  96.940   9.738  1.00  0.00     0.293 HD
ENDBRANCH   2  10
BRANCH   4  12
ATOM     12  O   UNL     1      17.924  93.662   8.162  1.00  0.00    -0.497 OA
ATOM     13  C   UNL     1      19.035  93.028   7.537  1.00  0.00     0.278 C 
ENDBRANCH   4  12
TORSDOF 3
ENDMDL
MODEL 7
REMARK VINA RESULT:     2.118      1.695      2.513
REMARK INTER + INTRA:           2.177
REMARK INTER:                   2.352
REMARK INTRA:                  -0.175
REMARK UNBOUND:                -0.251
REMARK SMILES COc1ccc(C(C)=O)c(O)c1
REMARK SMILES IDX 6 1 10 2 12 3 3 4 4 5 5 6 7 7 8 8 9 9 11 10 2 12 1 13
REMARK H PARENT 11 11
REMARK Flexibility Score: inf
ROOT
ATOM      1  C   UNL     1      17.986  94.888   8.302  1.00  0.00     0.059 A 
ATOM      2  C   UNL     1      16.647  94.836   8.758  1.00  0.00     0.130 A 
ATOM      3  C   UNL     1      15.964  96.022   9.066  1.00  0.00     0.093 A 
ATOM      4  C   UNL     1      16.582  97.266   8.926  1.00  0.00     0.122 A 
ATOM      5  C   UNL     1      17.909  97.322   8.471  1.00  0.00     0.047 A 
ATOM      6  C   UNL     1      18.600  96.148   8.163  1.00  0.00     0.019 A 
ENDROOT
BRANCH   1   7
ATOM      7  C   UNL     1      18.740  93.644   7.976  1.00  0.00     0.163 C 
ATOM      8  C   UNL     1      19.579  92.940   9.001  1.00  0.00     0.093 C 
ATOM      9  O   UNL     1      18.661  93.138   6.825  1.00  0.00    -0.294 OA
ENDBRANCH   1   7
BRANCH   2  10
ATOM     10  O   UNL     1      15.989  93.614   8.897  1.00  0.00    -0.507 OA
ATOM     11  H   UNL     1      15.705  93.067   8.093  1.00  0.00     0.293 HD
ENDBRANCH   2  10
BRANCH   4  12
ATOM     12  O   UNL     1      15.847  98.416   9.249  1.00  0.00    -0.497 OA
ATOM     13  C   UNL     1      14.724  98.434  10.124  1.00  0.00     0.278 C 
ENDBRANCH   4  12
TORSDOF 3
ENDMDL
