MODEL 1
REMARK VINA RESULT:    -5.138      0.000      0.000
REMARK INTER + INTRA:          -5.992
REMARK INTER:                  -5.889
REMARK INTRA:                  -0.103
REMARK UNBOUND:                -0.103
REMARK SMILES COc1cc(C(=O)[O-])ccc1O
REMARK SMILES IDX 5 1 9 2 4 3 10 4 3 5 11 6 6 7 7 8 8 9 2 10 1 11 12 12
REMARK H PARENT 12 13
REMARK Flexibility Score: inf
ROOT
ATOM      1  C   UNL     1      83.564  99.689  86.867  1.00  0.00     0.001 A 
ATOM      2  C   UNL     1      84.400  99.698  85.740  1.00  0.00     0.014 A 
ATOM      3  C   UNL     1      84.119  99.393  88.127  1.00  0.00     0.060 A 
ATOM      4  C   UNL     1      85.761  99.417  85.866  1.00  0.00     0.051 A 
ATOM      5  C   UNL     1      85.492  99.107  88.261  1.00  0.00     0.161 A 
ATOM      6  C   UNL     1      86.311  99.121  87.116  1.00  0.00     0.157 A 
ENDROOT
BRANCH   1   7
ATOM      7  C   UNL     1      82.122  99.988  86.728  1.00  0.00     0.072 C 
ATOM      8  O   UNL     1      81.393 100.125  87.747  1.00  0.00    -0.545 OA
ATOM      9  O   UNL     1      81.549 100.123  85.469  1.00  0.00    -0.545 OA
ENDBRANCH   1   7
BRANCH   5  10
ATOM     10  O   UNL     1      86.073  98.809  89.503  1.00  0.00    -0.493 OA
ATOM     11  C   UNL     1      86.066  97.521  90.111  1.00  0.00     0.278 C 
ENDBRANCH   5  10
BRANCH   6  12
ATOM     12  O   UNL     1      87.676  98.846  87.203  1.00  0.00    -0.504 OA
ATOM     13  H   UNL     1      88.088  98.409  88.019  1.00  0.00     0.293 HD
ENDBRANCH   6  12
TORSDOF 3
ENDMDL
MODEL 2
REMARK VINA RESULT:    -5.137      1.011      1.408
REMARK INTER + INTRA:          -5.991
REMARK INTER:                  -5.906
REMARK INTRA:                  -0.085
REMARK UNBOUND:                -0.103
REMARK SMILES COc1cc(C(=O)[O-])ccc1O
REMARK SMILES IDX 5 1 9 2 4 3 10 4 3 5 11 6 6 7 7 8 8 9 2 10 1 11 12 12
REMARK H PARENT 12 13
REMARK Flexibility Score: inf
ROOT
ATOM      1  C   UNL     1      83.659  99.579  87.440  1.00  0.00     0.001 A 
ATOM      2  C   UNL     1      83.930  99.710  86.069  1.00  0.00     0.014 A 
ATOM      3  C   UNL     1      84.712  99.256  88.316  1.00  0.00     0.060 A 
ATOM      4  C   UNL     1      85.224  99.524  85.583  1.00  0.00     0.051 A 
ATOM      5  C   UNL     1      86.022  99.066  87.831  1.00  0.00     0.161 A 
ATOM      6  C   UNL     1      86.269  99.203  86.453  1.00  0.00     0.157 A 
ENDROOT
BRANCH   1   7
ATOM      7  C   UNL     1      82.285  99.777  87.951  1.00  0.00     0.072 C 
ATOM      8  O   UNL     1      81.290  99.635  87.190  1.00  0.00    -0.545 OA
ATOM      9  O   UNL     1      82.070 100.125  89.279  1.00  0.00    -0.545 OA
ENDBRANCH   1   7
BRANCH   5  10
ATOM     10  O   UNL     1      87.091  98.745  88.682  1.00  0.00    -0.493 OA
ATOM     11  C   UNL     1      87.012  97.830  89.770  1.00  0.00     0.278 C 
ENDBRANCH   5  10
BRANCH   6  12
ATOM     12  O   UNL     1      87.550  99.025  85.930  1.00  0.00    -0.504 OA
ATOM     13  H   UNL     1      88.010  99.735  85.372  1.00  0.00     0.293 HD
ENDBRANCH   6  12
TORSDOF 3
ENDMDL
MODEL 3
REMARK VINA RESULT:    -4.523      1.667      4.892
REMARK INTER + INTRA:          -5.287
REMARK INTER:                  -5.208
REMARK INTRA:                  -0.079
REMARK UNBOUND:                -0.103
REMARK SMILES COc1cc(C(=O)[O-])ccc1O
REMARK SMILES IDX 5 1 9 2 4 3 10 4 3 5 11 6 6 7 7 8 8 9 2 10 1 11 12 12
REMARK H PARENT 12 13
REMARK Flexibility Score: inf
ROOT
ATOM      1  C   UNL     1      85.620  98.271  89.165  1.00  0.00     0.001 A 
ATOM      2  C   UNL     1      84.387  98.543  89.778  1.00  0.00     0.014 A 
ATOM      3  C   UNL     1      85.805  98.626  87.815  1.00  0.00     0.060 A 
ATOM      4  C   UNL     1      83.360  99.157  89.059  1.00  0.00     0.051 A 
ATOM      5  C   UNL     1      84.772  99.245  87.084  1.00  0.00     0.161 A 
ATOM      6  C   UNL     1      83.544  99.508  87.720  1.00  0.00     0.157 A 
ENDROOT
BRANCH   1   7
ATOM      7  C   UNL     1      86.706  97.620  89.931  1.00  0.00     0.072 C 
ATOM      8  O   UNL     1      87.914  97.843  89.649  1.00  0.00    -0.545 OA
ATOM      9  O   UNL     1      86.409  96.750  90.974  1.00  0.00    -0.545 OA
ENDBRANCH   1   7
BRANCH   5  10
ATOM     10  O   UNL     1      84.928  99.610  85.738  1.00  0.00    -0.493 OA
ATOM     11  C   UNL     1      86.182  99.746  85.077  1.00  0.00     0.278 C 
ENDBRANCH   5  10
BRANCH   6  12
ATOM     12  O   UNL     1      82.495 100.121  87.034  1.00  0.00    -0.504 OA
ATOM     13  H   UNL     1      82.635 100.933  86.446  1.00  0.00     0.293 HD
ENDBRANCH   6  12
TORSDOF 3
ENDMDL
MODEL 4
REMARK VINA RESULT:    -4.443     12.444     13.254
REMARK INTER + INTRA:          -5.195
REMARK INTER:                  -5.096
REMARK INTRA:                  -0.099
REMARK UNBOUND:                -0.103
REMARK SMILES COc1cc(C(=O)[O-])ccc1O
REMARK SMILES IDX 5 1 9 2 4 3 10 4 3 5 11 6 6 7 7 8 8 9 2 10 1 11 12 12
REMARK H PARENT 12 13
REMARK Flexibility Score: inf
ROOT
ATOM      1  C   UNL     1      97.204  98.505  88.160  1.00  0.00     0.001 A 
ATOM      2  C   UNL     1      96.978  99.039  86.882  1.00  0.00     0.014 A 
ATOM      3  C   UNL     1      97.524  97.140  88.283  1.00  0.00     0.060 A 
ATOM      4  C   UNL     1      97.069  98.228  85.750  1.00  0.00     0.051 A 
ATOM      5  C   UNL     1      97.617  96.315  87.144  1.00  0.00     0.161 A 
ATOM      6  C   UNL     1      97.386  96.873  85.873  1.00  0.00     0.157 A 
ENDROOT
BRANCH   1   7
ATOM      7  C   UNL     1      97.106  99.370  89.356  1.00  0.00     0.072 C 
ATOM      8  O   UNL     1      96.110 100.124  89.524  1.00  0.00    -0.545 OA
ATOM      9  O   UNL     1      98.113  99.363  90.315  1.00  0.00    -0.545 OA
ENDBRANCH   1   7
BRANCH   5  10
ATOM     10  O   UNL     1      97.935  94.951  87.237  1.00  0.00    -0.493 OA
ATOM     11  C   UNL     1      96.998  93.921  87.533  1.00  0.00     0.278 C 
ENDBRANCH   5  10
BRANCH   6  12
ATOM     12  O   UNL     1      97.469  96.093  84.719  1.00  0.00    -0.504 OA
ATOM     13  H   UNL     1      96.810  96.186  83.955  1.00  0.00     0.293 HD
ENDBRANCH   6  12
TORSDOF 3
ENDMDL
MODEL 5
REMARK VINA RESULT:    -4.423      2.023      4.700
REMARK INTER + INTRA:          -5.173
REMARK INTER:                  -5.078
REMARK INTRA:                  -0.095
REMARK UNBOUND:                -0.103
REMARK SMILES COc1cc(C(=O)[O-])ccc1O
REMARK SMILES IDX 5 1 9 2 4 3 10 4 3 5 11 6 6 7 7 8 8 9 2 10 1 11 12 12
REMARK H PARENT 12 13
REMARK Flexibility Score: inf
ROOT
ATOM      1  C   UNL     1      86.869  98.163  89.102  1.00  0.00     0.001 A 
ATOM      2  C   UNL     1      87.580  98.310  87.901  1.00  0.00     0.014 A 
ATOM      3  C   UNL     1      85.548  98.642  89.176  1.00  0.00     0.060 A 
ATOM      4  C   UNL     1      86.985  98.923  86.797  1.00  0.00     0.051 A 
ATOM      5  C   UNL     1      84.942  99.263  88.065  1.00  0.00     0.161 A 
ATOM      6  C   UNL     1      85.674  99.400  86.872  1.00  0.00     0.157 A 
ENDROOT
BRANCH   1   7
ATOM      7  C   UNL     1      87.504  97.512  90.269  1.00  0.00     0.072 C 
ATOM      8  O   UNL     1      88.723  97.701  90.526  1.00  0.00    -0.545 OA
ATOM      9  O   UNL     1      86.763  96.679  91.100  1.00  0.00    -0.545 OA
ENDBRANCH   1   7
BRANCH   5  10
ATOM     10  O   UNL     1      83.626  99.750  88.111  1.00  0.00    -0.493 OA
ATOM     11  C   UNL     1      82.469  98.938  88.280  1.00  0.00     0.278 C 
ENDBRANCH   5  10
BRANCH   6  12
ATOM     12  O   UNL     1      85.113 100.006  85.748  1.00  0.00    -0.504 OA
ATOM     13  H   UNL     1      84.121  99.960  85.547  1.00  0.00     0.293 HD
ENDBRANCH   6  12
TORSDOF 3
ENDMDL
MODEL 6
REMARK VINA RESULT:    -4.402     11.148     11.787
REMARK INTER + INTRA:          -5.148
REMARK INTER:                  -5.067
REMARK INTRA:                  -0.081
REMARK UNBOUND:                -0.103
REMARK SMILES COc1cc(C(=O)[O-])ccc1O
REMARK SMILES IDX 5 1 9 2 4 3 10 4 3 5 11 6 6 7 7 8 8 9 2 10 1 11 12 12
REMARK H PARENT 12 13
REMARK Flexibility Score: inf
ROOT
ATOM      1  C   UNL     1      80.512  87.562  87.993  1.00  0.00     0.001 A 
ATOM      2  C   UNL     1      80.264  87.492  86.613  1.00  0.00     0.014 A 
ATOM      3  C   UNL     1      81.109  88.722  88.521  1.00  0.00     0.060 A 
ATOM      4  C   UNL     1      80.605  88.556  85.778  1.00  0.00     0.051 A 
ATOM      5  C   UNL     1      81.456  89.800  87.683  1.00  0.00     0.161 A 
ATOM      6  C   UNL     1      81.198  89.707  86.303  1.00  0.00     0.157 A 
ENDROOT
BRANCH   1   7
ATOM      7  C   UNL     1      80.148  86.431  88.874  1.00  0.00     0.072 C 
ATOM      8  O   UNL     1      79.875  86.625  90.089  1.00  0.00    -0.545 OA
ATOM      9  O   UNL     1      80.103  85.135  88.374  1.00  0.00    -0.545 OA
ENDBRANCH   1   7
BRANCH   5  10
ATOM     10  O   UNL     1      82.053  90.969  88.182  1.00  0.00    -0.493 OA
ATOM     11  C   UNL     1      82.865  91.027  89.349  1.00  0.00     0.278 C 
ENDBRANCH   5  10
BRANCH   6  12
ATOM     12  O   UNL     1      81.525  90.751  85.437  1.00  0.00    -0.504 OA
ATOM     13  H   UNL     1      82.483  90.971  85.192  1.00  0.00     0.293 HD
ENDBRANCH   6  12
TORSDOF 3
ENDMDL
MODEL 7
REMARK VINA RESULT:    -4.401     12.607     13.579
REMARK INTER + INTRA:          -5.147
REMARK INTER:                  -5.062
REMARK INTRA:                  -0.085
REMARK UNBOUND:                -0.103
REMARK SMILES COc1cc(C(=O)[O-])ccc1O
REMARK SMILES IDX 5 1 9 2 4 3 10 4 3 5 11 6 6 7 7 8 8 9 2 10 1 11 12 12
REMARK H PARENT 12 13
REMARK Flexibility Score: inf
ROOT
ATOM      1  C   UNL     1      97.172  95.743  88.542  1.00  0.00     0.001 A 
ATOM      2  C   UNL     1      97.929  95.021  87.607  1.00  0.00     0.014 A 
ATOM      3  C   UNL     1      96.867  97.092  88.280  1.00  0.00     0.060 A 
ATOM      4  C   UNL     1      98.372  95.633  86.433  1.00  0.00     0.051 A 
ATOM      5  C   UNL     1      97.313  97.715  87.097  1.00  0.00     0.161 A 
ATOM      6  C   UNL     1      98.070  96.972  86.173  1.00  0.00     0.157 A 
ENDROOT
BRANCH   1   7
ATOM      7  C   UNL     1      96.704  95.091  89.785  1.00  0.00     0.072 C 
ATOM      8  O   UNL     1      95.881  95.669  90.544  1.00  0.00    -0.545 OA
ATOM      9  O   UNL     1      97.168  93.828  90.135  1.00  0.00    -0.545 OA
ENDBRANCH   1   7
BRANCH   5  10
ATOM     10  O   UNL     1      97.023  99.058  86.809  1.00  0.00    -0.493 OA
ATOM     11  C   UNL     1      97.002 100.106  87.773  1.00  0.00     0.278 C 
ENDBRANCH   5  10
BRANCH   6  12
ATOM     12  O   UNL     1      98.530  97.548  84.989  1.00  0.00    -0.504 OA
ATOM     13  H   UNL     1      98.544  97.042  84.112  1.00  0.00     0.293 HD
ENDBRANCH   6  12
TORSDOF 3
ENDMDL
