MODEL 1
REMARK VINA RESULT:    -7.160      0.000      0.000
REMARK INTER + INTRA:          -7.808
REMARK INTER:                  -7.579
REMARK INTRA:                  -0.229
REMARK UNBOUND:                -0.229
REMARK SMILES O=c1cc(-c2ccccc2)oc2ccccc12
REMARK SMILES IDX 4 1 3 2 2 3 1 4 17 5 16 6 15 7 14 8 13 9 12 10 11 11 5 12
REMARK SMILES IDX 8 13 7 14 9 15 6 16 10 17
REMARK H PARENT
REMARK Flexibility Score: inf
ROOT
ATOM      1  C   UNL     1       4.476  33.995   3.094  1.00  0.00     0.138 A 
ATOM      2  C   UNL     1       3.644  33.079   2.415  1.00  0.00     0.100 A 
ATOM      3  C   UNL     1       4.205  31.940   1.833  1.00  0.00     0.193 A 
ATOM      4  O   UNL     1       3.462  31.121   1.228  1.00  0.00    -0.289 OA
ATOM      5  C   UNL     1       5.587  31.724   1.933  1.00  0.00     0.065 A 
ATOM      6  C   UNL     1       6.216  30.599   1.368  1.00  0.00     0.016 A 
ATOM      7  C   UNL     1       7.598  30.433   1.497  1.00  0.00     0.001 A 
ATOM      8  C   UNL     1       8.360  31.382   2.183  1.00  0.00     0.004 A 
ATOM      9  C   UNL     1       7.744  32.503   2.745  1.00  0.00     0.048 A 
ATOM     10  C   UNL     1       6.361  32.680   2.624  1.00  0.00     0.138 A 
ATOM     11  O   UNL     1       5.785  33.749   3.162  1.00  0.00    -0.456 OA
ENDROOT
BRANCH   1  12
ATOM     12  C   UNL     1       3.956  35.238   3.744  1.00  0.00     0.017 A 
ATOM     13  C   UNL     1       2.927  37.527   5.036  1.00  0.00     0.000 A 
ATOM     14  C   UNL     1       3.762  37.667   3.929  1.00  0.00     0.001 A 
ATOM     15  C   UNL     1       2.600  36.255   5.504  1.00  0.00     0.001 A 
ATOM     16  C   UNL     1       4.275  36.536   3.284  1.00  0.00     0.012 A 
ATOM     17  C   UNL     1       3.108  35.120   4.866  1.00  0.00     0.012 A 
ENDBRANCH   1  12
TORSDOF 1
ENDMDL
MODEL 2
REMARK VINA RESULT:    -7.079      4.566      7.986
REMARK INTER + INTRA:          -7.722
REMARK INTER:                  -7.455
REMARK INTRA:                  -0.266
REMARK UNBOUND:                -0.229
REMARK SMILES O=c1cc(-c2ccccc2)oc2ccccc12
REMARK SMILES IDX 4 1 3 2 2 3 1 4 17 5 16 6 15 7 14 8 13 9 12 10 11 11 5 12
REMARK SMILES IDX 8 13 7 14 9 15 6 16 10 17
REMARK H PARENT
REMARK Flexibility Score: inf
ROOT
ATOM      1  C   UNL     1       6.079  28.542  -0.412  1.00  0.00     0.138 A 
ATOM      2  C   UNL     1       5.117  28.024  -1.305  1.00  0.00     0.100 A 
ATOM      3  C   UNL     1       3.764  28.293  -1.090  1.00  0.00     0.193 A 
ATOM      4  O   UNL     1       2.904  27.831  -1.888  1.00  0.00    -0.289 OA
ATOM      5  C   UNL     1       3.381  29.073   0.011  1.00  0.00     0.065 A 
ATOM      6  C   UNL     1       2.036  29.380   0.285  1.00  0.00     0.016 A 
ATOM      7  C   UNL     1       1.710  30.163   1.397  1.00  0.00     0.001 A 
ATOM      8  C   UNL     1       2.716  30.642   2.240  1.00  0.00     0.004 A 
ATOM      9  C   UNL     1       4.055  30.341   1.975  1.00  0.00     0.048 A 
ATOM     10  C   UNL     1       4.394  29.559   0.864  1.00  0.00     0.138 A 
ATOM     11  O   UNL     1       5.669  29.279   0.621  1.00  0.00    -0.456 OA
ENDROOT
BRANCH   1  12
ATOM     12  C   UNL     1       7.547  28.302  -0.570  1.00  0.00     0.017 A 
ATOM     13  C   UNL     1      10.299  27.799  -0.950  1.00  0.00     0.000 A 
ATOM     14  C   UNL     1       9.868  28.518   0.163  1.00  0.00     0.001 A 
ATOM     15  C   UNL     1       9.369  27.328  -1.876  1.00  0.00     0.001 A 
ATOM     16  C   UNL     1       8.505  28.771   0.357  1.00  0.00     0.012 A 
ATOM     17  C   UNL     1       8.005  27.575  -1.689  1.00  0.00     0.012 A 
ENDBRANCH   1  12
TORSDOF 1
ENDMDL
MODEL 3
REMARK VINA RESULT:    -7.046      4.781      7.699
REMARK INTER + INTRA:          -7.687
REMARK INTER:                  -7.457
REMARK INTRA:                  -0.230
REMARK UNBOUND:                -0.229
REMARK SMILES O=c1cc(-c2ccccc2)oc2ccccc12
REMARK SMILES IDX 4 1 3 2 2 3 1 4 17 5 16 6 15 7 14 8 13 9 12 10 11 11 5 12
REMARK SMILES IDX 8 13 7 14 9 15 6 16 10 17
REMARK H PARENT
REMARK Flexibility Score: inf
ROOT
ATOM      1  C   UNL     1       3.610  28.941   0.577  1.00  0.00     0.138 A 
ATOM      2  C   UNL     1       2.874  27.957   1.271  1.00  0.00     0.100 A 
ATOM      3  C   UNL     1       1.571  28.239   1.687  1.00  0.00     0.193 A 
ATOM      4  O   UNL     1       0.913  27.360   2.306  1.00  0.00    -0.289 OA
ATOM      5  C   UNL     1       1.014  29.495   1.409  1.00  0.00     0.065 A 
ATOM      6  C   UNL     1      -0.292  29.843   1.801  1.00  0.00     0.016 A 
ATOM      7  C   UNL     1      -0.799  31.110   1.498  1.00  0.00     0.001 A 
ATOM      8  C   UNL     1      -0.012  32.036   0.807  1.00  0.00     0.004 A 
ATOM      9  C   UNL     1       1.286  31.699   0.415  1.00  0.00     0.048 A 
ATOM     10  C   UNL     1       1.805  30.433   0.712  1.00  0.00     0.138 A 
ATOM     11  O   UNL     1       3.040  30.123   0.335  1.00  0.00    -0.456 OA
ENDROOT
BRANCH   1  12
ATOM     12  C   UNL     1       5.010  28.722   0.097  1.00  0.00     0.017 A 
ATOM     13  C   UNL     1       7.682  28.379  -0.748  1.00  0.00     0.000 A 
ATOM     14  C   UNL     1       6.667  27.608  -1.312  1.00  0.00     0.001 A 
ATOM     15  C   UNL     1       7.375  29.321   0.234  1.00  0.00     0.001 A 
ATOM     16  C   UNL     1       5.341  27.774  -0.897  1.00  0.00     0.012 A 
ATOM     17  C   UNL     1       6.053  29.493   0.653  1.00  0.00     0.012 A 
ENDBRANCH   1  12
TORSDOF 1
ENDMDL
MODEL 4
REMARK VINA RESULT:    -7.016      2.203      6.826
REMARK INTER + INTRA:          -7.655
REMARK INTER:                  -7.428
REMARK INTRA:                  -0.227
REMARK UNBOUND:                -0.229
REMARK SMILES O=c1cc(-c2ccccc2)oc2ccccc12
REMARK SMILES IDX 4 1 3 2 2 3 1 4 17 5 16 6 15 7 14 8 13 9 12 10 11 11 5 12
REMARK SMILES IDX 8 13 7 14 9 15 6 16 10 17
REMARK H PARENT
REMARK Flexibility Score: inf
ROOT
ATOM      1  C   UNL     1       6.440  30.506   1.008  1.00  0.00     0.138 A 
ATOM      2  C   UNL     1       5.330  30.133   1.795  1.00  0.00     0.100 A 
ATOM      3  C   UNL     1       4.576  31.120   2.434  1.00  0.00     0.193 A 
ATOM      4  O   UNL     1       3.584  30.786   3.136  1.00  0.00    -0.289 OA
ATOM      5  C   UNL     1       4.934  32.467   2.284  1.00  0.00     0.065 A 
ATOM      6  C   UNL     1       4.218  33.509   2.901  1.00  0.00     0.016 A 
ATOM      7  C   UNL     1       4.620  34.837   2.718  1.00  0.00     0.001 A 
ATOM      8  C   UNL     1       5.731  35.133   1.924  1.00  0.00     0.004 A 
ATOM      9  C   UNL     1       6.448  34.103   1.309  1.00  0.00     0.048 A 
ATOM     10  C   UNL     1       6.056  32.771   1.484  1.00  0.00     0.138 A 
ATOM     11  O   UNL     1       6.744  31.800   0.894  1.00  0.00    -0.456 OA
ENDROOT
BRANCH   1  12
ATOM     12  C   UNL     1       7.299  29.514   0.291  1.00  0.00     0.017 A 
ATOM     13  C   UNL     1       8.994  27.663  -1.002  1.00  0.00     0.000 A 
ATOM     14  C   UNL     1       7.690  27.849  -1.455  1.00  0.00     0.001 A 
ATOM     15  C   UNL     1       9.461  28.392   0.091  1.00  0.00     0.001 A 
ATOM     16  C   UNL     1       6.845  28.765  -0.819  1.00  0.00     0.012 A 
ATOM     17  C   UNL     1       8.624  29.310   0.732  1.00  0.00     0.012 A 
ENDBRANCH   1  12
TORSDOF 1
ENDMDL
MODEL 5
REMARK VINA RESULT:    -6.984      5.177      8.527
REMARK INTER + INTRA:          -7.621
REMARK INTER:                  -7.370
REMARK INTRA:                  -0.251
REMARK UNBOUND:                -0.229
REMARK SMILES O=c1cc(-c2ccccc2)oc2ccccc12
REMARK SMILES IDX 4 1 3 2 2 3 1 4 17 5 16 6 15 7 14 8 13 9 12 10 11 11 5 12
REMARK SMILES IDX 8 13 7 14 9 15 6 16 10 17
REMARK H PARENT
REMARK Flexibility Score: inf
ROOT
ATOM      1  C   UNL     1       7.350  28.572  -0.238  1.00  0.00     0.138 A 
ATOM      2  C   UNL     1       7.089  29.743   0.505  1.00  0.00     0.100 A 
ATOM      3  C   UNL     1       5.778  30.038   0.887  1.00  0.00     0.193 A 
ATOM      4  O   UNL     1       5.545  31.084   1.551  1.00  0.00    -0.289 OA
ATOM      5  C   UNL     1       4.742  29.166   0.527  1.00  0.00     0.065 A 
ATOM      6  C   UNL     1       3.400  29.405   0.879  1.00  0.00     0.016 A 
ATOM      7  C   UNL     1       2.405  28.501   0.494  1.00  0.00     0.001 A 
ATOM      8  C   UNL     1       2.736  27.361  -0.242  1.00  0.00     0.004 A 
ATOM      9  C   UNL     1       4.066  27.117  -0.597  1.00  0.00     0.048 A 
ATOM     10  C   UNL     1       5.071  28.013  -0.216  1.00  0.00     0.138 A 
ATOM     11  O   UNL     1       6.332  27.772  -0.559  1.00  0.00    -0.456 OA
ENDROOT
BRANCH   1  12
ATOM     12  C   UNL     1       8.722  28.182  -0.687  1.00  0.00     0.017 A 
ATOM     13  C   UNL     1      11.349  27.483  -1.449  1.00  0.00     0.000 A 
ATOM     14  C   UNL     1      10.280  27.222  -2.306  1.00  0.00     0.001 A 
ATOM     15  C   UNL     1      11.118  28.090  -0.216  1.00  0.00     0.001 A 
ATOM     16  C   UNL     1       8.976  27.566  -1.933  1.00  0.00     0.012 A 
ATOM     17  C   UNL     1       9.819  28.438   0.164  1.00  0.00     0.012 A 
ENDBRANCH   1  12
TORSDOF 1
ENDMDL
MODEL 6
REMARK VINA RESULT:    -6.953      2.803      4.532
REMARK INTER + INTRA:          -7.588
REMARK INTER:                  -7.344
REMARK INTRA:                  -0.244
REMARK UNBOUND:                -0.229
REMARK SMILES O=c1cc(-c2ccccc2)oc2ccccc12
REMARK SMILES IDX 4 1 3 2 2 3 1 4 17 5 16 6 15 7 14 8 13 9 12 10 11 11 5 12
REMARK SMILES IDX 8 13 7 14 9 15 6 16 10 17
REMARK H PARENT
REMARK Flexibility Score: inf
ROOT
ATOM      1  C   UNL     1       2.848  35.360   4.486  1.00  0.00     0.138 A 
ATOM      2  C   UNL     1       3.790  34.683   3.684  1.00  0.00     0.100 A 
ATOM      3  C   UNL     1       3.478  33.422   3.171  1.00  0.00     0.193 A 
ATOM      4  O   UNL     1       4.320  32.817   2.454  1.00  0.00    -0.289 OA
ATOM      5  C   UNL     1       2.232  32.849   3.461  1.00  0.00     0.065 A 
ATOM      6  C   UNL     1       1.855  31.582   2.976  1.00  0.00     0.016 A 
ATOM      7  C   UNL     1       0.599  31.057   3.297  1.00  0.00     0.001 A 
ATOM      8  C   UNL     1      -0.285  31.784   4.098  1.00  0.00     0.004 A 
ATOM      9  C   UNL     1       0.082  33.042   4.584  1.00  0.00     0.048 A 
ATOM     10  C   UNL     1       1.336  33.579   4.270  1.00  0.00     0.138 A 
ATOM     11  O   UNL     1       1.675  34.776   4.736  1.00  0.00    -0.456 OA
ENDROOT
BRANCH   1  12
ATOM     12  C   UNL     1       3.102  36.712   5.075  1.00  0.00     0.017 A 
ATOM     13  C   UNL     1       3.618  39.292   6.098  1.00  0.00     0.000 A 
ATOM     14  C   UNL     1       3.070  38.311   6.922  1.00  0.00     0.001 A 
ATOM     15  C   UNL     1       3.910  38.997   4.767  1.00  0.00     0.001 A 
ATOM     16  C   UNL     1       2.812  37.030   6.421  1.00  0.00     0.012 A 
ATOM     17  C   UNL     1       3.657  37.720   4.258  1.00  0.00     0.012 A 
ENDBRANCH   1  12
TORSDOF 1
ENDMDL
MODEL 7
REMARK VINA RESULT:    -6.940      1.220      2.528
REMARK INTER + INTRA:          -7.575
REMARK INTER:                  -7.319
REMARK INTRA:                  -0.255
REMARK UNBOUND:                -0.229
REMARK SMILES O=c1cc(-c2ccccc2)oc2ccccc12
REMARK SMILES IDX 4 1 3 2 2 3 1 4 17 5 16 6 15 7 14 8 13 9 12 10 11 11 5 12
REMARK SMILES IDX 8 13 7 14 9 15 6 16 10 17
REMARK H PARENT
REMARK Flexibility Score: inf
ROOT
ATOM      1  C   UNL     1       4.749  34.261   3.065  1.00  0.00     0.138 A 
ATOM      2  C   UNL     1       6.010  34.467   2.465  1.00  0.00     0.100 A 
ATOM      3  C   UNL     1       6.624  33.419   1.776  1.00  0.00     0.193 A 
ATOM      4  O   UNL     1       7.750  33.603   1.240  1.00  0.00    -0.289 OA
ATOM      5  C   UNL     1       5.978  32.178   1.690  1.00  0.00     0.065 A 
ATOM      6  C   UNL     1       6.542  31.081   1.012  1.00  0.00     0.016 A 
ATOM      7  C   UNL     1       5.855  29.864   0.958  1.00  0.00     0.001 A 
ATOM      8  C   UNL     1       4.608  29.732   1.575  1.00  0.00     0.004 A 
ATOM      9  C   UNL     1       4.042  30.816   2.251  1.00  0.00     0.048 A 
ATOM     10  C   UNL     1       4.720  32.039   2.313  1.00  0.00     0.138 A 
ATOM     11  O   UNL     1       4.173  33.063   2.958  1.00  0.00    -0.456 OA
ENDROOT
BRANCH   1  12
ATOM     12  C   UNL     1       4.024  35.329   3.820  1.00  0.00     0.017 A 
ATOM     13  C   UNL     1       2.697  37.412   5.188  1.00  0.00     0.000 A 
ATOM     14  C   UNL     1       2.499  36.086   5.573  1.00  0.00     0.001 A 
ATOM     15  C   UNL     1       3.551  37.707   4.126  1.00  0.00     0.001 A 
ATOM     16  C   UNL     1       3.154  35.050   4.899  1.00  0.00     0.012 A 
ATOM     17  C   UNL     1       4.210  36.677   3.448  1.00  0.00     0.012 A 
ENDBRANCH   1  12
TORSDOF 1
ENDMDL
MODEL 8
REMARK VINA RESULT:    -6.907      4.110      7.889
REMARK INTER + INTRA:          -7.540
REMARK INTER:                  -7.289
REMARK INTRA:                  -0.251
REMARK UNBOUND:                -0.229
REMARK SMILES O=c1cc(-c2ccccc2)oc2ccccc12
REMARK SMILES IDX 4 1 3 2 2 3 1 4 17 5 16 6 15 7 14 8 13 9 12 10 11 11 5 12
REMARK SMILES IDX 8 13 7 14 9 15 6 16 10 17
REMARK H PARENT
REMARK Flexibility Score: inf
ROOT
ATOM      1  C   UNL     1       6.684  29.286   0.293  1.00  0.00     0.138 A 
ATOM      2  C   UNL     1       6.702  30.552   0.917  1.00  0.00     0.100 A 
ATOM      3  C   UNL     1       5.510  31.101   1.395  1.00  0.00     0.193 A 
ATOM      4  O   UNL     1       5.526  32.232   1.952  1.00  0.00    -0.289 OA
ATOM      5  C   UNL     1       4.313  30.386   1.247  1.00  0.00     0.065 A 
ATOM      6  C   UNL     1       3.078  30.883   1.705  1.00  0.00     0.016 A 
ATOM      7  C   UNL     1       1.914  30.128   1.532  1.00  0.00     0.001 A 
ATOM      8  C   UNL     1       1.970  28.881   0.904  1.00  0.00     0.004 A 
ATOM      9  C   UNL     1       3.192  28.381   0.446  1.00  0.00     0.048 A 
ATOM     10  C   UNL     1       4.365  29.127   0.614  1.00  0.00     0.138 A 
ATOM     11  O   UNL     1       5.521  28.643   0.175  1.00  0.00    -0.456 OA
ENDROOT
BRANCH   1  12
ATOM     12  C   UNL     1       7.913  28.627  -0.245  1.00  0.00     0.017 A 
ATOM     13  C   UNL     1      10.286  27.421  -1.187  1.00  0.00     0.000 A 
ATOM     14  C   UNL     1       9.093  27.255  -1.888  1.00  0.00     0.001 A 
ATOM     15  C   UNL     1      10.306  28.184  -0.020  1.00  0.00     0.001 A 
ATOM     16  C   UNL     1       7.913  27.851  -1.426  1.00  0.00     0.012 A 
ATOM     17  C   UNL     1       9.133  28.783   0.448  1.00  0.00     0.012 A 
ENDBRANCH   1  12
TORSDOF 1
ENDMDL
MODEL 9
REMARK VINA RESULT:    -6.860      3.475      4.515
REMARK INTER + INTRA:          -7.491
REMARK INTER:                  -7.260
REMARK INTRA:                  -0.231
REMARK UNBOUND:                -0.229
REMARK SMILES O=c1cc(-c2ccccc2)oc2ccccc12
REMARK SMILES IDX 4 1 3 2 2 3 1 4 17 5 16 6 15 7 14 8 13 9 12 10 11 11 5 12
REMARK SMILES IDX 8 13 7 14 9 15 6 16 10 17
REMARK H PARENT
REMARK Flexibility Score: inf
ROOT
ATOM      1  C   UNL     1       1.840  31.901   3.576  1.00  0.00     0.138 A 
ATOM      2  C   UNL     1       0.639  31.641   2.883  1.00  0.00     0.100 A 
ATOM      3  C   UNL     1       0.312  30.327   2.541  1.00  0.00     0.193 A 
ATOM      4  O   UNL     1      -0.761  30.095   1.922  1.00  0.00    -0.289 OA
ATOM      5  C   UNL     1       1.183  29.286   2.891  1.00  0.00     0.065 A 
ATOM      6  C   UNL     1       0.914  27.941   2.576  1.00  0.00     0.016 A 
ATOM      7  C   UNL     1       1.818  26.941   2.949  1.00  0.00     0.001 A 
ATOM      8  C   UNL     1       2.990  27.272   3.634  1.00  0.00     0.004 A 
ATOM      9  C   UNL     1       3.265  28.605   3.950  1.00  0.00     0.048 A 
ATOM     10  C   UNL     1       2.368  29.615   3.582  1.00  0.00     0.138 A 
ATOM     11  O   UNL     1       2.639  30.879   3.888  1.00  0.00    -0.456 OA
ENDROOT
BRANCH   1  12
ATOM     12  C   UNL     1       2.265  33.277   3.979  1.00  0.00     0.017 A 
ATOM     13  C   UNL     1       3.146  35.866   4.682  1.00  0.00     0.000 A 
ATOM     14  C   UNL     1       1.983  35.346   5.248  1.00  0.00     0.001 A 
ATOM     15  C   UNL     1       3.873  35.105   3.768  1.00  0.00     0.001 A 
ATOM     16  C   UNL     1       1.541  34.064   4.904  1.00  0.00     0.012 A 
ATOM     17  C   UNL     1       3.440  33.822   3.419  1.00  0.00     0.012 A 
ENDBRANCH   1  12
TORSDOF 1
ENDMDL
