MODEL 1
REMARK VINA RESULT:    -5.461      0.000      0.000
REMARK INTER + INTRA:          -6.634
REMARK INTER:                  -6.578
REMARK INTRA:                  -0.056
REMARK UNBOUND:                -0.056
REMARK SMILES O=c1c(O)c(-c2ccc(O)cc2O)oc2cc(O)cc(O)c12
REMARK SMILES IDX 5 1 3 2 2 3 1 4 22 5 20 6 19 7 17 8 16 9 15 10 14 11 6 12
REMARK SMILES IDX 8 13 7 14 9 15 11 16 12 17 10 18 13 20 4 22 21 24 18 26
REMARK H PARENT 10 19 13 21 4 23 21 25 18 27
REMARK Flexibility Score: inf
ROOT
ATOM      1  C   UNL     1       4.958  -6.736  -8.152  1.00  0.00     0.184 A 
ATOM      2  C   UNL     1       5.530  -6.664  -9.435  1.00  0.00     0.208 A 
ATOM      3  C   UNL     1       6.634  -5.823  -9.638  1.00  0.00     0.238 A 
ATOM      4  O   UNL     1       7.148  -5.742 -10.787  1.00  0.00    -0.285 OA
ATOM      5  C   UNL     1       7.158  -5.087  -8.555  1.00  0.00     0.111 A 
ATOM      6  C   UNL     1       8.270  -4.219  -8.675  1.00  0.00     0.134 A 
ATOM      7  C   UNL     1       8.738  -3.529  -7.547  1.00  0.00     0.093 A 
ATOM      8  C   UNL     1       8.117  -3.687  -6.305  1.00  0.00     0.123 A 
ATOM      9  C   UNL     1       7.017  -4.543  -6.181  1.00  0.00     0.094 A 
ATOM     10  C   UNL     1       6.535  -5.239  -7.293  1.00  0.00     0.146 A 
ATOM     11  O   UNL     1       5.486  -6.042  -7.149  1.00  0.00    -0.451 OA
ENDROOT
BRANCH   1  12
ATOM     12  C   UNL     1       3.787  -7.594  -7.872  1.00  0.00     0.063 A 
ATOM     13  C   UNL     1       2.664  -9.730  -8.154  1.00  0.00     0.047 A 
ATOM     14  C   UNL     1       3.752  -8.892  -8.405  1.00  0.00     0.020 A 
ATOM     15  C   UNL     1       1.602  -9.287  -7.355  1.00  0.00     0.119 A 
ATOM     16  C   UNL     1       1.640  -8.004  -6.802  1.00  0.00     0.093 A 
ATOM     17  C   UNL     1       2.732  -7.157  -7.044  1.00  0.00     0.130 A 
BRANCH  15  18
ATOM     18  O   UNL     1       0.510 -10.113  -7.103  1.00  0.00    -0.508 OA
ATOM     19  H   UNL     1      -0.295  -9.783  -6.583  1.00  0.00     0.293 HD
ENDBRANCH  15  18
BRANCH  17  20
ATOM     20  O   UNL     1       2.780  -5.898  -6.444  1.00  0.00    -0.507 OA
ATOM     21  H   UNL     1       2.401  -5.077  -6.900  1.00  0.00     0.293 HD
ENDBRANCH  17  20
ENDBRANCH   1  12
BRANCH   2  22
ATOM     22  O   UNL     1       5.016  -7.441 -10.476  1.00  0.00    -0.502 OA
ATOM     23  H   UNL     1       5.612  -7.966 -11.105  1.00  0.00     0.293 HD
ENDBRANCH   2  22
BRANCH   6  24
ATOM     24  O   UNL     1       8.913  -4.040  -9.900  1.00  0.00    -0.507 OA
ATOM     25  H   UNL     1       9.573  -3.287 -10.050  1.00  0.00     0.293 HD
ENDBRANCH   6  24
BRANCH   8  26
ATOM     26  O   UNL     1       8.602  -2.990  -5.201  1.00  0.00    -0.508 OA
ATOM     27  H   UNL     1       8.663  -1.978  -5.198  1.00  0.00     0.293 HD
ENDBRANCH   8  26
TORSDOF 6
ENDMDL
MODEL 2
REMARK VINA RESULT:    -5.378      2.221      2.585
REMARK INTER + INTRA:          -6.534
REMARK INTER:                  -6.159
REMARK INTRA:                  -0.375
REMARK UNBOUND:                -0.056
REMARK SMILES O=c1c(O)c(-c2ccc(O)cc2O)oc2cc(O)cc(O)c12
REMARK SMILES IDX 5 1 3 2 2 3 1 4 22 5 20 6 19 7 17 8 16 9 15 10 14 11 6 12
REMARK SMILES IDX 8 13 7 14 9 15 11 16 12 17 10 18 13 20 4 22 21 24 18 26
REMARK H PARENT 10 19 13 21 4 23 21 25 18 27
REMARK Flexibility Score: inf
ROOT
ATOM      1  C   UNL     1       6.185  -6.741  -8.844  1.00  0.00     0.184 A 
ATOM      2  C   UNL     1       7.342  -7.444  -8.465  1.00  0.00     0.208 A 
ATOM      3  C   UNL     1       8.444  -6.725  -7.976  1.00  0.00     0.238 A 
ATOM      4  O   UNL     1       9.491  -7.343  -7.644  1.00  0.00    -0.285 OA
ATOM      5  C   UNL     1       8.361  -5.322  -7.858  1.00  0.00     0.111 A 
ATOM      6  C   UNL     1       9.424  -4.522  -7.373  1.00  0.00     0.134 A 
ATOM      7  C   UNL     1       9.261  -3.132  -7.276  1.00  0.00     0.093 A 
ATOM      8  C   UNL     1       8.059  -2.527  -7.654  1.00  0.00     0.123 A 
ATOM      9  C   UNL     1       7.006  -3.312  -8.134  1.00  0.00     0.094 A 
ATOM     10  C   UNL     1       7.149  -4.699  -8.240  1.00  0.00     0.146 A 
ATOM     11  O   UNL     1       6.135  -5.421  -8.704  1.00  0.00    -0.451 OA
ENDROOT
BRANCH   1  12
ATOM     12  C   UNL     1       4.995  -7.437  -9.376  1.00  0.00     0.063 A 
ATOM     13  C   UNL     1       3.993  -8.797 -11.125  1.00  0.00     0.047 A 
ATOM     14  C   UNL     1       5.098  -8.124 -10.597  1.00  0.00     0.020 A 
ATOM     15  C   UNL     1       2.776  -8.804 -10.432  1.00  0.00     0.119 A 
ATOM     16  C   UNL     1       2.672  -8.141  -9.206  1.00  0.00     0.093 A 
ATOM     17  C   UNL     1       3.778  -7.468  -8.666  1.00  0.00     0.130 A 
BRANCH  15  18
ATOM     18  O   UNL     1       1.667  -9.468 -10.952  1.00  0.00    -0.508 OA
ATOM     19  H   UNL     1       1.327  -9.278 -11.887  1.00  0.00     0.293 HD
ENDBRANCH  15  18
BRANCH  17  20
ATOM     20  O   UNL     1       3.673  -6.854  -7.417  1.00  0.00    -0.507 OA
ATOM     21  H   UNL     1       2.855  -6.974  -6.832  1.00  0.00     0.293 HD
ENDBRANCH  17  20
ENDBRANCH   1  12
BRANCH   2  22
ATOM     22  O   UNL     1       7.376  -8.839  -8.552  1.00  0.00    -0.502 OA
ATOM     23  H   UNL     1       7.387  -9.432  -7.730  1.00  0.00     0.293 HD
ENDBRANCH   2  22
BRANCH   6  24
ATOM     24  O   UNL     1      10.636  -5.095  -6.987  1.00  0.00    -0.507 OA
ATOM     25  H   UNL     1      11.460  -5.047  -7.574  1.00  0.00     0.293 HD
ENDBRANCH   6  24
BRANCH   8  26
ATOM     26  O   UNL     1       7.923  -1.145  -7.547  1.00  0.00    -0.508 OA
ATOM     27  H   UNL     1       8.629  -0.577  -7.094  1.00  0.00     0.293 HD
ENDBRANCH   8  26
TORSDOF 6
ENDMDL
MODEL 3
REMARK VINA RESULT:    -5.300      2.743      4.381
REMARK INTER + INTRA:          -6.441
REMARK INTER:                  -6.031
REMARK INTRA:                  -0.409
REMARK UNBOUND:                -0.056
REMARK SMILES O=c1c(O)c(-c2ccc(O)cc2O)oc2cc(O)cc(O)c12
REMARK SMILES IDX 5 1 3 2 2 3 1 4 22 5 20 6 19 7 17 8 16 9 15 10 14 11 6 12
REMARK SMILES IDX 8 13 7 14 9 15 11 16 12 17 10 18 13 20 4 22 21 24 18 26
REMARK H PARENT 10 19 13 21 4 23 21 25 18 27
REMARK Flexibility Score: inf
ROOT
ATOM      1  C   UNL     1       8.009  -5.267  -8.142  1.00  0.00     0.184 A 
ATOM      2  C   UNL     1       9.352  -5.621  -7.927  1.00  0.00     0.208 A 
ATOM      3  C   UNL     1      10.169  -4.760  -7.179  1.00  0.00     0.238 A 
ATOM      4  O   UNL     1      11.378  -5.061  -6.989  1.00  0.00    -0.285 OA
ATOM      5  C   UNL     1       9.624  -3.573  -6.644  1.00  0.00     0.111 A 
ATOM      6  C   UNL     1      10.378  -2.652  -5.877  1.00  0.00     0.134 A 
ATOM      7  C   UNL     1       9.760  -1.498  -5.372  1.00  0.00     0.093 A 
ATOM      8  C   UNL     1       8.408  -1.247  -5.619  1.00  0.00     0.123 A 
ATOM      9  C   UNL     1       7.659  -2.153  -6.377  1.00  0.00     0.094 A 
ATOM     10  C   UNL     1       8.256  -3.308  -6.890  1.00  0.00     0.146 A 
ATOM     11  O   UNL     1       7.523  -4.150  -7.611  1.00  0.00    -0.451 OA
ENDROOT
BRANCH   1  12
ATOM     12  C   UNL     1       7.097  -6.124  -8.930  1.00  0.00     0.063 A 
ATOM     13  C   UNL     1       5.368  -7.832  -8.967  1.00  0.00     0.047 A 
ATOM     14  C   UNL     1       6.246  -7.012  -8.253  1.00  0.00     0.020 A 
ATOM     15  C   UNL     1       5.320  -7.763 -10.365  1.00  0.00     0.119 A 
ATOM     16  C   UNL     1       6.148  -6.865 -11.044  1.00  0.00     0.093 A 
ATOM     17  C   UNL     1       7.028  -6.034 -10.335  1.00  0.00     0.130 A 
BRANCH  15  18
ATOM     18  O   UNL     1       4.452  -8.579 -11.087  1.00  0.00    -0.508 OA
ATOM     19  H   UNL     1       3.459  -8.600 -10.889  1.00  0.00     0.293 HD
ENDBRANCH  15  18
BRANCH  17  20
ATOM     20  O   UNL     1       7.813  -5.107 -11.023  1.00  0.00    -0.507 OA
ATOM     21  H   UNL     1       7.522  -4.721 -11.913  1.00  0.00     0.293 HD
ENDBRANCH  17  20
ENDBRANCH   1  12
BRANCH   2  22
ATOM     22  O   UNL     1       9.850  -6.826  -8.431  1.00  0.00    -0.502 OA
ATOM     23  H   UNL     1       9.291  -7.670  -8.466  1.00  0.00     0.293 HD
ENDBRANCH   2  22
BRANCH   6  24
ATOM     24  O   UNL     1      11.729  -2.874  -5.613  1.00  0.00    -0.507 OA
ATOM     25  H   UNL     1      12.459  -2.480  -6.195  1.00  0.00     0.293 HD
ENDBRANCH   6  24
BRANCH   8  26
ATOM     26  O   UNL     1       7.819  -0.094  -5.105  1.00  0.00    -0.508 OA
ATOM     27  H   UNL     1       7.827   0.779  -5.619  1.00  0.00     0.293 HD
ENDBRANCH   8  26
TORSDOF 6
ENDMDL
MODEL 4
REMARK VINA RESULT:    -5.267      2.186      2.714
REMARK INTER + INTRA:          -6.401
REMARK INTER:                  -6.096
REMARK INTRA:                  -0.305
REMARK UNBOUND:                -0.056
REMARK SMILES O=c1c(O)c(-c2ccc(O)cc2O)oc2cc(O)cc(O)c12
REMARK SMILES IDX 5 1 3 2 2 3 1 4 22 5 20 6 19 7 17 8 16 9 15 10 14 11 6 12
REMARK SMILES IDX 8 13 7 14 9 15 11 16 12 17 10 18 13 20 4 22 21 24 18 26
REMARK H PARENT 10 19 13 21 4 23 21 25 18 27
REMARK Flexibility Score: inf
ROOT
ATOM      1  C   UNL     1       4.707  -7.402  -8.096  1.00  0.00     0.184 A 
ATOM      2  C   UNL     1       5.440  -8.581  -8.319  1.00  0.00     0.208 A 
ATOM      3  C   UNL     1       6.840  -8.506  -8.381  1.00  0.00     0.238 A 
ATOM      4  O   UNL     1       7.508  -9.554  -8.593  1.00  0.00    -0.285 OA
ATOM      5  C   UNL     1       7.480  -7.262  -8.199  1.00  0.00     0.111 A 
ATOM      6  C   UNL     1       8.886  -7.101  -8.244  1.00  0.00     0.134 A 
ATOM      7  C   UNL     1       9.447  -5.830  -8.043  1.00  0.00     0.093 A 
ATOM      8  C   UNL     1       8.632  -4.721  -7.801  1.00  0.00     0.123 A 
ATOM      9  C   UNL     1       7.243  -4.875  -7.756  1.00  0.00     0.094 A 
ATOM     10  C   UNL     1       6.664  -6.132  -7.955  1.00  0.00     0.146 A 
ATOM     11  O   UNL     1       5.341  -6.249  -7.912  1.00  0.00    -0.451 OA
ENDROOT
BRANCH   1  12
ATOM     12  C   UNL     1       3.230  -7.409  -8.030  1.00  0.00     0.063 A 
ATOM     13  C   UNL     1       1.209  -7.075  -6.722  1.00  0.00     0.047 A 
ATOM     14  C   UNL     1       2.602  -7.084  -6.817  1.00  0.00     0.020 A 
ATOM     15  C   UNL     1       0.424  -7.377  -7.842  1.00  0.00     0.119 A 
ATOM     16  C   UNL     1       1.042  -7.679  -9.059  1.00  0.00     0.093 A 
ATOM     17  C   UNL     1       2.441  -7.685  -9.165  1.00  0.00     0.130 A 
BRANCH  15  18
ATOM     18  O   UNL     1      -0.966  -7.375  -7.758  1.00  0.00    -0.508 OA
ATOM     19  H   UNL     1      -1.502  -8.231  -7.833  1.00  0.00     0.293 HD
ENDBRANCH  15  18
BRANCH  17  20
ATOM     20  O   UNL     1       3.042  -7.939 -10.398  1.00  0.00    -0.507 OA
ATOM     21  H   UNL     1       3.818  -8.583 -10.489  1.00  0.00     0.293 HD
ENDBRANCH  17  20
ENDBRANCH   1  12
BRANCH   2  22
ATOM     22  O   UNL     1       4.779  -9.805  -8.450  1.00  0.00    -0.502 OA
ATOM     23  H   UNL     1       4.954 -10.434  -9.225  1.00  0.00     0.293 HD
ENDBRANCH   2  22
BRANCH   6  24
ATOM     24  O   UNL     1       9.726  -8.188  -8.483  1.00  0.00    -0.507 OA
ATOM     25  H   UNL     1      10.394  -8.188  -9.245  1.00  0.00     0.293 HD
ENDBRANCH   6  24
BRANCH   8  26
ATOM     26  O   UNL     1       9.215  -3.471  -7.605  1.00  0.00    -0.508 OA
ATOM     27  H   UNL     1       9.159  -2.744  -8.309  1.00  0.00     0.293 HD
ENDBRANCH   8  26
TORSDOF 6
ENDMDL
MODEL 5
REMARK VINA RESULT:    -5.216      3.677      6.945
REMARK INTER + INTRA:          -6.340
REMARK INTER:                  -5.947
REMARK INTRA:                  -0.392
REMARK UNBOUND:                -0.056
REMARK SMILES O=c1c(O)c(-c2ccc(O)cc2O)oc2cc(O)cc(O)c12
REMARK SMILES IDX 5 1 3 2 2 3 1 4 22 5 20 6 19 7 17 8 16 9 15 10 14 11 6 12
REMARK SMILES IDX 8 13 7 14 9 15 11 16 12 17 10 18 13 20 4 22 21 24 18 26
REMARK H PARENT 10 19 13 21 4 23 21 25 18 27
REMARK Flexibility Score: inf
ROOT
ATOM      1  C   UNL     1       9.185  -4.767  -7.810  1.00  0.00     0.184 A 
ATOM      2  C   UNL     1      10.426  -5.020  -8.420  1.00  0.00     0.208 A 
ATOM      3  C   UNL     1      10.641  -6.265  -9.031  1.00  0.00     0.238 A 
ATOM      4  O   UNL     1      11.754  -6.507  -9.571  1.00  0.00    -0.285 OA
ATOM      5  C   UNL     1       9.606  -7.224  -9.038  1.00  0.00     0.111 A 
ATOM      6  C   UNL     1       9.740  -8.502  -9.634  1.00  0.00     0.134 A 
ATOM      7  C   UNL     1       8.660  -9.397  -9.608  1.00  0.00     0.093 A 
ATOM      8  C   UNL     1       7.454  -9.042  -8.999  1.00  0.00     0.123 A 
ATOM      9  C   UNL     1       7.317  -7.782  -8.408  1.00  0.00     0.094 A 
ATOM     10  C   UNL     1       8.381  -6.875  -8.422  1.00  0.00     0.146 A 
ATOM     11  O   UNL     1       8.226  -5.687  -7.850  1.00  0.00    -0.451 OA
ENDROOT
BRANCH   1  12
ATOM     12  C   UNL     1       8.897  -3.482  -7.140  1.00  0.00     0.063 A 
ATOM     13  C   UNL     1       9.360  -1.941  -5.318  1.00  0.00     0.047 A 
ATOM     14  C   UNL     1       9.603  -3.151  -5.972  1.00  0.00     0.020 A 
ATOM     15  C   UNL     1       8.419  -1.040  -5.830  1.00  0.00     0.119 A 
ATOM     16  C   UNL     1       7.729  -1.351  -7.005  1.00  0.00     0.093 A 
ATOM     17  C   UNL     1       7.971  -2.562  -7.672  1.00  0.00     0.130 A 
BRANCH  15  18
ATOM     18  O   UNL     1       8.166   0.167  -5.183  1.00  0.00    -0.508 OA
ATOM     19  H   UNL     1       8.910   0.702  -4.751  1.00  0.00     0.293 HD
ENDBRANCH  15  18
BRANCH  17  20
ATOM     20  O   UNL     1       7.312  -2.837  -8.871  1.00  0.00    -0.507 OA
ATOM     21  H   UNL     1       6.301  -2.862  -8.928  1.00  0.00     0.293 HD
ENDBRANCH  17  20
ENDBRANCH   1  12
BRANCH   2  22
ATOM     22  O   UNL     1      11.415  -4.032  -8.435  1.00  0.00    -0.502 OA
ATOM     23  H   UNL     1      11.854  -3.720  -9.293  1.00  0.00     0.293 HD
ENDBRANCH   2  22
BRANCH   6  24
ATOM     24  O   UNL     1      10.930  -8.886 -10.251  1.00  0.00    -0.507 OA
ATOM     25  H   UNL     1      10.956  -9.197 -11.214  1.00  0.00     0.293 HD
ENDBRANCH   6  24
BRANCH   8  26
ATOM     26  O   UNL     1       6.397  -9.950  -8.988  1.00  0.00    -0.508 OA
ATOM     27  H   UNL     1       5.468  -9.677  -8.688  1.00  0.00     0.293 HD
ENDBRANCH   8  26
TORSDOF 6
ENDMDL
MODEL 6
REMARK VINA RESULT:    -5.151      2.213      3.238
REMARK INTER + INTRA:          -6.260
REMARK INTER:                  -5.907
REMARK INTRA:                  -0.354
REMARK UNBOUND:                -0.056
REMARK SMILES O=c1c(O)c(-c2ccc(O)cc2O)oc2cc(O)cc(O)c12
REMARK SMILES IDX 5 1 3 2 2 3 1 4 22 5 20 6 19 7 17 8 16 9 15 10 14 11 6 12
REMARK SMILES IDX 8 13 7 14 9 15 11 16 12 17 10 18 13 20 4 22 21 24 18 26
REMARK H PARENT 10 19 13 21 4 23 21 25 18 27
REMARK Flexibility Score: inf
ROOT
ATOM      1  C   UNL     1       3.997  -7.847  -8.131  1.00  0.00     0.184 A 
ATOM      2  C   UNL     1       4.710  -9.024  -7.841  1.00  0.00     0.208 A 
ATOM      3  C   UNL     1       6.083  -9.071  -8.124  1.00  0.00     0.238 A 
ATOM      4  O   UNL     1       6.731 -10.125  -7.879  1.00  0.00    -0.285 OA
ATOM      5  C   UNL     1       6.721  -7.938  -8.670  1.00  0.00     0.111 A 
ATOM      6  C   UNL     1       8.102  -7.902  -8.982  1.00  0.00     0.134 A 
ATOM      7  C   UNL     1       8.665  -6.733  -9.515  1.00  0.00     0.093 A 
ATOM      8  C   UNL     1       7.876  -5.602  -9.743  1.00  0.00     0.123 A 
ATOM      9  C   UNL     1       6.512  -5.632  -9.438  1.00  0.00     0.094 A 
ATOM     10  C   UNL     1       5.931  -6.788  -8.907  1.00  0.00     0.146 A 
ATOM     11  O   UNL     1       4.632  -6.792  -8.630  1.00  0.00    -0.451 OA
ENDROOT
BRANCH   1  12
ATOM     12  C   UNL     1       2.547  -7.734  -7.868  1.00  0.00     0.063 A 
ATOM     13  C   UNL     1       0.289  -8.518  -8.312  1.00  0.00     0.047 A 
ATOM     14  C   UNL     1       1.665  -8.594  -8.542  1.00  0.00     0.020 A 
ATOM     15  C   UNL     1      -0.221  -7.591  -7.395  1.00  0.00     0.119 A 
ATOM     16  C   UNL     1       0.652  -6.747  -6.703  1.00  0.00     0.093 A 
ATOM     17  C   UNL     1       2.036  -6.820  -6.924  1.00  0.00     0.130 A 
BRANCH  15  18
ATOM     18  O   UNL     1      -1.592  -7.503  -7.161  1.00  0.00    -0.508 OA
ATOM     19  H   UNL     1      -2.230  -7.171  -7.874  1.00  0.00     0.293 HD
ENDBRANCH  15  18
BRANCH  17  20
ATOM     20  O   UNL     1       2.899  -6.007  -6.189  1.00  0.00    -0.507 OA
ATOM     21  H   UNL     1       3.814  -5.748  -6.540  1.00  0.00     0.293 HD
ENDBRANCH  17  20
ENDBRANCH   1  12
BRANCH   2  22
ATOM     22  O   UNL     1       4.058 -10.113  -7.257  1.00  0.00    -0.502 OA
ATOM     23  H   UNL     1       3.272 -10.000  -6.628  1.00  0.00     0.293 HD
ENDBRANCH   2  22
BRANCH   6  24
ATOM     24  O   UNL     1       8.916  -9.014  -8.766  1.00  0.00    -0.507 OA
ATOM     25  H   UNL     1       9.851  -9.074  -9.152  1.00  0.00     0.293 HD
ENDBRANCH   6  24
BRANCH   8  26
ATOM     26  O   UNL     1       8.460  -4.453 -10.272  1.00  0.00    -0.508 OA
ATOM     27  H   UNL     1       7.924  -3.604 -10.415  1.00  0.00     0.293 HD
ENDBRANCH   8  26
TORSDOF 6
ENDMDL
MODEL 7
REMARK VINA RESULT:    -5.150      2.573      6.420
REMARK INTER + INTRA:          -6.259
REMARK INTER:                  -5.885
REMARK INTRA:                  -0.375
REMARK UNBOUND:                -0.056
REMARK SMILES O=c1c(O)c(-c2ccc(O)cc2O)oc2cc(O)cc(O)c12
REMARK SMILES IDX 5 1 3 2 2 3 1 4 22 5 20 6 19 7 17 8 16 9 15 10 14 11 6 12
REMARK SMILES IDX 8 13 7 14 9 15 11 16 12 17 10 18 13 20 4 22 21 24 18 26
REMARK H PARENT 10 19 13 21 4 23 21 25 18 27
REMARK Flexibility Score: inf
ROOT
ATOM      1  C   UNL     1       4.256  -8.047  -8.604  1.00  0.00     0.184 A 
ATOM      2  C   UNL     1       3.524  -8.797  -9.541  1.00  0.00     0.208 A 
ATOM      3  C   UNL     1       2.123  -8.793  -9.468  1.00  0.00     0.238 A 
ATOM      4  O   UNL     1       1.457  -9.471 -10.296  1.00  0.00    -0.285 OA
ATOM      5  C   UNL     1       1.480  -8.025  -8.475  1.00  0.00     0.111 A 
ATOM      6  C   UNL     1       0.072  -7.963  -8.334  1.00  0.00     0.134 A 
ATOM      7  C   UNL     1      -0.492  -7.168  -7.325  1.00  0.00     0.093 A 
ATOM      8  C   UNL     1       0.321  -6.436  -6.456  1.00  0.00     0.123 A 
ATOM      9  C   UNL     1       1.712  -6.493  -6.590  1.00  0.00     0.094 A 
ATOM     10  C   UNL     1       2.294  -7.281  -7.588  1.00  0.00     0.146 A 
ATOM     11  O   UNL     1       3.618  -7.321  -7.691  1.00  0.00    -0.451 OA
ENDROOT
BRANCH   1  12
ATOM     12  C   UNL     1       5.733  -8.016  -8.618  1.00  0.00     0.063 A 
ATOM     13  C   UNL     1       7.836  -9.212  -8.381  1.00  0.00     0.047 A 
ATOM     14  C   UNL     1       6.440  -9.204  -8.369  1.00  0.00     0.020 A 
ATOM     15  C   UNL     1       8.545  -8.035  -8.656  1.00  0.00     0.119 A 
ATOM     16  C   UNL     1       7.849  -6.854  -8.927  1.00  0.00     0.093 A 
ATOM     17  C   UNL     1       6.446  -6.839  -8.923  1.00  0.00     0.130 A 
BRANCH  15  18
ATOM     18  O   UNL     1       9.938  -8.031  -8.666  1.00  0.00    -0.508 OA
ATOM     19  H   UNL     1      10.466  -7.190  -8.466  1.00  0.00     0.293 HD
ENDBRANCH  15  18
BRANCH  17  20
ATOM     20  O   UNL     1       5.764  -5.665  -9.245  1.00  0.00    -0.507 OA
ATOM     21  H   UNL     1       5.416  -5.491 -10.181  1.00  0.00     0.293 HD
ENDBRANCH  17  20
ENDBRANCH   1  12
BRANCH   2  22
ATOM     22  O   UNL     1       4.190  -9.511 -10.542  1.00  0.00    -0.502 OA
ATOM     23  H   UNL     1       4.305 -10.516 -10.503  1.00  0.00     0.293 HD
ENDBRANCH   2  22
BRANCH   6  24
ATOM     24  O   UNL     1      -0.767  -8.682  -9.186  1.00  0.00    -0.507 OA
ATOM     25  H   UNL     1      -1.516  -9.264  -8.831  1.00  0.00     0.293 HD
ENDBRANCH   6  24
BRANCH   8  26
ATOM     26  O   UNL     1      -0.264  -5.653  -5.464  1.00  0.00    -0.508 OA
ATOM     27  H   UNL     1      -1.270  -5.618  -5.342  1.00  0.00     0.293 HD
ENDBRANCH   8  26
TORSDOF 6
ENDMDL
MODEL 8
REMARK VINA RESULT:    -5.056      1.957      6.481
REMARK INTER + INTRA:          -6.146
REMARK INTER:                  -5.818
REMARK INTRA:                  -0.328
REMARK UNBOUND:                -0.056
REMARK SMILES O=c1c(O)c(-c2ccc(O)cc2O)oc2cc(O)cc(O)c12
REMARK SMILES IDX 5 1 3 2 2 3 1 4 22 5 20 6 19 7 17 8 16 9 15 10 14 11 6 12
REMARK SMILES IDX 8 13 7 14 9 15 11 16 12 17 10 18 13 20 4 22 21 24 18 26
REMARK H PARENT 10 19 13 21 4 23 21 25 18 27
REMARK Flexibility Score: inf
ROOT
ATOM      1  C   UNL     1       7.275  -5.146  -8.299  1.00  0.00     0.184 A 
ATOM      2  C   UNL     1       8.166  -5.704  -9.233  1.00  0.00     0.208 A 
ATOM      3  C   UNL     1       7.812  -6.900  -9.876  1.00  0.00     0.238 A 
ATOM      4  O   UNL     1       8.607  -7.416 -10.707  1.00  0.00    -0.285 OA
ATOM      5  C   UNL     1       6.570  -7.504  -9.588  1.00  0.00     0.111 A 
ATOM      6  C   UNL     1       6.137  -8.708 -10.194  1.00  0.00     0.134 A 
ATOM      7  C   UNL     1       4.882  -9.241  -9.862  1.00  0.00     0.093 A 
ATOM      8  C   UNL     1       4.055  -8.596  -8.938  1.00  0.00     0.123 A 
ATOM      9  C   UNL     1       4.478  -7.407  -8.337  1.00  0.00     0.094 A 
ATOM     10  C   UNL     1       5.726  -6.860  -8.653  1.00  0.00     0.146 A 
ATOM     11  O   UNL     1       6.106  -5.731  -8.064  1.00  0.00    -0.451 OA
ENDROOT
BRANCH   1  12
ATOM     12  C   UNL     1       7.591  -3.894  -7.579  1.00  0.00     0.063 A 
ATOM     13  C   UNL     1       8.233  -2.796  -5.508  1.00  0.00     0.047 A 
ATOM     14  C   UNL     1       7.923  -3.959  -6.216  1.00  0.00     0.020 A 
ATOM     15  C   UNL     1       8.228  -1.554  -6.155  1.00  0.00     0.119 A 
ATOM     16  C   UNL     1       7.920  -1.484  -7.517  1.00  0.00     0.093 A 
ATOM     17  C   UNL     1       7.614  -2.648  -8.237  1.00  0.00     0.130 A 
BRANCH  15  18
ATOM     18  O   UNL     1       8.530  -0.387  -5.457  1.00  0.00    -0.508 OA
ATOM     19  H   UNL     1       9.437  -0.247  -5.029  1.00  0.00     0.293 HD
ENDBRANCH  15  18
BRANCH  17  20
ATOM     20  O   UNL     1       7.358  -2.568  -9.607  1.00  0.00    -0.507 OA
ATOM     21  H   UNL     1       7.021  -3.366 -10.132  1.00  0.00     0.293 HD
ENDBRANCH  17  20
ENDBRANCH   1  12
BRANCH   2  22
ATOM     22  O   UNL     1       9.368  -5.056  -9.529  1.00  0.00    -0.502 OA
ATOM     23  H   UNL     1       9.590  -4.727 -10.461  1.00  0.00     0.293 HD
ENDBRANCH   2  22
BRANCH   6  24
ATOM     24  O   UNL     1       6.938  -9.376 -11.120  1.00  0.00    -0.507 OA
ATOM     25  H   UNL     1       6.886  -9.177 -12.112  1.00  0.00     0.293 HD
ENDBRANCH   6  24
BRANCH   8  26
ATOM     26  O   UNL     1       2.814  -9.146  -8.627  1.00  0.00    -0.508 OA
ATOM     27  H   UNL     1       2.688  -9.746  -7.820  1.00  0.00     0.293 HD
ENDBRANCH   8  26
TORSDOF 6
ENDMDL
