MODEL 1
REMARK VINA RESULT:    -4.290      0.000      0.000
REMARK INTER + INTRA:          -4.290
REMARK INTER:                  -4.290
REMARK INTRA:                   0.000
REMARK UNBOUND:                 0.000
REMARK SMILES CC1=CC(=O)[C@H]2C[C@@H]1C2(C)C
REMARK SMILES IDX 1 1 2 2 3 3 4 4 5 5 6 6 7 7 8 8 9 9 10 10 11 11
REMARK H PARENT
REMARK Flexibility Score: inf
ROOT
ATOM      1  C   UNL     1      33.931  72.196 106.213  1.00  0.00     0.040 C 
ATOM      2  C   UNL     1      32.714  71.329 106.122  1.00  0.00    -0.066 C 
ATOM      3  C   UNL     1      31.551  71.675 106.740  1.00  0.00     0.047 C 
ATOM      4  C   UNL     1      30.413  70.709 106.599  1.00  0.00     0.159 C 
ATOM      5  O   UNL     1      29.300  70.896 107.156  1.00  0.00    -0.295 OA
ATOM      6  C   UNL     1      30.701  69.480 105.735  1.00  0.00     0.067 C 
ATOM      7  C   UNL     1      31.406  70.054 104.487  1.00  0.00     0.021 C 
ATOM      8  C   UNL     1      32.711  70.015 105.313  1.00  0.00     0.022 C 
ATOM      9  C   UNL     1      32.071  68.883 106.166  1.00  0.00    -0.019 C 
ATOM     10  C   UNL     1      32.316  67.477 105.561  1.00  0.00     0.012 C 
ATOM     11  C   UNL     1      32.407  68.825 107.683  1.00  0.00     0.012 C 
ENDROOT
TORSDOF 0
ENDMDL
MODEL 2
REMARK VINA RESULT:    -4.054      2.418      3.765
REMARK INTER + INTRA:          -4.054
REMARK INTER:                  -4.054
REMARK INTRA:                   0.000
REMARK UNBOUND:                 0.000
REMARK SMILES CC1=CC(=O)[C@H]2C[C@@H]1C2(C)C
REMARK SMILES IDX 1 1 2 2 3 3 4 4 5 5 6 6 7 7 8 8 9 9 10 10 11 11
REMARK H PARENT
REMARK Flexibility Score: inf
ROOT
ATOM      1  C   UNL     1      31.051  71.862 106.689  1.00  0.00     0.040 C 
ATOM      2  C   UNL     1      32.417  71.397 106.293  1.00  0.00    -0.066 C 
ATOM      3  C   UNL     1      32.605  70.596 105.208  1.00  0.00     0.047 C 
ATOM      4  C   UNL     1      34.017  70.174 104.933  1.00  0.00     0.159 C 
ATOM      5  O   UNL     1      34.315  69.403 103.984  1.00  0.00    -0.295 OA
ATOM      6  C   UNL     1      35.067  70.741 105.889  1.00  0.00     0.067 C 
ATOM      7  C   UNL     1      34.702  72.236 106.006  1.00  0.00     0.021 C 
ATOM      8  C   UNL     1      33.677  71.813 107.081  1.00  0.00     0.022 C 
ATOM      9  C   UNL     1      34.559  70.559 107.348  1.00  0.00    -0.019 C 
ATOM     10  C   UNL     1      35.668  70.830 108.395  1.00  0.00     0.012 C 
ATOM     11  C   UNL     1      33.849  69.227 107.722  1.00  0.00     0.012 C 
ENDROOT
TORSDOF 0
ENDMDL
MODEL 3
REMARK VINA RESULT:    -4.038      1.389      3.218
REMARK INTER + INTRA:          -4.038
REMARK INTER:                  -4.038
REMARK INTRA:                   0.000
REMARK UNBOUND:                 0.000
REMARK SMILES CC1=CC(=O)[C@H]2C[C@@H]1C2(C)C
REMARK SMILES IDX 1 1 2 2 3 3 4 4 5 5 6 6 7 7 8 8 9 9 10 10 11 11
REMARK H PARENT
REMARK Flexibility Score: inf
ROOT
ATOM      1  C   UNL     1      31.100  69.601 103.526  1.00  0.00     0.040 C 
ATOM      2  C   UNL     1      31.734  69.601 104.881  1.00  0.00    -0.066 C 
ATOM      3  C   UNL     1      31.160  68.950 105.931  1.00  0.00     0.047 C 
ATOM      4  C   UNL     1      31.878  69.049 107.243  1.00  0.00     0.159 C 
ATOM      5  O   UNL     1      31.429  68.525 108.296  1.00  0.00    -0.295 OA
ATOM      6  C   UNL     1      33.190  69.835 107.215  1.00  0.00     0.067 C 
ATOM      7  C   UNL     1      33.917  69.308 105.958  1.00  0.00     0.021 C 
ATOM      8  C   UNL     1      33.073  70.320 105.152  1.00  0.00     0.022 C 
ATOM      9  C   UNL     1      32.951  71.168 106.450  1.00  0.00    -0.019 C 
ATOM     10  C   UNL     1      34.129  72.161 106.618  1.00  0.00     0.012 C 
ATOM     11  C   UNL     1      31.624  71.938 106.705  1.00  0.00     0.012 C 
ENDROOT
TORSDOF 0
ENDMDL
MODEL 4
REMARK VINA RESULT:    -4.021      1.819      2.710
REMARK INTER + INTRA:          -4.021
REMARK INTER:                  -4.021
REMARK INTRA:                   0.000
REMARK UNBOUND:                 0.000
REMARK SMILES CC1=CC(=O)[C@H]2C[C@@H]1C2(C)C
REMARK SMILES IDX 1 1 2 2 3 3 4 4 5 5 6 6 7 7 8 8 9 9 10 10 11 11
REMARK H PARENT
REMARK Flexibility Score: inf
ROOT
ATOM      1  C   UNL     1      33.350  69.055 103.507  1.00  0.00     0.040 C 
ATOM      2  C   UNL     1      32.880  69.873 104.668  1.00  0.00    -0.066 C 
ATOM      3  C   UNL     1      33.696  70.782 105.271  1.00  0.00     0.047 C 
ATOM      4  C   UNL     1      33.117  71.517 106.442  1.00  0.00     0.159 C 
ATOM      5  O   UNL     1      33.783  72.353 107.107  1.00  0.00    -0.295 OA
ATOM      6  C   UNL     1      31.663  71.178 106.775  1.00  0.00     0.067 C 
ATOM      7  C   UNL     1      30.950  71.194 105.405  1.00  0.00     0.021 C 
ATOM      8  C   UNL     1      31.446  69.742 105.227  1.00  0.00     0.022 C 
ATOM      9  C   UNL     1      31.504  69.631 106.778  1.00  0.00    -0.019 C 
ATOM     10  C   UNL     1      30.152  69.180 107.387  1.00  0.00     0.012 C 
ATOM     11  C   UNL     1      32.635  68.774 107.413  1.00  0.00     0.012 C 
ENDROOT
TORSDOF 0
ENDMDL
MODEL 5
REMARK VINA RESULT:    -3.969      1.771      3.031
REMARK INTER + INTRA:          -3.969
REMARK INTER:                  -3.969
REMARK INTRA:                   0.000
REMARK UNBOUND:                 0.000
REMARK SMILES CC1=CC(=O)[C@H]2C[C@@H]1C2(C)C
REMARK SMILES IDX 1 1 2 2 3 3 4 4 5 5 6 6 7 7 8 8 9 9 10 10 11 11
REMARK H PARENT
REMARK Flexibility Score: inf
ROOT
ATOM      1  C   UNL     1      29.638  70.764 107.121  1.00  0.00     0.040 C 
ATOM      2  C   UNL     1      31.077  70.591 106.749  1.00  0.00    -0.066 C 
ATOM      3  C   UNL     1      31.871  71.664 106.475  1.00  0.00     0.047 C 
ATOM      4  C   UNL     1      33.286  71.357 106.086  1.00  0.00     0.159 C 
ATOM      5  O   UNL     1      34.107  72.258 105.771  1.00  0.00    -0.295 OA
ATOM      6  C   UNL     1      33.661  69.875 106.095  1.00  0.00     0.067 C 
ATOM      7  C   UNL     1      33.079  69.347 107.424  1.00  0.00     0.021 C 
ATOM      8  C   UNL     1      31.736  69.197 106.675  1.00  0.00     0.022 C 
ATOM      9  C   UNL     1      32.549  69.078 105.355  1.00  0.00    -0.019 C 
ATOM     10  C   UNL     1      32.973  67.619 105.052  1.00  0.00     0.012 C 
ATOM     11  C   UNL     1      31.943  69.688 104.059  1.00  0.00     0.012 C 
ENDROOT
TORSDOF 0
ENDMDL
MODEL 6
REMARK VINA RESULT:    -3.940      1.551      3.340
REMARK INTER + INTRA:          -3.940
REMARK INTER:                  -3.940
REMARK INTRA:                   0.000
REMARK UNBOUND:                 0.000
REMARK SMILES CC1=CC(=O)[C@H]2C[C@@H]1C2(C)C
REMARK SMILES IDX 1 1 2 2 3 3 4 4 5 5 6 6 7 7 8 8 9 9 10 10 11 11
REMARK H PARENT
REMARK Flexibility Score: inf
ROOT
ATOM      1  C   UNL     1      32.014  67.404 107.298  1.00  0.00     0.040 C 
ATOM      2  C   UNL     1      31.804  68.690 106.563  1.00  0.00    -0.066 C 
ATOM      3  C   UNL     1      31.308  68.708 105.294  1.00  0.00     0.047 C 
ATOM      4  C   UNL     1      31.174  70.057 104.655  1.00  0.00     0.159 C 
ATOM      5  O   UNL     1      30.766  70.203 103.473  1.00  0.00    -0.295 OA
ATOM      6  C   UNL     1      31.570  71.242 105.536  1.00  0.00     0.067 C 
ATOM      7  C   UNL     1      30.896  70.944 106.893  1.00  0.00     0.021 C 
ATOM      8  C   UNL     1      32.121  70.056 107.208  1.00  0.00     0.022 C 
ATOM      9  C   UNL     1      32.937  70.925 106.207  1.00  0.00    -0.019 C 
ATOM     10  C   UNL     1      33.564  72.171 106.882  1.00  0.00     0.012 C 
ATOM     11  C   UNL     1      34.034  70.229 105.353  1.00  0.00     0.012 C 
ENDROOT
TORSDOF 0
ENDMDL
MODEL 7
REMARK VINA RESULT:    -3.911      1.646      2.630
REMARK INTER + INTRA:          -3.911
REMARK INTER:                  -3.911
REMARK INTRA:                   0.000
REMARK UNBOUND:                 0.000
REMARK SMILES CC1=CC(=O)[C@H]2C[C@@H]1C2(C)C
REMARK SMILES IDX 1 1 2 2 3 3 4 4 5 5 6 6 7 7 8 8 9 9 10 10 11 11
REMARK H PARENT
REMARK Flexibility Score: inf
ROOT
ATOM      1  C   UNL     1      34.174  72.216 106.938  1.00  0.00     0.040 C 
ATOM      2  C   UNL     1      33.201  71.101 106.717  1.00  0.00    -0.066 C 
ATOM      3  C   UNL     1      33.404  69.866 107.254  1.00  0.00     0.047 C 
ATOM      4  C   UNL     1      32.373  68.826 106.934  1.00  0.00     0.159 C 
ATOM      5  O   UNL     1      32.469  67.638 107.338  1.00  0.00    -0.295 OA
ATOM      6  C   UNL     1      31.200  69.309 106.079  1.00  0.00     0.067 C 
ATOM      7  C   UNL     1      30.791  70.650 106.725  1.00  0.00     0.021 C 
ATOM      8  C   UNL     1      31.915  71.298 105.886  1.00  0.00     0.022 C 
ATOM      9  C   UNL     1      31.764  70.121 104.879  1.00  0.00    -0.019 C 
ATOM     10  C   UNL     1      30.687  70.401 103.801  1.00  0.00     0.012 C 
ATOM     11  C   UNL     1      33.042  69.594 104.166  1.00  0.00     0.012 C 
ENDROOT
TORSDOF 0
ENDMDL
MODEL 8
REMARK VINA RESULT:    -3.851      2.130      3.583
REMARK INTER + INTRA:          -3.851
REMARK INTER:                  -3.851
REMARK INTRA:                   0.000
REMARK UNBOUND:                 0.000
REMARK SMILES CC1=CC(=O)[C@H]2C[C@@H]1C2(C)C
REMARK SMILES IDX 1 1 2 2 3 3 4 4 5 5 6 6 7 7 8 8 9 9 10 10 11 11
REMARK H PARENT
REMARK Flexibility Score: inf
ROOT
ATOM      1  C   UNL     1      34.320  68.373 108.147  1.00  0.00     0.040 C 
ATOM      2  C   UNL     1      33.639  68.982 106.962  1.00  0.00    -0.066 C 
ATOM      3  C   UNL     1      34.184  68.907 105.716  1.00  0.00     0.047 C 
ATOM      4  C   UNL     1      33.420  69.582 104.617  1.00  0.00     0.159 C 
ATOM      5  O   UNL     1      33.838  69.617 103.431  1.00  0.00    -0.295 OA
ATOM      6  C   UNL     1      32.099  70.228 105.039  1.00  0.00     0.067 C 
ATOM      7  C   UNL     1      31.424  69.159 105.926  1.00  0.00     0.021 C 
ATOM      8  C   UNL     1      32.282  69.706 107.089  1.00  0.00     0.022 C 
ATOM      9  C   UNL     1      32.346  71.062 106.328  1.00  0.00    -0.019 C 
ATOM     10  C   UNL     1      31.149  71.986 106.669  1.00  0.00     0.012 C 
ATOM     11  C   UNL     1      33.652  71.900 106.427  1.00  0.00     0.012 C 
ENDROOT
TORSDOF 0
ENDMDL
MODEL 9
REMARK VINA RESULT:    -3.839      1.714      2.211
REMARK INTER + INTRA:          -3.839
REMARK INTER:                  -3.839
REMARK INTRA:                   0.000
REMARK UNBOUND:                 0.000
REMARK SMILES CC1=CC(=O)[C@H]2C[C@@H]1C2(C)C
REMARK SMILES IDX 1 1 2 2 3 3 4 4 5 5 6 6 7 7 8 8 9 9 10 10 11 11
REMARK H PARENT
REMARK Flexibility Score: inf
ROOT
ATOM      1  C   UNL     1      34.878  72.474 108.050  1.00  0.00     0.040 C 
ATOM      2  C   UNL     1      34.171  71.664 107.010  1.00  0.00    -0.066 C 
ATOM      3  C   UNL     1      32.873  71.911 106.681  1.00  0.00     0.047 C 
ATOM      4  C   UNL     1      32.269  71.010 105.646  1.00  0.00     0.159 C 
ATOM      5  O   UNL     1      31.067  71.112 105.286  1.00  0.00    -0.295 OA
ATOM      6  C   UNL     1      33.213  69.959 105.062  1.00  0.00     0.067 C 
ATOM      7  C   UNL     1      34.510  70.742 104.763  1.00  0.00     0.021 C 
ATOM      8  C   UNL     1      34.880  70.524 106.247  1.00  0.00     0.022 C 
ATOM      9  C   UNL     1      33.967  69.265 106.232  1.00  0.00    -0.019 C 
ATOM     10  C   UNL     1      34.723  67.993 105.773  1.00  0.00     0.012 C 
ATOM     11  C   UNL     1      33.169  68.919 107.521  1.00  0.00     0.012 C 
ENDROOT
TORSDOF 0
ENDMDL
