MODEL 1
REMARK VINA RESULT:    -7.382      0.000      0.000
REMARK INTER + INTRA:          -8.947
REMARK INTER:                  -8.676
REMARK INTRA:                  -0.271
REMARK UNBOUND:                -0.271
REMARK SMILES O=c1c(O)c(-c2ccc(O)cc2)oc2cc(O)cc(O)c12
REMARK SMILES IDX 5 1 3 2 2 3 1 4 21 5 19 6 18 7 16 8 15 9 14 10 13 11 6 12
REMARK SMILES IDX 7 13 8 14 9 15 12 16 11 17 10 18 4 20 20 22 17 24
REMARK H PARENT 10 19 4 21 20 23 17 25
REMARK Flexibility Score: inf
ROOT
ATOM      1  C   UNL     1     140.575 -18.111  78.732  1.00  0.00     0.180 A 
ATOM      2  C   UNL     1     139.208 -17.906  78.473  1.00  0.00     0.208 A 
ATOM      3  C   UNL     1     138.574 -16.779  79.022  1.00  0.00     0.238 A 
ATOM      4  O   UNL     1     137.364 -16.571  78.743  1.00  0.00    -0.285 OA
ATOM      5  C   UNL     1     139.310 -15.881  79.833  1.00  0.00     0.111 A 
ATOM      6  C   UNL     1     138.760 -14.730  80.472  1.00  0.00     0.134 A 
ATOM      7  C   UNL     1     139.608 -13.841  81.144  1.00  0.00     0.093 A 
ATOM      8  C   UNL     1     140.974 -14.095  81.255  1.00  0.00     0.123 A 
ATOM      9  C   UNL     1     141.514 -15.249  80.685  1.00  0.00     0.094 A 
ATOM     10  C   UNL     1     140.699 -16.136  79.977  1.00  0.00     0.146 A 
ATOM     11  O   UNL     1     141.252 -17.217  79.441  1.00  0.00    -0.452 OA
ENDROOT
BRANCH   1  12
ATOM     12  C   UNL     1     141.307 -19.288  78.209  1.00  0.00     0.021 A 
ATOM     13  C   UNL     1     141.206 -20.547  78.829  1.00  0.00     0.016 A 
ATOM     14  C   UNL     1     141.926 -21.639  78.333  1.00  0.00     0.047 A 
ATOM     15  C   UNL     1     142.764 -21.483  77.221  1.00  0.00     0.115 A 
ATOM     16  C   UNL     1     142.166 -19.136  77.108  1.00  0.00     0.016 A 
ATOM     17  C   UNL     1     142.884 -20.230  76.614  1.00  0.00     0.047 A 
BRANCH  15  18
ATOM     18  O   UNL     1     143.484 -22.563  76.717  1.00  0.00    -0.508 OA
ATOM     19  H   UNL     1     143.283 -23.514  77.004  1.00  0.00     0.293 HD
ENDBRANCH  15  18
ENDBRANCH   1  12
BRANCH   2  20
ATOM     20  O   UNL     1     138.507 -18.792  77.652  1.00  0.00    -0.502 OA
ATOM     21  H   UNL     1     138.667 -18.849  76.653  1.00  0.00     0.293 HD
ENDBRANCH   2  20
BRANCH   6  22
ATOM     22  O   UNL     1     137.395 -14.429  80.500  1.00  0.00    -0.507 OA
ATOM     23  H   UNL     1     136.874 -14.202  81.334  1.00  0.00     0.293 HD
ENDBRANCH   6  22
BRANCH   8  24
ATOM     24  O   UNL     1     141.788 -13.197  81.944  1.00  0.00    -0.508 OA
ATOM     25  H   UNL     1     142.036 -13.345  82.916  1.00  0.00     0.293 HD
ENDBRANCH   8  24
TORSDOF 5
ENDMDL
MODEL 2
REMARK VINA RESULT:    -6.682      4.701      9.923
REMARK INTER + INTRA:          -8.125
REMARK INTER:                  -8.402
REMARK INTRA:                   0.278
REMARK UNBOUND:                -0.271
REMARK SMILES O=c1c(O)c(-c2ccc(O)cc2)oc2cc(O)cc(O)c12
REMARK SMILES IDX 5 1 3 2 2 3 1 4 21 5 19 6 18 7 16 8 15 9 14 10 13 11 6 12
REMARK SMILES IDX 7 13 8 14 9 15 12 16 11 17 10 18 4 20 20 22 17 24
REMARK H PARENT 10 19 4 21 20 23 17 25
REMARK Flexibility Score: inf
ROOT
ATOM      1  C   UNL     1     145.516 -21.944  76.915  1.00  0.00     0.180 A 
ATOM      2  C   UNL     1     146.224 -22.662  77.895  1.00  0.00     0.208 A 
ATOM      3  C   UNL     1     147.506 -23.147  77.588  1.00  0.00     0.238 A 
ATOM      4  O   UNL     1     148.157 -23.742  78.486  1.00  0.00    -0.285 OA
ATOM      5  C   UNL     1     148.057 -22.921  76.303  1.00  0.00     0.111 A 
ATOM      6  C   UNL     1     149.330 -23.401  75.872  1.00  0.00     0.134 A 
ATOM      7  C   UNL     1     149.830 -23.007  74.624  1.00  0.00     0.093 A 
ATOM      8  C   UNL     1     149.077 -22.205  73.768  1.00  0.00     0.123 A 
ATOM      9  C   UNL     1     147.806 -21.779  74.155  1.00  0.00     0.094 A 
ATOM     10  C   UNL     1     147.295 -22.126  75.409  1.00  0.00     0.146 A 
ATOM     11  O   UNL     1     146.086 -21.692  75.743  1.00  0.00    -0.452 OA
ENDROOT
BRANCH   1  12
ATOM     12  C   UNL     1     144.150 -21.423  77.154  1.00  0.00     0.021 A 
ATOM     13  C   UNL     1     143.261 -22.075  78.029  1.00  0.00     0.016 A 
ATOM     14  C   UNL     1     141.967 -21.578  78.220  1.00  0.00     0.047 A 
ATOM     15  C   UNL     1     141.543 -20.434  77.531  1.00  0.00     0.115 A 
ATOM     16  C   UNL     1     143.709 -20.289  76.451  1.00  0.00     0.016 A 
ATOM     17  C   UNL     1     142.415 -19.795  76.645  1.00  0.00     0.047 A 
BRANCH  15  18
ATOM     18  O   UNL     1     140.258 -19.930  77.715  1.00  0.00    -0.508 OA
ATOM     19  H   UNL     1     139.906 -19.700  78.637  1.00  0.00     0.293 HD
ENDBRANCH  15  18
ENDBRANCH   1  12
BRANCH   2  20
ATOM     20  O   UNL     1     145.671 -22.855  79.162  1.00  0.00    -0.502 OA
ATOM     21  H   UNL     1     145.431 -23.773  79.517  1.00  0.00     0.293 HD
ENDBRANCH   2  20
BRANCH   6  22
ATOM     22  O   UNL     1     150.125 -24.280  76.612  1.00  0.00    -0.507 OA
ATOM     23  H   UNL     1     150.320 -24.187  77.598  1.00  0.00     0.293 HD
ENDBRANCH   6  22
BRANCH   8  24
ATOM     24  O   UNL     1     149.599 -21.844  72.527  1.00  0.00    -0.508 OA
ATOM     25  H   UNL     1     149.879 -20.891  72.326  1.00  0.00     0.293 HD
ENDBRANCH   8  24
TORSDOF 5
ENDMDL
MODEL 3
REMARK VINA RESULT:    -4.986      4.649     10.076
REMARK INTER + INTRA:          -6.132
REMARK INTER:                  -6.647
REMARK INTRA:                   0.515
REMARK UNBOUND:                -0.271
REMARK SMILES O=c1c(O)c(-c2ccc(O)cc2)oc2cc(O)cc(O)c12
REMARK SMILES IDX 5 1 3 2 2 3 1 4 21 5 19 6 18 7 16 8 15 9 14 10 13 11 6 12
REMARK SMILES IDX 7 13 8 14 9 15 12 16 11 17 10 18 4 20 20 22 17 24
REMARK H PARENT 10 19 4 21 20 23 17 25
REMARK Flexibility Score: inf
ROOT
ATOM      1  C   UNL     1     145.456 -22.332  76.960  1.00  0.00     0.180 A 
ATOM      2  C   UNL     1     146.221 -22.078  75.808  1.00  0.00     0.208 A 
ATOM      3  C   UNL     1     147.443 -22.751  75.641  1.00  0.00     0.238 A 
ATOM      4  O   UNL     1     148.097 -22.561  74.582  1.00  0.00    -0.285 OA
ATOM      5  C   UNL     1     147.890 -23.656  76.634  1.00  0.00     0.111 A 
ATOM      6  C   UNL     1     149.130 -24.362  76.586  1.00  0.00     0.134 A 
ATOM      7  C   UNL     1     149.411 -25.330  77.559  1.00  0.00     0.093 A 
ATOM      8  C   UNL     1     148.529 -25.571  78.610  1.00  0.00     0.123 A 
ATOM      9  C   UNL     1     147.341 -24.844  78.700  1.00  0.00     0.094 A 
ATOM     10  C   UNL     1     147.015 -23.897  77.724  1.00  0.00     0.146 A 
ATOM     11  O   UNL     1     145.871 -23.235  77.840  1.00  0.00    -0.452 OA
ENDROOT
BRANCH   1  12
ATOM     12  C   UNL     1     144.170 -21.644  77.219  1.00  0.00     0.021 A 
ATOM     13  C   UNL     1     143.251 -22.139  78.162  1.00  0.00     0.016 A 
ATOM     14  C   UNL     1     142.033 -21.487  78.372  1.00  0.00     0.047 A 
ATOM     15  C   UNL     1     141.711 -20.340  77.634  1.00  0.00     0.115 A 
ATOM     16  C   UNL     1     143.831 -20.506  76.467  1.00  0.00     0.016 A 
ATOM     17  C   UNL     1     142.611 -19.855  76.680  1.00  0.00     0.047 A 
BRANCH  15  18
ATOM     18  O   UNL     1     140.501 -19.681  77.835  1.00  0.00    -0.508 OA
ATOM     19  H   UNL     1     140.444 -18.838  78.395  1.00  0.00     0.293 HD
ENDBRANCH  15  18
ENDBRANCH   1  12
BRANCH   2  20
ATOM     20  O   UNL     1     145.750 -21.198  74.831  1.00  0.00    -0.502 OA
ATOM     21  H   UNL     1     144.787 -20.883  74.803  1.00  0.00     0.293 HD
ENDBRANCH   2  20
BRANCH   6  22
ATOM     22  O   UNL     1     150.123 -24.133  75.630  1.00  0.00    -0.507 OA
ATOM     23  H   UNL     1     150.049 -24.381  74.655  1.00  0.00     0.293 HD
ENDBRANCH   6  22
BRANCH   8  24
ATOM     24  O   UNL     1     148.847 -26.531  79.570  1.00  0.00    -0.508 OA
ATOM     25  H   UNL     1     148.422 -27.450  79.561  1.00  0.00     0.293 HD
ENDBRANCH   8  24
TORSDOF 5
ENDMDL
