MODEL 1
REMARK VINA RESULT:    -2.641      0.000      0.000
REMARK INTER + INTRA:         -12.845
REMARK INTER:                  -6.965
REMARK INTRA:                  -5.881
REMARK UNBOUND:                -5.881
REMARK SMILES CCCCCCCCCCCCCCCCCCCCCCCCCCCCCC(=O)[O-]
REMARK SMILES IDX 16 1 17 2 18 3 19 4 20 5 21 6 22 7 23 8 24 9 25 10 26 11
REMARK SMILES IDX 27 12 28 13 29 14 30 15 31 16 32 17 15 18 14 19 13 20 12 21
REMARK SMILES IDX 11 22 10 23 9 24 8 25 7 26 6 27 5 28 4 29 3 30 2 31 1 32
REMARK H PARENT
REMARK Flexibility Score: inf
ROOT
ATOM      1  C   UNL     1      31.522   8.049  21.567  1.00  0.00     0.000 C 
ENDROOT
BRANCH   1   2
ATOM      2  C   UNL     1      30.926   9.132  22.492  1.00  0.00     0.000 C 
BRANCH   2   3
ATOM      3  C   UNL     1      32.007   9.956  23.220  1.00  0.00     0.000 C 
BRANCH   3   4
ATOM      4  C   UNL     1      32.017  11.431  22.781  1.00  0.00     0.000 C 
BRANCH   4   5
ATOM      5  C   UNL     1      33.440  11.961  22.541  1.00  0.00     0.000 C 
BRANCH   5   6
ATOM      6  C   UNL     1      34.483  11.058  23.214  1.00  0.00     0.000 C 
BRANCH   6   7
ATOM      7  C   UNL     1      35.898  11.264  22.646  1.00  0.00     0.000 C 
BRANCH   7   8
ATOM      8  C   UNL     1      36.827  10.069  22.927  1.00  0.00     0.000 C 
BRANCH   8   9
ATOM      9  C   UNL     1      36.525   8.861  22.023  1.00  0.00     0.000 C 
BRANCH   9  10
ATOM     10  C   UNL     1      37.158   7.560  22.544  1.00  0.00     0.000 C 
BRANCH  10  11
ATOM     11  C   UNL     1      36.472   6.305  21.983  1.00  0.00     0.000 C 
BRANCH  11  12
ATOM     12  C   UNL     1      35.973   6.486  20.542  1.00  0.00     0.000 C 
BRANCH  12  13
ATOM     13  C   UNL     1      36.796   5.629  19.569  1.00  0.00     0.006 C 
BRANCH  13  14
ATOM     14  C   UNL     1      37.071   4.222  20.118  1.00  0.00     0.053 C 
BRANCH  14  15
ATOM     15  C   UNL     1      36.310   3.172  19.366  1.00  0.00     0.041 C 
ATOM     16  O   UNL     1      36.112   2.040  19.882  1.00  0.00    -0.550 OA
ATOM     17  O   UNL     1      35.851   3.433  18.081  1.00  0.00    -0.550 OA
ENDBRANCH  14  15
ENDBRANCH  13  14
ENDBRANCH  12  13
ENDBRANCH  11  12
ENDBRANCH  10  11
ENDBRANCH   9  10
ENDBRANCH   8   9
ENDBRANCH   7   8
ENDBRANCH   6   7
ENDBRANCH   5   6
ENDBRANCH   4   5
ENDBRANCH   3   4
ENDBRANCH   2   3
ENDBRANCH   1   2
BRANCH   1  18
ATOM     18  C   UNL     1      32.991   8.294  21.165  1.00  0.00     0.000 C 
BRANCH  18  19
ATOM     19  C   UNL     1      33.219   8.703  19.698  1.00  0.00     0.000 C 
BRANCH  19  20
ATOM     20  C   UNL     1      33.718  10.145  19.494  1.00  0.00     0.000 C 
BRANCH  20  21
ATOM     21  C   UNL     1      35.169  10.215  18.990  1.00  0.00     0.000 C 
BRANCH  21  22
ATOM     22  C   UNL     1      35.407   9.318  17.763  1.00  0.00     0.000 C 
BRANCH  22  23
ATOM     23  C   UNL     1      34.620   9.794  16.529  1.00  0.00     0.000 C 
BRANCH  23  24
ATOM     24  C   UNL     1      33.749   8.673  15.922  1.00  0.00    -0.000 C 
BRANCH  24  25
ATOM     25  C   UNL     1      32.245   8.813  16.232  1.00  0.00    -0.000 C 
BRANCH  25  26
ATOM     26  C   UNL     1      31.466   7.486  16.340  1.00  0.00    -0.000 C 
BRANCH  26  27
ATOM     27  C   UNL     1      30.875   7.183  17.735  1.00  0.00    -0.000 C 
BRANCH  27  28
ATOM     28  C   UNL     1      31.128   5.748  18.241  1.00  0.00    -0.000 C 
BRANCH  28  29
ATOM     29  C   UNL     1      32.612   5.437  18.533  1.00  0.00    -0.000 C 
BRANCH  29  30
ATOM     30  C   UNL     1      32.771   4.222  19.460  1.00  0.00    -0.000 C 
BRANCH  30  31
ATOM     31  C   UNL     1      32.084   4.467  20.808  1.00  0.00    -0.003 C 
ATOM     32  C   UNL     1      33.098   4.468  21.950  1.00  0.00     0.004 C 
ENDBRANCH  30  31
ENDBRANCH  29  30
ENDBRANCH  28  29
ENDBRANCH  27  28
ENDBRANCH  26  27
ENDBRANCH  25  26
ENDBRANCH  24  25
ENDBRANCH  23  24
ENDBRANCH  22  23
ENDBRANCH  21  22
ENDBRANCH  20  21
ENDBRANCH  19  20
ENDBRANCH  18  19
ENDBRANCH   1  18
TORSDOF 28
ENDMDL
MODEL 2
REMARK VINA RESULT:    -2.532      1.835      6.210
REMARK INTER + INTRA:         -12.557
REMARK INTER:                  -6.848
REMARK INTRA:                  -5.709
REMARK UNBOUND:                -5.881
REMARK SMILES CCCCCCCCCCCCCCCCCCCCCCCCCCCCCC(=O)[O-]
REMARK SMILES IDX 16 1 17 2 18 3 19 4 20 5 21 6 22 7 23 8 24 9 25 10 26 11
REMARK SMILES IDX 27 12 28 13 29 14 30 15 31 16 32 17 15 18 14 19 13 20 12 21
REMARK SMILES IDX 11 22 10 23 9 24 8 25 7 26 6 27 5 28 4 29 3 30 2 31 1 32
REMARK H PARENT
REMARK Flexibility Score: inf
ROOT
ATOM      1  C   UNL     1      32.142   8.676  21.788  1.00  0.00     0.000 C 
ENDROOT
BRANCH   1   2
ATOM      2  C   UNL     1      31.490   7.374  21.277  1.00  0.00     0.000 C 
BRANCH   2   3
ATOM      3  C   UNL     1      32.526   6.299  20.891  1.00  0.00     0.000 C 
BRANCH   3   4
ATOM      4  C   UNL     1      32.427   5.043  21.773  1.00  0.00     0.000 C 
BRANCH   4   5
ATOM      5  C   UNL     1      33.291   3.885  21.245  1.00  0.00     0.000 C 
BRANCH   5   6
ATOM      6  C   UNL     1      32.446   2.620  21.039  1.00  0.00     0.000 C 
BRANCH   6   7
ATOM      7  C   UNL     1      31.420   2.773  19.903  1.00  0.00     0.000 C 
BRANCH   7   8
ATOM      8  C   UNL     1      32.086   2.972  18.529  1.00  0.00     0.000 C 
BRANCH   8   9
ATOM      9  C   UNL     1      31.644   4.277  17.844  1.00  0.00     0.000 C 
BRANCH   9  10
ATOM     10  C   UNL     1      32.678   4.791  16.829  1.00  0.00     0.000 C 
BRANCH  10  11
ATOM     11  C   UNL     1      33.359   6.090  17.287  1.00  0.00     0.000 C 
BRANCH  11  12
ATOM     12  C   UNL     1      34.681   5.846  18.030  1.00  0.00     0.000 C 
BRANCH  12  13
ATOM     13  C   UNL     1      35.355   4.558  17.532  1.00  0.00     0.006 C 
BRANCH  13  14
ATOM     14  C   UNL     1      35.840   3.669  18.685  1.00  0.00     0.053 C 
BRANCH  14  15
ATOM     15  C   UNL     1      37.331   3.721  18.839  1.00  0.00     0.041 C 
ATOM     16  O   UNL     1      37.996   4.628  18.271  1.00  0.00    -0.550 OA
ATOM     17  O   UNL     1      37.988   2.748  19.580  1.00  0.00    -0.550 OA
ENDBRANCH  14  15
ENDBRANCH  13  14
ENDBRANCH  12  13
ENDBRANCH  11  12
ENDBRANCH  10  11
ENDBRANCH   9  10
ENDBRANCH   8   9
ENDBRANCH   7   8
ENDBRANCH   6   7
ENDBRANCH   5   6
ENDBRANCH   4   5
ENDBRANCH   3   4
ENDBRANCH   2   3
ENDBRANCH   1   2
BRANCH   1  18
ATOM     18  C   UNL     1      31.284   9.462  22.801  1.00  0.00     0.000 C 
BRANCH  18  19
ATOM     19  C   UNL     1      31.934  10.734  23.378  1.00  0.00     0.000 C 
BRANCH  19  20
ATOM     20  C   UNL     1      33.136  11.271  22.579  1.00  0.00     0.000 C 
BRANCH  20  21
ATOM     21  C   UNL     1      34.455  11.212  23.365  1.00  0.00     0.000 C 
BRANCH  21  22
ATOM     22  C   UNL     1      35.539  10.403  22.632  1.00  0.00     0.000 C 
BRANCH  22  23
ATOM     23  C   UNL     1      35.391  10.479  21.101  1.00  0.00     0.000 C 
BRANCH  23  24
ATOM     24  C   UNL     1      35.601   9.107  20.424  1.00  0.00    -0.000 C 
BRANCH  24  25
ATOM     25  C   UNL     1      35.720   7.933  21.416  1.00  0.00    -0.000 C 
BRANCH  25  26
ATOM     26  C   UNL     1      36.522   6.717  20.908  1.00  0.00    -0.000 C 
BRANCH  26  27
ATOM     27  C   UNL     1      37.318   5.956  21.991  1.00  0.00    -0.000 C 
BRANCH  27  28
ATOM     28  C   UNL     1      37.667   6.795  23.237  1.00  0.00    -0.000 C 
BRANCH  28  29
ATOM     29  C   UNL     1      38.959   7.627  23.093  1.00  0.00    -0.000 C 
BRANCH  29  30
ATOM     30  C   UNL     1      38.726   9.109  23.428  1.00  0.00    -0.000 C 
BRANCH  30  31
ATOM     31  C   UNL     1      39.228  10.013  22.296  1.00  0.00    -0.003 C 
ATOM     32  C   UNL     1      39.287   9.254  20.973  1.00  0.00     0.004 C 
ENDBRANCH  30  31
ENDBRANCH  29  30
ENDBRANCH  28  29
ENDBRANCH  27  28
ENDBRANCH  26  27
ENDBRANCH  25  26
ENDBRANCH  24  25
ENDBRANCH  23  24
ENDBRANCH  22  23
ENDBRANCH  21  22
ENDBRANCH  20  21
ENDBRANCH  19  20
ENDBRANCH  18  19
ENDBRANCH   1  18
TORSDOF 28
ENDMDL
MODEL 3
REMARK VINA RESULT:    -2.521      2.500      5.229
REMARK INTER + INTRA:         -12.528
REMARK INTER:                  -6.608
REMARK INTRA:                  -5.920
REMARK UNBOUND:                -5.881
REMARK SMILES CCCCCCCCCCCCCCCCCCCCCCCCCCCCCC(=O)[O-]
REMARK SMILES IDX 16 1 17 2 18 3 19 4 20 5 21 6 22 7 23 8 24 9 25 10 26 11
REMARK SMILES IDX 27 12 28 13 29 14 30 15 31 16 32 17 15 18 14 19 13 20 12 21
REMARK SMILES IDX 11 22 10 23 9 24 8 25 7 26 6 27 5 28 4 29 3 30 2 31 1 32
REMARK H PARENT
REMARK Flexibility Score: inf
ROOT
ATOM      1  C   UNL     1      35.398   4.575  20.108  1.00  0.00     0.000 C 
ENDROOT
BRANCH   1   2
ATOM      2  C   UNL     1      33.928   4.126  20.258  1.00  0.00     0.000 C 
BRANCH   2   3
ATOM      3  C   UNL     1      33.382   4.339  21.684  1.00  0.00     0.000 C 
BRANCH   3   4
ATOM      4  C   UNL     1      32.079   5.158  21.699  1.00  0.00     0.000 C 
BRANCH   4   5
ATOM      5  C   UNL     1      31.634   5.578  20.288  1.00  0.00     0.000 C 
BRANCH   5   6
ATOM      6  C   UNL     1      31.249   7.063  20.254  1.00  0.00     0.000 C 
BRANCH   6   7
ATOM      7  C   UNL     1      30.982   7.637  21.657  1.00  0.00     0.000 C 
BRANCH   7   8
ATOM      8  C   UNL     1      31.819   8.895  21.950  1.00  0.00     0.000 C 
BRANCH   8   9
ATOM      9  C   UNL     1      31.289   9.689  23.156  1.00  0.00     0.000 C 
BRANCH   9  10
ATOM     10  C   UNL     1      32.033  11.018  23.363  1.00  0.00     0.000 C 
BRANCH  10  11
ATOM     11  C   UNL     1      33.298  11.126  22.498  1.00  0.00     0.000 C 
BRANCH  11  12
ATOM     12  C   UNL     1      34.575  11.333  23.327  1.00  0.00     0.000 C 
BRANCH  12  13
ATOM     13  C   UNL     1      35.825  11.057  22.477  1.00  0.00     0.006 C 
BRANCH  13  14
ATOM     14  C   UNL     1      36.599   9.823  22.962  1.00  0.00     0.053 C 
BRANCH  14  15
ATOM     15  C   UNL     1      38.056   9.908  22.615  1.00  0.00     0.041 C 
ATOM     16  O   UNL     1      38.634   8.936  22.061  1.00  0.00    -0.550 OA
ATOM     17  O   UNL     1      38.781  11.049  22.936  1.00  0.00    -0.550 OA
ENDBRANCH  14  15
ENDBRANCH  13  14
ENDBRANCH  12  13
ENDBRANCH  11  12
ENDBRANCH  10  11
ENDBRANCH   9  10
ENDBRANCH   8   9
ENDBRANCH   7   8
ENDBRANCH   6   7
ENDBRANCH   5   6
ENDBRANCH   4   5
ENDBRANCH   3   4
ENDBRANCH   2   3
ENDBRANCH   1   2
BRANCH   1  18
ATOM     18  C   UNL     1      35.803   5.745  21.028  1.00  0.00     0.000 C 
BRANCH  18  19
ATOM     19  C   UNL     1      36.056   7.089  20.321  1.00  0.00     0.000 C 
BRANCH  19  20
ATOM     20  C   UNL     1      34.825   8.006  20.204  1.00  0.00     0.000 C 
BRANCH  20  21
ATOM     21  C   UNL     1      35.068   9.230  19.308  1.00  0.00     0.000 C 
BRANCH  21  22
ATOM     22  C   UNL     1      33.862  10.185  19.277  1.00  0.00     0.000 C 
BRANCH  22  23
ATOM     23  C   UNL     1      34.037  11.317  18.249  1.00  0.00     0.000 C 
BRANCH  23  24
ATOM     24  C   UNL     1      34.259  10.780  16.819  1.00  0.00    -0.000 C 
BRANCH  24  25
ATOM     25  C   UNL     1      32.955  10.543  16.032  1.00  0.00    -0.000 C 
BRANCH  25  26
ATOM     26  C   UNL     1      32.844   9.170  15.336  1.00  0.00    -0.000 C 
BRANCH  26  27
ATOM     27  C   UNL     1      31.535   8.398  15.613  1.00  0.00    -0.000 C 
BRANCH  27  28
ATOM     28  C   UNL     1      31.712   7.119  16.457  1.00  0.00    -0.000 C 
BRANCH  28  29
ATOM     29  C   UNL     1      33.078   7.020  17.169  1.00  0.00    -0.000 C 
BRANCH  29  30
ATOM     30  C   UNL     1      33.720   5.636  16.988  1.00  0.00    -0.000 C 
BRANCH  30  31
ATOM     31  C   UNL     1      35.073   5.748  16.276  1.00  0.00    -0.003 C 
ATOM     32  C   UNL     1      35.678   7.137  16.461  1.00  0.00     0.004 C 
ENDBRANCH  30  31
ENDBRANCH  29  30
ENDBRANCH  28  29
ENDBRANCH  27  28
ENDBRANCH  26  27
ENDBRANCH  25  26
ENDBRANCH  24  25
ENDBRANCH  23  24
ENDBRANCH  22  23
ENDBRANCH  21  22
ENDBRANCH  20  21
ENDBRANCH  19  20
ENDBRANCH  18  19
ENDBRANCH   1  18
TORSDOF 28
ENDMDL
MODEL 4
REMARK VINA RESULT:    -2.495      2.241      6.316
REMARK INTER + INTRA:         -12.461
REMARK INTER:                  -7.116
REMARK INTRA:                  -5.344
REMARK UNBOUND:                -5.881
REMARK SMILES CCCCCCCCCCCCCCCCCCCCCCCCCCCCCC(=O)[O-]
REMARK SMILES IDX 16 1 17 2 18 3 19 4 20 5 21 6 22 7 23 8 24 9 25 10 26 11
REMARK SMILES IDX 27 12 28 13 29 14 30 15 31 16 32 17 15 18 14 19 13 20 12 21
REMARK SMILES IDX 11 22 10 23 9 24 8 25 7 26 6 27 5 28 4 29 3 30 2 31 1 32
REMARK H PARENT
REMARK Flexibility Score: inf
ROOT
ATOM      1  C   UNL     1      32.009   8.734  21.782  1.00  0.00     0.000 C 
ENDROOT
BRANCH   1   2
ATOM      2  C   UNL     1      31.335   7.437  21.284  1.00  0.00     0.000 C 
BRANCH   2   3
ATOM      3  C   UNL     1      32.351   6.323  20.963  1.00  0.00     0.000 C 
BRANCH   3   4
ATOM      4  C   UNL     1      32.110   5.050  21.794  1.00  0.00     0.000 C 
BRANCH   4   5
ATOM      5  C   UNL     1      33.285   4.061  21.707  1.00  0.00     0.000 C 
BRANCH   5   6
ATOM      6  C   UNL     1      32.840   2.736  21.073  1.00  0.00     0.000 C 
BRANCH   6   7
ATOM      7  C   UNL     1      33.027   2.719  19.547  1.00  0.00     0.000 C 
BRANCH   7   8
ATOM      8  C   UNL     1      34.026   1.642  19.085  1.00  0.00     0.000 C 
BRANCH   8   9
ATOM      9  C   UNL     1      35.490   2.065  19.297  1.00  0.00     0.000 C 
BRANCH   9  10
ATOM     10  C   UNL     1      35.722   3.557  19.005  1.00  0.00     0.000 C 
BRANCH  10  11
ATOM     11  C   UNL     1      36.008   3.829  17.521  1.00  0.00     0.000 C 
BRANCH  11  12
ATOM     12  C   UNL     1      34.873   4.590  16.820  1.00  0.00     0.000 C 
BRANCH  12  13
ATOM     13  C   UNL     1      34.321   5.700  17.728  1.00  0.00     0.006 C 
BRANCH  13  14
ATOM     14  C   UNL     1      32.802   5.867  17.587  1.00  0.00     0.053 C 
BRANCH  14  15
ATOM     15  C   UNL     1      32.439   7.200  17.003  1.00  0.00     0.041 C 
ATOM     16  O   UNL     1      32.231   8.187  17.757  1.00  0.00    -0.550 OA
ATOM     17  O   UNL     1      32.298   7.341  15.629  1.00  0.00    -0.550 OA
ENDBRANCH  14  15
ENDBRANCH  13  14
ENDBRANCH  12  13
ENDBRANCH  11  12
ENDBRANCH  10  11
ENDBRANCH   9  10
ENDBRANCH   8   9
ENDBRANCH   7   8
ENDBRANCH   6   7
ENDBRANCH   5   6
ENDBRANCH   4   5
ENDBRANCH   3   4
ENDBRANCH   2   3
ENDBRANCH   1   2
BRANCH   1  18
ATOM     18  C   UNL     1      31.236   9.464  22.899  1.00  0.00     0.000 C 
BRANCH  18  19
ATOM     19  C   UNL     1      31.949  10.682  23.516  1.00  0.00     0.000 C 
BRANCH  19  20
ATOM     20  C   UNL     1      33.090  11.269  22.664  1.00  0.00     0.000 C 
BRANCH  20  21
ATOM     21  C   UNL     1      34.459  11.194  23.358  1.00  0.00     0.000 C 
BRANCH  21  22
ATOM     22  C   UNL     1      35.517  10.487  22.494  1.00  0.00     0.000 C 
BRANCH  22  23
ATOM     23  C   UNL     1      35.209  10.592  20.989  1.00  0.00     0.000 C 
BRANCH  23  24
ATOM     24  C   UNL     1      35.303   9.226  20.275  1.00  0.00    -0.000 C 
BRANCH  24  25
ATOM     25  C   UNL     1      35.582   8.043  21.225  1.00  0.00    -0.000 C 
BRANCH  25  26
ATOM     26  C   UNL     1      36.289   6.832  20.582  1.00  0.00    -0.000 C 
BRANCH  26  27
ATOM     27  C   UNL     1      37.024   5.900  21.570  1.00  0.00    -0.000 C 
BRANCH  27  28
ATOM     28  C   UNL     1      37.320   6.530  22.946  1.00  0.00    -0.000 C 
BRANCH  28  29
ATOM     29  C   UNL     1      38.662   7.290  23.014  1.00  0.00    -0.000 C 
BRANCH  29  30
ATOM     30  C   UNL     1      38.506   8.670  23.671  1.00  0.00    -0.000 C 
BRANCH  30  31
ATOM     31  C   UNL     1      39.110   9.769  22.789  1.00  0.00    -0.003 C 
ATOM     32  C   UNL     1      39.106   9.358  21.319  1.00  0.00     0.004 C 
ENDBRANCH  30  31
ENDBRANCH  29  30
ENDBRANCH  28  29
ENDBRANCH  27  28
ENDBRANCH  26  27
ENDBRANCH  25  26
ENDBRANCH  24  25
ENDBRANCH  23  24
ENDBRANCH  22  23
ENDBRANCH  21  22
ENDBRANCH  20  21
ENDBRANCH  19  20
ENDBRANCH  18  19
ENDBRANCH   1  18
TORSDOF 28
ENDMDL
MODEL 5
REMARK VINA RESULT:    -2.481      1.813      2.032
REMARK INTER + INTRA:         -12.424
REMARK INTER:                  -6.496
REMARK INTRA:                  -5.927
REMARK UNBOUND:                -5.881
REMARK SMILES CCCCCCCCCCCCCCCCCCCCCCCCCCCCCC(=O)[O-]
REMARK SMILES IDX 16 1 17 2 18 3 19 4 20 5 21 6 22 7 23 8 24 9 25 10 26 11
REMARK SMILES IDX 27 12 28 13 29 14 30 15 31 16 32 17 15 18 14 19 13 20 12 21
REMARK SMILES IDX 11 22 10 23 9 24 8 25 7 26 6 27 5 28 4 29 3 30 2 31 1 32
REMARK H PARENT
REMARK Flexibility Score: inf
ROOT
ATOM      1  C   UNL     1      31.618   8.006  21.567  1.00  0.00     0.000 C 
ENDROOT
BRANCH   1   2
ATOM      2  C   UNL     1      30.963   9.067  22.478  1.00  0.00     0.000 C 
BRANCH   2   3
ATOM      3  C   UNL     1      31.998   9.925  23.233  1.00  0.00     0.000 C 
BRANCH   3   4
ATOM      4  C   UNL     1      32.009  11.388  22.755  1.00  0.00     0.000 C 
BRANCH   4   5
ATOM      5  C   UNL     1      33.435  11.921  22.532  1.00  0.00     0.000 C 
BRANCH   5   6
ATOM      6  C   UNL     1      34.468  11.035  23.241  1.00  0.00     0.000 C 
BRANCH   6   7
ATOM      7  C   UNL     1      35.909  11.335  22.793  1.00  0.00     0.000 C 
BRANCH   7   8
ATOM      8  C   UNL     1      36.875  10.174  23.094  1.00  0.00     0.000 C 
BRANCH   8   9
ATOM      9  C   UNL     1      36.693   8.990  22.128  1.00  0.00     0.000 C 
BRANCH   9  10
ATOM     10  C   UNL     1      37.234   7.670  22.703  1.00  0.00     0.000 C 
BRANCH  10  11
ATOM     11  C   UNL     1      36.675   6.438  21.976  1.00  0.00     0.000 C 
BRANCH  11  12
ATOM     12  C   UNL     1      36.317   6.717  20.509  1.00  0.00     0.000 C 
BRANCH  12  13
ATOM     13  C   UNL     1      37.412   6.187  19.571  1.00  0.00     0.006 C 
BRANCH  13  14
ATOM     14  C   UNL     1      38.417   7.276  19.172  1.00  0.00     0.053 C 
BRANCH  14  15
ATOM     15  C   UNL     1      39.738   7.093  19.856  1.00  0.00     0.041 C 
ATOM     16  O   UNL     1      39.914   6.130  20.649  1.00  0.00    -0.550 OA
ATOM     17  O   UNL     1      40.763   8.005  19.643  1.00  0.00    -0.550 OA
ENDBRANCH  14  15
ENDBRANCH  13  14
ENDBRANCH  12  13
ENDBRANCH  11  12
ENDBRANCH  10  11
ENDBRANCH   9  10
ENDBRANCH   8   9
ENDBRANCH   7   8
ENDBRANCH   6   7
ENDBRANCH   5   6
ENDBRANCH   4   5
ENDBRANCH   3   4
ENDBRANCH   2   3
ENDBRANCH   1   2
BRANCH   1  18
ATOM     18  C   UNL     1      33.077   8.319  21.174  1.00  0.00     0.000 C 
BRANCH  18  19
ATOM     19  C   UNL     1      33.306   8.663  19.690  1.00  0.00     0.000 C 
BRANCH  19  20
ATOM     20  C   UNL     1      33.600  10.147  19.403  1.00  0.00     0.000 C 
BRANCH  20  21
ATOM     21  C   UNL     1      35.101  10.450  19.273  1.00  0.00     0.000 C 
BRANCH  21  22
ATOM     22  C   UNL     1      35.777   9.606  18.179  1.00  0.00     0.000 C 
BRANCH  22  23
ATOM     23  C   UNL     1      35.232   9.924  16.774  1.00  0.00     0.000 C 
BRANCH  23  24
ATOM     24  C   UNL     1      34.812   8.651  16.007  1.00  0.00    -0.000 C 
BRANCH  24  25
ATOM     25  C   UNL     1      33.289   8.414  15.979  1.00  0.00    -0.000 C 
BRANCH  25  26
ATOM     26  C   UNL     1      32.851   6.934  15.978  1.00  0.00    -0.000 C 
BRANCH  26  27
ATOM     27  C   UNL     1      31.981   6.506  17.181  1.00  0.00    -0.000 C 
BRANCH  27  28
ATOM     28  C   UNL     1      32.364   5.145  17.797  1.00  0.00    -0.000 C 
BRANCH  28  29
ATOM     29  C   UNL     1      33.650   5.181  18.650  1.00  0.00    -0.000 C 
BRANCH  29  30
ATOM     30  C   UNL     1      33.692   4.034  19.672  1.00  0.00    -0.000 C 
BRANCH  30  31
ATOM     31  C   UNL     1      32.498   4.109  20.630  1.00  0.00    -0.003 C 
ATOM     32  C   UNL     1      32.944   4.509  22.034  1.00  0.00     0.004 C 
ENDBRANCH  30  31
ENDBRANCH  29  30
ENDBRANCH  28  29
ENDBRANCH  27  28
ENDBRANCH  26  27
ENDBRANCH  25  26
ENDBRANCH  24  25
ENDBRANCH  23  24
ENDBRANCH  22  23
ENDBRANCH  21  22
ENDBRANCH  20  21
ENDBRANCH  19  20
ENDBRANCH  18  19
ENDBRANCH   1  18
TORSDOF 28
ENDMDL
MODEL 6
REMARK VINA RESULT:    -2.444      2.080      5.690
REMARK INTER + INTRA:         -12.326
REMARK INTER:                  -7.358
REMARK INTRA:                  -4.968
REMARK UNBOUND:                -5.881
REMARK SMILES CCCCCCCCCCCCCCCCCCCCCCCCCCCCCC(=O)[O-]
REMARK SMILES IDX 16 1 17 2 18 3 19 4 20 5 21 6 22 7 23 8 24 9 25 10 26 11
REMARK SMILES IDX 27 12 28 13 29 14 30 15 31 16 32 17 15 18 14 19 13 20 12 21
REMARK SMILES IDX 11 22 10 23 9 24 8 25 7 26 6 27 5 28 4 29 3 30 2 31 1 32
REMARK H PARENT
REMARK Flexibility Score: inf
ROOT
ATOM      1  C   UNL     1      35.464   9.281  20.347  1.00  0.00     0.000 C 
ENDROOT
BRANCH   1   2
ATOM      2  C   UNL     1      35.283  10.659  21.020  1.00  0.00     0.000 C 
BRANCH   2   3
ATOM      3  C   UNL     1      35.493  10.609  22.547  1.00  0.00     0.000 C 
BRANCH   3   4
ATOM      4  C   UNL     1      34.423  11.405  23.314  1.00  0.00     0.000 C 
BRANCH   4   5
ATOM      5  C   UNL     1      33.048  11.351  22.628  1.00  0.00     0.000 C 
BRANCH   5   6
ATOM      6  C   UNL     1      32.005  10.691  23.541  1.00  0.00     0.000 C 
BRANCH   6   7
ATOM      7  C   UNL     1      31.281   9.518  22.860  1.00  0.00     0.000 C 
BRANCH   7   8
ATOM      8  C   UNL     1      32.130   8.857  21.760  1.00  0.00     0.000 C 
BRANCH   8   9
ATOM      9  C   UNL     1      31.600   7.469  21.358  1.00  0.00     0.000 C 
BRANCH   9  10
ATOM     10  C   UNL     1      32.062   7.043  19.955  1.00  0.00     0.000 C 
BRANCH  10  11
ATOM     11  C   UNL     1      32.851   5.725  19.969  1.00  0.00     0.000 C 
BRANCH  11  12
ATOM     12  C   UNL     1      33.212   5.256  21.387  1.00  0.00     0.000 C 
BRANCH  12  13
ATOM     13  C   UNL     1      32.450   3.971  21.745  1.00  0.00     0.006 C 
BRANCH  13  14
ATOM     14  C   UNL     1      32.453   2.951  20.598  1.00  0.00     0.053 C 
BRANCH  14  15
ATOM     15  C   UNL     1      33.667   2.073  20.637  1.00  0.00     0.041 C 
ATOM     16  O   UNL     1      34.819   2.579  20.559  1.00  0.00    -0.550 OA
ATOM     17  O   UNL     1      33.525   0.694  20.724  1.00  0.00    -0.550 OA
ENDBRANCH  14  15
ENDBRANCH  13  14
ENDBRANCH  12  13
ENDBRANCH  11  12
ENDBRANCH  10  11
ENDBRANCH   9  10
ENDBRANCH   8   9
ENDBRANCH   7   8
ENDBRANCH   6   7
ENDBRANCH   5   6
ENDBRANCH   4   5
ENDBRANCH   3   4
ENDBRANCH   2   3
ENDBRANCH   1   2
BRANCH   1  18
ATOM     18  C   UNL     1      35.505   8.093  21.331  1.00  0.00     0.000 C 
BRANCH  18  19
ATOM     19  C   UNL     1      36.780   7.231  21.279  1.00  0.00     0.000 C 
BRANCH  19  20
ATOM     20  C   UNL     1      37.055   6.398  22.544  1.00  0.00     0.000 C 
BRANCH  20  21
ATOM     21  C   UNL     1      38.336   6.824  23.279  1.00  0.00     0.000 C 
BRANCH  21  22
ATOM     22  C   UNL     1      38.304   8.302  23.705  1.00  0.00     0.000 C 
BRANCH  22  23
ATOM     23  C   UNL     1      39.494   9.099  23.140  1.00  0.00     0.000 C 
BRANCH  23  24
ATOM     24  C   UNL     1      39.125  10.568  22.840  1.00  0.00    -0.000 C 
BRANCH  24  25
ATOM     25  C   UNL     1      38.893  10.861  21.344  1.00  0.00    -0.000 C 
BRANCH  25  26
ATOM     26  C   UNL     1      39.167   9.680  20.390  1.00  0.00    -0.000 C 
BRANCH  26  27
ATOM     27  C   UNL     1      39.379  10.067  18.909  1.00  0.00    -0.000 C 
BRANCH  27  28
ATOM     28  C   UNL     1      38.196   9.724  17.981  1.00  0.00    -0.000 C 
BRANCH  28  29
ATOM     29  C   UNL     1      38.489   8.581  16.986  1.00  0.00    -0.000 C 
BRANCH  29  30
ATOM     30  C   UNL     1      37.204   7.865  16.542  1.00  0.00    -0.000 C 
BRANCH  30  31
ATOM     31  C   UNL     1      36.566   7.107  17.712  1.00  0.00    -0.003 C 
ATOM     32  C   UNL     1      35.562   6.071  17.213  1.00  0.00     0.004 C 
ENDBRANCH  30  31
ENDBRANCH  29  30
ENDBRANCH  28  29
ENDBRANCH  27  28
ENDBRANCH  26  27
ENDBRANCH  25  26
ENDBRANCH  24  25
ENDBRANCH  23  24
ENDBRANCH  22  23
ENDBRANCH  21  22
ENDBRANCH  20  21
ENDBRANCH  19  20
ENDBRANCH  18  19
ENDBRANCH   1  18
TORSDOF 28
ENDMDL
MODEL 7
REMARK VINA RESULT:    -2.392      2.564      5.587
REMARK INTER + INTRA:         -12.188
REMARK INTER:                  -6.799
REMARK INTRA:                  -5.389
REMARK UNBOUND:                -5.881
REMARK SMILES CCCCCCCCCCCCCCCCCCCCCCCCCCCCCC(=O)[O-]
REMARK SMILES IDX 16 1 17 2 18 3 19 4 20 5 21 6 22 7 23 8 24 9 25 10 26 11
REMARK SMILES IDX 27 12 28 13 29 14 30 15 31 16 32 17 15 18 14 19 13 20 12 21
REMARK SMILES IDX 11 22 10 23 9 24 8 25 7 26 6 27 5 28 4 29 3 30 2 31 1 32
REMARK H PARENT
REMARK Flexibility Score: inf
ROOT
ATOM      1  C   UNL     1      37.943  10.151  22.642  1.00  0.00     0.000 C 
ENDROOT
BRANCH   1   2
ATOM      2  C   UNL     1      37.649   8.985  23.611  1.00  0.00     0.000 C 
BRANCH   2   3
ATOM      3  C   UNL     1      37.634   7.613  22.906  1.00  0.00     0.000 C 
BRANCH   3   4
ATOM      4  C   UNL     1      37.079   7.695  21.473  1.00  0.00     0.000 C 
BRANCH   4   5
ATOM      5  C   UNL     1      35.643   7.154  21.369  1.00  0.00     0.000 C 
BRANCH   5   6
ATOM      6  C   UNL     1      35.641   5.685  20.926  1.00  0.00     0.000 C 
BRANCH   6   7
ATOM      7  C   UNL     1      35.766   5.527  19.400  1.00  0.00     0.000 C 
BRANCH   7   8
ATOM      8  C   UNL     1      37.140   4.978  18.973  1.00  0.00     0.000 C 
BRANCH   8   9
ATOM      9  C   UNL     1      37.932   5.977  18.111  1.00  0.00     0.000 C 
BRANCH   9  10
ATOM     10  C   UNL     1      37.112   7.227  17.751  1.00  0.00     0.000 C 
BRANCH  10  11
ATOM     11  C   UNL     1      37.861   8.532  18.058  1.00  0.00     0.000 C 
BRANCH  11  12
ATOM     12  C   UNL     1      36.920   9.717  18.322  1.00  0.00     0.000 C 
BRANCH  12  13
ATOM     13  C   UNL     1      35.458   9.249  18.376  1.00  0.00     0.006 C 
BRANCH  13  14
ATOM     14  C   UNL     1      34.607  10.100  19.328  1.00  0.00     0.053 C 
BRANCH  14  15
ATOM     15  C   UNL     1      33.477  10.776  18.610  1.00  0.00     0.041 C 
ATOM     16  O   UNL     1      32.963  10.243  17.591  1.00  0.00    -0.550 OA
ATOM     17  O   UNL     1      33.016  12.011  19.048  1.00  0.00    -0.550 OA
ENDBRANCH  14  15
ENDBRANCH  13  14
ENDBRANCH  12  13
ENDBRANCH  11  12
ENDBRANCH  10  11
ENDBRANCH   9  10
ENDBRANCH   8   9
ENDBRANCH   7   8
ENDBRANCH   6   7
ENDBRANCH   5   6
ENDBRANCH   4   5
ENDBRANCH   3   4
ENDBRANCH   2   3
ENDBRANCH   1   2
BRANCH   1  18
ATOM     18  C   UNL     1      36.933  11.314  22.722  1.00  0.00     0.000 C 
BRANCH  18  19
ATOM     19  C   UNL     1      35.454  10.903  22.852  1.00  0.00     0.000 C 
BRANCH  19  20
ATOM     20  C   UNL     1      34.460  12.073  22.960  1.00  0.00     0.000 C 
BRANCH  20  21
ATOM     21  C   UNL     1      33.037  11.697  22.516  1.00  0.00     0.000 C 
BRANCH  21  22
ATOM     22  C   UNL     1      32.791  10.179  22.559  1.00  0.00     0.000 C 
BRANCH  22  23
ATOM     23  C   UNL     1      31.320   9.833  22.853  1.00  0.00     0.000 C 
BRANCH  23  24
ATOM     24  C   UNL     1      30.937   8.425  22.350  1.00  0.00    -0.000 C 
BRANCH  24  25
ATOM     25  C   UNL     1      31.918   7.846  21.310  1.00  0.00    -0.000 C 
BRANCH  25  26
ATOM     26  C   UNL     1      32.021   6.306  21.285  1.00  0.00    -0.000 C 
BRANCH  26  27
ATOM     27  C   UNL     1      31.322   5.621  20.090  1.00  0.00    -0.000 C 
BRANCH  27  28
ATOM     28  C   UNL     1      32.083   5.732  18.753  1.00  0.00    -0.000 C 
BRANCH  28  29
ATOM     29  C   UNL     1      32.541   4.376  18.176  1.00  0.00    -0.000 C 
BRANCH  29  30
ATOM     30  C   UNL     1      32.733   3.320  19.276  1.00  0.00    -0.000 C 
BRANCH  30  31
ATOM     31  C   UNL     1      33.935   2.420  18.968  1.00  0.00    -0.003 C 
ATOM     32  C   UNL     1      34.450   1.740  20.235  1.00  0.00     0.004 C 
ENDBRANCH  30  31
ENDBRANCH  29  30
ENDBRANCH  28  29
ENDBRANCH  27  28
ENDBRANCH  26  27
ENDBRANCH  25  26
ENDBRANCH  24  25
ENDBRANCH  23  24
ENDBRANCH  22  23
ENDBRANCH  21  22
ENDBRANCH  20  21
ENDBRANCH  19  20
ENDBRANCH  18  19
ENDBRANCH   1  18
TORSDOF 28
ENDMDL
MODEL 8
REMARK VINA RESULT:    -2.384      2.070      5.264
REMARK INTER + INTRA:         -12.167
REMARK INTER:                  -6.359
REMARK INTRA:                  -5.808
REMARK UNBOUND:                -5.881
REMARK SMILES CCCCCCCCCCCCCCCCCCCCCCCCCCCCCC(=O)[O-]
REMARK SMILES IDX 16 1 17 2 18 3 19 4 20 5 21 6 22 7 23 8 24 9 25 10 26 11
REMARK SMILES IDX 27 12 28 13 29 14 30 15 31 16 32 17 15 18 14 19 13 20 12 21
REMARK SMILES IDX 11 22 10 23 9 24 8 25 7 26 6 27 5 28 4 29 3 30 2 31 1 32
REMARK H PARENT
REMARK Flexibility Score: inf
ROOT
ATOM      1  C   UNL     1      31.944   8.728  21.765  1.00  0.00     0.000 C 
ENDROOT
BRANCH   1   2
ATOM      2  C   UNL     1      31.256   9.490  22.919  1.00  0.00     0.000 C 
BRANCH   2   3
ATOM      3  C   UNL     1      31.879  10.877  23.173  1.00  0.00     0.000 C 
BRANCH   3   4
ATOM      4  C   UNL     1      32.801  11.327  22.026  1.00  0.00     0.000 C 
BRANCH   4   5
ATOM      5  C   UNL     1      34.015  12.125  22.529  1.00  0.00     0.000 C 
BRANCH   5   6
ATOM      6  C   UNL     1      34.926  11.248  23.399  1.00  0.00     0.000 C 
BRANCH   6   7
ATOM      7  C   UNL     1      36.328  11.069  22.794  1.00  0.00     0.000 C 
BRANCH   7   8
ATOM      8  C   UNL     1      36.701   9.589  22.592  1.00  0.00     0.000 C 
BRANCH   8   9
ATOM      9  C   UNL     1      35.678   8.837  21.722  1.00  0.00     0.000 C 
BRANCH   9  10
ATOM     10  C   UNL     1      35.570   9.417  20.302  1.00  0.00     0.000 C 
BRANCH  10  11
ATOM     11  C   UNL     1      34.649   8.587  19.394  1.00  0.00     0.000 C 
BRANCH  11  12
ATOM     12  C   UNL     1      34.807   8.927  17.905  1.00  0.00     0.000 C 
BRANCH  12  13
ATOM     13  C   UNL     1      34.038   7.924  17.033  1.00  0.00     0.006 C 
BRANCH  13  14
ATOM     14  C   UNL     1      34.133   6.490  17.570  1.00  0.00     0.053 C 
BRANCH  14  15
ATOM     15  C   UNL     1      34.411   5.502  16.476  1.00  0.00     0.041 C 
ATOM     16  O   UNL     1      33.568   5.319  15.558  1.00  0.00    -0.550 OA
ATOM     17  O   UNL     1      35.585   4.760  16.492  1.00  0.00    -0.550 OA
ENDBRANCH  14  15
ENDBRANCH  13  14
ENDBRANCH  12  13
ENDBRANCH  11  12
ENDBRANCH  10  11
ENDBRANCH   9  10
ENDBRANCH   8   9
ENDBRANCH   7   8
ENDBRANCH   6   7
ENDBRANCH   5   6
ENDBRANCH   4   5
ENDBRANCH   3   4
ENDBRANCH   2   3
ENDBRANCH   1   2
BRANCH   1  18
ATOM     18  C   UNL     1      31.228   7.428  21.345  1.00  0.00     0.000 C 
BRANCH  18  19
ATOM     19  C   UNL     1      32.144   6.299  20.836  1.00  0.00     0.000 C 
BRANCH  19  20
ATOM     20  C   UNL     1      32.167   5.034  21.712  1.00  0.00     0.000 C 
BRANCH  20  21
ATOM     21  C   UNL     1      33.467   4.227  21.570  1.00  0.00     0.000 C 
BRANCH  21  22
ATOM     22  C   UNL     1      34.623   5.070  21.006  1.00  0.00     0.000 C 
BRANCH  22  23
ATOM     23  C   UNL     1      35.542   4.257  20.076  1.00  0.00     0.000 C 
BRANCH  23  24
ATOM     24  C   UNL     1      37.038   4.485  20.384  1.00  0.00    -0.000 C 
BRANCH  24  25
ATOM     25  C   UNL     1      37.369   5.920  20.842  1.00  0.00    -0.000 C 
BRANCH  25  26
ATOM     26  C   UNL     1      38.258   6.732  19.877  1.00  0.00    -0.000 C 
BRANCH  26  27
ATOM     27  C   UNL     1      37.796   6.734  18.403  1.00  0.00    -0.000 C 
BRANCH  27  28
ATOM     28  C   UNL     1      38.316   7.923  17.569  1.00  0.00    -0.000 C 
BRANCH  28  29
ATOM     29  C   UNL     1      39.604   8.566  18.127  1.00  0.00    -0.000 C 
BRANCH  29  30
ATOM     30  C   UNL     1      39.454  10.084  18.309  1.00  0.00    -0.000 C 
BRANCH  30  31
ATOM     31  C   UNL     1      39.081  10.429  19.756  1.00  0.00    -0.003 C 
ATOM     32  C   UNL     1      38.379  11.783  19.835  1.00  0.00     0.004 C 
ENDBRANCH  30  31
ENDBRANCH  29  30
ENDBRANCH  28  29
ENDBRANCH  27  28
ENDBRANCH  26  27
ENDBRANCH  25  26
ENDBRANCH  24  25
ENDBRANCH  23  24
ENDBRANCH  22  23
ENDBRANCH  21  22
ENDBRANCH  20  21
ENDBRANCH  19  20
ENDBRANCH  18  19
ENDBRANCH   1  18
TORSDOF 28
ENDMDL
