MODEL 1
REMARK VINA RESULT:    -5.666      0.000      0.000
REMARK INTER + INTRA:         -15.751
REMARK INTER:                 -12.291
REMARK INTRA:                  -3.459
REMARK UNBOUND:                -3.459
REMARK SMILES CCCCCCCCCCCCCCCCCCCCCC(=O)[O-]
REMARK SMILES IDX 12 1 11 2 10 3 9 4 8 5 7 6 6 7 5 8 4 9 3 10 2 11 1 12 13 13
REMARK SMILES IDX 14 14 15 15 16 16 17 17 18 18 19 19 20 20 21 21 22 22 23 23
REMARK SMILES IDX 24 24
REMARK H PARENT
REMARK Flexibility Score: inf
ROOT
ATOM      1  C   UNL     1     103.301 -82.001  21.851  1.00  0.00     0.000 C 
ENDROOT
BRANCH   1   2
ATOM      2  C   UNL     1     104.187 -82.372  23.054  1.00  0.00     0.000 C 
BRANCH   2   3
ATOM      3  C   UNL     1     104.706 -83.818  22.983  1.00  0.00     0.000 C 
BRANCH   3   4
ATOM      4  C   UNL     1     106.065 -83.996  23.677  1.00  0.00    -0.000 C 
BRANCH   4   5
ATOM      5  C   UNL     1     106.387 -82.788  24.565  1.00  0.00    -0.000 C 
BRANCH   5   6
ATOM      6  C   UNL     1     107.645 -82.059  24.069  1.00  0.00    -0.000 C 
BRANCH   6   7
ATOM      7  C   UNL     1     108.729 -83.025  23.562  1.00  0.00    -0.000 C 
BRANCH   7   8
ATOM      8  C   UNL     1     110.020 -82.303  23.142  1.00  0.00    -0.000 C 
BRANCH   8   9
ATOM      9  C   UNL     1     110.238 -80.992  23.929  1.00  0.00    -0.000 C 
BRANCH   9  10
ATOM     10  C   UNL     1     110.759 -79.829  23.062  1.00  0.00    -0.000 C 
BRANCH  10  11
ATOM     11  C   UNL     1     109.805 -79.392  21.938  1.00  0.00    -0.003 C 
ATOM     12  C   UNL     1     108.921 -78.209  22.336  1.00  0.00     0.004 C 
ENDBRANCH  10  11
ENDBRANCH   9  10
ENDBRANCH   8   9
ENDBRANCH   7   8
ENDBRANCH   6   7
ENDBRANCH   5   6
ENDBRANCH   4   5
ENDBRANCH   3   4
ENDBRANCH   2   3
ENDBRANCH   1   2
BRANCH   1  13
ATOM     13  C   UNL     1     103.066 -83.188  20.905  1.00  0.00     0.000 C 
BRANCH  13  14
ATOM     14  C   UNL     1     103.583 -82.924  19.481  1.00  0.00     0.000 C 
BRANCH  14  15
ATOM     15  C   UNL     1     105.037 -83.386  19.332  1.00  0.00     0.000 C 
BRANCH  15  16
ATOM     16  C   UNL     1     105.970 -82.195  19.083  1.00  0.00     0.000 C 
BRANCH  16  17
ATOM     17  C   UNL     1     106.730 -81.815  20.359  1.00  0.00     0.000 C 
BRANCH  17  18
ATOM     18  C   UNL     1     106.432 -80.367  20.769  1.00  0.00     0.000 C 
BRANCH  18  19
ATOM     19  C   UNL     1     105.409 -79.728  19.817  1.00  0.00     0.000 C 
BRANCH  19  20
ATOM     20  C   UNL     1     105.117 -78.255  20.157  1.00  0.00     0.006 C 
BRANCH  20  21
ATOM     21  C   UNL     1     106.152 -77.261  19.609  1.00  0.00     0.053 C 
BRANCH  21  22
ATOM     22  C   UNL     1     105.554 -75.914  19.343  1.00  0.00     0.041 C 
ATOM     23  O   UNL     1     106.295 -74.941  19.041  1.00  0.00    -0.550 OA
ATOM     24  O   UNL     1     104.184 -75.723  19.469  1.00  0.00    -0.550 OA
ENDBRANCH  21  22
ENDBRANCH  20  21
ENDBRANCH  19  20
ENDBRANCH  18  19
ENDBRANCH  17  18
ENDBRANCH  16  17
ENDBRANCH  15  16
ENDBRANCH  14  15
ENDBRANCH  13  14
ENDBRANCH   1  13
TORSDOF 20
ENDMDL
MODEL 2
REMARK VINA RESULT:    -5.444      2.502      5.141
REMARK INTER + INTRA:         -15.269
REMARK INTER:                 -11.931
REMARK INTRA:                  -3.338
REMARK UNBOUND:                -3.459
REMARK SMILES CCCCCCCCCCCCCCCCCCCCCC(=O)[O-]
REMARK SMILES IDX 12 1 11 2 10 3 9 4 8 5 7 6 6 7 5 8 4 9 3 10 2 11 1 12 13 13
REMARK SMILES IDX 14 14 15 15 16 16 17 17 18 18 19 19 20 20 21 21 22 22 23 23
REMARK SMILES IDX 24 24
REMARK H PARENT
REMARK Flexibility Score: inf
ROOT
ATOM      1  C   UNL     1     103.148 -82.254  22.055  1.00  0.00     0.000 C 
ENDROOT
BRANCH   1   2
ATOM      2  C   UNL     1     103.049 -83.443  21.083  1.00  0.00     0.000 C 
BRANCH   2   3
ATOM      3  C   UNL     1     103.497 -83.080  19.657  1.00  0.00     0.000 C 
BRANCH   3   4
ATOM      4  C   UNL     1     104.903 -83.604  19.325  1.00  0.00    -0.000 C 
BRANCH   4   5
ATOM      5  C   UNL     1     105.856 -82.445  19.006  1.00  0.00    -0.000 C 
BRANCH   5   6
ATOM      6  C   UNL     1     105.096 -81.112  18.930  1.00  0.00    -0.000 C 
BRANCH   6   7
ATOM      7  C   UNL     1     105.584 -80.090  19.969  1.00  0.00    -0.000 C 
BRANCH   7   8
ATOM      8  C   UNL     1     106.757 -80.616  20.815  1.00  0.00    -0.000 C 
BRANCH   8   9
ATOM      9  C   UNL     1     107.163 -79.627  21.929  1.00  0.00    -0.000 C 
BRANCH   9  10
ATOM     10  C   UNL     1     107.189 -78.156  21.471  1.00  0.00    -0.000 C 
BRANCH  10  11
ATOM     11  C   UNL     1     108.536 -77.687  20.897  1.00  0.00    -0.003 C 
ATOM     12  C   UNL     1     109.461 -77.095  21.961  1.00  0.00     0.004 C 
ENDBRANCH  10  11
ENDBRANCH   9  10
ENDBRANCH   8   9
ENDBRANCH   7   8
ENDBRANCH   6   7
ENDBRANCH   5   6
ENDBRANCH   4   5
ENDBRANCH   3   4
ENDBRANCH   2   3
ENDBRANCH   1   2
BRANCH   1  13
ATOM     13  C   UNL     1     104.421 -82.300  22.914  1.00  0.00     0.000 C 
BRANCH  13  14
ATOM     14  C   UNL     1     104.950 -83.729  23.115  1.00  0.00     0.000 C 
BRANCH  14  15
ATOM     15  C   UNL     1     106.119 -83.746  24.107  1.00  0.00     0.000 C 
BRANCH  15  16
ATOM     16  C   UNL     1     106.568 -82.321  24.453  1.00  0.00     0.000 C 
BRANCH  16  17
ATOM     17  C   UNL     1     108.088 -82.255  24.651  1.00  0.00     0.000 C 
BRANCH  17  18
ATOM     18  C   UNL     1     108.824 -82.982  23.519  1.00  0.00     0.000 C 
BRANCH  18  19
ATOM     19  C   UNL     1     110.216 -82.374  23.292  1.00  0.00     0.000 C 
BRANCH  19  20
ATOM     20  C   UNL     1     110.167 -80.864  22.998  1.00  0.00     0.006 C 
BRANCH  20  21
ATOM     21  C   UNL     1     111.457 -80.295  22.387  1.00  0.00     0.053 C 
BRANCH  21  22
ATOM     22  C   UNL     1     111.480 -80.427  20.895  1.00  0.00     0.041 C 
ATOM     23  O   UNL     1     111.592 -79.403  20.170  1.00  0.00    -0.550 OA
ATOM     24  O   UNL     1     111.335 -81.676  20.304  1.00  0.00    -0.550 OA
ENDBRANCH  21  22
ENDBRANCH  20  21
ENDBRANCH  19  20
ENDBRANCH  18  19
ENDBRANCH  17  18
ENDBRANCH  16  17
ENDBRANCH  15  16
ENDBRANCH  14  15
ENDBRANCH  13  14
ENDBRANCH   1  13
TORSDOF 20
ENDMDL
MODEL 3
REMARK VINA RESULT:    -5.396      5.458      9.577
REMARK INTER + INTRA:         -15.164
REMARK INTER:                 -12.768
REMARK INTRA:                  -2.397
REMARK UNBOUND:                -3.459
REMARK SMILES CCCCCCCCCCCCCCCCCCCCCC(=O)[O-]
REMARK SMILES IDX 12 1 11 2 10 3 9 4 8 5 7 6 6 7 5 8 4 9 3 10 2 11 1 12 13 13
REMARK SMILES IDX 14 14 15 15 16 16 17 17 18 18 19 19 20 20 21 21 22 22 23 23
REMARK SMILES IDX 24 24
REMARK H PARENT
REMARK Flexibility Score: inf
ROOT
ATOM      1  C   UNL     1     117.457 -83.184  21.150  1.00  0.00     0.000 C 
ENDROOT
BRANCH   1   2
ATOM      2  C   UNL     1     115.966 -83.366  21.484  1.00  0.00     0.000 C 
BRANCH   2   3
ATOM      3  C   UNL     1     115.066 -83.265  20.241  1.00  0.00     0.000 C 
BRANCH   3   4
ATOM      4  C   UNL     1     113.620 -83.708  20.517  1.00  0.00    -0.000 C 
BRANCH   4   5
ATOM      5  C   UNL     1     112.940 -82.762  21.514  1.00  0.00    -0.000 C 
BRANCH   5   6
ATOM      6  C   UNL     1     111.796 -81.986  20.845  1.00  0.00    -0.000 C 
BRANCH   6   7
ATOM      7  C   UNL     1     110.659 -81.645  21.823  1.00  0.00    -0.000 C 
BRANCH   7   8
ATOM      8  C   UNL     1     110.681 -82.518  23.089  1.00  0.00    -0.000 C 
BRANCH   8   9
ATOM      9  C   UNL     1     109.785 -81.946  24.208  1.00  0.00    -0.000 C 
BRANCH   9  10
ATOM     10  C   UNL     1     108.382 -82.582  24.263  1.00  0.00    -0.000 C 
BRANCH  10  11
ATOM     11  C   UNL     1     107.231 -81.579  24.450  1.00  0.00    -0.003 C 
ATOM     12  C   UNL     1     106.668 -81.581  25.872  1.00  0.00     0.004 C 
ENDBRANCH  10  11
ENDBRANCH   9  10
ENDBRANCH   8   9
ENDBRANCH   7   8
ENDBRANCH   6   7
ENDBRANCH   5   6
ENDBRANCH   4   5
ENDBRANCH   3   4
ENDBRANCH   2   3
ENDBRANCH   1   2
BRANCH   1  13
ATOM     13  C   UNL     1     118.323 -82.995  22.406  1.00  0.00     0.000 C 
BRANCH  13  14
ATOM     14  C   UNL     1     119.175 -81.717  22.352  1.00  0.00     0.000 C 
BRANCH  14  15
ATOM     15  C   UNL     1     118.693 -80.784  21.236  1.00  0.00     0.000 C 
BRANCH  15  16
ATOM     16  C   UNL     1     118.539 -79.346  21.748  1.00  0.00     0.000 C 
BRANCH  16  17
ATOM     17  C   UNL     1     117.440 -79.257  22.815  1.00  0.00     0.000 C 
BRANCH  17  18
ATOM     18  C   UNL     1     116.103 -79.776  22.273  1.00  0.00     0.000 C 
BRANCH  18  19
ATOM     19  C   UNL     1     115.567 -78.858  21.164  1.00  0.00     0.000 C 
BRANCH  19  20
ATOM     20  C   UNL     1     114.411 -79.495  20.369  1.00  0.00     0.006 C 
BRANCH  20  21
ATOM     21  C   UNL     1     113.195 -78.576  20.176  1.00  0.00     0.053 C 
BRANCH  21  22
ATOM     22  C   UNL     1     112.659 -78.068  21.479  1.00  0.00     0.041 C 
ATOM     23  O   UNL     1     112.603 -78.830  22.481  1.00  0.00    -0.550 OA
ATOM     24  O   UNL     1     112.182 -76.767  21.576  1.00  0.00    -0.550 OA
ENDBRANCH  21  22
ENDBRANCH  20  21
ENDBRANCH  19  20
ENDBRANCH  18  19
ENDBRANCH  17  18
ENDBRANCH  16  17
ENDBRANCH  15  16
ENDBRANCH  14  15
ENDBRANCH  13  14
ENDBRANCH   1  13
TORSDOF 20
ENDMDL
MODEL 4
REMARK VINA RESULT:    -5.353      7.958     11.227
REMARK INTER + INTRA:         -15.071
REMARK INTER:                 -11.887
REMARK INTRA:                  -3.184
REMARK UNBOUND:                -3.459
REMARK SMILES CCCCCCCCCCCCCCCCCCCCCC(=O)[O-]
REMARK SMILES IDX 12 1 11 2 10 3 9 4 8 5 7 6 6 7 5 8 4 9 3 10 2 11 1 12 13 13
REMARK SMILES IDX 14 14 15 15 16 16 17 17 18 18 19 19 20 20 21 21 22 22 23 23
REMARK SMILES IDX 24 24
REMARK H PARENT
REMARK Flexibility Score: inf
ROOT
ATOM      1  C   UNL     1     112.151 -81.074  21.036  1.00  0.00     0.000 C 
ENDROOT
BRANCH   1   2
ATOM      2  C   UNL     1     112.471 -82.546  20.722  1.00  0.00     0.000 C 
BRANCH   2   3
ATOM      3  C   UNL     1     113.826 -82.993  21.296  1.00  0.00     0.000 C 
BRANCH   3   4
ATOM      4  C   UNL     1     114.759 -83.585  20.228  1.00  0.00    -0.000 C 
BRANCH   4   5
ATOM      5  C   UNL     1     116.220 -83.534  20.690  1.00  0.00    -0.000 C 
BRANCH   5   6
ATOM      6  C   UNL     1     116.326 -82.995  22.125  1.00  0.00    -0.000 C 
BRANCH   6   7
ATOM      7  C   UNL     1     117.758 -82.578  22.498  1.00  0.00    -0.000 C 
BRANCH   7   8
ATOM      8  C   UNL     1     118.678 -82.447  21.273  1.00  0.00    -0.000 C 
BRANCH   8   9
ATOM      9  C   UNL     1     119.235 -81.016  21.111  1.00  0.00    -0.000 C 
BRANCH   9  10
ATOM     10  C   UNL     1     120.079 -80.542  22.310  1.00  0.00    -0.000 C 
BRANCH  10  11
ATOM     11  C   UNL     1     119.496 -79.335  23.065  1.00  0.00    -0.003 C 
ATOM     12  C   UNL     1     119.130 -79.663  24.514  1.00  0.00     0.004 C 
ENDBRANCH  10  11
ENDBRANCH   9  10
ENDBRANCH   8   9
ENDBRANCH   7   8
ENDBRANCH   6   7
ENDBRANCH   5   6
ENDBRANCH   4   5
ENDBRANCH   3   4
ENDBRANCH   2   3
ENDBRANCH   1   2
BRANCH   1  13
ATOM     13  C   UNL     1     113.387 -80.289  21.503  1.00  0.00     0.000 C 
BRANCH  13  14
ATOM     14  C   UNL     1     114.135 -79.615  20.341  1.00  0.00     0.000 C 
BRANCH  14  15
ATOM     15  C   UNL     1     115.651 -79.669  20.562  1.00  0.00     0.000 C 
BRANCH  15  16
ATOM     16  C   UNL     1     116.006 -79.359  22.021  1.00  0.00     0.000 C 
BRANCH  16  17
ATOM     17  C   UNL     1     116.200 -77.852  22.232  1.00  0.00     0.000 C 
BRANCH  17  18
ATOM     18  C   UNL     1     116.131 -77.490  23.720  1.00  0.00     0.000 C 
BRANCH  18  19
ATOM     19  C   UNL     1     116.189 -75.967  23.917  1.00  0.00     0.000 C 
BRANCH  19  20
ATOM     20  C   UNL     1     117.025 -75.556  25.143  1.00  0.00     0.006 C 
BRANCH  20  21
ATOM     21  C   UNL     1     118.367 -74.891  24.799  1.00  0.00     0.053 C 
BRANCH  21  22
ATOM     22  C   UNL     1     119.526 -75.605  25.425  1.00  0.00     0.041 C 
ATOM     23  O   UNL     1     120.706 -75.277  25.129  1.00  0.00    -0.550 OA
ATOM     24  O   UNL     1     119.304 -76.659  26.302  1.00  0.00    -0.550 OA
ENDBRANCH  21  22
ENDBRANCH  20  21
ENDBRANCH  19  20
ENDBRANCH  18  19
ENDBRANCH  17  18
ENDBRANCH  16  17
ENDBRANCH  15  16
ENDBRANCH  14  15
ENDBRANCH  13  14
ENDBRANCH   1  13
TORSDOF 20
ENDMDL
MODEL 5
REMARK VINA RESULT:    -5.353      5.880      9.740
REMARK INTER + INTRA:         -15.070
REMARK INTER:                 -12.406
REMARK INTRA:                  -2.665
REMARK UNBOUND:                -3.459
REMARK SMILES CCCCCCCCCCCCCCCCCCCCCC(=O)[O-]
REMARK SMILES IDX 12 1 11 2 10 3 9 4 8 5 7 6 6 7 5 8 4 9 3 10 2 11 1 12 13 13
REMARK SMILES IDX 14 14 15 15 16 16 17 17 18 18 19 19 20 20 21 21 22 22 23 23
REMARK SMILES IDX 24 24
REMARK H PARENT
REMARK Flexibility Score: inf
ROOT
ATOM      1  C   UNL     1     118.270 -82.997  22.533  1.00  0.00     0.000 C 
ENDROOT
BRANCH   1   2
ATOM      2  C   UNL     1     119.147 -81.740  22.395  1.00  0.00     0.000 C 
BRANCH   2   3
ATOM      3  C   UNL     1     118.813 -80.922  21.136  1.00  0.00     0.000 C 
BRANCH   3   4
ATOM      4  C   UNL     1     118.255 -79.528  21.465  1.00  0.00    -0.000 C 
BRANCH   4   5
ATOM      5  C   UNL     1     116.865 -79.634  22.103  1.00  0.00    -0.000 C 
BRANCH   5   6
ATOM      6  C   UNL     1     115.767 -79.252  21.099  1.00  0.00    -0.000 C 
BRANCH   6   7
ATOM      7  C   UNL     1     114.383 -79.788  21.500  1.00  0.00    -0.000 C 
BRANCH   7   8
ATOM      8  C   UNL     1     113.539 -78.750  22.259  1.00  0.00    -0.000 C 
BRANCH   8   9
ATOM      9  C   UNL     1     113.368 -77.440  21.459  1.00  0.00    -0.000 C 
BRANCH   9  10
ATOM     10  C   UNL     1     113.706 -76.173  22.269  1.00  0.00    -0.000 C 
BRANCH  10  11
ATOM     11  C   UNL     1     114.496 -76.431  23.562  1.00  0.00    -0.003 C 
ATOM     12  C   UNL     1     116.004 -76.249  23.383  1.00  0.00     0.004 C 
ENDBRANCH  10  11
ENDBRANCH   9  10
ENDBRANCH   8   9
ENDBRANCH   7   8
ENDBRANCH   6   7
ENDBRANCH   5   6
ENDBRANCH   4   5
ENDBRANCH   3   4
ENDBRANCH   2   3
ENDBRANCH   1   2
BRANCH   1  13
ATOM     13  C   UNL     1     117.457 -83.291  21.263  1.00  0.00     0.000 C 
BRANCH  13  14
ATOM     14  C   UNL     1     115.941 -83.176  21.489  1.00  0.00     0.000 C 
BRANCH  14  15
ATOM     15  C   UNL     1     115.189 -83.136  20.154  1.00  0.00     0.000 C 
BRANCH  15  16
ATOM     16  C   UNL     1     113.790 -83.749  20.291  1.00  0.00     0.000 C 
BRANCH  16  17
ATOM     17  C   UNL     1     113.109 -83.282  21.584  1.00  0.00     0.000 C 
BRANCH  17  18
ATOM     18  C   UNL     1     111.832 -82.490  21.279  1.00  0.00     0.000 C 
BRANCH  18  19
ATOM     19  C   UNL     1     111.262 -81.856  22.557  1.00  0.00     0.000 C 
BRANCH  19  20
ATOM     20  C   UNL     1     110.209 -82.745  23.245  1.00  0.00     0.006 C 
BRANCH  20  21
ATOM     21  C   UNL     1     108.759 -82.279  23.044  1.00  0.00     0.053 C 
BRANCH  21  22
ATOM     22  C   UNL     1     107.862 -82.731  24.156  1.00  0.00     0.041 C 
ATOM     23  O   UNL     1     107.098 -83.719  23.991  1.00  0.00    -0.550 OA
ATOM     24  O   UNL     1     107.840 -82.036  25.359  1.00  0.00    -0.550 OA
ENDBRANCH  21  22
ENDBRANCH  20  21
ENDBRANCH  19  20
ENDBRANCH  18  19
ENDBRANCH  17  18
ENDBRANCH  16  17
ENDBRANCH  15  16
ENDBRANCH  14  15
ENDBRANCH  13  14
ENDBRANCH   1  13
TORSDOF 20
ENDMDL
MODEL 6
REMARK VINA RESULT:    -5.334      1.438      4.810
REMARK INTER + INTRA:         -15.029
REMARK INTER:                 -11.655
REMARK INTRA:                  -3.374
REMARK UNBOUND:                -3.459
REMARK SMILES CCCCCCCCCCCCCCCCCCCCCC(=O)[O-]
REMARK SMILES IDX 12 1 11 2 10 3 9 4 8 5 7 6 6 7 5 8 4 9 3 10 2 11 1 12 13 13
REMARK SMILES IDX 14 14 15 15 16 16 17 17 18 18 19 19 20 20 21 21 22 22 23 23
REMARK SMILES IDX 24 24
REMARK H PARENT
REMARK Flexibility Score: inf
ROOT
ATOM      1  C   UNL     1     105.598 -82.116  23.662  1.00  0.00     0.000 C 
ENDROOT
BRANCH   1   2
ATOM      2  C   UNL     1     104.213 -81.922  23.019  1.00  0.00     0.000 C 
BRANCH   2   3
ATOM      3  C   UNL     1     103.749 -83.159  22.230  1.00  0.00     0.000 C 
BRANCH   3   4
ATOM      4  C   UNL     1     102.630 -82.838  21.227  1.00  0.00    -0.000 C 
BRANCH   4   5
ATOM      5  C   UNL     1     103.068 -83.175  19.796  1.00  0.00    -0.000 C 
BRANCH   5   6
ATOM      6  C   UNL     1     104.345 -84.028  19.797  1.00  0.00    -0.000 C 
BRANCH   6   7
ATOM      7  C   UNL     1     105.375 -83.555  18.758  1.00  0.00    -0.000 C 
BRANCH   7   8
ATOM      8  C   UNL     1     105.666 -82.047  18.851  1.00  0.00    -0.000 C 
BRANCH   8   9
ATOM      9  C   UNL     1     106.556 -81.698  20.063  1.00  0.00    -0.000 C 
BRANCH   9  10
ATOM     10  C   UNL     1     106.256 -80.315  20.673  1.00  0.00    -0.000 C 
BRANCH  10  11
ATOM     11  C   UNL     1     105.290 -79.448  19.849  1.00  0.00    -0.003 C 
ATOM     12  C   UNL     1     105.458 -77.952  20.119  1.00  0.00     0.004 C 
ENDBRANCH  10  11
ENDBRANCH   9  10
ENDBRANCH   8   9
ENDBRANCH   7   8
ENDBRANCH   6   7
ENDBRANCH   5   6
ENDBRANCH   4   5
ENDBRANCH   3   4
ENDBRANCH   2   3
ENDBRANCH   1   2
BRANCH   1  13
ATOM     13  C   UNL     1     106.091 -83.568  23.573  1.00  0.00     0.000 C 
BRANCH  13  14
ATOM     14  C   UNL     1     107.604 -83.667  23.323  1.00  0.00     0.000 C 
BRANCH  14  15
ATOM     15  C   UNL     1     108.364 -82.613  24.136  1.00  0.00     0.000 C 
BRANCH  15  16
ATOM     16  C   UNL     1     109.545 -82.049  23.338  1.00  0.00     0.000 C 
BRANCH  16  17
ATOM     17  C   UNL     1     110.177 -80.852  24.061  1.00  0.00     0.000 C 
BRANCH  17  18
ATOM     18  C   UNL     1     110.671 -79.801  23.059  1.00  0.00     0.000 C 
BRANCH  18  19
ATOM     19  C   UNL     1     109.981 -79.975  21.697  1.00  0.00     0.000 C 
BRANCH  19  20
ATOM     20  C   UNL     1     109.293 -78.687  21.208  1.00  0.00     0.006 C 
BRANCH  20  21
ATOM     21  C   UNL     1     108.654 -77.848  22.326  1.00  0.00     0.053 C 
BRANCH  21  22
ATOM     22  C   UNL     1     108.784 -76.377  22.071  1.00  0.00     0.041 C 
ATOM     23  O   UNL     1     107.971 -75.792  21.308  1.00  0.00    -0.550 OA
ATOM     24  O   UNL     1     109.829 -75.661  22.642  1.00  0.00    -0.550 OA
ENDBRANCH  21  22
ENDBRANCH  20  21
ENDBRANCH  19  20
ENDBRANCH  18  19
ENDBRANCH  17  18
ENDBRANCH  16  17
ENDBRANCH  15  16
ENDBRANCH  14  15
ENDBRANCH  13  14
ENDBRANCH   1  13
TORSDOF 20
ENDMDL
MODEL 7
REMARK VINA RESULT:    -5.332      6.796      9.933
REMARK INTER + INTRA:         -15.026
REMARK INTER:                 -11.884
REMARK INTRA:                  -3.143
REMARK UNBOUND:                -3.459
REMARK SMILES CCCCCCCCCCCCCCCCCCCCCC(=O)[O-]
REMARK SMILES IDX 12 1 11 2 10 3 9 4 8 5 7 6 6 7 5 8 4 9 3 10 2 11 1 12 13 13
REMARK SMILES IDX 14 14 15 15 16 16 17 17 18 18 19 19 20 20 21 21 22 22 23 23
REMARK SMILES IDX 24 24
REMARK H PARENT
REMARK Flexibility Score: inf
ROOT
ATOM      1  C   UNL     1     111.991 -82.613  21.958  1.00  0.00     0.000 C 
ENDROOT
BRANCH   1   2
ATOM      2  C   UNL     1     113.236 -83.512  21.856  1.00  0.00     0.000 C 
BRANCH   2   3
ATOM      3  C   UNL     1     113.668 -83.761  20.401  1.00  0.00     0.000 C 
BRANCH   3   4
ATOM      4  C   UNL     1     115.084 -83.242  20.104  1.00  0.00    -0.000 C 
BRANCH   4   5
ATOM      5  C   UNL     1     115.907 -83.133  21.394  1.00  0.00    -0.000 C 
BRANCH   5   6
ATOM      6  C   UNL     1     117.375 -83.511  21.145  1.00  0.00    -0.000 C 
BRANCH   6   7
ATOM      7  C   UNL     1     118.351 -82.391  21.542  1.00  0.00    -0.000 C 
BRANCH   7   8
ATOM      8  C   UNL     1     118.500 -82.246  23.066  1.00  0.00    -0.000 C 
BRANCH   8   9
ATOM      9  C   UNL     1     119.962 -82.427  23.529  1.00  0.00    -0.000 C 
BRANCH   9  10
ATOM     10  C   UNL     1     120.372 -81.475  24.670  1.00  0.00    -0.000 C 
BRANCH  10  11
ATOM     11  C   UNL     1     120.204 -79.981  24.348  1.00  0.00    -0.003 C 
ATOM     12  C   UNL     1     120.948 -79.559  23.081  1.00  0.00     0.004 C 
ENDBRANCH  10  11
ENDBRANCH   9  10
ENDBRANCH   8   9
ENDBRANCH   7   8
ENDBRANCH   6   7
ENDBRANCH   5   6
ENDBRANCH   4   5
ENDBRANCH   3   4
ENDBRANCH   2   3
ENDBRANCH   1   2
BRANCH   1  13
ATOM     13  C   UNL     1     111.744 -81.800  20.677  1.00  0.00     0.000 C 
BRANCH  13  14
ATOM     14  C   UNL     1     111.786 -80.283  20.920  1.00  0.00     0.000 C 
BRANCH  14  15
ATOM     15  C   UNL     1     113.129 -79.863  21.528  1.00  0.00     0.000 C 
BRANCH  15  16
ATOM     16  C   UNL     1     114.012 -79.167  20.485  1.00  0.00     0.000 C 
BRANCH  16  17
ATOM     17  C   UNL     1     115.473 -79.615  20.613  1.00  0.00     0.000 C 
BRANCH  17  18
ATOM     18  C   UNL     1     115.928 -79.600  22.078  1.00  0.00     0.000 C 
BRANCH  18  19
ATOM     19  C   UNL     1     117.207 -78.766  22.246  1.00  0.00     0.000 C 
BRANCH  19  20
ATOM     20  C   UNL     1     116.928 -77.347  22.776  1.00  0.00     0.006 C 
BRANCH  20  21
ATOM     21  C   UNL     1     115.688 -77.239  23.676  1.00  0.00     0.053 C 
BRANCH  21  22
ATOM     22  C   UNL     1     114.809 -76.089  23.290  1.00  0.00     0.041 C 
ATOM     23  O   UNL     1     114.156 -76.124  22.214  1.00  0.00    -0.550 OA
ATOM     24  O   UNL     1     114.744 -74.961  24.099  1.00  0.00    -0.550 OA
ENDBRANCH  21  22
ENDBRANCH  20  21
ENDBRANCH  19  20
ENDBRANCH  18  19
ENDBRANCH  17  18
ENDBRANCH  16  17
ENDBRANCH  15  16
ENDBRANCH  14  15
ENDBRANCH  13  14
ENDBRANCH   1  13
TORSDOF 20
ENDMDL
MODEL 8
REMARK VINA RESULT:    -5.323      2.830      5.263
REMARK INTER + INTRA:         -15.006
REMARK INTER:                 -11.642
REMARK INTRA:                  -3.364
REMARK UNBOUND:                -3.459
REMARK SMILES CCCCCCCCCCCCCCCCCCCCCC(=O)[O-]
REMARK SMILES IDX 12 1 11 2 10 3 9 4 8 5 7 6 6 7 5 8 4 9 3 10 2 11 1 12 13 13
REMARK SMILES IDX 14 14 15 15 16 16 17 17 18 18 19 19 20 20 21 21 22 22 23 23
REMARK SMILES IDX 24 24
REMARK H PARENT
REMARK Flexibility Score: inf
ROOT
ATOM      1  C   UNL     1     105.548 -82.671  18.889  1.00  0.00     0.000 C 
ENDROOT
BRANCH   1   2
ATOM      2  C   UNL     1     104.536 -83.635  19.534  1.00  0.00     0.000 C 
BRANCH   2   3
ATOM      3  C   UNL     1     103.106 -83.068  19.548  1.00  0.00     0.000 C 
BRANCH   3   4
ATOM      4  C   UNL     1     102.254 -83.633  20.696  1.00  0.00    -0.000 C 
BRANCH   4   5
ATOM      5  C   UNL     1     103.065 -83.695  21.997  1.00  0.00    -0.000 C 
BRANCH   5   6
ATOM      6  C   UNL     1     103.283 -82.290  22.577  1.00  0.00    -0.000 C 
BRANCH   6   7
ATOM      7  C   UNL     1     104.689 -82.106  23.172  1.00  0.00    -0.000 C 
BRANCH   7   8
ATOM      8  C   UNL     1     105.363 -83.441  23.529  1.00  0.00    -0.000 C 
BRANCH   8   9
ATOM      9  C   UNL     1     106.809 -83.527  22.993  1.00  0.00    -0.000 C 
BRANCH   9  10
ATOM     10  C   UNL     1     107.880 -83.178  24.045  1.00  0.00    -0.000 C 
BRANCH  10  11
ATOM     11  C   UNL     1     109.214 -82.685  23.461  1.00  0.00    -0.003 C 
ATOM     12  C   UNL     1     109.928 -81.686  24.373  1.00  0.00     0.004 C 
ENDBRANCH  10  11
ENDBRANCH   9  10
ENDBRANCH   8   9
ENDBRANCH   7   8
ENDBRANCH   6   7
ENDBRANCH   5   6
ENDBRANCH   4   5
ENDBRANCH   3   4
ENDBRANCH   2   3
ENDBRANCH   1   2
BRANCH   1  13
ATOM     13  C   UNL     1     106.172 -81.704  19.908  1.00  0.00     0.000 C 
BRANCH  13  14
ATOM     14  C   UNL     1     105.463 -80.341  19.945  1.00  0.00     0.000 C 
BRANCH  14  15
ATOM     15  C   UNL     1     106.263 -79.330  20.774  1.00  0.00     0.000 C 
BRANCH  15  16
ATOM     16  C   UNL     1     107.336 -80.034  21.614  1.00  0.00     0.000 C 
BRANCH  16  17
ATOM     17  C   UNL     1     108.298 -79.018  22.243  1.00  0.00     0.000 C 
BRANCH  17  18
ATOM     18  C   UNL     1     108.955 -78.143  21.169  1.00  0.00     0.000 C 
BRANCH  18  19
ATOM     19  C   UNL     1     110.390 -77.768  21.570  1.00  0.00     0.000 C 
BRANCH  19  20
ATOM     20  C   UNL     1     111.119 -78.906  22.310  1.00  0.00     0.006 C 
BRANCH  20  21
ATOM     21  C   UNL     1     112.324 -79.483  21.552  1.00  0.00     0.053 C 
BRANCH  21  22
ATOM     22  C   UNL     1     112.117 -80.918  21.173  1.00  0.00     0.041 C 
ATOM     23  O   UNL     1     113.075 -81.734  21.236  1.00  0.00    -0.550 OA
ATOM     24  O   UNL     1     110.879 -81.344  20.711  1.00  0.00    -0.550 OA
ENDBRANCH  21  22
ENDBRANCH  20  21
ENDBRANCH  19  20
ENDBRANCH  18  19
ENDBRANCH  17  18
ENDBRANCH  16  17
ENDBRANCH  15  16
ENDBRANCH  14  15
ENDBRANCH  13  14
ENDBRANCH   1  13
TORSDOF 20
ENDMDL
MODEL 9
REMARK VINA RESULT:    -5.279      2.924      5.653
REMARK INTER + INTRA:         -14.912
REMARK INTER:                 -11.581
REMARK INTRA:                  -3.331
REMARK UNBOUND:                -3.459
REMARK SMILES CCCCCCCCCCCCCCCCCCCCCC(=O)[O-]
REMARK SMILES IDX 12 1 11 2 10 3 9 4 8 5 7 6 6 7 5 8 4 9 3 10 2 11 1 12 13 13
REMARK SMILES IDX 14 14 15 15 16 16 17 17 18 18 19 19 20 20 21 21 22 22 23 23
REMARK SMILES IDX 24 24
REMARK H PARENT
REMARK Flexibility Score: inf
ROOT
ATOM      1  C   UNL     1     106.112 -81.534  24.112  1.00  0.00     0.000 C 
ENDROOT
BRANCH   1   2
ATOM      2  C   UNL     1     105.342 -82.698  23.464  1.00  0.00     0.000 C 
BRANCH   2   3
ATOM      3  C   UNL     1     104.037 -82.241  22.792  1.00  0.00     0.000 C 
BRANCH   3   4
ATOM      4  C   UNL     1     103.627 -83.143  21.617  1.00  0.00    -0.000 C 
BRANCH   4   5
ATOM      5  C   UNL     1     104.859 -83.619  20.838  1.00  0.00    -0.000 C 
BRANCH   5   6
ATOM      6  C   UNL     1     104.829 -83.107  19.391  1.00  0.00    -0.000 C 
BRANCH   6   7
ATOM      7  C   UNL     1     105.979 -82.136  19.080  1.00  0.00    -0.000 C 
BRANCH   7   8
ATOM      8  C   UNL     1     106.801 -81.769  20.328  1.00  0.00    -0.000 C 
BRANCH   8   9
ATOM      9  C   UNL     1     106.659 -80.278  20.703  1.00  0.00    -0.000 C 
BRANCH   9  10
ATOM     10  C   UNL     1     105.293 -79.673  20.326  1.00  0.00    -0.000 C 
BRANCH  10  11
ATOM     11  C   UNL     1     105.337 -78.186  19.936  1.00  0.00    -0.003 C 
ATOM     12  C   UNL     1     106.605 -77.483  20.420  1.00  0.00     0.004 C 
ENDBRANCH  10  11
ENDBRANCH   9  10
ENDBRANCH   8   9
ENDBRANCH   7   8
ENDBRANCH   6   7
ENDBRANCH   5   6
ENDBRANCH   4   5
ENDBRANCH   3   4
ENDBRANCH   2   3
ENDBRANCH   1   2
BRANCH   1  13
ATOM     13  C   UNL     1     107.502 -81.954  24.616  1.00  0.00     0.000 C 
BRANCH  13  14
ATOM     14  C   UNL     1     108.167 -83.006  23.714  1.00  0.00     0.000 C 
BRANCH  14  15
ATOM     15  C   UNL     1     109.634 -82.651  23.446  1.00  0.00     0.000 C 
BRANCH  15  16
ATOM     16  C   UNL     1     109.744 -81.456  22.491  1.00  0.00     0.000 C 
BRANCH  16  17
ATOM     17  C   UNL     1     110.546 -80.314  23.128  1.00  0.00     0.000 C 
BRANCH  17  18
ATOM     18  C   UNL     1     110.120 -78.956  22.557  1.00  0.00     0.000 C 
BRANCH  18  19
ATOM     19  C   UNL     1     110.151 -78.973  21.021  1.00  0.00     0.000 C 
BRANCH  19  20
ATOM     20  C   UNL     1     111.138 -77.948  20.433  1.00  0.00     0.006 C 
BRANCH  20  21
ATOM     21  C   UNL     1     112.387 -78.569  19.789  1.00  0.00     0.053 C 
BRANCH  21  22
ATOM     22  C   UNL     1     113.242 -79.284  20.792  1.00  0.00     0.041 C 
ATOM     23  O   UNL     1     113.426 -80.526  20.694  1.00  0.00    -0.550 OA
ATOM     24  O   UNL     1     113.798 -78.586  21.856  1.00  0.00    -0.550 OA
ENDBRANCH  21  22
ENDBRANCH  20  21
ENDBRANCH  19  20
ENDBRANCH  18  19
ENDBRANCH  17  18
ENDBRANCH  16  17
ENDBRANCH  15  16
ENDBRANCH  14  15
ENDBRANCH  13  14
ENDBRANCH   1  13
TORSDOF 20
ENDMDL
