MODEL 1
REMARK VINA RESULT:    -4.875      0.000      0.000
REMARK INTER + INTRA:         -11.386
REMARK INTER:                  -8.010
REMARK INTRA:                  -3.376
REMARK UNBOUND:                -3.376
REMARK SMILES C[C@H]1O[C@@H](OC[C@@H]2O[C@@H](Oc3c(-c4ccc(O)c(O)c4)oc4cc(O)cc(O)c4c3=O)[C@H](O)[C@H](O)[C@H]2O)[C@H](O)[C@@H](O)[C@@H]1O
REMARK SMILES IDX 7 1 36 2 34 3 32 4 9 5 8 6 6 7 5 8 4 9 1 10 2 11 42 12 3 13
REMARK SMILES IDX 40 14 38 15 43 16 41 18 39 20 37 22 35 24 10 26 11 27 12 28
REMARK SMILES IDX 30 29 21 30 29 31 31 32 22 33 27 34 23 35 26 36 24 37 13 38
REMARK SMILES IDX 20 39 14 40 18 41 15 42 16 43 19 44 17 46 28 48 25 50 33 52
REMARK H PARENT 43 17 41 19 39 21 37 23 35 25 19 45 17 47 28 49 25 51 33 53
REMARK Flexibility Score: inf
ROOT
ATOM      1  C   UNL     1     110.570   7.805 -40.256  1.00  0.00     0.180 C 
ATOM      2  C   UNL     1     111.341   7.626 -41.633  1.00  0.00     0.177 C 
ATOM      3  C   UNL     1     112.543   8.564 -41.765  1.00  0.00     0.180 C 
ATOM      4  C   UNL     1     112.636   9.618 -40.562  1.00  0.00     0.214 C 
ATOM      5  C   UNL     1     111.453   9.777 -39.514  1.00  0.00     0.339 C 
ATOM      6  O   UNL     1     110.342   9.159 -40.090  1.00  0.00    -0.332 OA
ENDROOT
BRANCH   1   7
ATOM      7  C   UNL     1     109.187   7.161 -40.142  1.00  0.00     0.198 C 
BRANCH   7   8
ATOM      8  O   UNL     1     109.065   5.877 -40.830  1.00  0.00    -0.347 OA
BRANCH   8   9
ATOM      9  C   UNL     1     108.840   4.729 -40.051  1.00  0.00     0.281 C 
ATOM     10  C   UNL     1     105.875   5.077 -37.909  1.00  0.00     0.041 C 
ATOM     11  C   UNL     1     107.231   4.334 -38.206  1.00  0.00     0.150 C 
ATOM     12  C   UNL     1     108.247   4.468 -37.052  1.00  0.00     0.174 C 
ATOM     13  O   UNL     1     107.582   4.795 -39.499  1.00  0.00    -0.344 OA
ATOM     14  C   UNL     1     109.765   4.285 -37.494  1.00  0.00     0.179 C 
ATOM     15  C   UNL     1     109.984   4.560 -38.979  1.00  0.00     0.202 C 
BRANCH  12  16
ATOM     16  O   UNL     1     107.861   3.543 -36.036  1.00  0.00    -0.388 OA
ATOM     17  H   UNL     1     106.950   3.811 -35.679  1.00  0.00     0.211 HD
ENDBRANCH  12  16
BRANCH  14  18
ATOM     18  O   UNL     1     110.572   5.225 -36.754  1.00  0.00    -0.387 OA
ATOM     19  H   UNL     1     110.177   6.175 -36.954  1.00  0.00     0.211 HD
ENDBRANCH  14  18
BRANCH  15  20
ATOM     20  O   UNL     1     111.075   3.727 -39.465  1.00  0.00    -0.385 OA
ATOM     21  H   UNL     1     111.944   3.937 -38.962  1.00  0.00     0.211 HD
ENDBRANCH  15  20
ENDBRANCH   8   9
ENDBRANCH   7   8
ENDBRANCH   1   7
BRANCH   2  22
ATOM     22  O   UNL     1     111.694   6.280 -41.690  1.00  0.00    -0.387 OA
ATOM     23  H   UNL     1     112.205   5.998 -40.842  1.00  0.00     0.211 HD
ENDBRANCH   2  22
BRANCH   3  24
ATOM     24  O   UNL     1     112.590   9.156 -43.065  1.00  0.00    -0.387 OA
ATOM     25  H   UNL     1     111.886   9.852 -43.107  1.00  0.00     0.211 HD
ENDBRANCH   3  24
BRANCH   5  26
ATOM     26  O   UNL     1     111.669   9.371 -38.134  1.00  0.00    -0.454 OA
BRANCH  26  27
ATOM     27  C   UNL     1     111.012   9.854 -36.937  1.00  0.00     0.214 A 
ATOM     28  C   UNL     1     111.491  10.863 -36.059  1.00  0.00     0.180 A 
ATOM     29  C   UNL     1     109.701   9.337 -36.654  1.00  0.00     0.239 A 
ATOM     30  O   UNL     1     110.568  11.572 -35.346  1.00  0.00    -0.452 OA
ATOM     31  C   UNL     1     108.783  10.174 -35.979  1.00  0.00     0.111 A 
ATOM     32  O   UNL     1     109.486   8.057 -36.774  1.00  0.00    -0.285 OA
ATOM     33  C   UNL     1     109.316  11.272 -35.295  1.00  0.00     0.146 A 
ATOM     34  C   UNL     1     107.397  10.038 -35.943  1.00  0.00     0.134 A 
ATOM     35  C   UNL     1     108.538  12.028 -34.407  1.00  0.00     0.094 A 
ATOM     36  C   UNL     1     106.576  10.934 -35.163  1.00  0.00     0.093 A 
ATOM     37  C   UNL     1     107.172  11.933 -34.361  1.00  0.00     0.123 A 
BRANCH  28  38
ATOM     38  C   UNL     1     112.824  11.238 -35.539  1.00  0.00     0.025 A 
ATOM     39  C   UNL     1     113.119  12.256 -36.385  1.00  0.00     0.062 A 
ATOM     40  C   UNL     1     113.825  10.194 -35.658  1.00  0.00     0.016 A 
ATOM     41  C   UNL     1     113.691  12.047 -37.641  1.00  0.00     0.158 A 
ATOM     42  C   UNL     1     114.628  10.003 -36.815  1.00  0.00     0.051 A 
ATOM     43  C   UNL     1     114.551  10.969 -37.815  1.00  0.00     0.157 A 
BRANCH  41  44
ATOM     44  O   UNL     1     113.350  12.916 -38.749  1.00  0.00    -0.504 OA
ATOM     45  H   UNL     1     113.877  12.847 -39.573  1.00  0.00     0.293 HD
ENDBRANCH  41  44
BRANCH  43  46
ATOM     46  O   UNL     1     115.525  11.034 -38.781  1.00  0.00    -0.504 OA
ATOM     47  H   UNL     1     115.340  11.525 -39.641  1.00  0.00     0.293 HD
ENDBRANCH  43  46
ENDBRANCH  28  38
BRANCH  34  48
ATOM     48  O   UNL     1     106.761   8.959 -36.654  1.00  0.00    -0.507 OA
ATOM     49  H   UNL     1     106.393   8.162 -36.132  1.00  0.00     0.293 HD
ENDBRANCH  34  48
BRANCH  37  50
ATOM     50  O   UNL     1     106.456  12.919 -33.631  1.00  0.00    -0.508 OA
ATOM     51  H   UNL     1     107.101  13.601 -33.155  1.00  0.00     0.293 HD
ENDBRANCH  37  50
ENDBRANCH  26  27
ENDBRANCH   5  26
BRANCH   4  52
ATOM     52  O   UNL     1     113.240  10.887 -40.908  1.00  0.00    -0.384 OA
ATOM     53  H   UNL     1     113.889  10.777 -41.648  1.00  0.00     0.211 HD
ENDBRANCH   4  52
TORSDOF 16
ENDMDL
MODEL 2
REMARK VINA RESULT:    -4.826      2.166      7.133
REMARK INTER + INTRA:         -11.304
REMARK INTER:                  -8.196
REMARK INTRA:                  -3.109
REMARK UNBOUND:                -3.376
REMARK SMILES C[C@H]1O[C@@H](OC[C@@H]2O[C@@H](Oc3c(-c4ccc(O)c(O)c4)oc4cc(O)cc(O)c4c3=O)[C@H](O)[C@H](O)[C@H]2O)[C@H](O)[C@@H](O)[C@@H]1O
REMARK SMILES IDX 7 1 36 2 34 3 32 4 9 5 8 6 6 7 5 8 4 9 1 10 2 11 42 12 3 13
REMARK SMILES IDX 40 14 38 15 43 16 41 18 39 20 37 22 35 24 10 26 11 27 12 28
REMARK SMILES IDX 30 29 21 30 29 31 31 32 22 33 27 34 23 35 26 36 24 37 13 38
REMARK SMILES IDX 20 39 14 40 18 41 15 42 16 43 19 44 17 46 28 48 25 50 33 52
REMARK H PARENT 43 17 41 19 39 21 37 23 35 25 19 45 17 47 28 49 25 51 33 53
REMARK Flexibility Score: inf
ROOT
ATOM      1  C   UNL     1     111.761   9.456 -39.290  1.00  0.00     0.180 C 
ATOM      2  C   UNL     1     112.292   9.943 -40.706  1.00  0.00     0.177 C 
ATOM      3  C   UNL     1     111.801   9.061 -41.857  1.00  0.00     0.180 C 
ATOM      4  C   UNL     1     111.013   7.763 -41.345  1.00  0.00     0.214 C 
ATOM      5  C   UNL     1     110.987   7.370 -39.807  1.00  0.00     0.339 C 
ATOM      6  O   UNL     1     112.014   8.099 -39.205  1.00  0.00    -0.332 OA
ENDROOT
BRANCH   1   7
ATOM      7  C   UNL     1     112.430  10.055 -38.051  1.00  0.00     0.198 C 
BRANCH   7   8
ATOM      8  O   UNL     1     112.666  11.495 -38.135  1.00  0.00    -0.347 OA
BRANCH   8   9
ATOM      9  C   UNL     1     113.990  11.955 -38.025  1.00  0.00     0.281 C 
ATOM     10  C   UNL     1     115.705  11.998 -41.274  1.00  0.00     0.041 C 
ATOM     11  C   UNL     1     115.815  11.998 -39.704  1.00  0.00     0.150 C 
ATOM     12  C   UNL     1     116.585  10.776 -39.161  1.00  0.00     0.174 C 
ATOM     13  O   UNL     1     114.481  12.224 -39.281  1.00  0.00    -0.344 OA
ATOM     14  C   UNL     1     116.233  10.398 -37.655  1.00  0.00     0.179 C 
ATOM     15  C   UNL     1     114.866  10.920 -37.221  1.00  0.00     0.202 C 
BRANCH  12  16
ATOM     16  O   UNL     1     117.977  11.033 -39.345  1.00  0.00    -0.388 OA
ATOM     17  H   UNL     1     118.428  11.058 -38.436  1.00  0.00     0.211 HD
ENDBRANCH  12  16
BRANCH  14  18
ATOM     18  O   UNL     1     116.206   8.959 -37.541  1.00  0.00    -0.387 OA
ATOM     19  H   UNL     1     116.850   8.592 -38.281  1.00  0.00     0.211 HD
ENDBRANCH  14  18
BRANCH  15  20
ATOM     20  O   UNL     1     114.897  11.215 -35.795  1.00  0.00    -0.385 OA
ATOM     21  H   UNL     1     115.705  10.768 -35.349  1.00  0.00     0.211 HD
ENDBRANCH  15  20
ENDBRANCH   8   9
ENDBRANCH   7   8
ENDBRANCH   1   7
BRANCH   2  22
ATOM     22  O   UNL     1     111.880  11.268 -40.824  1.00  0.00    -0.387 OA
ATOM     23  H   UNL     1     111.033  11.439 -40.264  1.00  0.00     0.211 HD
ENDBRANCH   2  22
BRANCH   3  24
ATOM     24  O   UNL     1     112.862   8.777 -42.772  1.00  0.00    -0.387 OA
ATOM     25  H   UNL     1     112.618   9.166 -43.649  1.00  0.00     0.211 HD
ENDBRANCH   3  24
BRANCH   5  26
ATOM     26  O   UNL     1     109.733   7.455 -39.074  1.00  0.00    -0.454 OA
BRANCH  26  27
ATOM     27  C   UNL     1     109.466   7.100 -37.696  1.00  0.00     0.214 A 
ATOM     28  C   UNL     1     109.182   5.800 -37.199  1.00  0.00     0.180 A 
ATOM     29  C   UNL     1     109.595   8.141 -36.713  1.00  0.00     0.239 A 
ATOM     30  O   UNL     1     109.500   5.537 -35.898  1.00  0.00    -0.452 OA
ATOM     31  C   UNL     1     110.006   7.782 -35.409  1.00  0.00     0.111 A 
ATOM     32  O   UNL     1     109.079   9.312 -36.961  1.00  0.00    -0.285 OA
ATOM     33  C   UNL     1     109.882   6.434 -35.056  1.00  0.00     0.146 A 
ATOM     34  C   UNL     1     110.551   8.625 -34.442  1.00  0.00     0.134 A 
ATOM     35  C   UNL     1     110.036   6.008 -33.730  1.00  0.00     0.094 A 
ATOM     36  C   UNL     1     110.877   8.139 -33.122  1.00  0.00     0.093 A 
ATOM     37  C   UNL     1     110.585   6.805 -32.759  1.00  0.00     0.123 A 
BRANCH  28  38
ATOM     38  C   UNL     1     108.406   4.644 -37.700  1.00  0.00     0.025 A 
ATOM     39  C   UNL     1     109.425   3.826 -38.062  1.00  0.00     0.062 A 
ATOM     40  C   UNL     1     107.577   4.939 -38.854  1.00  0.00     0.016 A 
ATOM     41  C   UNL     1     110.054   3.916 -39.305  1.00  0.00     0.158 A 
ATOM     42  C   UNL     1     108.042   4.865 -40.195  1.00  0.00     0.051 A 
ATOM     43  C   UNL     1     109.310   4.328 -40.405  1.00  0.00     0.157 A 
BRANCH  41  44
ATOM     44  O   UNL     1     111.468   3.629 -39.427  1.00  0.00    -0.504 OA
ATOM     45  H   UNL     1     112.047   3.807 -38.656  1.00  0.00     0.293 HD
ENDBRANCH  41  44
BRANCH  43  46
ATOM     46  O   UNL     1     109.679   3.914 -41.661  1.00  0.00    -0.504 OA
ATOM     47  H   UNL     1     109.085   3.279 -42.168  1.00  0.00     0.293 HD
ENDBRANCH  43  46
ENDBRANCH  28  38
BRANCH  34  48
ATOM     48  O   UNL     1     110.752  10.021 -34.735  1.00  0.00    -0.507 OA
ATOM     49  H   UNL     1     111.339  10.584 -34.117  1.00  0.00     0.293 HD
ENDBRANCH  34  48
BRANCH  37  50
ATOM     50  O   UNL     1     110.946   6.204 -31.525  1.00  0.00    -0.508 OA
ATOM     51  H   UNL     1     110.154   5.650 -31.110  1.00  0.00     0.293 HD
ENDBRANCH  37  50
ENDBRANCH  26  27
ENDBRANCH   5  26
BRANCH   4  52
ATOM     52  O   UNL     1     111.118   6.606 -42.209  1.00  0.00    -0.384 OA
ATOM     53  H   UNL     1     110.688   5.818 -41.794  1.00  0.00     0.211 HD
ENDBRANCH   4  52
TORSDOF 16
ENDMDL
MODEL 3
REMARK VINA RESULT:    -4.713      2.943      6.890
REMARK INTER + INTRA:         -11.120
REMARK INTER:                  -7.647
REMARK INTRA:                  -3.472
REMARK UNBOUND:                -3.376
REMARK SMILES C[C@H]1O[C@@H](OC[C@@H]2O[C@@H](Oc3c(-c4ccc(O)c(O)c4)oc4cc(O)cc(O)c4c3=O)[C@H](O)[C@H](O)[C@H]2O)[C@H](O)[C@@H](O)[C@@H]1O
REMARK SMILES IDX 7 1 36 2 34 3 32 4 9 5 8 6 6 7 5 8 4 9 1 10 2 11 42 12 3 13
REMARK SMILES IDX 40 14 38 15 43 16 41 18 39 20 37 22 35 24 10 26 11 27 12 28
REMARK SMILES IDX 30 29 21 30 29 31 31 32 22 33 27 34 23 35 26 36 24 37 13 38
REMARK SMILES IDX 20 39 14 40 18 41 15 42 16 43 19 44 17 46 28 48 25 50 33 52
REMARK H PARENT 43 17 41 19 39 21 37 23 35 25 19 45 17 47 28 49 25 51 33 53
REMARK Flexibility Score: inf
ROOT
ATOM      1  C   UNL     1     111.672   8.501 -36.513  1.00  0.00     0.180 C 
ATOM      2  C   UNL     1     110.756   7.443 -35.761  1.00  0.00     0.177 C 
ATOM      3  C   UNL     1     111.567   6.377 -35.023  1.00  0.00     0.180 C 
ATOM      4  C   UNL     1     113.137   6.479 -35.324  1.00  0.00     0.214 C 
ATOM      5  C   UNL     1     113.697   7.445 -36.452  1.00  0.00     0.339 C 
ATOM      6  O   UNL     1     112.601   7.786 -37.247  1.00  0.00    -0.332 OA
ENDROOT
BRANCH   1   7
ATOM      7  C   UNL     1     110.990   9.415 -37.533  1.00  0.00     0.198 C 
BRANCH   7   8
ATOM      8  O   UNL     1     111.639   9.440 -38.843  1.00  0.00    -0.347 OA
BRANCH   8   9
ATOM      9  C   UNL     1     110.824   9.370 -39.986  1.00  0.00     0.281 C 
ATOM     10  C   UNL     1     108.573   6.467 -39.895  1.00  0.00     0.041 C 
ATOM     11  C   UNL     1     109.287   7.581 -40.750  1.00  0.00     0.150 C 
ATOM     12  C   UNL     1     110.219   6.994 -41.831  1.00  0.00     0.174 C 
ATOM     13  O   UNL     1     109.820   8.455 -39.771  1.00  0.00    -0.344 OA
ATOM     14  C   UNL     1     111.377   7.981 -42.300  1.00  0.00     0.179 C 
ATOM     15  C   UNL     1     111.695   9.053 -41.261  1.00  0.00     0.202 C 
BRANCH  12  16
ATOM     16  O   UNL     1     109.397   6.565 -42.916  1.00  0.00    -0.388 OA
ATOM     17  H   UNL     1     108.532   6.191 -42.541  1.00  0.00     0.211 HD
ENDBRANCH  12  16
BRANCH  14  18
ATOM     18  O   UNL     1     112.578   7.209 -42.510  1.00  0.00    -0.387 OA
ATOM     19  H   UNL     1     112.827   6.792 -41.580  1.00  0.00     0.211 HD
ENDBRANCH  14  18
BRANCH  15  20
ATOM     20  O   UNL     1     112.136  10.263 -41.942  1.00  0.00    -0.385 OA
ATOM     21  H   UNL     1     111.570  11.068 -41.654  1.00  0.00     0.211 HD
ENDBRANCH  15  20
ENDBRANCH   8   9
ENDBRANCH   7   8
ENDBRANCH   1   7
BRANCH   2  22
ATOM     22  O   UNL     1     109.942   8.190 -34.913  1.00  0.00    -0.387 OA
ATOM     23  H   UNL     1     109.070   7.685 -34.704  1.00  0.00     0.211 HD
ENDBRANCH   2  22
BRANCH   3  24
ATOM     24  O   UNL     1     111.015   5.076 -35.238  1.00  0.00    -0.387 OA
ATOM     25  H   UNL     1     110.083   5.189 -35.553  1.00  0.00     0.211 HD
ENDBRANCH   3  24
BRANCH   5  26
ATOM     26  O   UNL     1     114.492   8.601 -36.067  1.00  0.00    -0.454 OA
BRANCH  26  27
ATOM     27  C   UNL     1     115.333   9.437 -36.899  1.00  0.00     0.214 A 
ATOM     28  C   UNL     1     116.718   9.251 -37.158  1.00  0.00     0.180 A 
ATOM     29  C   UNL     1     114.693  10.507 -37.614  1.00  0.00     0.239 A 
ATOM     30  O   UNL     1     117.213   9.740 -38.331  1.00  0.00    -0.452 OA
ATOM     31  C   UNL     1     115.233  10.894 -38.862  1.00  0.00     0.111 A 
ATOM     32  O   UNL     1     113.827  11.256 -36.990  1.00  0.00    -0.285 OA
ATOM     33  C   UNL     1     116.547  10.499 -39.132  1.00  0.00     0.146 A 
ATOM     34  C   UNL     1     114.584  11.608 -39.868  1.00  0.00     0.134 A 
ATOM     35  C   UNL     1     117.257  11.018 -40.222  1.00  0.00     0.094 A 
ATOM     36  C   UNL     1     115.273  11.991 -41.078  1.00  0.00     0.093 A 
ATOM     37  C   UNL     1     116.648  11.706 -41.238  1.00  0.00     0.123 A 
BRANCH  28  38
ATOM     38  C   UNL     1     117.873   8.805 -36.349  1.00  0.00     0.025 A 
ATOM     39  C   UNL     1     118.112   7.606 -36.936  1.00  0.00     0.062 A 
ATOM     40  C   UNL     1     117.577   8.614 -34.941  1.00  0.00     0.016 A 
ATOM     41  C   UNL     1     117.435   6.443 -36.569  1.00  0.00     0.158 A 
ATOM     42  C   UNL     1     117.075   7.399 -34.402  1.00  0.00     0.051 A 
ATOM     43  C   UNL     1     117.019   6.296 -35.250  1.00  0.00     0.157 A 
BRANCH  41  44
ATOM     44  O   UNL     1     117.132   5.433 -37.563  1.00  0.00    -0.504 OA
ATOM     45  H   UNL     1     116.754   5.724 -38.420  1.00  0.00     0.293 HD
ENDBRANCH  41  44
BRANCH  43  46
ATOM     46  O   UNL     1     116.877   5.035 -34.725  1.00  0.00    -0.504 OA
ATOM     47  H   UNL     1     117.545   4.700 -34.050  1.00  0.00     0.293 HD
ENDBRANCH  43  46
ENDBRANCH  28  38
BRANCH  34  48
ATOM     48  O   UNL     1     113.215  12.020 -39.691  1.00  0.00    -0.507 OA
ATOM     49  H   UNL     1     113.007  13.002 -39.506  1.00  0.00     0.293 HD
ENDBRANCH  34  48
BRANCH  37  50
ATOM     50  O   UNL     1     117.394  11.956 -42.420  1.00  0.00    -0.508 OA
ATOM     51  H   UNL     1     118.201  12.608 -42.245  1.00  0.00     0.293 HD
ENDBRANCH  37  50
ENDBRANCH  26  27
ENDBRANCH   5  26
BRANCH   4  52
ATOM     52  O   UNL     1     113.853   5.222 -35.269  1.00  0.00    -0.384 OA
ATOM     53  H   UNL     1     114.123   4.932 -36.175  1.00  0.00     0.211 HD
ENDBRANCH   4  52
TORSDOF 16
ENDMDL
MODEL 4
REMARK VINA RESULT:    -4.701      2.372      5.084
REMARK INTER + INTRA:         -11.100
REMARK INTER:                  -7.167
REMARK INTRA:                  -3.933
REMARK UNBOUND:                -3.376
REMARK SMILES C[C@H]1O[C@@H](OC[C@@H]2O[C@@H](Oc3c(-c4ccc(O)c(O)c4)oc4cc(O)cc(O)c4c3=O)[C@H](O)[C@H](O)[C@H]2O)[C@H](O)[C@@H](O)[C@@H]1O
REMARK SMILES IDX 7 1 36 2 34 3 32 4 9 5 8 6 6 7 5 8 4 9 1 10 2 11 42 12 3 13
REMARK SMILES IDX 40 14 38 15 43 16 41 18 39 20 37 22 35 24 10 26 11 27 12 28
REMARK SMILES IDX 30 29 21 30 29 31 31 32 22 33 27 34 23 35 26 36 24 37 13 38
REMARK SMILES IDX 20 39 14 40 18 41 15 42 16 43 19 44 17 46 28 48 25 50 33 52
REMARK H PARENT 43 17 41 19 39 21 37 23 35 25 19 45 17 47 28 49 25 51 33 53
REMARK Flexibility Score: inf
ROOT
ATOM      1  C   UNL     1     110.151   7.277 -40.111  1.00  0.00     0.180 C 
ATOM      2  C   UNL     1     111.088   7.262 -41.394  1.00  0.00     0.177 C 
ATOM      3  C   UNL     1     112.004   8.485 -41.471  1.00  0.00     0.180 C 
ATOM      4  C   UNL     1     111.682   9.569 -40.335  1.00  0.00     0.214 C 
ATOM      5  C   UNL     1     110.393   9.440 -39.417  1.00  0.00     0.339 C 
ATOM      6  O   UNL     1     109.555   8.523 -40.055  1.00  0.00    -0.332 OA
ENDROOT
BRANCH   1   7
ATOM      7  C   UNL     1     108.985   6.287 -40.087  1.00  0.00     0.198 C 
BRANCH   7   8
ATOM      8  O   UNL     1     108.667   5.766 -38.759  1.00  0.00    -0.347 OA
BRANCH   8   9
ATOM      9  C   UNL     1     107.557   6.304 -38.085  1.00  0.00     0.281 C 
ATOM     10  C   UNL     1     106.127   9.180 -39.868  1.00  0.00     0.041 C 
ATOM     11  C   UNL     1     106.269   8.377 -38.521  1.00  0.00     0.150 C 
ATOM     12  C   UNL     1     106.898   9.219 -37.391  1.00  0.00     0.174 C 
ATOM     13  O   UNL     1     106.896   7.171 -38.922  1.00  0.00    -0.344 OA
ATOM     14  C   UNL     1     107.602   8.359 -36.251  1.00  0.00     0.179 C 
ATOM     15  C   UNL     1     108.009   6.967 -36.728  1.00  0.00     0.202 C 
BRANCH  12  16
ATOM     16  O   UNL     1     105.876  10.072 -36.876  1.00  0.00    -0.388 OA
ATOM     17  H   UNL     1     104.981   9.769 -37.245  1.00  0.00     0.211 HD
ENDBRANCH  12  16
BRANCH  14  18
ATOM     18  O   UNL     1     108.803   9.045 -35.838  1.00  0.00    -0.387 OA
ATOM     19  H   UNL     1     109.255   9.402 -36.713  1.00  0.00     0.211 HD
ENDBRANCH  14  18
BRANCH  15  20
ATOM     20  O   UNL     1     107.937   6.038 -35.609  1.00  0.00    -0.385 OA
ATOM     21  H   UNL     1     108.409   5.157 -35.838  1.00  0.00     0.211 HD
ENDBRANCH  15  20
ENDBRANCH   8   9
ENDBRANCH   7   8
ENDBRANCH   1   7
BRANCH   2  22
ATOM     22  O   UNL     1     111.789   6.061 -41.330  1.00  0.00    -0.387 OA
ATOM     23  H   UNL     1     112.634   6.160 -40.750  1.00  0.00     0.211 HD
ENDBRANCH   2  22
BRANCH   3  24
ATOM     24  O   UNL     1     112.033   9.019 -42.796  1.00  0.00    -0.387 OA
ATOM     25  H   UNL     1     112.505   9.890 -42.762  1.00  0.00     0.211 HD
ENDBRANCH   3  24
BRANCH   5  26
ATOM     26  O   UNL     1     110.557   9.158 -37.999  1.00  0.00    -0.454 OA
BRANCH  26  27
ATOM     27  C   UNL     1     111.771   9.177 -37.209  1.00  0.00     0.214 A 
ATOM     28  C   UNL     1     112.725   8.129 -37.102  1.00  0.00     0.180 A 
ATOM     29  C   UNL     1     112.100  10.406 -36.540  1.00  0.00     0.239 A 
ATOM     30  O   UNL     1     114.012   8.475 -36.806  1.00  0.00    -0.452 OA
ATOM     31  C   UNL     1     113.466  10.717 -36.347  1.00  0.00     0.111 A 
ATOM     32  O   UNL     1     111.163  11.049 -35.902  1.00  0.00    -0.285 OA
ATOM     33  C   UNL     1     114.376   9.660 -36.456  1.00  0.00     0.146 A 
ATOM     34  C   UNL     1     114.007  11.974 -36.086  1.00  0.00     0.134 A 
ATOM     35  C   UNL     1     115.712   9.802 -36.059  1.00  0.00     0.094 A 
ATOM     36  C   UNL     1     115.422  12.145 -35.851  1.00  0.00     0.093 A 
ATOM     37  C   UNL     1     116.282  11.024 -35.813  1.00  0.00     0.123 A 
BRANCH  28  38
ATOM     38  C   UNL     1     112.643   6.654 -37.034  1.00  0.00     0.025 A 
ATOM     39  C   UNL     1     111.512   6.524 -36.297  1.00  0.00     0.062 A 
ATOM     40  C   UNL     1     113.755   6.027 -36.346  1.00  0.00     0.016 A 
ATOM     41  C   UNL     1     111.517   6.566 -34.902  1.00  0.00     0.158 A 
ATOM     42  C   UNL     1     113.793   5.819 -34.940  1.00  0.00     0.051 A 
ATOM     43  C   UNL     1     112.633   6.093 -34.220  1.00  0.00     0.157 A 
BRANCH  41  44
ATOM     44  O   UNL     1     110.394   7.138 -34.188  1.00  0.00    -0.504 OA
ATOM     45  H   UNL     1     109.512   6.725 -34.300  1.00  0.00     0.293 HD
ENDBRANCH  41  44
BRANCH  43  46
ATOM     46  O   UNL     1     112.485   5.602 -32.947  1.00  0.00    -0.504 OA
ATOM     47  H   UNL     1     111.564   5.520 -32.550  1.00  0.00     0.293 HD
ENDBRANCH  43  46
ENDBRANCH  28  38
BRANCH  34  48
ATOM     48  O   UNL     1     113.147  13.125 -35.998  1.00  0.00    -0.507 OA
ATOM     49  H   UNL     1     113.559  14.059 -35.982  1.00  0.00     0.293 HD
ENDBRANCH  34  48
BRANCH  37  50
ATOM     50  O   UNL     1     117.694  11.090 -35.681  1.00  0.00    -0.508 OA
ATOM     51  H   UNL     1     118.166  10.237 -36.077  1.00  0.00     0.293 HD
ENDBRANCH  37  50
ENDBRANCH  26  27
ENDBRANCH   5  26
BRANCH   4  52
ATOM     52  O   UNL     1     111.962  10.940 -40.704  1.00  0.00    -0.384 OA
ATOM     53  H   UNL     1     111.141  11.395 -41.017  1.00  0.00     0.211 HD
ENDBRANCH   4  52
TORSDOF 16
ENDMDL
MODEL 5
REMARK VINA RESULT:    -4.685      1.982      7.087
REMARK INTER + INTRA:         -11.073
REMARK INTER:                  -7.942
REMARK INTRA:                  -3.131
REMARK UNBOUND:                -3.376
REMARK SMILES C[C@H]1O[C@@H](OC[C@@H]2O[C@@H](Oc3c(-c4ccc(O)c(O)c4)oc4cc(O)cc(O)c4c3=O)[C@H](O)[C@H](O)[C@H]2O)[C@H](O)[C@@H](O)[C@@H]1O
REMARK SMILES IDX 7 1 36 2 34 3 32 4 9 5 8 6 6 7 5 8 4 9 1 10 2 11 42 12 3 13
REMARK SMILES IDX 40 14 38 15 43 16 41 18 39 20 37 22 35 24 10 26 11 27 12 28
REMARK SMILES IDX 30 29 21 30 29 31 31 32 22 33 27 34 23 35 26 36 24 37 13 38
REMARK SMILES IDX 20 39 14 40 18 41 15 42 16 43 19 44 17 46 28 48 25 50 33 52
REMARK H PARENT 43 17 41 19 39 21 37 23 35 25 19 45 17 47 28 49 25 51 33 53
REMARK Flexibility Score: inf
ROOT
ATOM      1  C   UNL     1     110.610   5.161 -38.524  1.00  0.00     0.180 C 
ATOM      2  C   UNL     1     110.847   3.619 -38.224  1.00  0.00     0.177 C 
ATOM      3  C   UNL     1     109.581   2.779 -38.406  1.00  0.00     0.180 C 
ATOM      4  C   UNL     1     108.283   3.675 -38.688  1.00  0.00     0.214 C 
ATOM      5  C   UNL     1     108.328   5.256 -38.543  1.00  0.00     0.339 C 
ATOM      6  O   UNL     1     109.485   5.544 -37.817  1.00  0.00    -0.332 OA
ENDROOT
BRANCH   1   7
ATOM      7  C   UNL     1     111.702   6.135 -38.075  1.00  0.00     0.198 C 
BRANCH   7   8
ATOM      8  O   UNL     1     111.198   7.332 -37.404  1.00  0.00    -0.347 OA
BRANCH   8   9
ATOM      9  C   UNL     1     112.003   7.924 -36.416  1.00  0.00     0.281 C 
ATOM     10  C   UNL     1     110.971  11.373 -35.684  1.00  0.00     0.041 C 
ATOM     11  C   UNL     1     112.090  10.269 -35.613  1.00  0.00     0.150 C 
ATOM     12  C   UNL     1     113.371  10.670 -36.375  1.00  0.00     0.174 C 
ATOM     13  O   UNL     1     111.406   9.083 -35.979  1.00  0.00    -0.344 OA
ATOM     14  C   UNL     1     114.264   9.440 -36.847  1.00  0.00     0.179 C 
ATOM     15  C   UNL     1     113.467   8.142 -36.960  1.00  0.00     0.202 C 
BRANCH  12  16
ATOM     16  O   UNL     1     114.093  11.579 -35.545  1.00  0.00    -0.388 OA
ATOM     17  H   UNL     1     115.085  11.389 -35.638  1.00  0.00     0.211 HD
ENDBRANCH  12  16
BRANCH  14  18
ATOM     18  O   UNL     1     114.798   9.737 -38.154  1.00  0.00    -0.387 OA
ATOM     19  H   UNL     1     115.695  10.256 -37.995  1.00  0.00     0.211 HD
ENDBRANCH  14  18
BRANCH  15  20
ATOM     20  O   UNL     1     114.340   7.016 -36.659  1.00  0.00    -0.385 OA
ATOM     21  H   UNL     1     115.302   7.214 -36.954  1.00  0.00     0.211 HD
ENDBRANCH  15  20
ENDBRANCH   8   9
ENDBRANCH   7   8
ENDBRANCH   1   7
BRANCH   2  22
ATOM     22  O   UNL     1     111.883   3.230 -39.070  1.00  0.00    -0.387 OA
ATOM     23  H   UNL     1     111.926   2.204 -39.148  1.00  0.00     0.211 HD
ENDBRANCH   2  22
BRANCH   3  24
ATOM     24  O   UNL     1     109.427   1.849 -37.333  1.00  0.00    -0.387 OA
ATOM     25  H   UNL     1     110.276   1.347 -37.241  1.00  0.00     0.211 HD
ENDBRANCH   3  24
BRANCH   5  26
ATOM     26  O   UNL     1     108.191   6.081 -39.734  1.00  0.00    -0.454 OA
BRANCH  26  27
ATOM     27  C   UNL     1     108.836   7.342 -40.038  1.00  0.00     0.214 A 
ATOM     28  C   UNL     1     108.679   8.564 -39.329  1.00  0.00     0.180 A 
ATOM     29  C   UNL     1     109.806   7.344 -41.098  1.00  0.00     0.239 A 
ATOM     30  O   UNL     1     109.712   9.455 -39.369  1.00  0.00    -0.452 OA
ATOM     31  C   UNL     1     110.887   8.252 -41.014  1.00  0.00     0.111 A 
ATOM     32  O   UNL     1     109.527   6.726 -42.212  1.00  0.00    -0.285 OA
ATOM     33  C   UNL     1     110.738   9.332 -40.137  1.00  0.00     0.146 A 
ATOM     34  C   UNL     1     112.101   8.171 -41.693  1.00  0.00     0.134 A 
ATOM     35  C   UNL     1     111.635  10.408 -40.145  1.00  0.00     0.094 A 
ATOM     36  C   UNL     1     113.104   9.202 -41.561  1.00  0.00     0.093 A 
ATOM     37  C   UNL     1     112.845  10.355 -40.786  1.00  0.00     0.123 A 
BRANCH  28  38
ATOM     38  C   UNL     1     107.539   9.246 -38.678  1.00  0.00     0.025 A 
ATOM     39  C   UNL     1     107.978   9.245 -37.395  1.00  0.00     0.062 A 
ATOM     40  C   UNL     1     106.283   8.525 -38.770  1.00  0.00     0.016 A 
ATOM     41  C   UNL     1     107.790   8.160 -36.538  1.00  0.00     0.158 A 
ATOM     42  C   UNL     1     105.875   7.535 -37.836  1.00  0.00     0.051 A 
ATOM     43  C   UNL     1     106.656   7.370 -36.694  1.00  0.00     0.157 A 
BRANCH  41  44
ATOM     44  O   UNL     1     108.788   7.841 -35.538  1.00  0.00    -0.504 OA
ATOM     45  H   UNL     1     109.435   8.535 -35.290  1.00  0.00     0.293 HD
ENDBRANCH  41  44
BRANCH  43  46
ATOM     46  O   UNL     1     106.151   6.695 -35.610  1.00  0.00    -0.504 OA
ATOM     47  H   UNL     1     105.154   6.658 -35.469  1.00  0.00     0.293 HD
ENDBRANCH  43  46
ENDBRANCH  28  38
BRANCH  34  48
ATOM     48  O   UNL     1     112.355   7.070 -42.585  1.00  0.00    -0.507 OA
ATOM     49  H   UNL     1     112.323   7.223 -43.594  1.00  0.00     0.293 HD
ENDBRANCH  34  48
BRANCH  37  50
ATOM     50  O   UNL     1     113.791  11.379 -40.517  1.00  0.00    -0.508 OA
ATOM     51  H   UNL     1     113.326  12.280 -40.235  1.00  0.00     0.293 HD
ENDBRANCH  37  50
ENDBRANCH  26  27
ENDBRANCH   5  26
BRANCH   4  52
ATOM     52  O   UNL     1     107.038   3.113 -38.210  1.00  0.00    -0.384 OA
ATOM     53  H   UNL     1     106.341   3.811 -38.141  1.00  0.00     0.211 HD
ENDBRANCH   4  52
TORSDOF 16
ENDMDL
MODEL 6
REMARK VINA RESULT:    -4.684      2.292      7.089
REMARK INTER + INTRA:         -11.072
REMARK INTER:                  -7.735
REMARK INTRA:                  -3.336
REMARK UNBOUND:                -3.376
REMARK SMILES C[C@H]1O[C@@H](OC[C@@H]2O[C@@H](Oc3c(-c4ccc(O)c(O)c4)oc4cc(O)cc(O)c4c3=O)[C@H](O)[C@H](O)[C@H]2O)[C@H](O)[C@@H](O)[C@@H]1O
REMARK SMILES IDX 7 1 36 2 34 3 32 4 9 5 8 6 6 7 5 8 4 9 1 10 2 11 42 12 3 13
REMARK SMILES IDX 40 14 38 15 43 16 41 18 39 20 37 22 35 24 10 26 11 27 12 28
REMARK SMILES IDX 30 29 21 30 29 31 31 32 22 33 27 34 23 35 26 36 24 37 13 38
REMARK SMILES IDX 20 39 14 40 18 41 15 42 16 43 19 44 17 46 28 48 25 50 33 52
REMARK H PARENT 43 17 41 19 39 21 37 23 35 25 19 45 17 47 28 49 25 51 33 53
REMARK Flexibility Score: inf
ROOT
ATOM      1  C   UNL     1     112.089   8.972 -40.452  1.00  0.00     0.180 C 
ATOM      2  C   UNL     1     111.839   8.137 -41.780  1.00  0.00     0.177 C 
ATOM      3  C   UNL     1     110.527   7.351 -41.747  1.00  0.00     0.180 C 
ATOM      4  C   UNL     1     109.804   7.421 -40.319  1.00  0.00     0.214 C 
ATOM      5  C   UNL     1     110.534   8.049 -39.057  1.00  0.00     0.339 C 
ATOM      6  O   UNL     1     111.889   8.113 -39.388  1.00  0.00    -0.332 OA
ENDROOT
BRANCH   1   7
ATOM      7  C   UNL     1     113.495   9.537 -40.237  1.00  0.00     0.198 C 
BRANCH   7   8
ATOM      8  O   UNL     1     113.955  10.423 -41.305  1.00  0.00    -0.347 OA
BRANCH   8   9
ATOM      9  C   UNL     1     114.687  11.567 -40.945  1.00  0.00     0.281 C 
ATOM     10  C   UNL     1     118.290  10.883 -40.724  1.00  0.00     0.041 C 
ATOM     11  C   UNL     1     117.080  11.815 -40.342  1.00  0.00     0.150 C 
ATOM     12  C   UNL     1     116.869  11.921 -38.817  1.00  0.00     0.174 C 
ATOM     13  O   UNL     1     116.026  11.335 -41.158  1.00  0.00    -0.344 OA
ATOM     14  C   UNL     1     115.388  12.317 -38.388  1.00  0.00     0.179 C 
ATOM     15  C   UNL     1     114.355  11.986 -39.462  1.00  0.00     0.202 C 
BRANCH  12  16
ATOM     16  O   UNL     1     117.844  12.835 -38.315  1.00  0.00    -0.388 OA
ATOM     17  H   UNL     1     118.563  12.310 -37.828  1.00  0.00     0.211 HD
ENDBRANCH  12  16
BRANCH  14  18
ATOM     18  O   UNL     1     115.040  11.569 -37.204  1.00  0.00    -0.387 OA
ATOM     19  H   UNL     1     114.674  12.265 -36.511  1.00  0.00     0.211 HD
ENDBRANCH  14  18
BRANCH  15  20
ATOM     20  O   UNL     1     113.267  12.951 -39.392  1.00  0.00    -0.385 OA
ATOM     21  H   UNL     1     113.628  13.894 -39.216  1.00  0.00     0.211 HD
ENDBRANCH  15  20
ENDBRANCH   8   9
ENDBRANCH   7   8
ENDBRANCH   1   7
BRANCH   2  22
ATOM     22  O   UNL     1     111.891   9.064 -42.819  1.00  0.00    -0.387 OA
ATOM     23  H   UNL     1     111.838  10.025 -42.455  1.00  0.00     0.211 HD
ENDBRANCH   2  22
BRANCH   3  24
ATOM     24  O   UNL     1     110.714   6.024 -42.243  1.00  0.00    -0.387 OA
ATOM     25  H   UNL     1     109.930   5.796 -42.804  1.00  0.00     0.211 HD
ENDBRANCH   3  24
BRANCH   5  26
ATOM     26  O   UNL     1     110.034   9.294 -38.494  1.00  0.00    -0.454 OA
BRANCH  26  27
ATOM     27  C   UNL     1     110.009   9.713 -37.109  1.00  0.00     0.214 A 
ATOM     28  C   UNL     1     108.896   9.655 -36.228  1.00  0.00     0.180 A 
ATOM     29  C   UNL     1     111.253  10.143 -36.530  1.00  0.00     0.239 A 
ATOM     30  O   UNL     1     109.151   9.549 -34.891  1.00  0.00    -0.452 OA
ATOM     31  C   UNL     1     111.460   9.921 -35.150  1.00  0.00     0.111 A 
ATOM     32  O   UNL     1     112.021  10.949 -37.209  1.00  0.00    -0.285 OA
ATOM     33  C   UNL     1     110.325   9.669 -34.373  1.00  0.00     0.146 A 
ATOM     34  C   UNL     1     112.683   9.900 -34.481  1.00  0.00     0.134 A 
ATOM     35  C   UNL     1     110.383   9.667 -32.973  1.00  0.00     0.094 A 
ATOM     36  C   UNL     1     112.751   9.718 -33.050  1.00  0.00     0.093 A 
ATOM     37  C   UNL     1     111.567   9.626 -32.284  1.00  0.00     0.123 A 
BRANCH  28  38
ATOM     38  C   UNL     1     107.442   9.885 -36.376  1.00  0.00     0.025 A 
ATOM     39  C   UNL     1     106.979   8.666 -36.006  1.00  0.00     0.062 A 
ATOM     40  C   UNL     1     107.022  10.180 -37.733  1.00  0.00     0.016 A 
ATOM     41  C   UNL     1     106.879   7.598 -36.898  1.00  0.00     0.158 A 
ATOM     42  C   UNL     1     106.687   9.180 -38.687  1.00  0.00     0.051 A 
ATOM     43  C   UNL     1     106.610   7.864 -38.236  1.00  0.00     0.157 A 
BRANCH  41  44
ATOM     44  O   UNL     1     107.101   6.242 -36.439  1.00  0.00    -0.504 OA
ATOM     45  H   UNL     1     107.500   6.111 -35.552  1.00  0.00     0.293 HD
ENDBRANCH  41  44
BRANCH  43  46
ATOM     46  O   UNL     1     105.972   6.916 -38.996  1.00  0.00    -0.504 OA
ATOM     47  H   UNL     1     106.453   6.499 -39.776  1.00  0.00     0.293 HD
ENDBRANCH  43  46
ENDBRANCH  28  38
BRANCH  34  48
ATOM     48  O   UNL     1     113.907  10.109 -35.211  1.00  0.00    -0.507 OA
ATOM     49  H   UNL     1     114.246  11.061 -35.360  1.00  0.00     0.293 HD
ENDBRANCH  34  48
BRANCH  37  50
ATOM     50  O   UNL     1     111.522   9.357 -30.891  1.00  0.00    -0.508 OA
ATOM     51  H   UNL     1     111.921  10.148 -30.324  1.00  0.00     0.293 HD
ENDBRANCH  37  50
ENDBRANCH  26  27
ENDBRANCH   5  26
BRANCH   4  52
ATOM     52  O   UNL     1     109.015   6.256 -39.978  1.00  0.00    -0.384 OA
ATOM     53  H   UNL     1     109.025   5.596 -40.714  1.00  0.00     0.211 HD
ENDBRANCH   4  52
TORSDOF 16
ENDMDL
MODEL 7
REMARK VINA RESULT:    -4.662     10.972     14.335
REMARK INTER + INTRA:         -11.035
REMARK INTER:                  -8.224
REMARK INTRA:                  -2.811
REMARK UNBOUND:                -3.376
REMARK SMILES C[C@H]1O[C@@H](OC[C@@H]2O[C@@H](Oc3c(-c4ccc(O)c(O)c4)oc4cc(O)cc(O)c4c3=O)[C@H](O)[C@H](O)[C@H]2O)[C@H](O)[C@@H](O)[C@@H]1O
REMARK SMILES IDX 7 1 36 2 34 3 32 4 9 5 8 6 6 7 5 8 4 9 1 10 2 11 42 12 3 13
REMARK SMILES IDX 40 14 38 15 43 16 41 18 39 20 37 22 35 24 10 26 11 27 12 28
REMARK SMILES IDX 30 29 21 30 29 31 31 32 22 33 27 34 23 35 26 36 24 37 13 38
REMARK SMILES IDX 20 39 14 40 18 41 15 42 16 43 19 44 17 46 28 48 25 50 33 52
REMARK H PARENT 43 17 41 19 39 21 37 23 35 25 19 45 17 47 28 49 25 51 33 53
REMARK Flexibility Score: inf
ROOT
ATOM      1  C   UNL     1     118.470   9.710 -27.303  1.00  0.00     0.180 C 
ATOM      2  C   UNL     1     119.875   9.446 -27.996  1.00  0.00     0.177 C 
ATOM      3  C   UNL     1     119.767   8.543 -29.226  1.00  0.00     0.180 C 
ATOM      4  C   UNL     1     118.295   7.942 -29.422  1.00  0.00     0.214 C 
ATOM      5  C   UNL     1     117.183   8.109 -28.302  1.00  0.00     0.339 C 
ATOM      6  O   UNL     1     117.860   8.480 -27.138  1.00  0.00    -0.332 OA
ENDROOT
BRANCH   1   7
ATOM      7  C   UNL     1     118.488  10.325 -25.902  1.00  0.00     0.198 C 
BRANCH   7   8
ATOM      8  O   UNL     1     119.762  10.940 -25.533  1.00  0.00    -0.347 OA
BRANCH   8   9
ATOM      9  C   UNL     1     120.445  10.427 -24.417  1.00  0.00     0.281 C 
ATOM     10  C   UNL     1     123.790   9.190 -25.298  1.00  0.00     0.041 C 
ATOM     11  C   UNL     1     122.590   9.190 -24.280  1.00  0.00     0.150 C 
ATOM     12  C   UNL     1     121.975   7.788 -24.086  1.00  0.00     0.174 C 
ATOM     13  O   UNL     1     121.770  10.252 -24.738  1.00  0.00    -0.344 OA
ATOM     14  C   UNL     1     120.465   7.801 -23.582  1.00  0.00     0.179 C 
ATOM     15  C   UNL     1     119.747   9.109 -23.905  1.00  0.00     0.202 C 
BRANCH  12  16
ATOM     16  O   UNL     1     122.835   7.064 -23.206  1.00  0.00    -0.388 OA
ATOM     17  H   UNL     1     122.280   6.687 -22.445  1.00  0.00     0.211 HD
ENDBRANCH  12  16
BRANCH  14  18
ATOM     18  O   UNL     1     119.752   6.737 -24.249  1.00  0.00    -0.387 OA
ATOM     19  H   UNL     1     119.080   7.199 -24.907  1.00  0.00     0.211 HD
ENDBRANCH  14  18
BRANCH  15  20
ATOM     20  O   UNL     1     118.752   9.376 -22.875  1.00  0.00    -0.385 OA
ATOM     21  H   UNL     1     118.227  10.229 -23.091  1.00  0.00     0.211 HD
ENDBRANCH  15  20
ENDBRANCH   8   9
ENDBRANCH   7   8
ENDBRANCH   1   7
BRANCH   2  22
ATOM     22  O   UNL     1     120.388  10.707 -28.290  1.00  0.00    -0.387 OA
ATOM     23  H   UNL     1     121.090  10.650 -29.041  1.00  0.00     0.211 HD
ENDBRANCH   2  22
BRANCH   3  24
ATOM     24  O   UNL     1     120.804   7.560 -29.231  1.00  0.00    -0.387 OA
ATOM     25  H   UNL     1     120.422   6.717 -29.583  1.00  0.00     0.211 HD
ENDBRANCH   3  24
BRANCH   5  26
ATOM     26  O   UNL     1     116.025   8.949 -28.570  1.00  0.00    -0.454 OA
BRANCH  26  27
ATOM     27  C   UNL     1     114.732   8.940 -27.917  1.00  0.00     0.214 A 
ATOM     28  C   UNL     1     113.572   8.244 -28.350  1.00  0.00     0.180 A 
ATOM     29  C   UNL     1     114.629   9.622 -26.655  1.00  0.00     0.239 A 
ATOM     30  O   UNL     1     112.660   7.884 -27.400  1.00  0.00    -0.452 OA
ATOM     31  C   UNL     1     113.710   9.128 -25.702  1.00  0.00     0.111 A 
ATOM     32  O   UNL     1     115.165  10.804 -26.530  1.00  0.00    -0.285 OA
ATOM     33  C   UNL     1     112.704   8.279 -26.175  1.00  0.00     0.146 A 
ATOM     34  C   UNL     1     113.714   9.376 -24.331  1.00  0.00     0.134 A 
ATOM     35  C   UNL     1     111.612   7.922 -25.373  1.00  0.00     0.094 A 
ATOM     36  C   UNL     1     112.677   8.854 -23.472  1.00  0.00     0.093 A 
ATOM     37  C   UNL     1     111.592   8.133 -24.019  1.00  0.00     0.123 A 
BRANCH  28  38
ATOM     38  C   UNL     1     112.965   7.958 -29.668  1.00  0.00     0.025 A 
ATOM     39  C   UNL     1     113.435   6.702 -29.867  1.00  0.00     0.062 A 
ATOM     40  C   UNL     1     113.421   8.829 -30.735  1.00  0.00     0.016 A 
ATOM     41  C   UNL     1     114.693   6.449 -30.415  1.00  0.00     0.158 A 
ATOM     42  C   UNL     1     114.581   8.574 -31.516  1.00  0.00     0.051 A 
ATOM     43  C   UNL     1     115.212   7.344 -31.343  1.00  0.00     0.157 A 
BRANCH  41  44
ATOM     44  O   UNL     1     115.456   5.296 -29.983  1.00  0.00    -0.504 OA
ATOM     45  H   UNL     1     116.340   5.447 -29.585  1.00  0.00     0.293 HD
ENDBRANCH  41  44
BRANCH  43  46
ATOM     46  O   UNL     1     116.108   6.897 -32.282  1.00  0.00    -0.504 OA
ATOM     47  H   UNL     1     116.587   7.562 -32.868  1.00  0.00     0.293 HD
ENDBRANCH  43  46
ENDBRANCH  28  38
BRANCH  34  48
ATOM     48  O   UNL     1     114.738  10.206 -23.752  1.00  0.00    -0.507 OA
ATOM     49  H   UNL     1     114.493  11.130 -23.393  1.00  0.00     0.293 HD
ENDBRANCH  34  48
BRANCH  37  50
ATOM     50  O   UNL     1     110.573   7.501 -23.258  1.00  0.00    -0.508 OA
ATOM     51  H   UNL     1     110.027   6.808 -23.830  1.00  0.00     0.293 HD
ENDBRANCH  37  50
ENDBRANCH  26  27
ENDBRANCH   5  26
BRANCH   4  52
ATOM     52  O   UNL     1     118.246   6.644 -30.060  1.00  0.00    -0.384 OA
ATOM     53  H   UNL     1     117.942   6.724 -30.998  1.00  0.00     0.211 HD
ENDBRANCH   4  52
TORSDOF 16
ENDMDL
MODEL 8
REMARK VINA RESULT:    -4.655      2.033      5.709
REMARK INTER + INTRA:         -11.024
REMARK INTER:                  -7.560
REMARK INTRA:                  -3.464
REMARK UNBOUND:                -3.376
REMARK SMILES C[C@H]1O[C@@H](OC[C@@H]2O[C@@H](Oc3c(-c4ccc(O)c(O)c4)oc4cc(O)cc(O)c4c3=O)[C@H](O)[C@H](O)[C@H]2O)[C@H](O)[C@@H](O)[C@@H]1O
REMARK SMILES IDX 7 1 36 2 34 3 32 4 9 5 8 6 6 7 5 8 4 9 1 10 2 11 42 12 3 13
REMARK SMILES IDX 40 14 38 15 43 16 41 18 39 20 37 22 35 24 10 26 11 27 12 28
REMARK SMILES IDX 30 29 21 30 29 31 31 32 22 33 27 34 23 35 26 36 24 37 13 38
REMARK SMILES IDX 20 39 14 40 18 41 15 42 16 43 19 44 17 46 28 48 25 50 33 52
REMARK H PARENT 43 17 41 19 39 21 37 23 35 25 19 45 17 47 28 49 25 51 33 53
REMARK Flexibility Score: inf
ROOT
ATOM      1  C   UNL     1     110.684   9.131 -39.625  1.00  0.00     0.180 C 
ATOM      2  C   UNL     1     111.807   9.707 -40.588  1.00  0.00     0.177 C 
ATOM      3  C   UNL     1     111.779   9.070 -41.979  1.00  0.00     0.180 C 
ATOM      4  C   UNL     1     110.738   7.856 -42.079  1.00  0.00     0.214 C 
ATOM      5  C   UNL     1     110.025   7.276 -40.784  1.00  0.00     0.339 C 
ATOM      6  O   UNL     1     110.757   7.751 -39.695  1.00  0.00    -0.332 OA
ENDROOT
BRANCH   1   7
ATOM      7  C   UNL     1     110.811   9.452 -38.134  1.00  0.00     0.198 C 
BRANCH   7   8
ATOM      8  O   UNL     1     110.618   8.300 -37.255  1.00  0.00    -0.347 OA
BRANCH   8   9
ATOM      9  C   UNL     1     110.538   8.531 -35.871  1.00  0.00     0.281 C 
ATOM     10  C   UNL     1     109.795  12.047 -35.103  1.00  0.00     0.041 C 
ATOM     11  C   UNL     1     110.350  10.658 -34.610  1.00  0.00     0.150 C 
ATOM     12  C   UNL     1     111.826  10.732 -34.164  1.00  0.00     0.174 C 
ATOM     13  O   UNL     1     109.981   9.769 -35.649  1.00  0.00    -0.344 OA
ATOM     14  C   UNL     1     112.599   9.342 -34.231  1.00  0.00     0.179 C 
ATOM     15  C   UNL     1     111.956   8.356 -35.203  1.00  0.00     0.202 C 
BRANCH  12  16
ATOM     16  O   UNL     1     111.848  11.304 -32.856  1.00  0.00    -0.388 OA
ATOM     17  H   UNL     1     112.082  10.578 -32.187  1.00  0.00     0.211 HD
ENDBRANCH  12  16
BRANCH  14  18
ATOM     18  O   UNL     1     113.945   9.590 -34.690  1.00  0.00    -0.387 OA
ATOM     19  H   UNL     1     113.860  10.202 -35.537  1.00  0.00     0.211 HD
ENDBRANCH  14  18
BRANCH  15  20
ATOM     20  O   UNL     1     112.175   6.999 -34.723  1.00  0.00    -0.385 OA
ATOM     21  H   UNL     1     113.000   6.957 -34.116  1.00  0.00     0.211 HD
ENDBRANCH  15  20
ENDBRANCH   8   9
ENDBRANCH   7   8
ENDBRANCH   1   7
BRANCH   2  22
ATOM     22  O   UNL     1     111.603  11.085 -40.618  1.00  0.00    -0.387 OA
ATOM     23  H   UNL     1     110.689  11.328 -40.209  1.00  0.00     0.211 HD
ENDBRANCH   2  22
BRANCH   3  24
ATOM     24  O   UNL     1     113.099   8.745 -42.420  1.00  0.00    -0.387 OA
ATOM     25  H   UNL     1     113.086   8.700 -43.409  1.00  0.00     0.211 HD
ENDBRANCH   3  24
BRANCH   5  26
ATOM     26  O   UNL     1     108.590   7.461 -40.621  1.00  0.00    -0.454 OA
BRANCH  26  27
ATOM     27  C   UNL     1     107.824   7.538 -39.395  1.00  0.00     0.214 A 
ATOM     28  C   UNL     1     107.773   6.559 -38.367  1.00  0.00     0.180 A 
ATOM     29  C   UNL     1     107.117   8.764 -39.139  1.00  0.00     0.239 A 
ATOM     30  O   UNL     1     107.489   6.984 -37.102  1.00  0.00    -0.452 OA
ATOM     31  C   UNL     1     106.939   9.164 -37.795  1.00  0.00     0.111 A 
ATOM     32  O   UNL     1     106.438   9.317 -40.105  1.00  0.00    -0.285 OA
ATOM     33  C   UNL     1     107.104   8.179 -36.815  1.00  0.00     0.146 A 
ATOM     34  C   UNL     1     106.643  10.447 -37.337  1.00  0.00     0.134 A 
ATOM     35  C   UNL     1     106.727   8.402 -35.484  1.00  0.00     0.094 A 
ATOM     36  C   UNL     1     106.429  10.710 -35.933  1.00  0.00     0.093 A 
ATOM     37  C   UNL     1     106.448   9.652 -34.996  1.00  0.00     0.123 A 
BRANCH  28  38
ATOM     38  C   UNL     1     107.756   5.080 -38.344  1.00  0.00     0.025 A 
ATOM     39  C   UNL     1     108.781   4.855 -37.485  1.00  0.00     0.062 A 
ATOM     40  C   UNL     1     108.043   4.461 -39.625  1.00  0.00     0.016 A 
ATOM     41  C   UNL     1     110.113   4.812 -37.900  1.00  0.00     0.158 A 
ATOM     42  C   UNL     1     109.357   4.170 -40.081  1.00  0.00     0.051 A 
ATOM     43  C   UNL     1     110.403   4.348 -39.178  1.00  0.00     0.157 A 
BRANCH  41  44
ATOM     44  O   UNL     1     111.163   5.290 -37.024  1.00  0.00    -0.504 OA
ATOM     45  H   UNL     1     111.464   6.218 -37.124  1.00  0.00     0.293 HD
ENDBRANCH  41  44
BRANCH  43  46
ATOM     46  O   UNL     1     111.625   3.775 -39.425  1.00  0.00    -0.504 OA
ATOM     47  H   UNL     1     112.372   3.891 -38.759  1.00  0.00     0.293 HD
ENDBRANCH  43  46
ENDBRANCH  28  38
BRANCH  34  48
ATOM     48  O   UNL     1     106.498  11.530 -38.274  1.00  0.00    -0.507 OA
ATOM     49  H   UNL     1     105.678  11.562 -38.882  1.00  0.00     0.293 HD
ENDBRANCH  34  48
BRANCH  37  50
ATOM     50  O   UNL     1     106.341   9.814 -33.590  1.00  0.00    -0.508 OA
ATOM     51  H   UNL     1     105.362   9.640 -33.247  1.00  0.00     0.293 HD
ENDBRANCH  37  50
ENDBRANCH  26  27
ENDBRANCH   5  26
BRANCH   4  52
ATOM     52  O   UNL     1     111.098   6.819 -43.022  1.00  0.00    -0.384 OA
ATOM     53  H   UNL     1     110.300   6.489 -43.504  1.00  0.00     0.211 HD
ENDBRANCH   4  52
TORSDOF 16
ENDMDL
MODEL 9
REMARK VINA RESULT:    -4.627      2.383      7.163
REMARK INTER + INTRA:         -10.978
REMARK INTER:                  -7.529
REMARK INTRA:                  -3.450
REMARK UNBOUND:                -3.376
REMARK SMILES C[C@H]1O[C@@H](OC[C@@H]2O[C@@H](Oc3c(-c4ccc(O)c(O)c4)oc4cc(O)cc(O)c4c3=O)[C@H](O)[C@H](O)[C@H]2O)[C@H](O)[C@@H](O)[C@@H]1O
REMARK SMILES IDX 7 1 36 2 34 3 32 4 9 5 8 6 6 7 5 8 4 9 1 10 2 11 42 12 3 13
REMARK SMILES IDX 40 14 38 15 43 16 41 18 39 20 37 22 35 24 10 26 11 27 12 28
REMARK SMILES IDX 30 29 21 30 29 31 31 32 22 33 27 34 23 35 26 36 24 37 13 38
REMARK SMILES IDX 20 39 14 40 18 41 15 42 16 43 19 44 17 46 28 48 25 50 33 52
REMARK H PARENT 43 17 41 19 39 21 37 23 35 25 19 45 17 47 28 49 25 51 33 53
REMARK Flexibility Score: inf
ROOT
ATOM      1  C   UNL     1     111.907   9.532 -39.269  1.00  0.00     0.180 C 
ATOM      2  C   UNL     1     112.292   9.999 -40.738  1.00  0.00     0.177 C 
ATOM      3  C   UNL     1     111.773   9.045 -41.817  1.00  0.00     0.180 C 
ATOM      4  C   UNL     1     111.117   7.719 -41.203  1.00  0.00     0.214 C 
ATOM      5  C   UNL     1     111.237   7.382 -39.656  1.00  0.00     0.339 C 
ATOM      6  O   UNL     1     112.256   8.198 -39.162  1.00  0.00    -0.332 OA
ENDROOT
BRANCH   1   7
ATOM      7  C   UNL     1     112.629  10.218 -38.108  1.00  0.00     0.198 C 
BRANCH   7   8
ATOM      8  O   UNL     1     113.184   9.296 -37.119  1.00  0.00    -0.347 OA
BRANCH   8   9
ATOM      9  C   UNL     1     114.480   9.546 -36.636  1.00  0.00     0.281 C 
ATOM     10  C   UNL     1     114.450  11.698 -33.659  1.00  0.00     0.041 C 
ATOM     11  C   UNL     1     115.260  11.101 -34.870  1.00  0.00     0.150 C 
ATOM     12  C   UNL     1     115.802  12.191 -35.819  1.00  0.00     0.174 C 
ATOM     13  O   UNL     1     114.398  10.100 -35.381  1.00  0.00    -0.344 OA
ATOM     14  C   UNL     1     116.084  11.686 -37.301  1.00  0.00     0.179 C 
ATOM     15  C   UNL     1     115.284  10.436 -37.660  1.00  0.00     0.202 C 
BRANCH  12  16
ATOM     16  O   UNL     1     116.962  12.752 -35.205  1.00  0.00    -0.388 OA
ATOM     17  H   UNL     1     117.374  12.058 -34.590  1.00  0.00     0.211 HD
ENDBRANCH  12  16
BRANCH  14  18
ATOM     18  O   UNL     1     115.696  12.729 -38.221  1.00  0.00    -0.387 OA
ATOM     19  H   UNL     1     114.805  13.135 -37.848  1.00  0.00     0.211 HD
ENDBRANCH  14  18
BRANCH  15  20
ATOM     20  O   UNL     1     116.047   9.634 -38.606  1.00  0.00    -0.385 OA
ATOM     21  H   UNL     1     115.971   8.637 -38.383  1.00  0.00     0.211 HD
ENDBRANCH  15  20
ENDBRANCH   8   9
ENDBRANCH   7   8
ENDBRANCH   1   7
BRANCH   2  22
ATOM     22  O   UNL     1     111.784  11.289 -40.865  1.00  0.00    -0.387 OA
ATOM     23  H   UNL     1     110.755  11.277 -40.890  1.00  0.00     0.211 HD
ENDBRANCH   2  22
BRANCH   3  24
ATOM     24  O   UNL     1     112.776   8.797 -42.804  1.00  0.00    -0.387 OA
ATOM     25  H   UNL     1     113.306   8.014 -42.508  1.00  0.00     0.211 HD
ENDBRANCH   3  24
BRANCH   5  26
ATOM     26  O   UNL     1     110.041   7.414 -38.827  1.00  0.00    -0.454 OA
BRANCH  26  27
ATOM     27  C   UNL     1     109.885   6.999 -37.449  1.00  0.00     0.214 A 
ATOM     28  C   UNL     1     109.579   5.689 -36.991  1.00  0.00     0.180 A 
ATOM     29  C   UNL     1     110.161   7.978 -36.433  1.00  0.00     0.239 A 
ATOM     30  O   UNL     1     110.003   5.341 -35.741  1.00  0.00    -0.452 OA
ATOM     31  C   UNL     1     110.673   7.529 -35.194  1.00  0.00     0.111 A 
ATOM     32  O   UNL     1     109.688   9.184 -36.573  1.00  0.00    -0.285 OA
ATOM     33  C   UNL     1     110.509   6.172 -34.897  1.00  0.00     0.146 A 
ATOM     34  C   UNL     1     111.349   8.292 -34.244  1.00  0.00     0.134 A 
ATOM     35  C   UNL     1     110.764   5.669 -33.614  1.00  0.00     0.094 A 
ATOM     36  C   UNL     1     111.771   7.721 -32.986  1.00  0.00     0.093 A 
ATOM     37  C   UNL     1     111.443   6.384 -32.663  1.00  0.00     0.123 A 
BRANCH  28  38
ATOM     38  C   UNL     1     108.699   4.602 -37.471  1.00  0.00     0.025 A 
ATOM     39  C   UNL     1     109.638   3.731 -37.919  1.00  0.00     0.062 A 
ATOM     40  C   UNL     1     107.821   4.984 -38.561  1.00  0.00     0.016 A 
ATOM     41  C   UNL     1     110.192   3.818 -39.197  1.00  0.00     0.158 A 
ATOM     42  C   UNL     1     108.195   4.920 -39.931  1.00  0.00     0.051 A 
ATOM     43  C   UNL     1     109.410   4.310 -40.236  1.00  0.00     0.157 A 
BRANCH  41  44
ATOM     44  O   UNL     1     111.574   3.444 -39.417  1.00  0.00    -0.504 OA
ATOM     45  H   UNL     1     112.191   3.475 -38.656  1.00  0.00     0.293 HD
ENDBRANCH  41  44
BRANCH  43  46
ATOM     46  O   UNL     1     109.671   3.911 -41.523  1.00  0.00    -0.504 OA
ATOM     47  H   UNL     1     110.623   3.883 -41.851  1.00  0.00     0.293 HD
ENDBRANCH  43  46
ENDBRANCH  28  38
BRANCH  34  48
ATOM     48  O   UNL     1     111.597   9.690 -34.486  1.00  0.00    -0.507 OA
ATOM     49  H   UNL     1     112.435   9.970 -34.998  1.00  0.00     0.293 HD
ENDBRANCH  34  48
BRANCH  37  50
ATOM     50  O   UNL     1     111.885   5.701 -31.500  1.00  0.00    -0.508 OA
ATOM     51  H   UNL     1     112.930   5.753 -31.386  1.00  0.00     0.293 HD
ENDBRANCH  37  50
ENDBRANCH  26  27
ENDBRANCH   5  26
BRANCH   4  52
ATOM     52  O   UNL     1     111.231   6.540 -42.035  1.00  0.00    -0.384 OA
ATOM     53  H   UNL     1     112.083   6.546 -42.537  1.00  0.00     0.211 HD
ENDBRANCH   4  52
TORSDOF 16
ENDMDL
