MODEL 1
REMARK VINA RESULT:    -3.646      0.000      0.000
REMARK INTER + INTRA:          -5.139
REMARK INTER:                  -4.818
REMARK INTRA:                  -0.321
REMARK UNBOUND:                -0.321
REMARK SMILES CCCCCCCO
REMARK SMILES IDX 5 1 4 2 3 3 2 4 1 5 6 6 7 7 8 8
REMARK H PARENT 8 9
REMARK Flexibility Score: inf
ROOT
ATOM      1  C   UNL     1     202.308 203.003 229.963  1.00  0.00     0.002 C 
ENDROOT
BRANCH   1   2
ATOM      2  C   UNL     1     203.647 203.097 229.208  1.00  0.00     0.000 C 
BRANCH   2   3
ATOM      3  C   UNL     1     204.655 204.038 229.890  1.00  0.00    -0.000 C 
BRANCH   3   4
ATOM      4  C   UNL     1     205.637 203.286 230.802  1.00  0.00    -0.003 C 
ATOM      5  C   UNL     1     206.075 201.941 230.220  1.00  0.00     0.004 C 
ENDBRANCH   3   4
ENDBRANCH   2   3
ENDBRANCH   1   2
BRANCH   1   6
ATOM      6  C   UNL     1     202.157 201.771 230.873  1.00  0.00     0.028 C 
BRANCH   6   7
ATOM      7  C   UNL     1     202.242 200.445 230.106  1.00  0.00     0.156 C 
BRANCH   7   8
ATOM      8  O   UNL     1     203.394 199.742 230.484  1.00  0.00    -0.396 OA
ATOM      9  H   UNL     1     203.601 200.015 231.416  1.00  0.00     0.210 HD
ENDBRANCH   7   8
ENDBRANCH   6   7
ENDBRANCH   1   6
TORSDOF 6
ENDMDL
MODEL 2
REMARK VINA RESULT:    -3.613      9.831     10.444
REMARK INTER + INTRA:          -5.095
REMARK INTER:                  -4.943
REMARK INTRA:                  -0.152
REMARK UNBOUND:                -0.321
REMARK SMILES CCCCCCCO
REMARK SMILES IDX 5 1 4 2 3 3 2 4 1 5 6 6 7 7 8 8
REMARK H PARENT 8 9
REMARK Flexibility Score: inf
ROOT
ATOM      1  C   UNL     1     203.241 203.025 241.214  1.00  0.00     0.002 C 
ENDROOT
BRANCH   1   2
ATOM      2  C   UNL     1     203.056 202.635 239.736  1.00  0.00     0.000 C 
BRANCH   2   3
ATOM      3  C   UNL     1     204.381 202.601 238.955  1.00  0.00    -0.000 C 
BRANCH   3   4
ATOM      4  C   UNL     1     204.232 203.135 237.522  1.00  0.00    -0.003 C 
ATOM      5  C   UNL     1     203.560 204.507 237.467  1.00  0.00     0.004 C 
ENDBRANCH   3   4
ENDBRANCH   2   3
ENDBRANCH   1   2
BRANCH   1   6
ATOM      6  C   UNL     1     203.879 201.939 242.100  1.00  0.00     0.028 C 
BRANCH   6   7
ATOM      7  C   UNL     1     202.862 201.224 242.999  1.00  0.00     0.156 C 
BRANCH   7   8
ATOM      8  O   UNL     1     202.175 200.246 242.266  1.00  0.00    -0.396 OA
ATOM      9  H   UNL     1     202.850 199.788 241.700  1.00  0.00     0.210 HD
ENDBRANCH   7   8
ENDBRANCH   6   7
ENDBRANCH   1   6
TORSDOF 6
ENDMDL
MODEL 3
REMARK VINA RESULT:    -3.609      3.869      5.306
REMARK INTER + INTRA:          -5.091
REMARK INTER:                  -4.876
REMARK INTRA:                  -0.215
REMARK UNBOUND:                -0.321
REMARK SMILES CCCCCCCO
REMARK SMILES IDX 5 1 4 2 3 3 2 4 1 5 6 6 7 7 8 8
REMARK H PARENT 8 9
REMARK Flexibility Score: inf
ROOT
ATOM      1  C   UNL     1     204.707 205.940 230.973  1.00  0.00     0.002 C 
ENDROOT
BRANCH   1   2
ATOM      2  C   UNL     1     204.542 204.651 230.147  1.00  0.00     0.000 C 
BRANCH   2   3
ATOM      3  C   UNL     1     203.465 203.709 230.714  1.00  0.00    -0.000 C 
BRANCH   3   4
ATOM      4  C   UNL     1     202.212 203.648 229.827  1.00  0.00    -0.003 C 
ATOM      5  C   UNL     1     201.035 204.433 230.407  1.00  0.00     0.004 C 
ENDBRANCH   3   4
ENDBRANCH   2   3
ENDBRANCH   1   2
BRANCH   1   6
ATOM      6  C   UNL     1     204.535 205.767 232.493  1.00  0.00     0.028 C 
BRANCH   6   7
ATOM      7  C   UNL     1     204.133 207.066 233.203  1.00  0.00     0.156 C 
BRANCH   7   8
ATOM      8  O   UNL     1     204.923 208.130 232.744  1.00  0.00    -0.396 OA
ATOM      9  H   UNL     1     205.767 207.732 232.407  1.00  0.00     0.210 HD
ENDBRANCH   7   8
ENDBRANCH   6   7
ENDBRANCH   1   6
TORSDOF 6
ENDMDL
MODEL 4
REMARK VINA RESULT:    -3.596      9.806     10.468
REMARK INTER + INTRA:          -5.074
REMARK INTER:                  -4.943
REMARK INTRA:                  -0.131
REMARK UNBOUND:                -0.321
REMARK SMILES CCCCCCCO
REMARK SMILES IDX 5 1 4 2 3 3 2 4 1 5 6 6 7 7 8 8
REMARK H PARENT 8 9
REMARK Flexibility Score: inf
ROOT
ATOM      1  C   UNL     1     203.263 202.411 241.014  1.00  0.00     0.002 C 
ENDROOT
BRANCH   1   2
ATOM      2  C   UNL     1     203.561 203.180 239.713  1.00  0.00     0.000 C 
BRANCH   2   3
ATOM      3  C   UNL     1     204.266 202.315 238.654  1.00  0.00    -0.000 C 
BRANCH   3   4
ATOM      4  C   UNL     1     203.276 201.520 237.790  1.00  0.00    -0.003 C 
ATOM      5  C   UNL     1     203.925 200.924 236.540  1.00  0.00     0.004 C 
ENDBRANCH   3   4
ENDBRANCH   2   3
ENDBRANCH   1   2
BRANCH   1   6
ATOM      6  C   UNL     1     203.637 203.153 242.310  1.00  0.00     0.028 C 
BRANCH   6   7
ATOM      7  C   UNL     1     204.777 202.475 243.081  1.00  0.00     0.156 C 
BRANCH   7   8
ATOM      8  O   UNL     1     205.437 201.555 242.253  1.00  0.00    -0.396 OA
ATOM      9  H   UNL     1     205.756 202.061 241.462  1.00  0.00     0.210 HD
ENDBRANCH   7   8
ENDBRANCH   6   7
ENDBRANCH   1   6
TORSDOF 6
ENDMDL
MODEL 5
REMARK VINA RESULT:    -3.596     10.018     10.669
REMARK INTER + INTRA:          -5.073
REMARK INTER:                  -4.985
REMARK INTRA:                  -0.087
REMARK UNBOUND:                -0.321
REMARK SMILES CCCCCCCO
REMARK SMILES IDX 5 1 4 2 3 3 2 4 1 5 6 6 7 7 8 8
REMARK H PARENT 8 9
REMARK Flexibility Score: inf
ROOT
ATOM      1  C   UNL     1     203.844 202.569 241.241  1.00  0.00     0.002 C 
ENDROOT
BRANCH   1   2
ATOM      2  C   UNL     1     203.383 202.979 239.830  1.00  0.00     0.000 C 
BRANCH   2   3
ATOM      3  C   UNL     1     204.153 202.252 238.713  1.00  0.00    -0.000 C 
BRANCH   3   4
ATOM      4  C   UNL     1     203.233 201.404 237.822  1.00  0.00    -0.003 C 
ATOM      5  C   UNL     1     203.908 200.965 236.522  1.00  0.00     0.004 C 
ENDBRANCH   3   4
ENDBRANCH   2   3
ENDBRANCH   1   2
BRANCH   1   6
ATOM      6  C   UNL     1     203.469 203.555 242.362  1.00  0.00     0.028 C 
BRANCH   6   7
ATOM      7  C   UNL     1     202.149 203.200 243.057  1.00  0.00     0.156 C 
BRANCH   7   8
ATOM      8  O   UNL     1     201.123 204.040 242.602  1.00  0.00    -0.396 OA
ATOM      9  H   UNL     1     200.583 204.287 243.398  1.00  0.00     0.210 HD
ENDBRANCH   7   8
ENDBRANCH   6   7
ENDBRANCH   1   6
TORSDOF 6
ENDMDL
MODEL 6
REMARK VINA RESULT:    -3.593      2.140      3.139
REMARK INTER + INTRA:          -5.069
REMARK INTER:                  -4.731
REMARK INTRA:                  -0.338
REMARK UNBOUND:                -0.321
REMARK SMILES CCCCCCCO
REMARK SMILES IDX 5 1 4 2 3 3 2 4 1 5 6 6 7 7 8 8
REMARK H PARENT 8 9
REMARK Flexibility Score: inf
ROOT
ATOM      1  C   UNL     1     203.603 201.973 229.969  1.00  0.00     0.002 C 
ENDROOT
BRANCH   1   2
ATOM      2  C   UNL     1     203.413 203.399 229.420  1.00  0.00     0.000 C 
BRANCH   2   3
ATOM      3  C   UNL     1     202.647 204.317 230.389  1.00  0.00    -0.000 C 
BRANCH   3   4
ATOM      4  C   UNL     1     203.545 205.401 231.005  1.00  0.00    -0.003 C 
ATOM      5  C   UNL     1     204.826 205.636 230.204  1.00  0.00     0.004 C 
ENDBRANCH   3   4
ENDBRANCH   2   3
ENDBRANCH   1   2
BRANCH   1   6
ATOM      6  C   UNL     1     204.846 201.775 230.855  1.00  0.00     0.028 C 
BRANCH   6   7
ATOM      7  C   UNL     1     206.163 201.902 230.078  1.00  0.00     0.156 C 
BRANCH   7   8
ATOM      8  O   UNL     1     206.979 202.876 230.671  1.00  0.00    -0.396 OA
ATOM      9  H   UNL     1     207.542 202.407 231.340  1.00  0.00     0.210 HD
ENDBRANCH   7   8
ENDBRANCH   6   7
ENDBRANCH   1   6
TORSDOF 6
ENDMDL
MODEL 7
REMARK VINA RESULT:    -3.590      2.106      3.106
REMARK INTER + INTRA:          -5.066
REMARK INTER:                  -4.712
REMARK INTRA:                  -0.354
REMARK UNBOUND:                -0.321
REMARK SMILES CCCCCCCO
REMARK SMILES IDX 5 1 4 2 3 3 2 4 1 5 6 6 7 7 8 8
REMARK H PARENT 8 9
REMARK Flexibility Score: inf
ROOT
ATOM      1  C   UNL     1     203.481 204.386 230.474  1.00  0.00     0.002 C 
ENDROOT
BRANCH   1   2
ATOM      2  C   UNL     1     203.584 203.297 229.389  1.00  0.00     0.000 C 
BRANCH   2   3
ATOM      3  C   UNL     1     204.439 202.095 229.826  1.00  0.00    -0.000 C 
BRANCH   3   4
ATOM      4  C   UNL     1     203.659 201.111 230.713  1.00  0.00    -0.003 C 
ATOM      5  C   UNL     1     202.434 200.523 230.011  1.00  0.00     0.004 C 
ENDBRANCH   3   4
ENDBRANCH   2   3
ENDBRANCH   1   2
BRANCH   1   6
ATOM      6  C   UNL     1     202.051 204.689 230.959  1.00  0.00     0.028 C 
BRANCH   6   7
ATOM      7  C   UNL     1     200.970 204.170 230.003  1.00  0.00     0.156 C 
BRANCH   7   8
ATOM      8  O   UNL     1     200.224 203.158 230.623  1.00  0.00    -0.396 OA
ATOM      9  H   UNL     1     200.472 202.307 230.177  1.00  0.00     0.210 HD
ENDBRANCH   7   8
ENDBRANCH   6   7
ENDBRANCH   1   6
TORSDOF 6
ENDMDL
MODEL 8
REMARK VINA RESULT:    -3.580      2.833      4.521
REMARK INTER + INTRA:          -5.053
REMARK INTER:                  -4.698
REMARK INTRA:                  -0.354
REMARK UNBOUND:                -0.321
REMARK SMILES CCCCCCCO
REMARK SMILES IDX 5 1 4 2 3 3 2 4 1 5 6 6 7 7 8 8
REMARK H PARENT 8 9
REMARK Flexibility Score: inf
ROOT
ATOM      1  C   UNL     1     203.571 203.728 229.405  1.00  0.00     0.002 C 
ENDROOT
BRANCH   1   2
ATOM      2  C   UNL     1     202.323 203.061 230.012  1.00  0.00     0.000 C 
BRANCH   2   3
ATOM      3  C   UNL     1     201.112 204.008 230.082  1.00  0.00    -0.000 C 
BRANCH   3   4
ATOM      4  C   UNL     1     200.531 204.115 231.501  1.00  0.00    -0.003 C 
ATOM      5  C   UNL     1     201.612 204.228 232.577  1.00  0.00     0.004 C 
ENDBRANCH   3   4
ENDBRANCH   2   3
ENDBRANCH   1   2
BRANCH   1   6
ATOM      6  C   UNL     1     204.698 204.038 230.407  1.00  0.00     0.028 C 
BRANCH   6   7
ATOM      7  C   UNL     1     204.989 205.538 230.537  1.00  0.00     0.156 C 
BRANCH   7   8
ATOM      8  O   UNL     1     203.788 206.261 230.561  1.00  0.00    -0.396 OA
ATOM      9  H   UNL     1     204.026 207.214 230.414  1.00  0.00     0.210 HD
ENDBRANCH   7   8
ENDBRANCH   6   7
ENDBRANCH   1   6
TORSDOF 6
ENDMDL
MODEL 9
REMARK VINA RESULT:    -3.569      2.464      4.120
REMARK INTER + INTRA:          -5.037
REMARK INTER:                  -4.771
REMARK INTRA:                  -0.266
REMARK UNBOUND:                -0.321
REMARK SMILES CCCCCCCO
REMARK SMILES IDX 5 1 4 2 3 3 2 4 1 5 6 6 7 7 8 8
REMARK H PARENT 8 9
REMARK Flexibility Score: inf
ROOT
ATOM      1  C   UNL     1     204.725 203.050 229.900  1.00  0.00     0.002 C 
ENDROOT
BRANCH   1   2
ATOM      2  C   UNL     1     203.384 203.097 229.144  1.00  0.00     0.000 C 
BRANCH   2   3
ATOM      3  C   UNL     1     202.166 202.956 230.073  1.00  0.00    -0.000 C 
BRANCH   3   4
ATOM      4  C   UNL     1     202.232 201.691 230.941  1.00  0.00    -0.003 C 
ATOM      5  C   UNL     1     202.131 200.403 230.122  1.00  0.00     0.004 C 
ENDBRANCH   3   4
ENDBRANCH   2   3
ENDBRANCH   1   2
BRANCH   1   6
ATOM      6  C   UNL     1     204.989 204.245 230.834  1.00  0.00     0.028 C 
BRANCH   6   7
ATOM      7  C   UNL     1     204.843 205.600 230.130  1.00  0.00     0.156 C 
BRANCH   7   8
ATOM      8  O   UNL     1     203.727 206.285 230.632  1.00  0.00    -0.396 OA
ATOM      9  H   UNL     1     202.925 205.791 230.319  1.00  0.00     0.210 HD
ENDBRANCH   7   8
ENDBRANCH   6   7
ENDBRANCH   1   6
TORSDOF 6
ENDMDL
