MODEL 1
REMARK VINA RESULT:    -2.727      0.000      0.000
REMARK INTER + INTRA:          -2.727
REMARK INTER:                  -2.727
REMARK INTRA:                   0.000
REMARK UNBOUND:                 0.000
REMARK SMILES CC(=O)[O-]
REMARK SMILES IDX 1 1 2 2 3 3 4 4
REMARK H PARENT
REMARK Flexibility Score: inf
ROOT
ATOM      1  C   UNL     1      76.923  20.879  32.962  1.00  0.00     0.063 C 
ATOM      2  C   UNL     1      75.790  19.948  33.232  1.00  0.00     0.038 C 
ATOM      3  O   UNL     1      75.373  19.181  32.326  1.00  0.00    -0.550 OA
ATOM      4  O   UNL     1      75.156  19.964  34.467  1.00  0.00    -0.550 OA
ENDROOT
TORSDOF 0
ENDMDL
MODEL 2
REMARK VINA RESULT:    -2.653      1.429      2.117
REMARK INTER + INTRA:          -2.653
REMARK INTER:                  -2.653
REMARK INTRA:                   0.000
REMARK UNBOUND:                 0.000
REMARK SMILES CC(=O)[O-]
REMARK SMILES IDX 1 1 2 2 3 3 4 4
REMARK H PARENT
REMARK Flexibility Score: inf
ROOT
ATOM      1  C   UNL     1      75.301  20.125  34.379  1.00  0.00     0.063 C 
ATOM      2  C   UNL     1      76.043  20.133  33.086  1.00  0.00     0.038 C 
ATOM      3  O   UNL     1      77.037  20.890  32.933  1.00  0.00    -0.550 OA
ATOM      4  O   UNL     1      75.608  19.345  32.029  1.00  0.00    -0.550 OA
ENDROOT
TORSDOF 0
ENDMDL
MODEL 3
REMARK VINA RESULT:    -2.653      1.422      1.781
REMARK INTER + INTRA:          -2.653
REMARK INTER:                  -2.653
REMARK INTRA:                   0.000
REMARK UNBOUND:                 0.000
REMARK SMILES CC(=O)[O-]
REMARK SMILES IDX 1 1 2 2 3 3 4 4
REMARK H PARENT
REMARK Flexibility Score: inf
ROOT
ATOM      1  C   UNL     1      75.304  20.144  34.414  1.00  0.00     0.063 C 
ATOM      2  C   UNL     1      75.993  20.103  33.093  1.00  0.00     0.038 C 
ATOM      3  O   UNL     1      75.574  19.339  32.185  1.00  0.00    -0.550 OA
ATOM      4  O   UNL     1      77.132  20.868  32.878  1.00  0.00    -0.550 OA
ENDROOT
TORSDOF 0
ENDMDL
MODEL 4
REMARK VINA RESULT:    -2.472     20.772     21.119
REMARK INTER + INTRA:          -2.472
REMARK INTER:                  -2.472
REMARK INTRA:                   0.000
REMARK UNBOUND:                 0.000
REMARK SMILES CC(=O)[O-]
REMARK SMILES IDX 1 1 2 2 3 3 4 4
REMARK H PARENT
REMARK Flexibility Score: inf
ROOT
ATOM      1  C   UNL     1      60.549   7.306  26.551  1.00  0.00     0.063 C 
ATOM      2  C   UNL     1      61.147   6.086  27.164  1.00  0.00     0.038 C 
ATOM      3  O   UNL     1      61.322   5.051  26.470  1.00  0.00    -0.550 OA
ATOM      4  O   UNL     1      61.463   6.070  28.516  1.00  0.00    -0.550 OA
ENDROOT
TORSDOF 0
ENDMDL
MODEL 5
REMARK VINA RESULT:    -2.449      1.861      2.260
REMARK INTER + INTRA:          -2.449
REMARK INTER:                  -2.449
REMARK INTRA:                   0.000
REMARK UNBOUND:                 0.000
REMARK SMILES CC(=O)[O-]
REMARK SMILES IDX 1 1 2 2 3 3 4 4
REMARK H PARENT
REMARK Flexibility Score: inf
ROOT
ATOM      1  C   UNL     1      76.781  20.806  30.535  1.00  0.00     0.063 C 
ATOM      2  C   UNL     1      76.512  20.365  31.933  1.00  0.00     0.038 C 
ATOM      3  O   UNL     1      77.159  20.866  32.889  1.00  0.00    -0.550 OA
ATOM      4  O   UNL     1      75.585  19.360  32.180  1.00  0.00    -0.550 OA
ENDROOT
TORSDOF 0
ENDMDL
MODEL 6
REMARK VINA RESULT:    -2.333     10.679     11.265
REMARK INTER + INTRA:          -2.333
REMARK INTER:                  -2.333
REMARK INTRA:                   0.000
REMARK UNBOUND:                 0.000
REMARK SMILES CC(=O)[O-]
REMARK SMILES IDX 1 1 2 2 3 3 4 4
REMARK H PARENT
REMARK Flexibility Score: inf
ROOT
ATOM      1  C   UNL     1      68.438  10.904  32.512  1.00  0.00     0.063 C 
ATOM      2  C   UNL     1      69.878  10.641  32.790  1.00  0.00     0.038 C 
ATOM      3  O   UNL     1      70.210   9.761  33.628  1.00  0.00    -0.550 OA
ATOM      4  O   UNL     1      70.858  11.401  32.166  1.00  0.00    -0.550 OA
ENDROOT
TORSDOF 0
ENDMDL
MODEL 7
REMARK VINA RESULT:    -2.320     10.732     11.276
REMARK INTER + INTRA:          -2.320
REMARK INTER:                  -2.320
REMARK INTRA:                   0.000
REMARK UNBOUND:                 0.000
REMARK SMILES CC(=O)[O-]
REMARK SMILES IDX 1 1 2 2 3 3 4 4
REMARK H PARENT
REMARK Flexibility Score: inf
ROOT
ATOM      1  C   UNL     1      68.416  10.753  32.530  1.00  0.00     0.063 C 
ATOM      2  C   UNL     1      69.885  10.643  32.757  1.00  0.00     0.038 C 
ATOM      3  O   UNL     1      70.681  11.369  32.106  1.00  0.00    -0.550 OA
ATOM      4  O   UNL     1      70.383   9.702  33.648  1.00  0.00    -0.550 OA
ENDROOT
TORSDOF 0
ENDMDL
MODEL 8
REMARK VINA RESULT:    -2.297     11.785     12.276
REMARK INTER + INTRA:          -2.297
REMARK INTER:                  -2.297
REMARK INTRA:                   0.000
REMARK UNBOUND:                 0.000
REMARK SMILES CC(=O)[O-]
REMARK SMILES IDX 1 1 2 2 3 3 4 4
REMARK H PARENT
REMARK Flexibility Score: inf
ROOT
ATOM      1  C   UNL     1      68.381  11.002  32.481  1.00  0.00     0.063 C 
ATOM      2  C   UNL     1      68.950   9.878  33.278  1.00  0.00     0.038 C 
ATOM      3  O   UNL     1      68.208   8.937  33.664  1.00  0.00    -0.550 OA
ATOM      4  O   UNL     1      70.290   9.892  33.643  1.00  0.00    -0.550 OA
ENDROOT
TORSDOF 0
ENDMDL
