MODEL 1
REMARK VINA RESULT:    -4.887      0.000      0.000
REMARK INTER + INTRA:          -5.586
REMARK INTER:                  -5.173
REMARK INTRA:                  -0.414
REMARK UNBOUND:                -0.414
REMARK SMILES CC1=CC[C@@H]2[C@H]3[C@H](C(C)C)CC[C@]2(C)[C@@H]13
REMARK SMILES IDX 1 1 2 2 3 3 4 4 5 5 6 6 15 7 13 8 12 9 11 10 7 11 14 12 8 13
REMARK SMILES IDX 9 14 10 15
REMARK H PARENT
REMARK Flexibility Score: inf
ROOT
ATOM      1  C   UNL     1     137.853 136.241 136.619  1.00  0.00     0.039 C 
ATOM      2  C   UNL     1     138.157 137.614 136.098  1.00  0.00    -0.073 C 
ATOM      3  C   UNL     1     139.336 138.241 136.352  1.00  0.00    -0.027 C 
ATOM      4  C   UNL     1     139.563 139.649 135.787  1.00  0.00     0.031 C 
ATOM      5  C   UNL     1     138.292 140.138 135.018  1.00  0.00     0.003 C 
ATOM      6  C   UNL     1     137.063 139.820 135.901  1.00  0.00     0.004 C 
ATOM      7  C   UNL     1     137.112 138.395 135.299  1.00  0.00     0.024 C 
ATOM      8  C   UNL     1     137.764 139.049 134.054  1.00  0.00    -0.022 C 
ATOM      9  C   UNL     1     136.687 139.687 133.130  1.00  0.00     0.008 C 
ATOM     10  C   UNL     1     135.479 140.240 133.925  1.00  0.00     0.005 C 
ATOM     11  C   UNL     1     135.820 140.626 135.402  1.00  0.00    -0.005 C 
ATOM     12  C   UNL     1     138.784 138.230 133.227  1.00  0.00     0.012 C 
ENDROOT
BRANCH  11  13
ATOM     13  C   UNL     1     134.577 140.455 136.336  1.00  0.00    -0.014 C 
ATOM     14  C   UNL     1     133.499 139.544 135.719  1.00  0.00     0.007 C 
ATOM     15  C   UNL     1     134.985 139.876 137.704  1.00  0.00     0.007 C 
ENDBRANCH  11  13
TORSDOF 1
ENDMDL
MODEL 2
REMARK VINA RESULT:    -4.887      4.592      7.247
REMARK INTER + INTRA:          -5.586
REMARK INTER:                  -5.154
REMARK INTRA:                  -0.432
REMARK UNBOUND:                -0.414
REMARK SMILES CC1=CC[C@@H]2[C@H]3[C@H](C(C)C)CC[C@]2(C)[C@@H]13
REMARK SMILES IDX 1 1 2 2 3 3 4 4 5 5 6 6 15 7 13 8 12 9 11 10 7 11 14 12 8 13
REMARK SMILES IDX 9 14 10 15
REMARK H PARENT
REMARK Flexibility Score: inf
ROOT
ATOM      1  C   UNL     1     135.062 136.530 136.431  1.00  0.00     0.039 C 
ATOM      2  C   UNL     1     134.572 135.184 135.988  1.00  0.00    -0.073 C 
ATOM      3  C   UNL     1     133.378 134.678 136.395  1.00  0.00    -0.027 C 
ATOM      4  C   UNL     1     132.956 133.289 135.901  1.00  0.00     0.031 C 
ATOM      5  C   UNL     1     134.076 132.666 135.004  1.00  0.00     0.003 C 
ATOM      6  C   UNL     1     135.425 132.880 135.730  1.00  0.00     0.004 C 
ATOM      7  C   UNL     1     135.438 134.293 135.096  1.00  0.00     0.024 C 
ATOM      8  C   UNL     1     134.585 133.682 133.955  1.00  0.00    -0.022 C 
ATOM      9  C   UNL     1     135.481 132.928 132.930  1.00  0.00     0.008 C 
ATOM     10  C   UNL     1     136.718 132.275 133.596  1.00  0.00     0.005 C 
ATOM     11  C   UNL     1     136.520 131.950 135.114  1.00  0.00    -0.005 C 
ATOM     12  C   UNL     1     133.555 134.581 133.229  1.00  0.00     0.012 C 
ENDROOT
BRANCH  11  13
ATOM     13  C   UNL     1     137.874 132.018 135.892  1.00  0.00    -0.014 C 
ATOM     14  C   UNL     1     138.923 132.886 135.171  1.00  0.00     0.007 C 
ATOM     15  C   UNL     1     137.671 132.572 137.315  1.00  0.00     0.007 C 
ENDBRANCH  11  13
TORSDOF 1
ENDMDL
MODEL 3
REMARK VINA RESULT:    -4.874      3.263      5.024
REMARK INTER + INTRA:          -5.573
REMARK INTER:                  -5.147
REMARK INTRA:                  -0.426
REMARK UNBOUND:                -0.414
REMARK SMILES CC1=CC[C@@H]2[C@H]3[C@H](C(C)C)CC[C@]2(C)[C@@H]13
REMARK SMILES IDX 1 1 2 2 3 3 4 4 5 5 6 6 15 7 13 8 12 9 11 10 7 11 14 12 8 13
REMARK SMILES IDX 9 14 10 15
REMARK H PARENT
REMARK Flexibility Score: inf
ROOT
ATOM      1  C   UNL     1     136.216 134.643 136.464  1.00  0.00     0.039 C 
ATOM      2  C   UNL     1     137.608 134.428 135.950  1.00  0.00    -0.073 C 
ATOM      3  C   UNL     1     138.278 133.260 136.135  1.00  0.00    -0.027 C 
ATOM      4  C   UNL     1     139.702 133.126 135.583  1.00  0.00     0.031 C 
ATOM      5  C   UNL     1     140.152 134.464 134.910  1.00  0.00     0.003 C 
ATOM      6  C   UNL     1     139.771 135.618 135.868  1.00  0.00     0.004 C 
ATOM      7  C   UNL     1     138.359 135.555 135.237  1.00  0.00     0.024 C 
ATOM      8  C   UNL     1     139.058 135.014 133.963  1.00  0.00    -0.022 C 
ATOM      9  C   UNL     1     139.667 136.175 133.125  1.00  0.00     0.008 C 
ATOM     10  C   UNL     1     140.159 137.347 134.010  1.00  0.00     0.005 C 
ATOM     11  C   UNL     1     140.535 136.922 135.468  1.00  0.00    -0.005 C 
ATOM     12  C   UNL     1     138.293 134.021 133.055  1.00  0.00     0.012 C 
ENDROOT
BRANCH  11  13
ATOM     13  C   UNL     1     140.300 138.091 136.480  1.00  0.00    -0.014 C 
ATOM     14  C   UNL     1     139.318 139.147 135.939  1.00  0.00     0.007 C 
ATOM     15  C   UNL     1     139.764 137.563 137.824  1.00  0.00     0.007 C 
ENDBRANCH  11  13
TORSDOF 1
ENDMDL
MODEL 4
REMARK VINA RESULT:    -4.862      3.229      4.936
REMARK INTER + INTRA:          -5.560
REMARK INTER:                  -5.132
REMARK INTRA:                  -0.428
REMARK UNBOUND:                -0.414
REMARK SMILES CC1=CC[C@@H]2[C@H]3[C@H](C(C)C)CC[C@]2(C)[C@@H]13
REMARK SMILES IDX 1 1 2 2 3 3 4 4 5 5 6 6 15 7 13 8 12 9 11 10 7 11 14 12 8 13
REMARK SMILES IDX 9 14 10 15
REMARK H PARENT
REMARK Flexibility Score: inf
ROOT
ATOM      1  C   UNL     1     136.527 137.633 136.481  1.00  0.00     0.039 C 
ATOM      2  C   UNL     1     135.174 138.123 136.057  1.00  0.00    -0.073 C 
ATOM      3  C   UNL     1     134.658 139.300 136.499  1.00  0.00    -0.027 C 
ATOM      4  C   UNL     1     133.264 139.723 136.022  1.00  0.00     0.031 C 
ATOM      5  C   UNL     1     132.648 138.622 135.096  1.00  0.00     0.003 C 
ATOM      6  C   UNL     1     132.878 137.256 135.784  1.00  0.00     0.004 C 
ATOM      7  C   UNL     1     134.288 137.273 135.145  1.00  0.00     0.024 C 
ATOM      8  C   UNL     1     133.665 138.151 134.029  1.00  0.00    -0.022 C 
ATOM      9  C   UNL     1     132.915 137.277 132.984  1.00  0.00     0.008 C 
ATOM     10  C   UNL     1     132.277 136.016 133.617  1.00  0.00     0.005 C 
ATOM     11  C   UNL     1     131.955 136.169 135.141  1.00  0.00    -0.005 C 
ATOM     12  C   UNL     1     134.551 139.209 133.329  1.00  0.00     0.012 C 
ENDROOT
BRANCH  11  13
ATOM     13  C   UNL     1     132.039 134.794 135.881  1.00  0.00    -0.014 C 
ATOM     14  C   UNL     1     132.896 133.767 135.118  1.00  0.00     0.007 C 
ATOM     15  C   UNL     1     132.617 134.961 137.299  1.00  0.00     0.007 C 
ENDBRANCH  11  13
TORSDOF 1
ENDMDL
MODEL 5
REMARK VINA RESULT:    -4.803      1.294      2.607
REMARK INTER + INTRA:          -5.497
REMARK INTER:                  -5.219
REMARK INTRA:                  -0.279
REMARK UNBOUND:                -0.414
REMARK SMILES CC1=CC[C@@H]2[C@H]3[C@H](C(C)C)CC[C@]2(C)[C@@H]13
REMARK SMILES IDX 1 1 2 2 3 3 4 4 5 5 6 6 15 7 13 8 12 9 11 10 7 11 14 12 8 13
REMARK SMILES IDX 9 14 10 15
REMARK H PARENT
REMARK Flexibility Score: inf
ROOT
ATOM      1  C   UNL     1     138.130 134.918 136.508  1.00  0.00     0.039 C 
ATOM      2  C   UNL     1     138.490 136.265 137.061  1.00  0.00    -0.073 C 
ATOM      3  C   UNL     1     138.968 136.426 138.324  1.00  0.00    -0.027 C 
ATOM      4  C   UNL     1     139.304 137.839 138.813  1.00  0.00     0.031 C 
ATOM      5  C   UNL     1     138.967 138.893 137.707  1.00  0.00     0.003 C 
ATOM      6  C   UNL     1     137.564 138.553 137.153  1.00  0.00     0.004 C 
ATOM      7  C   UNL     1     138.275 137.532 136.232  1.00  0.00     0.024 C 
ATOM      8  C   UNL     1     139.516 138.456 136.328  1.00  0.00    -0.022 C 
ATOM      9  C   UNL     1     139.396 139.656 135.346  1.00  0.00     0.008 C 
ATOM     10  C   UNL     1     137.929 140.114 135.148  1.00  0.00     0.005 C 
ATOM     11  C   UNL     1     136.993 139.768 136.353  1.00  0.00    -0.005 C 
ATOM     12  C   UNL     1     140.927 137.823 136.256  1.00  0.00     0.012 C 
ENDROOT
BRANCH  11  13
ATOM     13  C   UNL     1     135.520 139.540 135.881  1.00  0.00    -0.014 C 
ATOM     14  C   UNL     1     134.596 140.715 136.251  1.00  0.00     0.007 C 
ATOM     15  C   UNL     1     135.451 139.320 134.358  1.00  0.00     0.007 C 
ENDBRANCH  11  13
TORSDOF 1
ENDMDL
MODEL 6
REMARK VINA RESULT:    -4.780      3.692      6.197
REMARK INTER + INTRA:          -5.473
REMARK INTER:                  -5.194
REMARK INTRA:                  -0.279
REMARK UNBOUND:                -0.414
REMARK SMILES CC1=CC[C@@H]2[C@H]3[C@H](C(C)C)CC[C@]2(C)[C@@H]13
REMARK SMILES IDX 1 1 2 2 3 3 4 4 5 5 6 6 15 7 13 8 12 9 11 10 7 11 14 12 8 13
REMARK SMILES IDX 9 14 10 15
REMARK H PARENT
REMARK Flexibility Score: inf
ROOT
ATOM      1  C   UNL     1     134.863 134.479 136.447  1.00  0.00     0.039 C 
ATOM      2  C   UNL     1     136.206 134.113 137.006  1.00  0.00    -0.073 C 
ATOM      3  C   UNL     1     136.356 133.613 138.261  1.00  0.00    -0.027 C 
ATOM      4  C   UNL     1     137.766 133.273 138.759  1.00  0.00     0.031 C 
ATOM      5  C   UNL     1     138.829 133.634 137.670  1.00  0.00     0.003 C 
ATOM      6  C   UNL     1     138.489 135.046 137.139  1.00  0.00     0.004 C 
ATOM      7  C   UNL     1     137.480 134.349 136.194  1.00  0.00     0.024 C 
ATOM      8  C   UNL     1     138.409 133.110 136.276  1.00  0.00    -0.022 C 
ATOM      9  C   UNL     1     139.618 133.253 135.309  1.00  0.00     0.008 C 
ATOM     10  C   UNL     1     140.071 134.725 135.143  1.00  0.00     0.005 C 
ATOM     11  C   UNL     1     139.710 135.637 136.362  1.00  0.00    -0.005 C 
ATOM     12  C   UNL     1     137.782 131.699 136.171  1.00  0.00     0.012 C 
ENDROOT
BRANCH  11  13
ATOM     13  C   UNL     1     139.480 137.118 135.916  1.00  0.00    -0.014 C 
ATOM     14  C   UNL     1     140.656 138.036 136.299  1.00  0.00     0.007 C 
ATOM     15  C   UNL     1     139.257 137.213 134.395  1.00  0.00     0.007 C 
ENDBRANCH  11  13
TORSDOF 1
ENDMDL
MODEL 7
REMARK VINA RESULT:    -4.763      2.468      4.452
REMARK INTER + INTRA:          -5.456
REMARK INTER:                  -5.152
REMARK INTRA:                  -0.303
REMARK UNBOUND:                -0.414
REMARK SMILES CC1=CC[C@@H]2[C@H]3[C@H](C(C)C)CC[C@]2(C)[C@@H]13
REMARK SMILES IDX 1 1 2 2 3 3 4 4 5 5 6 6 15 7 13 8 12 9 11 10 7 11 14 12 8 13
REMARK SMILES IDX 9 14 10 15
REMARK H PARENT
REMARK Flexibility Score: inf
ROOT
ATOM      1  C   UNL     1     137.805 138.147 136.564  1.00  0.00     0.039 C 
ATOM      2  C   UNL     1     136.464 138.522 137.119  1.00  0.00    -0.073 C 
ATOM      3  C   UNL     1     136.314 139.032 138.371  1.00  0.00    -0.027 C 
ATOM      4  C   UNL     1     134.905 139.382 138.864  1.00  0.00     0.031 C 
ATOM      5  C   UNL     1     133.841 139.017 137.777  1.00  0.00     0.003 C 
ATOM      6  C   UNL     1     134.176 137.600 137.256  1.00  0.00     0.004 C 
ATOM      7  C   UNL     1     135.189 138.286 136.307  1.00  0.00     0.024 C 
ATOM      8  C   UNL     1     134.266 139.530 136.380  1.00  0.00    -0.022 C 
ATOM      9  C   UNL     1     133.057 139.385 135.412  1.00  0.00     0.008 C 
ATOM     10  C   UNL     1     132.598 137.914 135.256  1.00  0.00     0.005 C 
ATOM     11  C   UNL     1     132.953 137.009 136.482  1.00  0.00    -0.005 C 
ATOM     12  C   UNL     1     134.898 140.938 136.266  1.00  0.00     0.012 C 
ENDROOT
BRANCH  11  13
ATOM     13  C   UNL     1     133.178 135.524 136.047  1.00  0.00    -0.014 C 
ATOM     14  C   UNL     1     134.266 134.825 136.883  1.00  0.00     0.007 C 
ATOM     15  C   UNL     1     131.875 134.709 136.156  1.00  0.00     0.007 C 
ENDBRANCH  11  13
TORSDOF 1
ENDMDL
MODEL 8
REMARK VINA RESULT:    -4.763      4.217      7.091
REMARK INTER + INTRA:          -5.455
REMARK INTER:                  -5.150
REMARK INTRA:                  -0.305
REMARK UNBOUND:                -0.414
REMARK SMILES CC1=CC[C@@H]2[C@H]3[C@H](C(C)C)CC[C@]2(C)[C@@H]13
REMARK SMILES IDX 1 1 2 2 3 3 4 4 5 5 6 6 15 7 13 8 12 9 11 10 7 11 14 12 8 13
REMARK SMILES IDX 9 14 10 15
REMARK H PARENT
REMARK Flexibility Score: inf
ROOT
ATOM      1  C   UNL     1     134.478 137.798 136.494  1.00  0.00     0.039 C 
ATOM      2  C   UNL     1     134.123 136.463 137.077  1.00  0.00    -0.073 C 
ATOM      3  C   UNL     1     133.622 136.331 138.334  1.00  0.00    -0.027 C 
ATOM      4  C   UNL     1     133.293 134.927 138.856  1.00  0.00     0.031 C 
ATOM      5  C   UNL     1     133.665 133.848 137.787  1.00  0.00     0.003 C 
ATOM      6  C   UNL     1     135.076 134.191 137.252  1.00  0.00     0.004 C 
ATOM      7  C   UNL     1     134.372 135.176 136.288  1.00  0.00     0.024 C 
ATOM      8  C   UNL     1     133.140 134.239 136.385  1.00  0.00    -0.022 C 
ATOM      9  C   UNL     1     133.295 133.013 135.440  1.00  0.00     0.008 C 
ATOM     10  C   UNL     1     134.771 132.570 135.284  1.00  0.00     0.005 C 
ATOM     11  C   UNL     1     135.678 132.961 136.498  1.00  0.00    -0.005 C 
ATOM     12  C   UNL     1     131.724 134.851 136.267  1.00  0.00     0.012 C 
ENDROOT
BRANCH  11  13
ATOM     13  C   UNL     1     137.158 133.195 136.050  1.00  0.00    -0.014 C 
ATOM     14  C   UNL     1     137.860 134.281 136.888  1.00  0.00     0.007 C 
ATOM     15  C   UNL     1     137.979 131.896 136.142  1.00  0.00     0.007 C 
ENDBRANCH  11  13
TORSDOF 1
ENDMDL
MODEL 9
REMARK VINA RESULT:    -4.648      4.771      6.034
REMARK INTER + INTRA:          -5.333
REMARK INTER:                  -5.057
REMARK INTRA:                  -0.277
REMARK UNBOUND:                -0.414
REMARK SMILES CC1=CC[C@@H]2[C@H]3[C@H](C(C)C)CC[C@]2(C)[C@@H]13
REMARK SMILES IDX 1 1 2 2 3 3 4 4 5 5 6 6 15 7 13 8 12 9 11 10 7 11 14 12 8 13
REMARK SMILES IDX 9 14 10 15
REMARK H PARENT
REMARK Flexibility Score: inf
ROOT
ATOM      1  C   UNL     1     137.622 133.011 139.433  1.00  0.00     0.039 C 
ATOM      2  C   UNL     1     137.456 133.578 138.054  1.00  0.00    -0.073 C 
ATOM      3  C   UNL     1     138.225 134.599 137.593  1.00  0.00    -0.027 C 
ATOM      4  C   UNL     1     137.985 135.125 136.173  1.00  0.00     0.031 C 
ATOM      5  C   UNL     1     136.793 134.363 135.505  1.00  0.00     0.003 C 
ATOM      6  C   UNL     1     135.644 134.300 136.539  1.00  0.00     0.004 C 
ATOM      7  C   UNL     1     136.359 133.058 137.123  1.00  0.00     0.024 C 
ATOM      8  C   UNL     1     136.925 132.833 135.697  1.00  0.00    -0.022 C 
ATOM      9  C   UNL     1     135.879 132.129 134.786  1.00  0.00     0.008 C 
ATOM     10  C   UNL     1     134.424 132.526 135.140  1.00  0.00     0.005 C 
ATOM     11  C   UNL     1     134.303 133.926 135.829  1.00  0.00    -0.005 C 
ATOM     12  C   UNL     1     138.320 132.182 135.540  1.00  0.00     0.012 C 
ENDROOT
BRANCH  11  13
ATOM     13  C   UNL     1     133.075 133.979 136.796  1.00  0.00    -0.014 C 
ATOM     14  C   UNL     1     133.401 134.699 138.119  1.00  0.00     0.007 C 
ATOM     15  C   UNL     1     131.876 134.685 136.134  1.00  0.00     0.007 C 
ENDBRANCH  11  13
TORSDOF 1
ENDMDL
