MODEL 1
REMARK VINA RESULT:    -3.955      0.000      0.000
REMARK INTER + INTRA:          -6.315
REMARK INTER:                  -5.574
REMARK INTRA:                  -0.741
REMARK UNBOUND:                -0.741
REMARK SMILES CCCCCCCCC(=O)[O-]
REMARK SMILES IDX 6 1 7 2 8 3 9 4 10 5 11 6 5 7 4 8 3 9 2 10 1 11
REMARK H PARENT
REMARK Flexibility Score: inf
ROOT
ATOM      1  C   UNL     1      89.024  77.201  73.624  1.00  0.00     0.000 C 
ENDROOT
BRANCH   1   2
ATOM      2  C   UNL     1      88.630  76.711  72.223  1.00  0.00     0.006 C 
BRANCH   2   3
ATOM      3  C   UNL     1      87.812  77.754  71.451  1.00  0.00     0.053 C 
BRANCH   3   4
ATOM      4  C   UNL     1      88.685  78.818  70.861  1.00  0.00     0.041 C 
ATOM      5  O   UNL     1      88.522  80.025  71.184  1.00  0.00    -0.550 OA
ATOM      6  O   UNL     1      89.658  78.482  69.928  1.00  0.00    -0.550 OA
ENDBRANCH   3   4
ENDBRANCH   2   3
ENDBRANCH   1   2
BRANCH   1   7
ATOM      7  C   UNL     1      88.926  76.062  74.651  1.00  0.00     0.000 C 
BRANCH   7   8
ATOM      8  C   UNL     1      87.495  75.522  74.804  1.00  0.00    -0.000 C 
BRANCH   8   9
ATOM      9  C   UNL     1      86.524  76.572  75.367  1.00  0.00    -0.000 C 
BRANCH   9  10
ATOM     10  C   UNL     1      85.189  76.608  74.605  1.00  0.00    -0.003 C 
ATOM     11  C   UNL     1      85.186  75.706  73.371  1.00  0.00     0.004 C 
ENDBRANCH   9  10
ENDBRANCH   8   9
ENDBRANCH   7   8
ENDBRANCH   1   7
TORSDOF 7
ENDMDL
MODEL 2
REMARK VINA RESULT:    -3.897      2.975      4.955
REMARK INTER + INTRA:          -6.233
REMARK INTER:                  -5.534
REMARK INTRA:                  -0.698
REMARK UNBOUND:                -0.741
REMARK SMILES CCCCCCCCC(=O)[O-]
REMARK SMILES IDX 6 1 7 2 8 3 9 4 10 5 11 6 5 7 4 8 3 9 2 10 1 11
REMARK H PARENT
REMARK Flexibility Score: inf
ROOT
ATOM      1  C   UNL     1      89.785  76.135  73.053  1.00  0.00     0.000 C 
ENDROOT
BRANCH   1   2
ATOM      2  C   UNL     1      88.782  76.962  73.871  1.00  0.00     0.006 C 
BRANCH   2   3
ATOM      3  C   UNL     1      87.333  76.721  73.430  1.00  0.00     0.053 C 
BRANCH   3   4
ATOM      4  C   UNL     1      86.537  76.028  74.493  1.00  0.00     0.041 C 
ATOM      5  O   UNL     1      86.218  74.817  74.359  1.00  0.00    -0.550 OA
ATOM      6  O   UNL     1      86.118  76.729  75.617  1.00  0.00    -0.550 OA
ENDBRANCH   3   4
ENDBRANCH   2   3
ENDBRANCH   1   2
BRANCH   1   7
ATOM      7  C   UNL     1      89.335  76.020  71.589  1.00  0.00     0.000 C 
BRANCH   7   8
ATOM      8  C   UNL     1      90.409  76.500  70.598  1.00  0.00    -0.000 C 
BRANCH   8   9
ATOM      9  C   UNL     1      90.080  77.872  69.988  1.00  0.00    -0.000 C 
BRANCH   9  10
ATOM     10  C   UNL     1      88.614  78.278  70.210  1.00  0.00    -0.003 C 
ATOM     11  C   UNL     1      88.467  79.492  71.128  1.00  0.00     0.004 C 
ENDBRANCH   9  10
ENDBRANCH   8   9
ENDBRANCH   7   8
ENDBRANCH   1   7
TORSDOF 7
ENDMDL
MODEL 3
REMARK VINA RESULT:    -3.870      1.701      2.633
REMARK INTER + INTRA:          -6.195
REMARK INTER:                  -5.734
REMARK INTRA:                  -0.462
REMARK UNBOUND:                -0.741
REMARK SMILES CCCCCCCCC(=O)[O-]
REMARK SMILES IDX 6 1 7 2 8 3 9 4 10 5 11 6 5 7 4 8 3 9 2 10 1 11
REMARK H PARENT
REMARK Flexibility Score: inf
ROOT
ATOM      1  C   UNL     1      87.767  78.377  71.698  1.00  0.00     0.000 C 
ENDROOT
BRANCH   1   2
ATOM      2  C   UNL     1      89.103  78.984  71.243  1.00  0.00     0.006 C 
BRANCH   2   3
ATOM      3  C   UNL     1      89.606  78.365  69.933  1.00  0.00     0.053 C 
BRANCH   3   4
ATOM      4  C   UNL     1      90.987  77.803  70.079  1.00  0.00     0.041 C 
ATOM      5  O   UNL     1      91.994  78.540  69.906  1.00  0.00    -0.550 OA
ATOM      6  O   UNL     1      91.163  76.457  70.375  1.00  0.00    -0.550 OA
ENDBRANCH   3   4
ENDBRANCH   2   3
ENDBRANCH   1   2
BRANCH   1   7
ATOM      7  C   UNL     1      87.994  77.064  72.464  1.00  0.00     0.000 C 
BRANCH   7   8
ATOM      8  C   UNL     1      89.044  77.201  73.579  1.00  0.00    -0.000 C 
BRANCH   8   9
ATOM      9  C   UNL     1      88.456  76.955  74.978  1.00  0.00    -0.000 C 
BRANCH   9  10
ATOM     10  C   UNL     1      87.220  76.041  74.944  1.00  0.00    -0.003 C 
ATOM     11  C   UNL     1      85.954  76.737  75.443  1.00  0.00     0.004 C 
ENDBRANCH   9  10
ENDBRANCH   8   9
ENDBRANCH   7   8
ENDBRANCH   1   7
TORSDOF 7
ENDMDL
MODEL 4
REMARK VINA RESULT:    -3.814     12.290     13.729
REMARK INTER + INTRA:          -6.116
REMARK INTER:                  -5.655
REMARK INTRA:                  -0.461
REMARK UNBOUND:                -0.741
REMARK SMILES CCCCCCCCC(=O)[O-]
REMARK SMILES IDX 6 1 7 2 8 3 9 4 10 5 11 6 5 7 4 8 3 9 2 10 1 11
REMARK H PARENT
REMARK Flexibility Score: inf
ROOT
ATOM      1  C   UNL     1      95.124  85.785  79.610  1.00  0.00     0.000 C 
ENDROOT
BRANCH   1   2
ATOM      2  C   UNL     1      94.867  84.323  80.007  1.00  0.00     0.006 C 
BRANCH   2   3
ATOM      3  C   UNL     1      93.705  83.702  79.222  1.00  0.00     0.053 C 
BRANCH   3   4
ATOM      4  C   UNL     1      92.413  84.410  79.491  1.00  0.00     0.041 C 
ATOM      5  O   UNL     1      91.837  84.280  80.604  1.00  0.00    -0.550 OA
ATOM      6  O   UNL     1      91.826  85.187  78.500  1.00  0.00    -0.550 OA
ENDBRANCH   3   4
ENDBRANCH   2   3
ENDBRANCH   1   2
BRANCH   1   7
ATOM      7  C   UNL     1      96.614  86.136  79.748  1.00  0.00     0.000 C 
BRANCH   7   8
ATOM      8  C   UNL     1      97.211  85.676  81.088  1.00  0.00    -0.000 C 
BRANCH   8   9
ATOM      9  C   UNL     1      98.730  85.455  81.013  1.00  0.00    -0.000 C 
BRANCH   9  10
ATOM     10  C   UNL     1      99.167  84.140  81.680  1.00  0.00    -0.003 C 
ATOM     11  C   UNL     1      98.006  83.169  81.893  1.00  0.00     0.004 C 
ENDBRANCH   9  10
ENDBRANCH   8   9
ENDBRANCH   7   8
ENDBRANCH   1   7
TORSDOF 7
ENDMDL
MODEL 5
REMARK VINA RESULT:    -3.711     14.310     15.443
REMARK INTER + INTRA:          -5.970
REMARK INTER:                  -5.524
REMARK INTRA:                  -0.446
REMARK UNBOUND:                -0.741
REMARK SMILES CCCCCCCCC(=O)[O-]
REMARK SMILES IDX 6 1 7 2 8 3 9 4 10 5 11 6 5 7 4 8 3 9 2 10 1 11
REMARK H PARENT
REMARK Flexibility Score: inf
ROOT
ATOM      1  C   UNL     1      97.190  84.217  81.819  1.00  0.00     0.000 C 
ENDROOT
BRANCH   1   2
ATOM      2  C   UNL     1      98.368  83.239  81.941  1.00  0.00     0.006 C 
BRANCH   2   3
ATOM      3  C   UNL     1      99.700  83.878  81.532  1.00  0.00     0.053 C 
BRANCH   3   4
ATOM      4  C   UNL     1     100.690  83.868  82.656  1.00  0.00     0.041 C 
ATOM      5  O   UNL     1     100.293  83.896  83.852  1.00  0.00    -0.550 OA
ATOM      6  O   UNL     1     102.052  83.861  82.384  1.00  0.00    -0.550 OA
ENDBRANCH   3   4
ENDBRANCH   2   3
ENDBRANCH   1   2
BRANCH   1   7
ATOM      7  C   UNL     1      97.606  85.482  81.051  1.00  0.00     0.000 C 
BRANCH   7   8
ATOM      8  C   UNL     1      96.613  85.854  79.937  1.00  0.00    -0.000 C 
BRANCH   8   9
ATOM      9  C   UNL     1      95.154  85.859  80.424  1.00  0.00    -0.000 C 
BRANCH   9  10
ATOM     10  C   UNL     1      94.176  85.343  79.357  1.00  0.00    -0.003 C 
ATOM     11  C   UNL     1      94.028  83.821  79.375  1.00  0.00     0.004 C 
ENDBRANCH   9  10
ENDBRANCH   8   9
ENDBRANCH   7   8
ENDBRANCH   1   7
TORSDOF 7
ENDMDL
MODEL 6
REMARK VINA RESULT:    -3.692     10.832     11.625
REMARK INTER + INTRA:          -5.944
REMARK INTER:                  -5.664
REMARK INTRA:                  -0.280
REMARK UNBOUND:                -0.741
REMARK SMILES CCCCCCCCC(=O)[O-]
REMARK SMILES IDX 6 1 7 2 8 3 9 4 10 5 11 6 5 7 4 8 3 9 2 10 1 11
REMARK H PARENT
REMARK Flexibility Score: inf
ROOT
ATOM      1  C   UNL     1      92.772  84.353  79.284  1.00  0.00     0.000 C 
ENDROOT
BRANCH   1   2
ATOM      2  C   UNL     1      94.259  83.970  79.246  1.00  0.00     0.006 C 
BRANCH   2   3
ATOM      3  C   UNL     1      95.088  84.755  80.270  1.00  0.00     0.053 C 
BRANCH   3   4
ATOM      4  C   UNL     1      95.991  85.750  79.608  1.00  0.00     0.041 C 
ATOM      5  O   UNL     1      97.191  85.860  79.974  1.00  0.00    -0.550 OA
ATOM      6  O   UNL     1      95.497  86.580  78.610  1.00  0.00    -0.550 OA
ENDBRANCH   3   4
ENDBRANCH   2   3
ENDBRANCH   1   2
BRANCH   1   7
ATOM      7  C   UNL     1      92.307  84.607  80.727  1.00  0.00     0.000 C 
BRANCH   7   8
ATOM      8  C   UNL     1      90.910  84.030  81.011  1.00  0.00    -0.000 C 
BRANCH   8   9
ATOM      9  C   UNL     1      89.904  84.341  79.891  1.00  0.00    -0.000 C 
BRANCH   9  10
ATOM     10  C   UNL     1      88.446  84.170  80.347  1.00  0.00    -0.003 C 
ATOM     11  C   UNL     1      87.664  83.186  79.477  1.00  0.00     0.004 C 
ENDBRANCH   9  10
ENDBRANCH   8   9
ENDBRANCH   7   8
ENDBRANCH   1   7
TORSDOF 7
ENDMDL
MODEL 7
REMARK VINA RESULT:    -3.673     10.258     11.043
REMARK INTER + INTRA:          -5.917
REMARK INTER:                  -5.643
REMARK INTRA:                  -0.273
REMARK UNBOUND:                -0.741
REMARK SMILES CCCCCCCCC(=O)[O-]
REMARK SMILES IDX 6 1 7 2 8 3 9 4 10 5 11 6 5 7 4 8 3 9 2 10 1 11
REMARK H PARENT
REMARK Flexibility Score: inf
ROOT
ATOM      1  C   UNL     1      92.341  84.532  80.849  1.00  0.00     0.000 C 
ENDROOT
BRANCH   1   2
ATOM      2  C   UNL     1      92.751  84.320  79.384  1.00  0.00     0.006 C 
BRANCH   2   3
ATOM      3  C   UNL     1      94.234  83.960  79.240  1.00  0.00     0.053 C 
BRANCH   3   4
ATOM      4  C   UNL     1      95.120  85.140  79.499  1.00  0.00     0.041 C 
ATOM      5  O   UNL     1      96.018  85.079  80.380  1.00  0.00    -0.550 OA
ATOM      6  O   UNL     1      94.931  86.320  78.790  1.00  0.00    -0.550 OA
ENDBRANCH   3   4
ENDBRANCH   2   3
ENDBRANCH   1   2
BRANCH   1   7
ATOM      7  C   UNL     1      90.916  84.014  81.100  1.00  0.00     0.000 C 
BRANCH   7   8
ATOM      8  C   UNL     1      89.949  84.357  79.954  1.00  0.00    -0.000 C 
BRANCH   8   9
ATOM      9  C   UNL     1      88.477  84.140  80.338  1.00  0.00    -0.000 C 
BRANCH   9  10
ATOM     10  C   UNL     1      87.760  83.163  79.392  1.00  0.00    -0.003 C 
ATOM     11  C   UNL     1      86.892  82.148  80.136  1.00  0.00     0.004 C 
ENDBRANCH   9  10
ENDBRANCH   8   9
ENDBRANCH   7   8
ENDBRANCH   1   7
TORSDOF 7
ENDMDL
MODEL 8
REMARK VINA RESULT:    -3.634     11.655     12.579
REMARK INTER + INTRA:          -5.862
REMARK INTER:                  -5.178
REMARK INTRA:                  -0.684
REMARK UNBOUND:                -0.741
REMARK SMILES CCCCCCCCC(=O)[O-]
REMARK SMILES IDX 6 1 7 2 8 3 9 4 10 5 11 6 5 7 4 8 3 9 2 10 1 11
REMARK H PARENT
REMARK Flexibility Score: inf
ROOT
ATOM      1  C   UNL     1      93.337  83.659  79.396  1.00  0.00     0.000 C 
ENDROOT
BRANCH   1   2
ATOM      2  C   UNL     1      94.652  84.251  79.925  1.00  0.00     0.006 C 
BRANCH   2   3
ATOM      3  C   UNL     1      94.786  85.745  79.608  1.00  0.00     0.053 C 
BRANCH   3   4
ATOM      4  C   UNL     1      96.168  86.250  79.889  1.00  0.00     0.041 C 
ATOM      5  O   UNL     1      96.496  87.421  79.561  1.00  0.00    -0.550 OA
ATOM      6  O   UNL     1      97.106  85.416  80.485  1.00  0.00    -0.550 OA
ENDBRANCH   3   4
ENDBRANCH   2   3
ENDBRANCH   1   2
BRANCH   1   7
ATOM      7  C   UNL     1      92.403  84.768  78.887  1.00  0.00     0.000 C 
BRANCH   7   8
ATOM      8  C   UNL     1      91.112  84.884  79.715  1.00  0.00    -0.000 C 
BRANCH   8   9
ATOM      9  C   UNL     1      91.069  83.887  80.884  1.00  0.00    -0.000 C 
BRANCH   9  10
ATOM     10  C   UNL     1      90.973  84.586  82.250  1.00  0.00    -0.003 C 
ATOM     11  C   UNL     1      92.203  85.436  82.568  1.00  0.00     0.004 C 
ENDBRANCH   9  10
ENDBRANCH   8   9
ENDBRANCH   7   8
ENDBRANCH   1   7
TORSDOF 7
ENDMDL
MODEL 9
REMARK VINA RESULT:    -3.597     12.929     13.975
REMARK INTER + INTRA:          -5.810
REMARK INTER:                  -5.473
REMARK INTRA:                  -0.337
REMARK UNBOUND:                -0.741
REMARK SMILES CCCCCCCCC(=O)[O-]
REMARK SMILES IDX 6 1 7 2 8 3 9 4 10 5 11 6 5 7 4 8 3 9 2 10 1 11
REMARK H PARENT
REMARK Flexibility Score: inf
ROOT
ATOM      1  C   UNL     1      96.448  85.988  79.993  1.00  0.00     0.000 C 
ENDROOT
BRANCH   1   2
ATOM      2  C   UNL     1      96.994  85.092  81.115  1.00  0.00     0.006 C 
BRANCH   2   3
ATOM      3  C   UNL     1      98.523  85.148  81.212  1.00  0.00     0.053 C 
BRANCH   3   4
ATOM      4  C   UNL     1      99.093  83.868  81.742  1.00  0.00     0.041 C 
ATOM      5  O   UNL     1      98.333  82.902  82.022  1.00  0.00    -0.550 OA
ATOM      6  O   UNL     1     100.460  83.751  81.958  1.00  0.00    -0.550 OA
ENDBRANCH   3   4
ENDBRANCH   2   3
ENDBRANCH   1   2
BRANCH   1   7
ATOM      7  C   UNL     1      94.959  85.701  79.738  1.00  0.00     0.000 C 
BRANCH   7   8
ATOM      8  C   UNL     1      94.707  84.269  79.239  1.00  0.00    -0.000 C 
BRANCH   8   9
ATOM      9  C   UNL     1      93.522  83.595  79.950  1.00  0.00    -0.000 C 
BRANCH   9  10
ATOM     10  C   UNL     1      92.438  84.602  80.369  1.00  0.00    -0.003 C 
ATOM     11  C   UNL     1      91.362  84.794  79.300  1.00  0.00     0.004 C 
ENDBRANCH   9  10
ENDBRANCH   8   9
ENDBRANCH   7   8
ENDBRANCH   1   7
TORSDOF 7
ENDMDL
