MODEL 1
REMARK VINA RESULT:    -6.736      0.000      0.000
REMARK INTER + INTRA:          -8.351
REMARK INTER:                  -8.114
REMARK INTRA:                  -0.238
REMARK UNBOUND:                -0.238
REMARK SMILES Oc1cc(O)c2c(c1)O[C@@H](c1ccc(O)c(O)c1)[C@@H](O)C2
REMARK SMILES IDX 21 1 19 2 10 3 9 4 7 5 8 6 2 7 3 8 4 9 6 10 20 11 11 13
REMARK SMILES IDX 18 14 12 15 16 16 13 17 14 18 17 19 15 21 5 23 1 25
REMARK H PARENT 20 12 17 20 15 22 5 24 1 26
REMARK Flexibility Score: inf
ROOT
ATOM      1  C   UNL     1       2.960 -61.880 188.802  1.00  0.00     0.079 C 
ATOM      2  C   UNL     1       3.066 -60.424 189.300  1.00  0.00     0.164 C 
ATOM      3  C   UNL     1       4.138 -60.312 190.402  1.00  0.00     0.232 C 
ATOM      4  O   UNL     1       5.387 -60.816 189.928  1.00  0.00    -0.482 OA
ATOM      5  C   UNL     1       5.471 -61.955 189.122  1.00  0.00     0.131 A 
ATOM      6  C   UNL     1       6.726 -62.518 188.873  1.00  0.00     0.093 A 
ATOM      7  C   UNL     1       6.843 -63.662 188.084  1.00  0.00     0.122 A 
ATOM      8  C   UNL     1       5.695 -64.255 187.545  1.00  0.00     0.092 A 
ATOM      9  C   UNL     1       4.430 -63.706 187.781  1.00  0.00     0.126 A 
ATOM     10  C   UNL     1       4.310 -62.522 188.548  1.00  0.00     0.039 A 
ENDROOT
BRANCH   2  11
ATOM     11  O   UNL     1       3.322 -59.544 188.231  1.00  0.00    -0.389 OA
ATOM     12  H   UNL     1       3.656 -58.690 188.610  1.00  0.00     0.211 HD
ENDBRANCH   2  11
BRANCH   3  13
ATOM     13  C   UNL     1       4.288 -58.889 190.889  1.00  0.00    -0.001 A 
ATOM     14  C   UNL     1       5.265 -58.055 190.319  1.00  0.00     0.057 A 
ATOM     15  C   UNL     1       3.506 -58.401 191.951  1.00  0.00     0.012 A 
ATOM     16  C   UNL     1       5.441 -56.743 190.784  1.00  0.00     0.157 A 
ATOM     17  C   UNL     1       3.680 -57.094 192.414  1.00  0.00     0.050 A 
ATOM     18  C   UNL     1       4.645 -56.261 191.831  1.00  0.00     0.157 A 
BRANCH  16  19
ATOM     19  O   UNL     1       6.403 -55.915 190.212  1.00  0.00    -0.504 OA
ATOM     20  H   UNL     1       7.287 -56.281 189.877  1.00  0.00     0.293 HD
ENDBRANCH  16  19
BRANCH  18  21
ATOM     21  O   UNL     1       4.821 -54.957 192.290  1.00  0.00    -0.504 OA
ATOM     22  H   UNL     1       5.594 -54.708 192.896  1.00  0.00     0.293 HD
ENDBRANCH  18  21
ENDBRANCH   3  13
BRANCH   9  23
ATOM     23  O   UNL     1       3.318 -64.365 187.251  1.00  0.00    -0.507 OA
ATOM     24  H   UNL     1       2.816 -64.039 186.436  1.00  0.00     0.293 HD
ENDBRANCH   9  23
BRANCH   7  25
ATOM     25  O   UNL     1       8.103 -64.209 187.847  1.00  0.00    -0.508 OA
ATOM     26  H   UNL     1       8.263 -65.208 187.889  1.00  0.00     0.293 HD
ENDBRANCH   7  25
TORSDOF 6
ENDMDL
MODEL 2
REMARK VINA RESULT:    -6.663      1.755      2.997
REMARK INTER + INTRA:          -8.264
REMARK INTER:                  -8.053
REMARK INTRA:                  -0.211
REMARK UNBOUND:                -0.238
REMARK SMILES Oc1cc(O)c2c(c1)O[C@@H](c1ccc(O)c(O)c1)[C@@H](O)C2
REMARK SMILES IDX 21 1 19 2 10 3 9 4 7 5 8 6 2 7 3 8 4 9 6 10 20 11 11 13
REMARK SMILES IDX 18 14 12 15 16 16 13 17 14 18 17 19 15 21 5 23 1 25
REMARK H PARENT 20 12 17 20 15 22 5 24 1 26
REMARK Flexibility Score: inf
ROOT
ATOM      1  C   UNL     1       7.315 -62.121 189.537  1.00  0.00     0.079 C 
ATOM      2  C   UNL     1       6.828 -61.191 190.668  1.00  0.00     0.164 C 
ATOM      3  C   UNL     1       5.680 -60.293 190.164  1.00  0.00     0.232 C 
ATOM      4  O   UNL     1       4.626 -61.093 189.628  1.00  0.00    -0.482 OA
ATOM      5  C   UNL     1       4.877 -62.234 188.859  1.00  0.00     0.131 A 
ATOM      6  C   UNL     1       3.815 -62.845 188.186  1.00  0.00     0.093 A 
ATOM      7  C   UNL     1       4.035 -63.977 187.401  1.00  0.00     0.122 A 
ATOM      8  C   UNL     1       5.328 -64.499 187.279  1.00  0.00     0.092 A 
ATOM      9  C   UNL     1       6.404 -63.902 187.946  1.00  0.00     0.126 A 
ATOM     10  C   UNL     1       6.180 -62.778 188.776  1.00  0.00     0.039 A 
ENDROOT
BRANCH   2  11
ATOM     11  O   UNL     1       6.449 -61.934 191.803  1.00  0.00    -0.389 OA
ATOM     12  H   UNL     1       6.378 -61.309 192.570  1.00  0.00     0.211 HD
ENDBRANCH   2  11
BRANCH   3  13
ATOM     13  C   UNL     1       5.158 -59.392 191.260  1.00  0.00    -0.001 A 
ATOM     14  C   UNL     1       6.054 -58.816 192.177  1.00  0.00     0.057 A 
ATOM     15  C   UNL     1       3.779 -59.168 191.419  1.00  0.00     0.012 A 
ATOM     16  C   UNL     1       5.583 -58.006 193.221  1.00  0.00     0.157 A 
ATOM     17  C   UNL     1       3.310 -58.361 192.458  1.00  0.00     0.050 A 
ATOM     18  C   UNL     1       4.209 -57.776 193.360  1.00  0.00     0.157 A 
BRANCH  16  19
ATOM     19  O   UNL     1       6.474 -57.429 194.123  1.00  0.00    -0.504 OA
ATOM     20  H   UNL     1       7.253 -56.861 193.810  1.00  0.00     0.293 HD
ENDBRANCH  16  19
BRANCH  18  21
ATOM     21  O   UNL     1       3.744 -56.970 194.398  1.00  0.00    -0.504 OA
ATOM     22  H   UNL     1       3.307 -56.073 194.217  1.00  0.00     0.293 HD
ENDBRANCH  18  21
ENDBRANCH   3  13
BRANCH   9  23
ATOM     23  O   UNL     1       7.677 -64.443 187.753  1.00  0.00    -0.507 OA
ATOM     24  H   UNL     1       8.506 -63.879 187.619  1.00  0.00     0.293 HD
ENDBRANCH   9  23
BRANCH   7  25
ATOM     25  O   UNL     1       2.963 -64.572 186.739  1.00  0.00    -0.508 OA
ATOM     26  H   UNL     1       2.061 -64.686 187.185  1.00  0.00     0.293 HD
ENDBRANCH   7  25
TORSDOF 6
ENDMDL
MODEL 3
REMARK VINA RESULT:    -6.383      1.924      2.337
REMARK INTER + INTRA:          -7.926
REMARK INTER:                  -7.543
REMARK INTRA:                  -0.383
REMARK UNBOUND:                -0.238
REMARK SMILES Oc1cc(O)c2c(c1)O[C@@H](c1ccc(O)c(O)c1)[C@@H](O)C2
REMARK SMILES IDX 21 1 19 2 10 3 9 4 7 5 8 6 2 7 3 8 4 9 6 10 20 11 11 13
REMARK SMILES IDX 18 14 12 15 16 16 13 17 14 18 17 19 15 21 5 23 1 25
REMARK H PARENT 20 12 17 20 15 22 5 24 1 26
REMARK Flexibility Score: inf
ROOT
ATOM      1  C   UNL     1       4.242 -60.352 189.502  1.00  0.00     0.079 C 
ATOM      2  C   UNL     1       4.325 -59.018 190.272  1.00  0.00     0.164 C 
ATOM      3  C   UNL     1       4.922 -59.246 191.676  1.00  0.00     0.232 C 
ATOM      4  O   UNL     1       6.190 -59.893 191.573  1.00  0.00    -0.482 OA
ATOM      5  C   UNL     1       6.432 -60.911 190.645  1.00  0.00     0.131 A 
ATOM      6  C   UNL     1       7.616 -61.648 190.741  1.00  0.00     0.093 A 
ATOM      7  C   UNL     1       7.882 -62.677 189.839  1.00  0.00     0.122 A 
ATOM      8  C   UNL     1       6.953 -62.981 188.836  1.00  0.00     0.092 A 
ATOM      9  C   UNL     1       5.762 -62.254 188.723  1.00  0.00     0.126 A 
ATOM     10  C   UNL     1       5.507 -61.181 189.611  1.00  0.00     0.039 A 
ENDROOT
BRANCH   2  11
ATOM     11  O   UNL     1       5.058 -58.061 189.543  1.00  0.00    -0.389 OA
ATOM     12  H   UNL     1       5.188 -58.408 188.624  1.00  0.00     0.211 HD
ENDBRANCH   2  11
BRANCH   3  13
ATOM     13  C   UNL     1       5.046 -57.950 192.444  1.00  0.00    -0.001 A 
ATOM     14  C   UNL     1       6.318 -57.436 192.747  1.00  0.00     0.057 A 
ATOM     15  C   UNL     1       3.906 -57.278 192.918  1.00  0.00     0.012 A 
ATOM     16  C   UNL     1       6.450 -56.254 193.490  1.00  0.00     0.157 A 
ATOM     17  C   UNL     1       4.037 -56.099 193.657  1.00  0.00     0.050 A 
ATOM     18  C   UNL     1       5.308 -55.583 193.943  1.00  0.00     0.157 A 
BRANCH  16  19
ATOM     19  O   UNL     1       7.712 -55.741 193.781  1.00  0.00    -0.504 OA
ATOM     20  H   UNL     1       8.528 -56.340 193.839  1.00  0.00     0.293 HD
ENDBRANCH  16  19
BRANCH  18  21
ATOM     21  O   UNL     1       5.443 -54.407 194.679  1.00  0.00    -0.504 OA
ATOM     22  H   UNL     1       4.738 -53.679 194.649  1.00  0.00     0.293 HD
ENDBRANCH  18  21
ENDBRANCH   3  13
BRANCH   9  23
ATOM     23  O   UNL     1       4.856 -62.629 187.729  1.00  0.00    -0.507 OA
ATOM     24  H   UNL     1       4.516 -63.575 187.616  1.00  0.00     0.293 HD
ENDBRANCH   9  23
BRANCH   7  25
ATOM     25  O   UNL     1       9.068 -63.400 189.950  1.00  0.00    -0.508 OA
ATOM     26  H   UNL     1       9.439 -63.933 189.173  1.00  0.00     0.293 HD
ENDBRANCH   7  25
TORSDOF 6
ENDMDL
MODEL 4
REMARK VINA RESULT:    -5.631      2.116      6.787
REMARK INTER + INTRA:          -7.021
REMARK INTER:                  -7.004
REMARK INTRA:                  -0.018
REMARK UNBOUND:                -0.238
REMARK SMILES Oc1cc(O)c2c(c1)O[C@@H](c1ccc(O)c(O)c1)[C@@H](O)C2
REMARK SMILES IDX 21 1 19 2 10 3 9 4 7 5 8 6 2 7 3 8 4 9 6 10 20 11 11 13
REMARK SMILES IDX 18 14 12 15 16 16 13 17 14 18 17 19 15 21 5 23 1 25
REMARK H PARENT 20 12 17 20 15 22 5 24 1 26
REMARK Flexibility Score: inf
ROOT
ATOM      1  C   UNL     1       3.210 -58.564 190.511  1.00  0.00     0.079 C 
ATOM      2  C   UNL     1       3.839 -59.833 189.901  1.00  0.00     0.164 C 
ATOM      3  C   UNL     1       5.361 -59.849 190.151  1.00  0.00     0.232 C 
ATOM      4  O   UNL     1       5.633 -59.726 191.547  1.00  0.00    -0.482 OA
ATOM      5  C   UNL     1       4.898 -58.872 192.375  1.00  0.00     0.131 A 
ATOM      6  C   UNL     1       5.350 -58.636 193.676  1.00  0.00     0.093 A 
ATOM      7  C   UNL     1       4.646 -57.779 194.523  1.00  0.00     0.122 A 
ATOM      8  C   UNL     1       3.485 -57.146 194.064  1.00  0.00     0.092 A 
ATOM      9  C   UNL     1       3.015 -57.372 192.764  1.00  0.00     0.126 A 
ATOM     10  C   UNL     1       3.703 -58.271 191.915  1.00  0.00     0.039 A 
ENDROOT
BRANCH   2  11
ATOM     11  O   UNL     1       3.217 -60.994 190.400  1.00  0.00    -0.389 OA
ATOM     12  H   UNL     1       3.919 -61.675 190.561  1.00  0.00     0.211 HD
ENDBRANCH   2  11
BRANCH   3  13
ATOM     13  C   UNL     1       6.003 -61.099 189.592  1.00  0.00    -0.001 A 
ATOM     14  C   UNL     1       7.258 -61.512 190.067  1.00  0.00     0.057 A 
ATOM     15  C   UNL     1       5.391 -61.823 188.553  1.00  0.00     0.012 A 
ATOM     16  C   UNL     1       7.883 -62.649 189.533  1.00  0.00     0.157 A 
ATOM     17  C   UNL     1       6.012 -62.956 188.022  1.00  0.00     0.050 A 
ATOM     18  C   UNL     1       7.258 -63.374 188.511  1.00  0.00     0.157 A 
BRANCH  16  19
ATOM     19  O   UNL     1       9.123 -63.063 190.013  1.00  0.00    -0.504 OA
ATOM     20  H   UNL     1       9.619 -63.845 189.599  1.00  0.00     0.293 HD
ENDBRANCH  16  19
BRANCH  18  21
ATOM     21  O   UNL     1       7.880 -64.504 187.983  1.00  0.00    -0.504 OA
ATOM     22  H   UNL     1       8.678 -64.428 187.363  1.00  0.00     0.293 HD
ENDBRANCH  18  21
ENDBRANCH   3  13
BRANCH   9  23
ATOM     23  O   UNL     1       1.875 -56.680 192.349  1.00  0.00    -0.507 OA
ATOM     24  H   UNL     1       0.964 -57.112 192.264  1.00  0.00     0.293 HD
ENDBRANCH   9  23
BRANCH   7  25
ATOM     25  O   UNL     1       5.112 -57.556 195.817  1.00  0.00    -0.508 OA
ATOM     26  H   UNL     1       5.784 -58.176 196.253  1.00  0.00     0.293 HD
ENDBRANCH   7  25
TORSDOF 6
ENDMDL
MODEL 5
REMARK VINA RESULT:    -5.529      1.788      6.734
REMARK INTER + INTRA:          -6.898
REMARK INTER:                  -6.943
REMARK INTRA:                   0.045
REMARK UNBOUND:                -0.238
REMARK SMILES Oc1cc(O)c2c(c1)O[C@@H](c1ccc(O)c(O)c1)[C@@H](O)C2
REMARK SMILES IDX 21 1 19 2 10 3 9 4 7 5 8 6 2 7 3 8 4 9 6 10 20 11 11 13
REMARK SMILES IDX 18 14 12 15 16 16 13 17 14 18 17 19 15 21 5 23 1 25
REMARK H PARENT 20 12 17 20 15 22 5 24 1 26
REMARK Flexibility Score: inf
ROOT
ATOM      1  C   UNL     1       3.128 -58.381 190.722  1.00  0.00     0.079 C 
ATOM      2  C   UNL     1       3.139 -59.777 190.067  1.00  0.00     0.164 C 
ATOM      3  C   UNL     1       4.567 -60.146 189.617  1.00  0.00     0.232 C 
ATOM      4  O   UNL     1       5.471 -60.056 190.718  1.00  0.00    -0.482 OA
ATOM      5  C   UNL     1       5.387 -59.033 191.667  1.00  0.00     0.131 A 
ATOM      6  C   UNL     1       6.425 -58.877 192.590  1.00  0.00     0.093 A 
ATOM      7  C   UNL     1       6.376 -57.858 193.542  1.00  0.00     0.122 A 
ATOM      8  C   UNL     1       5.286 -56.981 193.567  1.00  0.00     0.092 A 
ATOM      9  C   UNL     1       4.236 -57.121 192.652  1.00  0.00     0.126 A 
ATOM     10  C   UNL     1       4.261 -58.178 191.711  1.00  0.00     0.039 A 
ENDROOT
BRANCH   2  11
ATOM     11  O   UNL     1       2.601 -60.746 190.937  1.00  0.00    -0.389 OA
ATOM     12  H   UNL     1       3.314 -61.402 191.146  1.00  0.00     0.211 HD
ENDBRANCH   2  11
BRANCH   3  13
ATOM     13  C   UNL     1       4.616 -61.525 188.999  1.00  0.00    -0.001 A 
ATOM     14  C   UNL     1       5.851 -62.174 188.836  1.00  0.00     0.057 A 
ATOM     15  C   UNL     1       3.448 -62.146 188.522  1.00  0.00     0.012 A 
ATOM     16  C   UNL     1       5.917 -63.439 188.232  1.00  0.00     0.157 A 
ATOM     17  C   UNL     1       3.513 -63.405 187.921  1.00  0.00     0.050 A 
ATOM     18  C   UNL     1       4.746 -64.057 187.777  1.00  0.00     0.157 A 
BRANCH  16  19
ATOM     19  O   UNL     1       7.142 -64.085 188.081  1.00  0.00    -0.504 OA
ATOM     20  H   UNL     1       7.332 -64.682 187.285  1.00  0.00     0.293 HD
ENDBRANCH  16  19
BRANCH  18  21
ATOM     21  O   UNL     1       4.814 -65.313 187.178  1.00  0.00    -0.504 OA
ATOM     22  H   UNL     1       4.692 -65.432 186.179  1.00  0.00     0.293 HD
ENDBRANCH  18  21
ENDBRANCH   3  13
BRANCH   9  23
ATOM     23  O   UNL     1       3.195 -56.191 192.699  1.00  0.00    -0.507 OA
ATOM     24  H   UNL     1       2.725 -55.842 191.875  1.00  0.00     0.293 HD
ENDBRANCH   9  23
BRANCH   7  25
ATOM     25  O   UNL     1       7.421 -57.719 194.454  1.00  0.00    -0.508 OA
ATOM     26  H   UNL     1       8.300 -58.207 194.331  1.00  0.00     0.293 HD
ENDBRANCH   7  25
TORSDOF 6
ENDMDL
MODEL 6
REMARK VINA RESULT:    -5.512      9.351     10.939
REMARK INTER + INTRA:          -6.877
REMARK INTER:                  -6.541
REMARK INTRA:                  -0.336
REMARK UNBOUND:                -0.238
REMARK SMILES Oc1cc(O)c2c(c1)O[C@@H](c1ccc(O)c(O)c1)[C@@H](O)C2
REMARK SMILES IDX 21 1 19 2 10 3 9 4 7 5 8 6 2 7 3 8 4 9 6 10 20 11 11 13
REMARK SMILES IDX 18 14 12 15 16 16 13 17 14 18 17 19 15 21 5 23 1 25
REMARK H PARENT 20 12 17 20 15 22 5 24 1 26
REMARK Flexibility Score: inf
ROOT
ATOM      1  C   UNL     1       4.316 -59.963 198.521  1.00  0.00     0.079 C 
ATOM      2  C   UNL     1       5.337 -58.903 198.983  1.00  0.00     0.164 C 
ATOM      3  C   UNL     1       5.675 -59.099 200.475  1.00  0.00     0.232 C 
ATOM      4  O   UNL     1       6.133 -60.432 200.706  1.00  0.00    -0.482 OA
ATOM      5  C   UNL     1       5.558 -61.536 200.070  1.00  0.00     0.131 A 
ATOM      6  C   UNL     1       5.903 -62.821 200.499  1.00  0.00     0.093 A 
ATOM      7  C   UNL     1       5.337 -63.943 199.894  1.00  0.00     0.122 A 
ATOM      8  C   UNL     1       4.411 -63.781 198.856  1.00  0.00     0.092 A 
ATOM      9  C   UNL     1       4.053 -62.503 198.412  1.00  0.00     0.126 A 
ATOM     10  C   UNL     1       4.656 -61.363 198.995  1.00  0.00     0.039 A 
ENDROOT
BRANCH   2  11
ATOM     11  O   UNL     1       6.493 -58.933 198.178  1.00  0.00    -0.389 OA
ATOM     12  H   UNL     1       6.316 -58.394 197.365  1.00  0.00     0.211 HD
ENDBRANCH   2  11
BRANCH   3  13
ATOM     13  C   UNL     1       6.699 -58.094 200.950  1.00  0.00    -0.001 A 
ATOM     14  C   UNL     1       8.032 -58.494 201.144  1.00  0.00     0.057 A 
ATOM     15  C   UNL     1       6.327 -56.775 201.263  1.00  0.00     0.012 A 
ATOM     16  C   UNL     1       8.987 -57.582 201.618  1.00  0.00     0.157 A 
ATOM     17  C   UNL     1       7.278 -55.866 201.734  1.00  0.00     0.050 A 
ATOM     18  C   UNL     1       8.610 -56.265 201.911  1.00  0.00     0.157 A 
BRANCH  16  19
ATOM     19  O   UNL     1      10.310 -57.977 201.801  1.00  0.00    -0.504 OA
ATOM     20  H   UNL     1      10.576 -58.614 202.543  1.00  0.00     0.293 HD
ENDBRANCH  16  19
BRANCH  18  21
ATOM     21  O   UNL     1       9.561 -55.361 202.381  1.00  0.00    -0.504 OA
ATOM     22  H   UNL     1      10.173 -54.858 201.748  1.00  0.00     0.293 HD
ENDBRANCH  18  21
ENDBRANCH   3  13
BRANCH   9  23
ATOM     23  O   UNL     1       3.094 -62.404 197.401  1.00  0.00    -0.507 OA
ATOM     24  H   UNL     1       2.709 -63.206 196.920  1.00  0.00     0.293 HD
ENDBRANCH   9  23
BRANCH   7  25
ATOM     25  O   UNL     1       5.694 -65.216 200.335  1.00  0.00    -0.508 OA
ATOM     26  H   UNL     1       5.426 -65.553 201.252  1.00  0.00     0.293 HD
ENDBRANCH   7  25
TORSDOF 6
ENDMDL
MODEL 7
REMARK VINA RESULT:    -5.400      9.778     11.733
REMARK INTER + INTRA:          -6.743
REMARK INTER:                  -6.556
REMARK INTRA:                  -0.186
REMARK UNBOUND:                -0.238
REMARK SMILES Oc1cc(O)c2c(c1)O[C@@H](c1ccc(O)c(O)c1)[C@@H](O)C2
REMARK SMILES IDX 21 1 19 2 10 3 9 4 7 5 8 6 2 7 3 8 4 9 6 10 20 11 11 13
REMARK SMILES IDX 18 14 12 15 16 16 13 17 14 18 17 19 15 21 5 23 1 25
REMARK H PARENT 20 12 17 20 15 22 5 24 1 26
REMARK Flexibility Score: inf
ROOT
ATOM      1  C   UNL     1       8.984 -56.068 196.936  1.00  0.00     0.079 C 
ATOM      2  C   UNL     1      10.152 -55.851 195.952  1.00  0.00     0.164 C 
ATOM      3  C   UNL     1      11.391 -55.320 196.701  1.00  0.00     0.232 C 
ATOM      4  O   UNL     1      11.738 -56.201 197.769  1.00  0.00    -0.482 OA
ATOM      5  C   UNL     1      10.770 -56.815 198.570  1.00  0.00     0.131 A 
ATOM      6  C   UNL     1      11.174 -57.488 199.726  1.00  0.00     0.093 A 
ATOM      7  C   UNL     1      10.232 -58.100 200.553  1.00  0.00     0.122 A 
ATOM      8  C   UNL     1       8.873 -58.031 200.228  1.00  0.00     0.092 A 
ATOM      9  C   UNL     1       8.447 -57.363 199.074  1.00  0.00     0.126 A 
ATOM     10  C   UNL     1       9.403 -56.776 198.210  1.00  0.00     0.039 A 
ENDROOT
BRANCH   2  11
ATOM     11  O   UNL     1      10.439 -57.034 195.243  1.00  0.00    -0.389 OA
ATOM     12  H   UNL     1      11.365 -56.966 194.894  1.00  0.00     0.211 HD
ENDBRANCH   2  11
BRANCH   3  13
ATOM     13  C   UNL     1      12.564 -55.128 195.767  1.00  0.00    -0.001 A 
ATOM     14  C   UNL     1      12.346 -54.675 194.455  1.00  0.00     0.057 A 
ATOM     15  C   UNL     1      13.871 -55.457 196.169  1.00  0.00     0.012 A 
ATOM     16  C   UNL     1      13.420 -54.525 193.565  1.00  0.00     0.157 A 
ATOM     17  C   UNL     1      14.941 -55.308 195.283  1.00  0.00     0.050 A 
ATOM     18  C   UNL     1      14.720 -54.840 193.981  1.00  0.00     0.157 A 
BRANCH  16  19
ATOM     19  O   UNL     1      13.203 -54.067 192.268  1.00  0.00    -0.504 OA
ATOM     20  H   UNL     1      13.966 -53.750 191.682  1.00  0.00     0.293 HD
ENDBRANCH  16  19
BRANCH  18  21
ATOM     21  O   UNL     1      15.785 -54.689 193.094  1.00  0.00    -0.504 OA
ATOM     22  H   UNL     1      15.703 -54.948 192.118  1.00  0.00     0.293 HD
ENDBRANCH  18  21
ENDBRANCH   3  13
BRANCH   9  23
ATOM     23  O   UNL     1       7.075 -57.292 198.824  1.00  0.00    -0.507 OA
ATOM     24  H   UNL     1       6.390 -57.838 199.329  1.00  0.00     0.293 HD
ENDBRANCH   9  23
BRANCH   7  25
ATOM     25  O   UNL     1      10.655 -58.767 201.701  1.00  0.00    -0.508 OA
ATOM     26  H   UNL     1      10.095 -58.776 202.545  1.00  0.00     0.293 HD
ENDBRANCH   7  25
TORSDOF 6
ENDMDL
MODEL 8
REMARK VINA RESULT:    -5.322      2.979      3.809
REMARK INTER + INTRA:          -6.648
REMARK INTER:                  -6.258
REMARK INTRA:                  -0.391
REMARK UNBOUND:                -0.238
REMARK SMILES Oc1cc(O)c2c(c1)O[C@@H](c1ccc(O)c(O)c1)[C@@H](O)C2
REMARK SMILES IDX 21 1 19 2 10 3 9 4 7 5 8 6 2 7 3 8 4 9 6 10 20 11 11 13
REMARK SMILES IDX 18 14 12 15 16 16 13 17 14 18 17 19 15 21 5 23 1 25
REMARK H PARENT 20 12 17 20 15 22 5 24 1 26
REMARK Flexibility Score: inf
ROOT
ATOM      1  C   UNL     1       4.033 -58.875 190.832  1.00  0.00     0.079 C 
ATOM      2  C   UNL     1       4.705 -57.822 191.737  1.00  0.00     0.164 C 
ATOM      3  C   UNL     1       5.451 -58.512 192.897  1.00  0.00     0.232 C 
ATOM      4  O   UNL     1       6.384 -59.464 192.387  1.00  0.00    -0.482 OA
ATOM      5  C   UNL     1       6.088 -60.282 191.292  1.00  0.00     0.131 A 
ATOM      6  C   UNL     1       6.952 -61.335 190.980  1.00  0.00     0.093 A 
ATOM      7  C   UNL     1       6.677 -62.178 189.903  1.00  0.00     0.122 A 
ATOM      8  C   UNL     1       5.525 -61.973 189.135  1.00  0.00     0.092 A 
ATOM      9  C   UNL     1       4.647 -60.923 189.432  1.00  0.00     0.126 A 
ATOM     10  C   UNL     1       4.943 -60.041 190.498  1.00  0.00     0.039 A 
ENDROOT
BRANCH   2  11
ATOM     11  O   UNL     1       5.559 -56.987 190.991  1.00  0.00    -0.389 OA
ATOM     12  H   UNL     1       6.451 -56.993 191.425  1.00  0.00     0.211 HD
ENDBRANCH   2  11
BRANCH   3  13
ATOM     13  C   UNL     1       6.148 -57.506 193.785  1.00  0.00    -0.001 A 
ATOM     14  C   UNL     1       7.540 -57.577 193.963  1.00  0.00     0.057 A 
ATOM     15  C   UNL     1       5.417 -56.534 194.491  1.00  0.00     0.012 A 
ATOM     16  C   UNL     1       8.197 -56.674 194.812  1.00  0.00     0.157 A 
ATOM     17  C   UNL     1       6.071 -55.634 195.335  1.00  0.00     0.050 A 
ATOM     18  C   UNL     1       7.461 -55.699 195.497  1.00  0.00     0.157 A 
BRANCH  16  19
ATOM     19  O   UNL     1       9.578 -56.740 194.979  1.00  0.00    -0.504 OA
ATOM     20  H   UNL     1      10.104 -57.570 194.729  1.00  0.00     0.293 HD
ENDBRANCH  16  19
BRANCH  18  21
ATOM     21  O   UNL     1       8.117 -54.802 196.338  1.00  0.00    -0.504 OA
ATOM     22  H   UNL     1       8.442 -53.902 196.003  1.00  0.00     0.293 HD
ENDBRANCH  18  21
ENDBRANCH   3  13
BRANCH   9  23
ATOM     23  O   UNL     1       3.493 -60.793 188.656  1.00  0.00    -0.507 OA
ATOM     24  H   UNL     1       3.048 -61.572 188.188  1.00  0.00     0.293 HD
ENDBRANCH   9  23
BRANCH   7  25
ATOM     25  O   UNL     1       7.551 -63.222 189.607  1.00  0.00    -0.508 OA
ATOM     26  H   UNL     1       8.057 -63.257 188.730  1.00  0.00     0.293 HD
ENDBRANCH   7  25
TORSDOF 6
ENDMDL
MODEL 9
REMARK VINA RESULT:    -5.172     10.656     11.981
REMARK INTER + INTRA:          -6.468
REMARK INTER:                  -6.201
REMARK INTRA:                  -0.267
REMARK UNBOUND:                -0.238
REMARK SMILES Oc1cc(O)c2c(c1)O[C@@H](c1ccc(O)c(O)c1)[C@@H](O)C2
REMARK SMILES IDX 21 1 19 2 10 3 9 4 7 5 8 6 2 7 3 8 4 9 6 10 20 11 11 13
REMARK SMILES IDX 18 14 12 15 16 16 13 17 14 18 17 19 15 21 5 23 1 25
REMARK H PARENT 20 12 17 20 15 22 5 24 1 26
REMARK Flexibility Score: inf
ROOT
ATOM      1  C   UNL     1      10.340 -54.317 195.445  1.00  0.00     0.079 C 
ATOM      2  C   UNL     1      10.098 -54.890 196.856  1.00  0.00     0.164 C 
ATOM      3  C   UNL     1      10.699 -56.307 196.968  1.00  0.00     0.232 C 
ATOM      4  O   UNL     1      12.083 -56.285 196.621  1.00  0.00    -0.482 OA
ATOM      5  C   UNL     1      12.573 -55.507 195.567  1.00  0.00     0.131 A 
ATOM      6  C   UNL     1      13.891 -55.694 195.142  1.00  0.00     0.093 A 
ATOM      7  C   UNL     1      14.405 -54.943 194.085  1.00  0.00     0.122 A 
ATOM      8  C   UNL     1      13.594 -54.002 193.441  1.00  0.00     0.092 A 
ATOM      9  C   UNL     1      12.271 -53.798 193.853  1.00  0.00     0.126 A 
ATOM     10  C   UNL     1      11.758 -54.529 194.951  1.00  0.00     0.039 A 
ENDROOT
BRANCH   2  11
ATOM     11  O   UNL     1      10.610 -54.028 197.845  1.00  0.00    -0.389 OA
ATOM     12  H   UNL     1      11.237 -54.547 198.412  1.00  0.00     0.211 HD
ENDBRANCH   2  11
BRANCH   3  13
ATOM     13  C   UNL     1      10.506 -56.884 198.352  1.00  0.00    -0.001 A 
ATOM     14  C   UNL     1      11.534 -57.635 198.945  1.00  0.00     0.057 A 
ATOM     15  C   UNL     1       9.285 -56.736 199.034  1.00  0.00     0.012 A 
ATOM     16  C   UNL     1      11.358 -58.207 200.214  1.00  0.00     0.157 A 
ATOM     17  C   UNL     1       9.109 -57.305 200.298  1.00  0.00     0.050 A 
ATOM     18  C   UNL     1      10.144 -58.039 200.892  1.00  0.00     0.157 A 
BRANCH  16  19
ATOM     19  O   UNL     1      12.382 -58.943 200.804  1.00  0.00    -0.504 OA
ATOM     20  H   UNL     1      13.053 -58.513 201.431  1.00  0.00     0.293 HD
ENDBRANCH  16  19
BRANCH  18  21
ATOM     21  O   UNL     1       9.973 -58.608 202.153  1.00  0.00    -0.504 OA
ATOM     22  H   UNL     1      10.294 -59.547 202.360  1.00  0.00     0.293 HD
ENDBRANCH  18  21
ENDBRANCH   3  13
BRANCH   9  23
ATOM     23  O   UNL     1      11.498 -52.875 193.145  1.00  0.00    -0.507 OA
ATOM     24  H   UNL     1      11.601 -51.874 193.243  1.00  0.00     0.293 HD
ENDBRANCH   9  23
BRANCH   7  25
ATOM     25  O   UNL     1      15.722 -55.144 193.676  1.00  0.00    -0.508 OA
ATOM     26  H   UNL     1      16.193 -54.487 193.065  1.00  0.00     0.293 HD
ENDBRANCH   7  25
TORSDOF 6
ENDMDL
