MODEL 1
REMARK VINA RESULT:    -4.083      0.000      0.000
REMARK INTER + INTRA:         -10.180
REMARK INTER:                  -7.902
REMARK INTRA:                  -2.278
REMARK UNBOUND:                -2.278
REMARK SMILES CCCCCCCCCCCCCCCCCC(=O)[O-]
REMARK SMILES IDX 10 1 11 2 12 3 13 4 14 5 15 6 16 7 17 8 18 9 19 10 20 11
REMARK SMILES IDX 9 12 8 13 7 14 6 15 5 16 4 17 3 18 2 19 1 20
REMARK H PARENT
REMARK Flexibility Score: inf
ROOT
ATOM      1  C   UNL     1      26.237  25.062 -14.906  1.00  0.00     0.000 C 
ENDROOT
BRANCH   1   2
ATOM      2  C   UNL     1      26.991  26.241 -15.540  1.00  0.00     0.000 C 
BRANCH   2   3
ATOM      3  C   UNL     1      28.178  26.718 -14.685  1.00  0.00     0.000 C 
BRANCH   3   4
ATOM      4  C   UNL     1      29.396  27.109 -15.547  1.00  0.00     0.000 C 
BRANCH   4   5
ATOM      5  C   UNL     1      29.036  27.466 -16.999  1.00  0.00     0.000 C 
BRANCH   5   6
ATOM      6  C   UNL     1      29.021  28.982 -17.255  1.00  0.00     0.000 C 
BRANCH   6   7
ATOM      7  C   UNL     1      27.612  29.587 -17.133  1.00  0.00     0.006 C 
BRANCH   7   8
ATOM      8  C   UNL     1      26.779  29.403 -18.409  1.00  0.00     0.053 C 
BRANCH   8   9
ATOM      9  C   UNL     1      26.833  30.641 -19.248  1.00  0.00     0.041 C 
ATOM     10  O   UNL     1      25.996  31.564 -19.068  1.00  0.00    -0.550 OA
ATOM     11  O   UNL     1      27.835  30.796 -20.196  1.00  0.00    -0.550 OA
ENDBRANCH   8   9
ENDBRANCH   7   8
ENDBRANCH   6   7
ENDBRANCH   5   6
ENDBRANCH   4   5
ENDBRANCH   3   4
ENDBRANCH   2   3
ENDBRANCH   1   2
BRANCH   1  12
ATOM     12  C   UNL     1      27.112  24.249 -13.941  1.00  0.00     0.000 C 
BRANCH  12  13
ATOM     13  C   UNL     1      27.660  22.991 -14.625  1.00  0.00    -0.000 C 
BRANCH  13  14
ATOM     14  C   UNL     1      29.176  23.091 -14.830  1.00  0.00    -0.000 C 
BRANCH  14  15
ATOM     15  C   UNL     1      29.511  23.541 -16.257  1.00  0.00    -0.000 C 
BRANCH  15  16
ATOM     16  C   UNL     1      28.657  22.792 -17.286  1.00  0.00    -0.000 C 
BRANCH  16  17
ATOM     17  C   UNL     1      27.826  23.768 -18.127  1.00  0.00    -0.000 C 
BRANCH  17  18
ATOM     18  C   UNL     1      27.641  23.246 -19.556  1.00  0.00    -0.000 C 
BRANCH  18  19
ATOM     19  C   UNL     1      27.033  24.322 -20.461  1.00  0.00    -0.003 C 
ATOM     20  C   UNL     1      25.941  25.102 -19.734  1.00  0.00     0.004 C 
ENDBRANCH  18  19
ENDBRANCH  17  18
ENDBRANCH  16  17
ENDBRANCH  15  16
ENDBRANCH  14  15
ENDBRANCH  13  14
ENDBRANCH  12  13
ENDBRANCH   1  12
TORSDOF 16
ENDMDL
MODEL 2
REMARK VINA RESULT:    -3.931      3.463      4.460
REMARK INTER + INTRA:          -9.886
REMARK INTER:                  -7.355
REMARK INTRA:                  -2.531
REMARK UNBOUND:                -2.278
REMARK SMILES CCCCCCCCCCCCCCCCCC(=O)[O-]
REMARK SMILES IDX 10 1 11 2 12 3 13 4 14 5 15 6 16 7 17 8 18 9 19 10 20 11
REMARK SMILES IDX 9 12 8 13 7 14 6 15 5 16 4 17 3 18 2 19 1 20
REMARK H PARENT
REMARK Flexibility Score: inf
ROOT
ATOM      1  C   UNL     1      28.162  25.068 -13.885  1.00  0.00     0.000 C 
ENDROOT
BRANCH   1   2
ATOM      2  C   UNL     1      27.652  26.380 -14.502  1.00  0.00     0.000 C 
BRANCH   2   3
ATOM      3  C   UNL     1      27.520  26.306 -16.033  1.00  0.00     0.000 C 
BRANCH   3   4
ATOM      4  C   UNL     1      28.076  27.567 -16.727  1.00  0.00     0.000 C 
BRANCH   4   5
ATOM      5  C   UNL     1      29.593  27.751 -16.549  1.00  0.00     0.000 C 
BRANCH   5   6
ATOM      6  C   UNL     1      30.398  26.514 -16.980  1.00  0.00     0.000 C 
BRANCH   6   7
ATOM      7  C   UNL     1      31.737  26.392 -16.231  1.00  0.00     0.006 C 
BRANCH   7   8
ATOM      8  C   UNL     1      31.567  26.437 -14.707  1.00  0.00     0.053 C 
BRANCH   8   9
ATOM      9  C   UNL     1      32.876  26.178 -14.030  1.00  0.00     0.041 C 
ATOM     10  O   UNL     1      33.953  26.278 -14.674  1.00  0.00    -0.550 OA
ATOM     11  O   UNL     1      32.910  25.872 -12.676  1.00  0.00    -0.550 OA
ENDBRANCH   8   9
ENDBRANCH   7   8
ENDBRANCH   6   7
ENDBRANCH   5   6
ENDBRANCH   4   5
ENDBRANCH   3   4
ENDBRANCH   2   3
ENDBRANCH   1   2
BRANCH   1  12
ATOM     12  C   UNL     1      27.243  23.875 -14.188  1.00  0.00     0.000 C 
BRANCH  12  13
ATOM     13  C   UNL     1      28.021  22.742 -14.867  1.00  0.00    -0.000 C 
BRANCH  13  14
ATOM     14  C   UNL     1      29.401  23.221 -15.331  1.00  0.00    -0.000 C 
BRANCH  14  15
ATOM     15  C   UNL     1      29.683  22.781 -16.772  1.00  0.00    -0.000 C 
BRANCH  15  16
ATOM     16  C   UNL     1      28.394  22.752 -17.602  1.00  0.00    -0.000 C 
BRANCH  16  17
ATOM     17  C   UNL     1      28.234  24.042 -18.414  1.00  0.00    -0.000 C 
BRANCH  17  18
ATOM     18  C   UNL     1      28.146  23.742 -19.915  1.00  0.00    -0.000 C 
BRANCH  18  19
ATOM     19  C   UNL     1      26.783  24.155 -20.480  1.00  0.00    -0.003 C 
ATOM     20  C   UNL     1      26.048  25.087 -19.521  1.00  0.00     0.004 C 
ENDBRANCH  18  19
ENDBRANCH  17  18
ENDBRANCH  16  17
ENDBRANCH  15  16
ENDBRANCH  14  15
ENDBRANCH  13  14
ENDBRANCH  12  13
ENDBRANCH   1  12
TORSDOF 16
ENDMDL
MODEL 3
REMARK VINA RESULT:    -3.926      2.864      5.269
REMARK INTER + INTRA:          -9.877
REMARK INTER:                  -7.549
REMARK INTRA:                  -2.328
REMARK UNBOUND:                -2.278
REMARK SMILES CCCCCCCCCCCCCCCCCC(=O)[O-]
REMARK SMILES IDX 10 1 11 2 12 3 13 4 14 5 15 6 16 7 17 8 18 9 19 10 20 11
REMARK SMILES IDX 9 12 8 13 7 14 6 15 5 16 4 17 3 18 2 19 1 20
REMARK H PARENT
REMARK Flexibility Score: inf
ROOT
ATOM      1  C   UNL     1      29.912  26.715 -12.860  1.00  0.00     0.000 C 
ENDROOT
BRANCH   1   2
ATOM      2  C   UNL     1      28.590  25.951 -12.693  1.00  0.00     0.000 C 
BRANCH   2   3
ATOM      3  C   UNL     1      27.627  26.161 -13.874  1.00  0.00     0.000 C 
BRANCH   3   4
ATOM      4  C   UNL     1      27.104  24.826 -14.442  1.00  0.00     0.000 C 
BRANCH   4   5
ATOM      5  C   UNL     1      27.439  24.614 -15.929  1.00  0.00     0.000 C 
BRANCH   5   6
ATOM      6  C   UNL     1      26.319  25.093 -16.867  1.00  0.00     0.000 C 
BRANCH   6   7
ATOM      7  C   UNL     1      26.705  24.980 -18.352  1.00  0.00     0.006 C 
BRANCH   7   8
ATOM      8  C   UNL     1      27.865  24.002 -18.587  1.00  0.00     0.053 C 
BRANCH   8   9
ATOM      9  C   UNL     1      27.774  23.409 -19.958  1.00  0.00     0.041 C 
ATOM     10  O   UNL     1      26.864  23.774 -20.748  1.00  0.00    -0.550 OA
ATOM     11  O   UNL     1      28.723  22.488 -20.382  1.00  0.00    -0.550 OA
ENDBRANCH   8   9
ENDBRANCH   7   8
ENDBRANCH   6   7
ENDBRANCH   5   6
ENDBRANCH   4   5
ENDBRANCH   3   4
ENDBRANCH   2   3
ENDBRANCH   1   2
BRANCH   1  12
ATOM     12  C   UNL     1      30.921  25.967 -13.744  1.00  0.00     0.000 C 
BRANCH  12  13
ATOM     13  C   UNL     1      31.347  26.828 -14.939  1.00  0.00    -0.000 C 
BRANCH  13  14
ATOM     14  C   UNL     1      31.259  26.036 -16.249  1.00  0.00    -0.000 C 
BRANCH  14  15
ATOM     15  C   UNL     1      30.190  26.623 -17.178  1.00  0.00    -0.000 C 
BRANCH  15  16
ATOM     16  C   UNL     1      29.721  27.995 -16.681  1.00  0.00    -0.000 C 
BRANCH  16  17
ATOM     17  C   UNL     1      28.207  28.159 -16.866  1.00  0.00    -0.000 C 
BRANCH  17  18
ATOM     18  C   UNL     1      27.844  29.618 -17.167  1.00  0.00    -0.000 C 
BRANCH  18  19
ATOM     19  C   UNL     1      27.491  29.803 -18.646  1.00  0.00    -0.003 C 
ATOM     20  C   UNL     1      26.375  30.829 -18.823  1.00  0.00     0.004 C 
ENDBRANCH  18  19
ENDBRANCH  17  18
ENDBRANCH  16  17
ENDBRANCH  15  16
ENDBRANCH  14  15
ENDBRANCH  13  14
ENDBRANCH  12  13
ENDBRANCH   1  12
TORSDOF 16
ENDMDL
MODEL 4
REMARK VINA RESULT:    -3.898      3.065      5.677
REMARK INTER + INTRA:          -9.822
REMARK INTER:                  -7.128
REMARK INTRA:                  -2.694
REMARK UNBOUND:                -2.278
REMARK SMILES CCCCCCCCCCCCCCCCCC(=O)[O-]
REMARK SMILES IDX 10 1 11 2 12 3 13 4 14 5 15 6 16 7 17 8 18 9 19 10 20 11
REMARK SMILES IDX 9 12 8 13 7 14 6 15 5 16 4 17 3 18 2 19 1 20
REMARK H PARENT
REMARK Flexibility Score: inf
ROOT
ATOM      1  C   UNL     1      26.887  25.602 -18.029  1.00  0.00     0.000 C 
ENDROOT
BRANCH   1   2
ATOM      2  C   UNL     1      26.437  24.300 -18.709  1.00  0.00     0.000 C 
BRANCH   2   3
ATOM      3  C   UNL     1      26.944  24.179 -20.157  1.00  0.00     0.000 C 
BRANCH   3   4
ATOM      4  C   UNL     1      28.255  23.370 -20.249  1.00  0.00     0.000 C 
BRANCH   4   5
ATOM      5  C   UNL     1      28.566  22.554 -18.982  1.00  0.00     0.000 C 
BRANCH   5   6
ATOM      6  C   UNL     1      29.972  22.830 -18.425  1.00  0.00     0.000 C 
BRANCH   6   7
ATOM      7  C   UNL     1      30.378  24.308 -18.556  1.00  0.00     0.006 C 
BRANCH   7   8
ATOM      8  C   UNL     1      31.897  24.512 -18.477  1.00  0.00     0.053 C 
BRANCH   8   9
ATOM      9  C   UNL     1      32.462  24.744 -19.843  1.00  0.00     0.041 C 
ATOM     10  O   UNL     1      33.454  25.505 -19.997  1.00  0.00    -0.550 OA
ATOM     11  O   UNL     1      31.925  24.084 -20.940  1.00  0.00    -0.550 OA
ENDBRANCH   8   9
ENDBRANCH   7   8
ENDBRANCH   6   7
ENDBRANCH   5   6
ENDBRANCH   4   5
ENDBRANCH   3   4
ENDBRANCH   2   3
ENDBRANCH   1   2
BRANCH   1  12
ATOM     12  C   UNL     1      26.820  25.524 -16.496  1.00  0.00     0.000 C 
BRANCH  12  13
ATOM     13  C   UNL     1      27.622  24.327 -15.973  1.00  0.00    -0.000 C 
BRANCH  13  14
ATOM     14  C   UNL     1      28.822  24.789 -15.138  1.00  0.00    -0.000 C 
BRANCH  14  15
ATOM     15  C   UNL     1      28.938  26.318 -15.138  1.00  0.00    -0.000 C 
BRANCH  15  16
ATOM     16  C   UNL     1      30.240  26.771 -15.808  1.00  0.00    -0.000 C 
BRANCH  16  17
ATOM     17  C   UNL     1      29.962  27.790 -16.919  1.00  0.00    -0.000 C 
BRANCH  17  18
ATOM     18  C   UNL     1      28.638  28.524 -16.675  1.00  0.00    -0.000 C 
BRANCH  18  19
ATOM     19  C   UNL     1      28.334  29.503 -17.814  1.00  0.00    -0.003 C 
ATOM     20  C   UNL     1      26.843  29.825 -17.882  1.00  0.00     0.004 C 
ENDBRANCH  18  19
ENDBRANCH  17  18
ENDBRANCH  16  17
ENDBRANCH  15  16
ENDBRANCH  14  15
ENDBRANCH  13  14
ENDBRANCH  12  13
ENDBRANCH   1  12
TORSDOF 16
ENDMDL
MODEL 5
REMARK VINA RESULT:    -3.812      3.471      5.319
REMARK INTER + INTRA:          -9.656
REMARK INTER:                  -7.062
REMARK INTRA:                  -2.594
REMARK UNBOUND:                -2.278
REMARK SMILES CCCCCCCCCCCCCCCCCC(=O)[O-]
REMARK SMILES IDX 10 1 11 2 12 3 13 4 14 5 15 6 16 7 17 8 18 9 19 10 20 11
REMARK SMILES IDX 9 12 8 13 7 14 6 15 5 16 4 17 3 18 2 19 1 20
REMARK H PARENT
REMARK Flexibility Score: inf
ROOT
ATOM      1  C   UNL     1      27.613  27.315 -16.903  1.00  0.00     0.000 C 
ENDROOT
BRANCH   1   2
ATOM      2  C   UNL     1      29.036  27.878 -16.771  1.00  0.00     0.000 C 
BRANCH   2   3
ATOM      3  C   UNL     1      30.102  26.777 -16.636  1.00  0.00     0.000 C 
BRANCH   3   4
ATOM      4  C   UNL     1      31.181  27.135 -15.593  1.00  0.00     0.000 C 
BRANCH   4   5
ATOM      5  C   UNL     1      31.311  26.102 -14.460  1.00  0.00     0.000 C 
BRANCH   5   6
ATOM      6  C   UNL     1      30.271  26.304 -13.346  1.00  0.00     0.000 C 
BRANCH   6   7
ATOM      7  C   UNL     1      29.100  25.312 -13.446  1.00  0.00     0.006 C 
BRANCH   7   8
ATOM      8  C   UNL     1      27.928  25.687 -12.530  1.00  0.00     0.053 C 
BRANCH   8   9
ATOM      9  C   UNL     1      26.846  24.657 -12.621  1.00  0.00     0.041 C 
ATOM     10  O   UNL     1      25.866  24.834 -13.391  1.00  0.00    -0.550 OA
ATOM     11  O   UNL     1      26.944  23.479 -11.892  1.00  0.00    -0.550 OA
ENDBRANCH   8   9
ENDBRANCH   7   8
ENDBRANCH   6   7
ENDBRANCH   5   6
ENDBRANCH   4   5
ENDBRANCH   3   4
ENDBRANCH   2   3
ENDBRANCH   1   2
BRANCH   1  12
ATOM     12  C   UNL     1      27.464  25.924 -16.271  1.00  0.00     0.000 C 
BRANCH  12  13
ATOM     13  C   UNL     1      26.578  25.020 -17.135  1.00  0.00    -0.000 C 
BRANCH  13  14
ATOM     14  C   UNL     1      26.213  25.706 -18.457  1.00  0.00    -0.000 C 
BRANCH  14  15
ATOM     15  C   UNL     1      26.438  24.766 -19.647  1.00  0.00    -0.000 C 
BRANCH  15  16
ATOM     16  C   UNL     1      27.301  23.564 -19.245  1.00  0.00    -0.000 C 
BRANCH  16  17
ATOM     17  C   UNL     1      28.708  23.672 -19.844  1.00  0.00    -0.000 C 
BRANCH  17  18
ATOM     18  C   UNL     1      29.758  23.898 -18.749  1.00  0.00    -0.000 C 
BRANCH  18  19
ATOM     19  C   UNL     1      29.864  22.678 -17.829  1.00  0.00    -0.003 C 
ATOM     20  C   UNL     1      29.691  23.074 -16.365  1.00  0.00     0.004 C 
ENDBRANCH  18  19
ENDBRANCH  17  18
ENDBRANCH  16  17
ENDBRANCH  15  16
ENDBRANCH  14  15
ENDBRANCH  13  14
ENDBRANCH  12  13
ENDBRANCH   1  12
TORSDOF 16
ENDMDL
MODEL 6
REMARK VINA RESULT:    -3.758      4.039      6.777
REMARK INTER + INTRA:          -9.551
REMARK INTER:                  -6.783
REMARK INTRA:                  -2.768
REMARK UNBOUND:                -2.278
REMARK SMILES CCCCCCCCCCCCCCCCCC(=O)[O-]
REMARK SMILES IDX 10 1 11 2 12 3 13 4 14 5 15 6 16 7 17 8 18 9 19 10 20 11
REMARK SMILES IDX 9 12 8 13 7 14 6 15 5 16 4 17 3 18 2 19 1 20
REMARK H PARENT
REMARK Flexibility Score: inf
ROOT
ATOM      1  C   UNL     1      26.651  24.976 -16.976  1.00  0.00     0.000 C 
ENDROOT
BRANCH   1   2
ATOM      2  C   UNL     1      26.227  25.454 -18.373  1.00  0.00     0.000 C 
BRANCH   2   3
ATOM      3  C   UNL     1      26.625  24.469 -19.486  1.00  0.00     0.000 C 
BRANCH   3   4
ATOM      4  C   UNL     1      27.705  23.470 -19.019  1.00  0.00     0.000 C 
BRANCH   4   5
ATOM      5  C   UNL     1      29.079  23.697 -19.674  1.00  0.00     0.000 C 
BRANCH   5   6
ATOM      6  C   UNL     1      30.210  23.863 -18.645  1.00  0.00     0.000 C 
BRANCH   6   7
ATOM      7  C   UNL     1      29.839  23.292 -17.265  1.00  0.00     0.006 C 
BRANCH   7   8
ATOM      8  C   UNL     1      30.624  22.019 -16.922  1.00  0.00     0.053 C 
BRANCH   8   9
ATOM      9  C   UNL     1      30.070  20.849 -17.671  1.00  0.00     0.041 C 
ATOM     10  O   UNL     1      30.744  20.303 -18.585  1.00  0.00    -0.550 OA
ATOM     11  O   UNL     1      28.828  20.330 -17.330  1.00  0.00    -0.550 OA
ENDBRANCH   8   9
ENDBRANCH   7   8
ENDBRANCH   6   7
ENDBRANCH   5   6
ENDBRANCH   4   5
ENDBRANCH   3   4
ENDBRANCH   2   3
ENDBRANCH   1   2
BRANCH   1  12
ATOM     12  C   UNL     1      27.559  25.984 -16.255  1.00  0.00     0.000 C 
BRANCH  12  13
ATOM     13  C   UNL     1      27.658  27.294 -17.045  1.00  0.00    -0.000 C 
BRANCH  13  14
ATOM     14  C   UNL     1      28.964  28.032 -16.729  1.00  0.00    -0.000 C 
BRANCH  14  15
ATOM     15  C   UNL     1      30.164  27.078 -16.788  1.00  0.00    -0.000 C 
BRANCH  15  16
ATOM     16  C   UNL     1      30.969  27.124 -15.484  1.00  0.00    -0.000 C 
BRANCH  16  17
ATOM     17  C   UNL     1      31.085  25.728 -14.860  1.00  0.00    -0.000 C 
BRANCH  17  18
ATOM     18  C   UNL     1      30.618  25.736 -13.399  1.00  0.00    -0.000 C 
BRANCH  18  19
ATOM     19  C   UNL     1      29.521  26.782 -13.179  1.00  0.00    -0.003 C 
ATOM     20  C   UNL     1      28.254  26.142 -12.617  1.00  0.00     0.004 C 
ENDBRANCH  18  19
ENDBRANCH  17  18
ENDBRANCH  16  17
ENDBRANCH  15  16
ENDBRANCH  14  15
ENDBRANCH  13  14
ENDBRANCH  12  13
ENDBRANCH   1  12
TORSDOF 16
ENDMDL
MODEL 7
REMARK VINA RESULT:    -3.727      3.807      5.712
REMARK INTER + INTRA:          -9.491
REMARK INTER:                  -6.797
REMARK INTRA:                  -2.694
REMARK UNBOUND:                -2.278
REMARK SMILES CCCCCCCCCCCCCCCCCC(=O)[O-]
REMARK SMILES IDX 10 1 11 2 12 3 13 4 14 5 15 6 16 7 17 8 18 9 19 10 20 11
REMARK SMILES IDX 9 12 8 13 7 14 6 15 5 16 4 17 3 18 2 19 1 20
REMARK H PARENT
REMARK Flexibility Score: inf
ROOT
ATOM      1  C   UNL     1      26.736  25.179 -17.565  1.00  0.00     0.000 C 
ENDROOT
BRANCH   1   2
ATOM      2  C   UNL     1      27.233  26.545 -17.065  1.00  0.00     0.000 C 
BRANCH   2   3
ATOM      3  C   UNL     1      28.754  26.577 -16.836  1.00  0.00     0.000 C 
BRANCH   3   4
ATOM      4  C   UNL     1      29.114  26.844 -15.360  1.00  0.00     0.000 C 
BRANCH   4   5
ATOM      5  C   UNL     1      30.628  26.862 -15.086  1.00  0.00     0.000 C 
BRANCH   5   6
ATOM      6  C   UNL     1      31.461  26.464 -16.316  1.00  0.00     0.000 C 
BRANCH   6   7
ATOM      7  C   UNL     1      32.640  25.544 -15.956  1.00  0.00     0.006 C 
BRANCH   7   8
ATOM      8  C   UNL     1      33.873  26.325 -15.480  1.00  0.00     0.053 C 
BRANCH   8   9
ATOM      9  C   UNL     1      35.047  26.029 -16.358  1.00  0.00     0.041 C 
ATOM     10  O   UNL     1      34.925  26.060 -17.611  1.00  0.00    -0.550 OA
ATOM     11  O   UNL     1      36.288  25.764 -15.795  1.00  0.00    -0.550 OA
ENDBRANCH   8   9
ENDBRANCH   7   8
ENDBRANCH   6   7
ENDBRANCH   5   6
ENDBRANCH   4   5
ENDBRANCH   3   4
ENDBRANCH   2   3
ENDBRANCH   1   2
BRANCH   1  12
ATOM     12  C   UNL     1      26.061  25.262 -18.942  1.00  0.00     0.000 C 
BRANCH  12  13
ATOM     13  C   UNL     1      26.758  24.342 -19.951  1.00  0.00    -0.000 C 
BRANCH  13  14
ATOM     14  C   UNL     1      27.697  23.359 -19.244  1.00  0.00    -0.000 C 
BRANCH  14  15
ATOM     15  C   UNL     1      29.136  23.508 -19.754  1.00  0.00    -0.000 C 
BRANCH  15  16
ATOM     16  C   UNL     1      30.103  23.795 -18.600  1.00  0.00    -0.000 C 
BRANCH  16  17
ATOM     17  C   UNL     1      30.124  22.634 -17.598  1.00  0.00    -0.000 C 
BRANCH  17  18
ATOM     18  C   UNL     1      29.752  23.113 -16.190  1.00  0.00    -0.000 C 
BRANCH  18  19
ATOM     19  C   UNL     1      28.423  22.502 -15.734  1.00  0.00    -0.003 C 
ATOM     20  C   UNL     1      27.831  23.282 -14.562  1.00  0.00     0.004 C 
ENDBRANCH  18  19
ENDBRANCH  17  18
ENDBRANCH  16  17
ENDBRANCH  15  16
ENDBRANCH  14  15
ENDBRANCH  13  14
ENDBRANCH  12  13
ENDBRANCH   1  12
TORSDOF 16
ENDMDL
MODEL 8
REMARK VINA RESULT:    -3.713      3.014      5.771
REMARK INTER + INTRA:          -9.464
REMARK INTER:                  -6.108
REMARK INTRA:                  -3.356
REMARK UNBOUND:                -2.278
REMARK SMILES CCCCCCCCCCCCCCCCCC(=O)[O-]
REMARK SMILES IDX 10 1 11 2 12 3 13 4 14 5 15 6 16 7 17 8 18 9 19 10 20 11
REMARK SMILES IDX 9 12 8 13 7 14 6 15 5 16 4 17 3 18 2 19 1 20
REMARK H PARENT
REMARK Flexibility Score: inf
ROOT
ATOM      1  C   UNL     1      26.805  24.291 -13.811  1.00  0.00     0.000 C 
ENDROOT
BRANCH   1   2
ATOM      2  C   UNL     1      27.695  23.200 -14.425  1.00  0.00     0.000 C 
BRANCH   2   3
ATOM      3  C   UNL     1      29.010  22.998 -13.651  1.00  0.00     0.000 C 
BRANCH   3   4
ATOM      4  C   UNL     1      30.222  22.845 -14.593  1.00  0.00     0.000 C 
BRANCH   4   5
ATOM      5  C   UNL     1      29.837  22.710 -16.077  1.00  0.00     0.000 C 
BRANCH   5   6
ATOM      6  C   UNL     1      30.578  23.711 -16.978  1.00  0.00     0.000 C 
BRANCH   6   7
ATOM      7  C   UNL     1      29.827  23.988 -18.292  1.00  0.00     0.006 C 
BRANCH   7   8
ATOM      8  C   UNL     1      28.690  22.990 -18.544  1.00  0.00     0.053 C 
BRANCH   8   9
ATOM      9  C   UNL     1      28.323  22.975 -19.995  1.00  0.00     0.041 C 
ATOM     10  O   UNL     1      27.589  23.881 -20.472  1.00  0.00    -0.550 OA
ATOM     11  O   UNL     1      28.828  21.988 -20.830  1.00  0.00    -0.550 OA
ENDBRANCH   8   9
ENDBRANCH   7   8
ENDBRANCH   6   7
ENDBRANCH   5   6
ENDBRANCH   4   5
ENDBRANCH   3   4
ENDBRANCH   2   3
ENDBRANCH   1   2
BRANCH   1  12
ATOM     12  C   UNL     1      26.330  25.321 -14.847  1.00  0.00     0.000 C 
BRANCH  12  13
ATOM     13  C   UNL     1      26.700  24.881 -16.267  1.00  0.00    -0.000 C 
BRANCH  13  14
ATOM     14  C   UNL     1      27.228  26.061 -17.091  1.00  0.00    -0.000 C 
BRANCH  14  15
ATOM     15  C   UNL     1      27.947  27.079 -16.198  1.00  0.00    -0.000 C 
BRANCH  15  16
ATOM     16  C   UNL     1      29.369  27.347 -16.701  1.00  0.00    -0.000 C 
BRANCH  16  17
ATOM     17  C   UNL     1      30.393  27.178 -15.573  1.00  0.00    -0.000 C 
BRANCH  17  18
ATOM     18  C   UNL     1      29.751  26.536 -14.337  1.00  0.00    -0.000 C 
BRANCH  18  19
ATOM     19  C   UNL     1      30.772  26.380 -13.205  1.00  0.00    -0.003 C 
ATOM     20  C   UNL     1      32.115  25.886 -13.737  1.00  0.00     0.004 C 
ENDBRANCH  18  19
ENDBRANCH  17  18
ENDBRANCH  16  17
ENDBRANCH  15  16
ENDBRANCH  14  15
ENDBRANCH  13  14
ENDBRANCH  12  13
ENDBRANCH   1  12
TORSDOF 16
ENDMDL
MODEL 9
REMARK VINA RESULT:    -3.702      3.890      5.878
REMARK INTER + INTRA:          -9.442
REMARK INTER:                  -6.882
REMARK INTRA:                  -2.560
REMARK UNBOUND:                -2.278
REMARK SMILES CCCCCCCCCCCCCCCCCC(=O)[O-]
REMARK SMILES IDX 10 1 11 2 12 3 13 4 14 5 15 6 16 7 17 8 18 9 19 10 20 11
REMARK SMILES IDX 9 12 8 13 7 14 6 15 5 16 4 17 3 18 2 19 1 20
REMARK H PARENT
REMARK Flexibility Score: inf
ROOT
ATOM      1  C   UNL     1      30.241  27.069 -15.369  1.00  0.00     0.000 C 
ENDROOT
BRANCH   1   2
ATOM      2  C   UNL     1      29.497  27.840 -16.471  1.00  0.00     0.000 C 
BRANCH   2   3
ATOM      3  C   UNL     1      28.103  27.259 -16.767  1.00  0.00     0.000 C 
BRANCH   3   4
ATOM      4  C   UNL     1      27.628  26.296 -15.660  1.00  0.00     0.000 C 
BRANCH   4   5
ATOM      5  C   UNL     1      27.082  24.960 -16.196  1.00  0.00     0.000 C 
BRANCH   5   6
ATOM      6  C   UNL     1      28.192  23.936 -16.485  1.00  0.00     0.000 C 
BRANCH   6   7
ATOM      7  C   UNL     1      27.998  23.222 -17.833  1.00  0.00     0.006 C 
BRANCH   7   8
ATOM      8  C   UNL     1      28.228  24.151 -19.032  1.00  0.00     0.053 C 
BRANCH   8   9
ATOM      9  C   UNL     1      27.012  24.184 -19.905  1.00  0.00     0.041 C 
ATOM     10  O   UNL     1      26.986  23.530 -20.980  1.00  0.00    -0.550 OA
ATOM     11  O   UNL     1      25.890  24.900 -19.508  1.00  0.00    -0.550 OA
ENDBRANCH   8   9
ENDBRANCH   7   8
ENDBRANCH   6   7
ENDBRANCH   5   6
ENDBRANCH   4   5
ENDBRANCH   3   4
ENDBRANCH   2   3
ENDBRANCH   1   2
BRANCH   1  12
ATOM     12  C   UNL     1      31.657  26.651 -15.792  1.00  0.00     0.000 C 
BRANCH  12  13
ATOM     13  C   UNL     1      31.667  25.218 -16.334  1.00  0.00    -0.000 C 
BRANCH  13  14
ATOM     14  C   UNL     1      31.391  25.196 -17.842  1.00  0.00    -0.000 C 
BRANCH  14  15
ATOM     15  C   UNL     1      31.969  23.932 -18.490  1.00  0.00    -0.000 C 
BRANCH  15  16
ATOM     16  C   UNL     1      33.475  24.076 -18.733  1.00  0.00    -0.000 C 
BRANCH  16  17
ATOM     17  C   UNL     1      33.795  25.401 -19.435  1.00  0.00    -0.000 C 
BRANCH  17  18
ATOM     18  C   UNL     1      34.758  26.251 -18.597  1.00  0.00    -0.000 C 
BRANCH  18  19
ATOM     19  C   UNL     1      35.454  25.401 -17.529  1.00  0.00    -0.003 C 
ATOM     20  C   UNL     1      35.338  26.045 -16.150  1.00  0.00     0.004 C 
ENDBRANCH  18  19
ENDBRANCH  17  18
ENDBRANCH  16  17
ENDBRANCH  15  16
ENDBRANCH  14  15
ENDBRANCH  13  14
ENDBRANCH  12  13
ENDBRANCH   1  12
TORSDOF 16
ENDMDL
