MODEL 1
REMARK VINA RESULT:    -4.421      0.000      0.000
REMARK INTER + INTRA:          -4.872
REMARK INTER:                  -4.809
REMARK INTRA:                  -0.063
REMARK UNBOUND:                -0.063
REMARK SMILES CCc1cccc(O)c1
REMARK SMILES IDX 3 1 9 2 7 3 6 4 5 5 4 6 2 7 1 8 8 9
REMARK H PARENT 8 10
REMARK Flexibility Score: inf
ROOT
ATOM      1  C   UNL     1       2.629  -4.407  22.027  1.00  0.00    -0.045 A 
ATOM      2  C   UNL     1       2.591  -4.045  20.671  1.00  0.00     0.049 A 
ATOM      3  C   UNL     1       1.405  -3.570  20.098  1.00  0.00     0.115 A 
ATOM      4  C   UNL     1       0.253  -3.444  20.885  1.00  0.00     0.046 A 
ATOM      5  C   UNL     1       0.288  -3.790  22.239  1.00  0.00     0.004 A 
ATOM      6  C   UNL     1       1.472  -4.265  22.811  1.00  0.00     0.004 A 
ENDROOT
BRANCH   1   7
ATOM      7  C   UNL     1       3.913  -4.886  22.649  1.00  0.00     0.032 C 
ATOM      8  C   UNL     1       3.707  -6.222  23.356  1.00  0.00     0.009 C 
ENDBRANCH   1   7
BRANCH   3   9
ATOM      9  O   UNL     1       1.384  -3.222  18.749  1.00  0.00    -0.508 OA
ATOM     10  H   UNL     1       1.470  -3.922  18.021  1.00  0.00     0.293 HD
ENDBRANCH   3   9
TORSDOF 2
ENDMDL
MODEL 2
REMARK VINA RESULT:    -4.372      2.225      2.704
REMARK INTER + INTRA:          -4.819
REMARK INTER:                  -4.744
REMARK INTRA:                  -0.075
REMARK UNBOUND:                -0.063
REMARK SMILES CCc1cccc(O)c1
REMARK SMILES IDX 3 1 9 2 7 3 6 4 5 5 4 6 2 7 1 8 8 9
REMARK H PARENT 8 10
REMARK Flexibility Score: inf
ROOT
ATOM      1  C   UNL     1       0.597  -3.346  22.210  1.00  0.00    -0.045 A 
ATOM      2  C   UNL     1       0.455  -3.490  20.820  1.00  0.00     0.049 A 
ATOM      3  C   UNL     1       0.966  -2.518  19.952  1.00  0.00     0.115 A 
ATOM      4  C   UNL     1       1.632  -1.400  20.472  1.00  0.00     0.046 A 
ATOM      5  C   UNL     1       1.788  -1.258  21.853  1.00  0.00     0.004 A 
ATOM      6  C   UNL     1       1.278  -2.228  22.721  1.00  0.00     0.004 A 
ENDROOT
BRANCH   1   7
ATOM      7  C   UNL     1       0.077  -4.408  23.141  1.00  0.00     0.032 C 
ATOM      8  C   UNL     1       0.169  -3.947  24.592  1.00  0.00     0.009 C 
ENDBRANCH   1   7
BRANCH   3   9
ATOM      9  O   UNL     1       0.809  -2.675  18.576  1.00  0.00    -0.508 OA
ATOM     10  H   UNL     1       0.705  -3.591  18.157  1.00  0.00     0.293 HD
ENDBRANCH   3   9
TORSDOF 2
ENDMDL
MODEL 3
REMARK VINA RESULT:    -4.351      3.401      4.845
REMARK INTER + INTRA:          -4.796
REMARK INTER:                  -4.730
REMARK INTRA:                  -0.066
REMARK UNBOUND:                -0.063
REMARK SMILES CCc1cccc(O)c1
REMARK SMILES IDX 3 1 9 2 7 3 6 4 5 5 4 6 2 7 1 8 8 9
REMARK H PARENT 8 10
REMARK Flexibility Score: inf
ROOT
ATOM      1  C   UNL     1       2.848  -7.104  25.570  1.00  0.00    -0.045 A 
ATOM      2  C   UNL     1       1.686  -6.355  25.815  1.00  0.00     0.049 A 
ATOM      3  C   UNL     1       1.332  -5.299  24.967  1.00  0.00     0.115 A 
ATOM      4  C   UNL     1       2.136  -4.994  23.862  1.00  0.00     0.046 A 
ATOM      5  C   UNL     1       3.287  -5.744  23.604  1.00  0.00     0.004 A 
ATOM      6  C   UNL     1       3.641  -6.798  24.450  1.00  0.00     0.004 A 
ENDROOT
BRANCH   1   7
ATOM      7  C   UNL     1       3.209  -8.261  26.462  1.00  0.00     0.032 C 
ATOM      8  C   UNL     1       4.683  -8.204  26.851  1.00  0.00     0.009 C 
ENDBRANCH   1   7
BRANCH   3   9
ATOM      9  O   UNL     1       0.178  -4.562  25.231  1.00  0.00    -0.508 OA
ATOM     10  H   UNL     1      -0.627  -4.984  25.679  1.00  0.00     0.293 HD
ENDBRANCH   3   9
TORSDOF 2
ENDMDL
MODEL 4
REMARK VINA RESULT:    -4.307      3.282      4.782
REMARK INTER + INTRA:          -4.748
REMARK INTER:                  -4.676
REMARK INTRA:                  -0.072
REMARK UNBOUND:                -0.063
REMARK SMILES CCc1cccc(O)c1
REMARK SMILES IDX 3 1 9 2 7 3 6 4 5 5 4 6 2 7 1 8 8 9
REMARK H PARENT 8 10
REMARK Flexibility Score: inf
ROOT
ATOM      1  C   UNL     1       1.848  -5.049  23.719  1.00  0.00    -0.045 A 
ATOM      2  C   UNL     1       3.033  -5.794  23.824  1.00  0.00     0.049 A 
ATOM      3  C   UNL     1       3.226  -6.669  24.900  1.00  0.00     0.115 A 
ATOM      4  C   UNL     1       2.226  -6.809  25.871  1.00  0.00     0.046 A 
ATOM      5  C   UNL     1       1.039  -6.079  25.765  1.00  0.00     0.004 A 
ATOM      6  C   UNL     1       0.846  -5.206  24.691  1.00  0.00     0.004 A 
ENDROOT
BRANCH   1   7
ATOM      7  C   UNL     1       1.627  -4.134  22.544  1.00  0.00     0.032 C 
ATOM      8  C   UNL     1       0.171  -4.175  22.092  1.00  0.00     0.009 C 
ENDBRANCH   1   7
BRANCH   3   9
ATOM      9  O   UNL     1       4.411  -7.396  24.991  1.00  0.00    -0.508 OA
ATOM     10  H   UNL     1       4.587  -8.198  24.397  1.00  0.00     0.293 HD
ENDBRANCH   3   9
TORSDOF 2
ENDMDL
MODEL 5
REMARK VINA RESULT:    -4.299      1.090      2.601
REMARK INTER + INTRA:          -4.739
REMARK INTER:                  -4.673
REMARK INTRA:                  -0.066
REMARK UNBOUND:                -0.063
REMARK SMILES CCc1cccc(O)c1
REMARK SMILES IDX 3 1 9 2 7 3 6 4 5 5 4 6 2 7 1 8 8 9
REMARK H PARENT 8 10
REMARK Flexibility Score: inf
ROOT
ATOM      1  C   UNL     1       0.890  -4.097  22.294  1.00  0.00    -0.045 A 
ATOM      2  C   UNL     1       0.479  -3.589  21.052  1.00  0.00     0.049 A 
ATOM      3  C   UNL     1       1.410  -3.394  20.024  1.00  0.00     0.115 A 
ATOM      4  C   UNL     1       2.756  -3.717  20.233  1.00  0.00     0.046 A 
ATOM      5  C   UNL     1       3.170  -4.236  21.463  1.00  0.00     0.004 A 
ATOM      6  C   UNL     1       2.241  -4.432  22.490  1.00  0.00     0.004 A 
ENDROOT
BRANCH   1   7
ATOM      7  C   UNL     1      -0.116  -4.339  23.387  1.00  0.00     0.032 C 
ATOM      8  C   UNL     1       0.381  -3.776  24.715  1.00  0.00     0.009 C 
ENDBRANCH   1   7
BRANCH   3   9
ATOM      9  O   UNL     1       0.984  -2.881  18.800  1.00  0.00    -0.508 OA
ATOM     10  H   UNL     1       1.449  -2.092  18.366  1.00  0.00     0.293 HD
ENDBRANCH   3   9
TORSDOF 2
ENDMDL
MODEL 6
REMARK VINA RESULT:    -4.293      3.152      4.823
REMARK INTER + INTRA:          -4.733
REMARK INTER:                  -4.685
REMARK INTRA:                  -0.047
REMARK UNBOUND:                -0.063
REMARK SMILES CCc1cccc(O)c1
REMARK SMILES IDX 3 1 9 2 7 3 6 4 5 5 4 6 2 7 1 8 8 9
REMARK H PARENT 8 10
REMARK Flexibility Score: inf
ROOT
ATOM      1  C   UNL     1       1.888  -4.878  23.213  1.00  0.00    -0.045 A 
ATOM      2  C   UNL     1       1.102  -4.929  24.376  1.00  0.00     0.049 A 
ATOM      3  C   UNL     1       1.483  -5.739  25.452  1.00  0.00     0.115 A 
ATOM      4  C   UNL     1       2.661  -6.494  25.373  1.00  0.00     0.046 A 
ATOM      5  C   UNL     1       3.454  -6.437  24.224  1.00  0.00     0.004 A 
ATOM      6  C   UNL     1       3.074  -5.629  23.149  1.00  0.00     0.004 A 
ENDROOT
BRANCH   1   7
ATOM      7  C   UNL     1       1.496  -3.981  22.070  1.00  0.00     0.032 C 
ATOM      8  C   UNL     1       0.004  -4.103  21.774  1.00  0.00     0.009 C 
ENDBRANCH   1   7
BRANCH   3   9
ATOM      9  O   UNL     1       0.687  -5.783  26.595  1.00  0.00    -0.508 OA
ATOM     10  H   UNL     1      -0.162  -6.335  26.627  1.00  0.00     0.293 HD
ENDBRANCH   3   9
TORSDOF 2
ENDMDL
MODEL 7
REMARK VINA RESULT:    -4.288     14.721     15.965
REMARK INTER + INTRA:          -4.727
REMARK INTER:                  -4.677
REMARK INTRA:                  -0.051
REMARK UNBOUND:                -0.063
REMARK SMILES CCc1cccc(O)c1
REMARK SMILES IDX 3 1 9 2 7 3 6 4 5 5 4 6 2 7 1 8 8 9
REMARK H PARENT 8 10
REMARK Flexibility Score: inf
ROOT
ATOM      1  C   UNL     1      16.507  -6.964  24.578  1.00  0.00    -0.045 A 
ATOM      2  C   UNL     1      17.573  -6.952  25.491  1.00  0.00     0.049 A 
ATOM      3  C   UNL     1      17.337  -7.149  26.857  1.00  0.00     0.115 A 
ATOM      4  C   UNL     1      16.031  -7.369  27.314  1.00  0.00     0.046 A 
ATOM      5  C   UNL     1      14.967  -7.395  26.408  1.00  0.00     0.004 A 
ATOM      6  C   UNL     1      15.202  -7.199  25.044  1.00  0.00     0.004 A 
ENDROOT
BRANCH   1   7
ATOM      7  C   UNL     1      16.765  -6.786  23.106  1.00  0.00     0.032 C 
ATOM      8  C   UNL     1      18.228  -6.439  22.851  1.00  0.00     0.009 C 
ENDBRANCH   1   7
BRANCH   3   9
ATOM      9  O   UNL     1      18.407  -7.127  27.749  1.00  0.00    -0.508 OA
ATOM     10  H   UNL     1      18.310  -7.462  28.701  1.00  0.00     0.293 HD
ENDBRANCH   3   9
TORSDOF 2
ENDMDL
MODEL 8
REMARK VINA RESULT:    -4.269     16.114     16.435
REMARK INTER + INTRA:          -4.707
REMARK INTER:                  -4.632
REMARK INTRA:                  -0.075
REMARK UNBOUND:                -0.063
REMARK SMILES CCc1cccc(O)c1
REMARK SMILES IDX 3 1 9 2 7 3 6 4 5 5 4 6 2 7 1 8 8 9
REMARK H PARENT 8 10
REMARK Flexibility Score: inf
ROOT
ATOM      1  C   UNL     1      16.885  -6.119  27.874  1.00  0.00    -0.045 A 
ATOM      2  C   UNL     1      17.236  -7.244  27.111  1.00  0.00     0.049 A 
ATOM      3  C   UNL     1      17.550  -7.109  25.753  1.00  0.00     0.115 A 
ATOM      4  C   UNL     1      17.524  -5.842  25.155  1.00  0.00     0.046 A 
ATOM      5  C   UNL     1      17.188  -4.716  25.912  1.00  0.00     0.004 A 
ATOM      6  C   UNL     1      16.875  -4.851  27.268  1.00  0.00     0.004 A 
ENDROOT
BRANCH   1   7
ATOM      7  C   UNL     1      16.581  -6.260  29.341  1.00  0.00     0.032 C 
ATOM      8  C   UNL     1      16.003  -4.965  29.901  1.00  0.00     0.009 C 
ENDBRANCH   1   7
BRANCH   3   9
ATOM      9  O   UNL     1      17.889  -8.238  25.010  1.00  0.00    -0.508 OA
ATOM     10  H   UNL     1      17.659  -9.171  25.331  1.00  0.00     0.293 HD
ENDBRANCH   3   9
TORSDOF 2
ENDMDL
MODEL 9
REMARK VINA RESULT:    -4.160      2.709      3.724
REMARK INTER + INTRA:          -4.589
REMARK INTER:                  -4.537
REMARK INTRA:                  -0.052
REMARK UNBOUND:                -0.063
REMARK SMILES CCc1cccc(O)c1
REMARK SMILES IDX 3 1 9 2 7 3 6 4 5 5 4 6 2 7 1 8 8 9
REMARK H PARENT 8 10
REMARK Flexibility Score: inf
ROOT
ATOM      1  C   UNL     1       1.760  -0.972  21.597  1.00  0.00    -0.045 A 
ATOM      2  C   UNL     1       1.628  -1.332  20.246  1.00  0.00     0.049 A 
ATOM      3  C   UNL     1       1.119  -2.588  19.894  1.00  0.00     0.115 A 
ATOM      4  C   UNL     1       0.730  -3.487  20.895  1.00  0.00     0.046 A 
ATOM      5  C   UNL     1       0.846  -3.130  22.241  1.00  0.00     0.004 A 
ATOM      6  C   UNL     1       1.354  -1.876  22.593  1.00  0.00     0.004 A 
ENDROOT
BRANCH   1   7
ATOM      7  C   UNL     1       2.275   0.391  21.973  1.00  0.00     0.032 C 
ATOM      8  C   UNL     1       2.442   1.267  20.736  1.00  0.00     0.009 C 
ENDBRANCH   1   7
BRANCH   3   9
ATOM      9  O   UNL     1       1.002  -2.929  18.548  1.00  0.00    -0.508 OA
ATOM     10  H   UNL     1       1.787  -2.847  17.911  1.00  0.00     0.293 HD
ENDBRANCH   3   9
TORSDOF 2
ENDMDL
