MODEL 1
REMARK VINA RESULT:    -6.274      0.000      0.000
REMARK INTER + INTRA:          -6.919
REMARK INTER:                  -6.641
REMARK INTRA:                  -0.278
REMARK UNBOUND:                -0.278
REMARK SMILES CC1=C[C@H]2C(=C(C)CC[C@@H]2C(C)C)CC1
REMARK SMILES IDX 1 1 2 2 3 3 4 4 10 5 9 6 8 7 6 8 5 9 14 10 15 11 7 12 11 13
REMARK SMILES IDX 12 14 13 15
REMARK H PARENT
REMARK Flexibility Score: inf
ROOT
ATOM      1  C   UNL     1     149.855 143.686 165.091  1.00  0.00     0.039 C 
ATOM      2  C   UNL     1     148.953 143.353 163.933  1.00  0.00    -0.076 C 
ATOM      3  C   UNL     1     147.653 143.077 164.167  1.00  0.00    -0.020 C 
ATOM      4  C   UNL     1     146.634 142.774 163.071  1.00  0.00     0.041 C 
ATOM      5  C   UNL     1     145.835 141.470 163.360  1.00  0.00     0.003 C 
ATOM      6  C   UNL     1     144.853 141.251 162.192  1.00  0.00     0.009 C 
ATOM      7  C   UNL     1     145.614 141.030 160.885  1.00  0.00     0.031 C 
ATOM      8  C   UNL     1     146.742 142.016 160.657  1.00  0.00    -0.073 C 
ATOM      9  C   UNL     1     147.278 142.744 161.682  1.00  0.00    -0.064 C 
ATOM     10  C   UNL     1     148.475 143.654 161.493  1.00  0.00     0.036 C 
ATOM     11  C   UNL     1     149.528 143.295 162.537  1.00  0.00     0.035 C 
ATOM     12  C   UNL     1     147.340 142.035 159.270  1.00  0.00     0.039 C 
ENDROOT
BRANCH   5  13
ATOM     13  C   UNL     1     145.120 141.437 164.756  1.00  0.00    -0.013 C 
ATOM     14  C   UNL     1     144.717 140.012 165.171  1.00  0.00     0.007 C 
ATOM     15  C   UNL     1     143.908 142.378 164.858  1.00  0.00     0.007 C 
ENDBRANCH   5  13
TORSDOF 1
ENDMDL
MODEL 2
REMARK VINA RESULT:    -6.261      3.950      5.628
REMARK INTER + INTRA:          -6.906
REMARK INTER:                  -6.629
REMARK INTRA:                  -0.277
REMARK UNBOUND:                -0.278
REMARK SMILES CC1=C[C@H]2C(=C(C)CC[C@@H]2C(C)C)CC1
REMARK SMILES IDX 1 1 2 2 3 3 4 4 10 5 9 6 8 7 6 8 5 9 14 10 15 11 7 12 11 13
REMARK SMILES IDX 12 14 13 15
REMARK H PARENT
REMARK Flexibility Score: inf
ROOT
ATOM      1  C   UNL     1     147.222 149.919 165.017  1.00  0.00     0.039 C 
ATOM      2  C   UNL     1     147.505 148.986 163.870  1.00  0.00    -0.076 C 
ATOM      3  C   UNL     1     147.749 147.683 164.124  1.00  0.00    -0.020 C 
ATOM      4  C   UNL     1     148.001 146.636 163.043  1.00  0.00     0.041 C 
ATOM      5  C   UNL     1     149.288 145.805 163.320  1.00  0.00     0.003 C 
ATOM      6  C   UNL     1     149.454 144.795 162.167  1.00  0.00     0.009 C 
ATOM      7  C   UNL     1     149.669 145.525 160.842  1.00  0.00     0.031 C 
ATOM      8  C   UNL     1     148.712 146.676 160.612  1.00  0.00    -0.073 C 
ATOM      9  C   UNL     1     148.021 147.252 161.641  1.00  0.00    -0.064 C 
ATOM     10  C   UNL     1     147.141 148.471 161.447  1.00  0.00     0.036 C 
ATOM     11  C   UNL     1     147.551 149.532 162.463  1.00  0.00     0.035 C 
ATOM     12  C   UNL     1     148.680 147.248 159.214  1.00  0.00     0.039 C 
ENDROOT
BRANCH   5  13
ATOM     13  C   UNL     1     149.329 145.116 164.729  1.00  0.00    -0.013 C 
ATOM     14  C   UNL     1     150.763 144.774 165.169  1.00  0.00     0.007 C 
ATOM     15  C   UNL     1     148.433 143.871 164.841  1.00  0.00     0.007 C 
ENDBRANCH   5  13
TORSDOF 1
ENDMDL
MODEL 3
REMARK VINA RESULT:    -6.261      6.389      7.980
REMARK INTER + INTRA:          -6.905
REMARK INTER:                  -6.628
REMARK INTRA:                  -0.277
REMARK UNBOUND:                -0.278
REMARK SMILES CC1=C[C@H]2C(=C(C)CC[C@@H]2C(C)C)CC1
REMARK SMILES IDX 1 1 2 2 3 3 4 4 10 5 9 6 8 7 6 8 5 9 14 10 15 11 7 12 11 13
REMARK SMILES IDX 12 14 13 15
REMARK H PARENT
REMARK Flexibility Score: inf
ROOT
ATOM      1  C   UNL     1     140.843 147.140 165.030  1.00  0.00     0.039 C 
ATOM      2  C   UNL     1     141.772 147.447 163.887  1.00  0.00    -0.076 C 
ATOM      3  C   UNL     1     143.073 147.698 164.144  1.00  0.00    -0.020 C 
ATOM      4  C   UNL     1     144.118 147.974 163.065  1.00  0.00     0.041 C 
ATOM      5  C   UNL     1     144.938 149.264 163.360  1.00  0.00     0.003 C 
ATOM      6  C   UNL     1     145.945 149.455 162.210  1.00  0.00     0.009 C 
ATOM      7  C   UNL     1     145.213 149.682 160.888  1.00  0.00     0.031 C 
ATOM      8  C   UNL     1     144.069 148.719 160.645  1.00  0.00    -0.073 C 
ATOM      9  C   UNL     1     143.500 148.008 161.664  1.00  0.00    -0.064 C 
ATOM     10  C   UNL     1     142.288 147.121 161.459  1.00  0.00     0.036 C 
ATOM     11  C   UNL     1     141.224 147.508 162.481  1.00  0.00     0.035 C 
ATOM     12  C   UNL     1     143.497 148.702 159.247  1.00  0.00     0.039 C 
ENDROOT
BRANCH   5  13
ATOM     13  C   UNL     1     145.628 149.290 164.770  1.00  0.00    -0.013 C 
ATOM     14  C   UNL     1     145.996 150.718 165.210  1.00  0.00     0.007 C 
ATOM     15  C   UNL     1     146.855 148.372 164.880  1.00  0.00     0.007 C 
ENDBRANCH   5  13
TORSDOF 1
ENDMDL
MODEL 4
REMARK VINA RESULT:    -6.258      3.958      5.624
REMARK INTER + INTRA:          -6.902
REMARK INTER:                  -6.624
REMARK INTRA:                  -0.277
REMARK UNBOUND:                -0.278
REMARK SMILES CC1=C[C@H]2C(=C(C)CC[C@@H]2C(C)C)CC1
REMARK SMILES IDX 1 1 2 2 3 3 4 4 10 5 9 6 8 7 6 8 5 9 14 10 15 11 7 12 11 13
REMARK SMILES IDX 12 14 13 15
REMARK H PARENT
REMARK Flexibility Score: inf
ROOT
ATOM      1  C   UNL     1     143.701 140.850 164.982  1.00  0.00     0.039 C 
ATOM      2  C   UNL     1     143.372 141.771 163.839  1.00  0.00    -0.076 C 
ATOM      3  C   UNL     1     143.107 143.070 164.094  1.00  0.00    -0.020 C 
ATOM      4  C   UNL     1     142.808 144.108 163.015  1.00  0.00     0.041 C 
ATOM      5  C   UNL     1     141.511 144.913 163.319  1.00  0.00     0.003 C 
ATOM      6  C   UNL     1     141.297 145.914 162.166  1.00  0.00     0.009 C 
ATOM      7  C   UNL     1     141.066 145.174 160.849  1.00  0.00     0.031 C 
ATOM      8  C   UNL     1     142.042 144.042 160.601  1.00  0.00    -0.073 C 
ATOM      9  C   UNL     1     142.769 143.485 161.616  1.00  0.00    -0.064 C 
ATOM     10  C   UNL     1     143.669 142.283 161.406  1.00  0.00     0.036 C 
ATOM     11  C   UNL     1     143.305 141.218 162.435  1.00  0.00     0.035 C 
ATOM     12  C   UNL     1     142.053 143.465 159.205  1.00  0.00     0.039 C 
ENDROOT
BRANCH   5  13
ATOM     13  C   UNL     1     141.489 145.607 164.726  1.00  0.00    -0.013 C 
ATOM     14  C   UNL     1     140.063 145.974 165.171  1.00  0.00     0.007 C 
ATOM     15  C   UNL     1     142.406 146.836 164.829  1.00  0.00     0.007 C 
ENDBRANCH   5  13
TORSDOF 1
ENDMDL
MODEL 5
REMARK VINA RESULT:    -6.183      2.125      3.792
REMARK INTER + INTRA:          -6.823
REMARK INTER:                  -6.544
REMARK INTRA:                  -0.279
REMARK UNBOUND:                -0.278
REMARK SMILES CC1=C[C@H]2C(=C(C)CC[C@@H]2C(C)C)CC1
REMARK SMILES IDX 1 1 2 2 3 3 4 4 10 5 9 6 8 7 6 8 5 9 14 10 15 11 7 12 11 13
REMARK SMILES IDX 12 14 13 15
REMARK H PARENT
REMARK Flexibility Score: inf
ROOT
ATOM      1  C   UNL     1     149.131 143.741 164.855  1.00  0.00     0.039 C 
ATOM      2  C   UNL     1     147.635 143.898 164.842  1.00  0.00    -0.076 C 
ATOM      3  C   UNL     1     146.858 142.805 164.682  1.00  0.00    -0.020 C 
ATOM      4  C   UNL     1     145.332 142.834 164.700  1.00  0.00     0.041 C 
ATOM      5  C   UNL     1     144.718 142.108 163.468  1.00  0.00     0.003 C 
ATOM      6  C   UNL     1     143.184 142.209 163.578  1.00  0.00     0.009 C 
ATOM      7  C   UNL     1     142.736 143.668 163.507  1.00  0.00     0.031 C 
ATOM      8  C   UNL     1     143.549 144.604 164.379  1.00  0.00    -0.073 C 
ATOM      9  C   UNL     1     144.787 144.257 164.844  1.00  0.00    -0.064 C 
ATOM     10  C   UNL     1     145.659 145.219 165.628  1.00  0.00     0.036 C 
ATOM     11  C   UNL     1     147.032 145.277 164.968  1.00  0.00     0.035 C 
ATOM     12  C   UNL     1     142.984 145.990 164.577  1.00  0.00     0.039 C 
ENDROOT
BRANCH   5  13
ATOM     13  C   UNL     1     145.207 140.630 163.270  1.00  0.00    -0.013 C 
ATOM     14  C   UNL     1     144.841 140.076 161.882  1.00  0.00     0.007 C 
ATOM     15  C   UNL     1     144.730 139.663 164.366  1.00  0.00     0.007 C 
ENDBRANCH   5  13
TORSDOF 1
ENDMDL
MODEL 6
REMARK VINA RESULT:    -6.182      3.007      5.408
REMARK INTER + INTRA:          -6.821
REMARK INTER:                  -6.542
REMARK INTRA:                  -0.279
REMARK UNBOUND:                -0.278
REMARK SMILES CC1=C[C@H]2C(=C(C)CC[C@@H]2C(C)C)CC1
REMARK SMILES IDX 1 1 2 2 3 3 4 4 10 5 9 6 8 7 6 8 5 9 14 10 15 11 7 12 11 13
REMARK SMILES IDX 12 14 13 15
REMARK H PARENT
REMARK Flexibility Score: inf
ROOT
ATOM      1  C   UNL     1     147.023 149.129 164.823  1.00  0.00     0.039 C 
ATOM      2  C   UNL     1     146.875 147.631 164.813  1.00  0.00    -0.076 C 
ATOM      3  C   UNL     1     147.971 146.861 164.649  1.00  0.00    -0.020 C 
ATOM      4  C   UNL     1     147.953 145.335 164.670  1.00  0.00     0.041 C 
ATOM      5  C   UNL     1     148.677 144.723 163.435  1.00  0.00     0.003 C 
ATOM      6  C   UNL     1     148.586 143.189 163.548  1.00  0.00     0.009 C 
ATOM      7  C   UNL     1     147.130 142.732 163.483  1.00  0.00     0.031 C 
ATOM      8  C   UNL     1     146.192 143.540 164.358  1.00  0.00    -0.073 C 
ATOM      9  C   UNL     1     146.533 144.781 164.820  1.00  0.00    -0.064 C 
ATOM     10  C   UNL     1     145.569 145.648 165.607  1.00  0.00     0.036 C 
ATOM     11  C   UNL     1     145.500 147.020 164.945  1.00  0.00     0.035 C 
ATOM     12  C   UNL     1     144.810 142.967 164.562  1.00  0.00     0.039 C 
ENDROOT
BRANCH   5  13
ATOM     13  C   UNL     1     150.151 145.222 163.231  1.00  0.00    -0.013 C 
ATOM     14  C   UNL     1     150.689 144.887 161.829  1.00  0.00     0.007 C 
ATOM     15  C   UNL     1     151.132 144.724 164.305  1.00  0.00     0.007 C 
ENDBRANCH   5  13
TORSDOF 1
ENDMDL
MODEL 7
REMARK VINA RESULT:    -6.174      4.193      6.259
REMARK INTER + INTRA:          -6.813
REMARK INTER:                  -6.534
REMARK INTRA:                  -0.279
REMARK UNBOUND:                -0.278
REMARK SMILES CC1=C[C@H]2C(=C(C)CC[C@@H]2C(C)C)CC1
REMARK SMILES IDX 1 1 2 2 3 3 4 4 10 5 9 6 8 7 6 8 5 9 14 10 15 11 7 12 11 13
REMARK SMILES IDX 12 14 13 15
REMARK H PARENT
REMARK Flexibility Score: inf
ROOT
ATOM      1  C   UNL     1     143.711 141.606 164.838  1.00  0.00     0.039 C 
ATOM      2  C   UNL     1     143.888 143.100 164.831  1.00  0.00    -0.076 C 
ATOM      3  C   UNL     1     142.809 143.892 164.651  1.00  0.00    -0.020 C 
ATOM      4  C   UNL     1     142.857 145.417 164.673  1.00  0.00     0.041 C 
ATOM      5  C   UNL     1     142.165 146.043 163.427  1.00  0.00     0.003 C 
ATOM      6  C   UNL     1     142.284 147.575 163.542  1.00  0.00     0.009 C 
ATOM      7  C   UNL     1     143.750 148.004 163.503  1.00  0.00     0.031 C 
ATOM      8  C   UNL     1     144.656 147.177 164.392  1.00  0.00    -0.073 C 
ATOM      9  C   UNL     1     144.285 145.943 164.847  1.00  0.00    -0.064 C 
ATOM     10  C   UNL     1     145.218 145.058 165.649  1.00  0.00     0.036 C 
ATOM     11  C   UNL     1     145.272 143.685 164.987  1.00  0.00     0.035 C 
ATOM     12  C   UNL     1     146.046 147.724 164.620  1.00  0.00     0.039 C 
ENDROOT
BRANCH   5  13
ATOM     13  C   UNL     1     140.685 145.573 163.197  1.00  0.00    -0.013 C 
ATOM     14  C   UNL     1     140.163 145.958 161.803  1.00  0.00     0.007 C 
ATOM     15  C   UNL     1     139.704 146.053 164.279  1.00  0.00     0.007 C 
ENDBRANCH   5  13
TORSDOF 1
ENDMDL
MODEL 8
REMARK VINA RESULT:    -6.093      5.172      7.300
REMARK INTER + INTRA:          -6.728
REMARK INTER:                  -6.451
REMARK INTRA:                  -0.277
REMARK UNBOUND:                -0.278
REMARK SMILES CC1=C[C@H]2C(=C(C)CC[C@@H]2C(C)C)CC1
REMARK SMILES IDX 1 1 2 2 3 3 4 4 10 5 9 6 8 7 6 8 5 9 14 10 15 11 7 12 11 13
REMARK SMILES IDX 12 14 13 15
REMARK H PARENT
REMARK Flexibility Score: inf
ROOT
ATOM      1  C   UNL     1     141.644 147.139 164.854  1.00  0.00     0.039 C 
ATOM      2  C   UNL     1     143.131 146.917 164.811  1.00  0.00    -0.076 C 
ATOM      3  C   UNL     1     143.951 147.973 164.628  1.00  0.00    -0.020 C 
ATOM      4  C   UNL     1     145.475 147.878 164.615  1.00  0.00     0.041 C 
ATOM      5  C   UNL     1     146.094 148.569 163.365  1.00  0.00     0.003 C 
ATOM      6  C   UNL     1     147.624 148.402 163.445  1.00  0.00     0.009 C 
ATOM      7  C   UNL     1     148.007 146.924 163.375  1.00  0.00     0.031 C 
ATOM      8  C   UNL     1     147.172 146.030 164.270  1.00  0.00    -0.073 C 
ATOM      9  C   UNL     1     145.960 146.433 164.758  1.00  0.00    -0.064 C 
ATOM     10  C   UNL     1     145.064 145.515 165.566  1.00  0.00     0.036 C 
ATOM     11  C   UNL     1     143.676 145.514 164.935  1.00  0.00     0.035 C 
ATOM     12  C   UNL     1     147.680 144.621 164.466  1.00  0.00     0.039 C 
ENDROOT
BRANCH   5  13
ATOM     13  C   UNL     1     145.666 150.066 163.167  1.00  0.00    -0.013 C 
ATOM     14  C   UNL     1     146.118 150.625 161.807  1.00  0.00     0.007 C 
ATOM     15  C   UNL     1     146.122 151.000 164.299  1.00  0.00     0.007 C 
ENDBRANCH   5  13
TORSDOF 1
ENDMDL
MODEL 9
REMARK VINA RESULT:    -5.993      2.090      5.440
REMARK INTER + INTRA:          -6.622
REMARK INTER:                  -6.348
REMARK INTRA:                  -0.274
REMARK UNBOUND:                -0.278
REMARK SMILES CC1=C[C@H]2C(=C(C)CC[C@@H]2C(C)C)CC1
REMARK SMILES IDX 1 1 2 2 3 3 4 4 10 5 9 6 8 7 6 8 5 9 14 10 15 11 7 12 11 13
REMARK SMILES IDX 12 14 13 15
REMARK H PARENT
REMARK Flexibility Score: inf
ROOT
ATOM      1  C   UNL     1     144.381 140.180 164.933  1.00  0.00     0.039 C 
ATOM      2  C   UNL     1     144.571 141.665 164.781  1.00  0.00    -0.076 C 
ATOM      3  C   UNL     1     145.734 142.134 164.282  1.00  0.00    -0.020 C 
ATOM      4  C   UNL     1     146.023 143.612 164.037  1.00  0.00     0.041 C 
ATOM      5  C   UNL     1     147.376 144.057 164.667  1.00  0.00     0.003 C 
ATOM      6  C   UNL     1     147.560 145.559 164.375  1.00  0.00     0.009 C 
ATOM      7  C   UNL     1     146.460 146.375 165.054  1.00  0.00     0.031 C 
ATOM      8  C   UNL     1     145.068 145.806 164.867  1.00  0.00    -0.073 C 
ATOM      9  C   UNL     1     144.868 144.506 164.497  1.00  0.00    -0.064 C 
ATOM     10  C   UNL     1     143.485 143.890 164.409  1.00  0.00     0.036 C 
ATOM     11  C   UNL     1     143.474 142.603 165.226  1.00  0.00     0.035 C 
ATOM     12  C   UNL     1     143.921 146.708 165.260  1.00  0.00     0.039 C 
ENDROOT
BRANCH   5  13
ATOM     13  C   UNL     1     148.615 143.205 164.220  1.00  0.00    -0.013 C 
ATOM     14  C   UNL     1     149.882 143.556 165.019  1.00  0.00     0.007 C 
ATOM     15  C   UNL     1     148.908 143.274 162.712  1.00  0.00     0.007 C 
ENDBRANCH   5  13
TORSDOF 1
ENDMDL
