MODEL 1
REMARK VINA RESULT:    -3.142      0.000      0.000
REMARK INTER + INTRA:          -4.636
REMARK INTER:                  -4.060
REMARK INTRA:                  -0.576
REMARK UNBOUND:                -0.576
REMARK SMILES CO[C@@]1(CO)O[C@H](CO)[C@H](O)[C@H]1O
REMARK SMILES IDX 3 1 12 2 10 3 7 4 6 5 2 6 1 7 4 8 5 9 13 11 11 13 8 15 9 16
REMARK H PARENT 5 10 13 12 11 14 9 17
REMARK Flexibility Score: inf
ROOT
ATOM      1  C   UNL     1       7.726   3.885   1.971  1.00  0.00     0.221 C 
ATOM      2  C   UNL     1       9.247   4.192   2.036  1.00  0.00     0.207 C 
ATOM      3  C   UNL     1       9.300   5.690   2.200  1.00  0.00     0.180 C 
ATOM      4  C   UNL     1       7.981   5.969   2.924  1.00  0.00     0.179 C 
ATOM      5  O   UNL     1       7.052   4.950   2.616  1.00  0.00    -0.337 OA
ENDROOT
BRANCH   1   6
ATOM      6  O   UNL     1       7.387   2.696   2.686  1.00  0.00    -0.349 OA
ATOM      7  C   UNL     1       5.996   2.446   2.755  1.00  0.00     0.198 C 
ENDBRANCH   1   6
BRANCH   1   8
ATOM      8  C   UNL     1       7.186   3.866   0.510  1.00  0.00     0.224 C 
BRANCH   8   9
ATOM      9  O   UNL     1       8.191   3.567  -0.421  1.00  0.00    -0.391 OA
ATOM     10  H   UNL     1       7.800   2.902  -1.046  1.00  0.00     0.210 HD
ENDBRANCH   8   9
ENDBRANCH   1   8
BRANCH   2  11
ATOM     11  O   UNL     1       9.875   3.551   3.125  1.00  0.00    -0.385 OA
ATOM     12  H   UNL     1       9.955   4.203   3.871  1.00  0.00     0.211 HD
ENDBRANCH   2  11
BRANCH   3  13
ATOM     13  O   UNL     1       9.349   6.298   0.934  1.00  0.00    -0.387 OA
ATOM     14  H   UNL     1       8.482   6.766   0.805  1.00  0.00     0.211 HD
ENDBRANCH   3  13
BRANCH   4  15
ATOM     15  C   UNL     1       7.374   7.350   2.638  1.00  0.00     0.191 C 
BRANCH  15  16
ATOM     16  O   UNL     1       6.815   7.388   1.353  1.00  0.00    -0.394 OA
ATOM     17  H   UNL     1       7.580   7.428   0.721  1.00  0.00     0.210 HD
ENDBRANCH  15  16
ENDBRANCH   4  15
TORSDOF 7
ENDMDL
MODEL 2
REMARK VINA RESULT:    -3.106      2.813      5.197
REMARK INTER + INTRA:          -4.591
REMARK INTER:                  -3.867
REMARK INTRA:                  -0.724
REMARK UNBOUND:                -0.576
REMARK SMILES CO[C@@]1(CO)O[C@H](CO)[C@H](O)[C@H]1O
REMARK SMILES IDX 3 1 12 2 10 3 7 4 6 5 2 6 1 7 4 8 5 9 13 11 11 13 8 15 9 16
REMARK H PARENT 5 10 13 12 11 14 9 17
REMARK Flexibility Score: inf
ROOT
ATOM      1  C   UNL     1      11.893   6.797   2.108  1.00  0.00     0.221 C 
ATOM      2  C   UNL     1      10.730   7.371   1.253  1.00  0.00     0.207 C 
ATOM      3  C   UNL     1       9.611   6.383   1.470  1.00  0.00     0.180 C 
ATOM      4  C   UNL     1       9.932   5.853   2.869  1.00  0.00     0.179 C 
ATOM      5  O   UNL     1      11.317   5.983   3.114  1.00  0.00    -0.337 OA
ENDROOT
BRANCH   1   6
ATOM      6  O   UNL     1      12.620   7.825   2.784  1.00  0.00    -0.349 OA
ATOM      7  C   UNL     1      13.892   8.090   2.223  1.00  0.00     0.198 C 
ENDBRANCH   1   6
BRANCH   1   8
ATOM      8  C   UNL     1      12.827   5.859   1.289  1.00  0.00     0.224 C 
BRANCH   8   9
ATOM      9  O   UNL     1      13.023   4.623   1.921  1.00  0.00    -0.391 OA
ATOM     10  H   UNL     1      12.345   4.007   1.539  1.00  0.00     0.210 HD
ENDBRANCH   8   9
ENDBRANCH   1   8
BRANCH   2  11
ATOM     11  O   UNL     1      10.343   8.660   1.674  1.00  0.00    -0.385 OA
ATOM     12  H   UNL     1      10.787   8.855   2.542  1.00  0.00     0.211 HD
ENDBRANCH   2  11
BRANCH   3  13
ATOM     13  O   UNL     1       9.681   5.376   0.492  1.00  0.00    -0.387 OA
ATOM     14  H   UNL     1      10.620   5.349   0.172  1.00  0.00     0.211 HD
ENDBRANCH   3  13
BRANCH   4  15
ATOM     15  C   UNL     1       9.477   4.409   3.125  1.00  0.00     0.191 C 
BRANCH  15  16
ATOM     16  O   UNL     1      10.477   3.501   2.748  1.00  0.00    -0.394 OA
ATOM     17  H   UNL     1      10.911   3.888   1.943  1.00  0.00     0.210 HD
ENDBRANCH  15  16
ENDBRANCH   4  15
TORSDOF 7
ENDMDL
MODEL 3
REMARK VINA RESULT:    -3.059      1.423      3.640
REMARK INTER + INTRA:          -4.529
REMARK INTER:                  -4.156
REMARK INTRA:                  -0.373
REMARK UNBOUND:                -0.576
REMARK SMILES CO[C@@]1(CO)O[C@H](CO)[C@H](O)[C@H]1O
REMARK SMILES IDX 3 1 12 2 10 3 7 4 6 5 2 6 1 7 4 8 5 9 13 11 11 13 8 15 9 16
REMARK H PARENT 5 10 13 12 11 14 9 17
REMARK Flexibility Score: inf
ROOT
ATOM      1  C   UNL     1       8.752   4.576   1.859  1.00  0.00     0.221 C 
ATOM      2  C   UNL     1       8.188   3.456   0.942  1.00  0.00     0.207 C 
ATOM      3  C   UNL     1       6.769   3.286   1.423  1.00  0.00     0.180 C 
ATOM      4  C   UNL     1       6.451   4.686   1.953  1.00  0.00     0.179 C 
ATOM      5  O   UNL     1       7.650   5.326   2.338  1.00  0.00    -0.337 OA
ENDROOT
BRANCH   1   6
ATOM      6  O   UNL     1       9.585   5.489   1.142  1.00  0.00    -0.349 OA
ATOM      7  C   UNL     1       9.505   6.823   1.606  1.00  0.00     0.198 C 
ENDBRANCH   1   6
BRANCH   1   8
ATOM      8  C   UNL     1       9.459   4.008   3.125  1.00  0.00     0.224 C 
BRANCH   8   9
ATOM      9  O   UNL     1      10.774   3.602   2.858  1.00  0.00    -0.391 OA
ATOM     10  H   UNL     1      10.718   2.654   2.569  1.00  0.00     0.210 HD
ENDBRANCH   8   9
ENDBRANCH   1   8
BRANCH   2  11
ATOM     11  O   UNL     1       8.210   3.821  -0.421  1.00  0.00    -0.385 OA
ATOM     12  H   UNL     1       8.917   4.506  -0.552  1.00  0.00     0.211 HD
ENDBRANCH   2  11
BRANCH   3  13
ATOM     13  O   UNL     1       6.733   2.314   2.438  1.00  0.00    -0.387 OA
ATOM     14  H   UNL     1       7.651   2.253   2.812  1.00  0.00     0.211 HD
ENDBRANCH   3  13
BRANCH   4  15
ATOM     15  C   UNL     1       5.435   4.718   3.103  1.00  0.00     0.191 C 
BRANCH  15  16
ATOM     16  O   UNL     1       4.397   3.805   2.873  1.00  0.00    -0.394 OA
ATOM     17  H   UNL     1       4.698   2.943   3.262  1.00  0.00     0.210 HD
ENDBRANCH  15  16
ENDBRANCH   4  15
TORSDOF 7
ENDMDL
MODEL 4
REMARK VINA RESULT:    -2.959      1.678      3.948
REMARK INTER + INTRA:          -4.400
REMARK INTER:                  -3.881
REMARK INTRA:                  -0.518
REMARK UNBOUND:                -0.576
REMARK SMILES CO[C@@]1(CO)O[C@H](CO)[C@H](O)[C@H]1O
REMARK SMILES IDX 3 1 12 2 10 3 7 4 6 5 2 6 1 7 4 8 5 9 13 11 11 13 8 15 9 16
REMARK H PARENT 5 10 13 12 11 14 9 17
REMARK Flexibility Score: inf
ROOT
ATOM      1  C   UNL     1       7.808   3.873   2.211  1.00  0.00     0.221 C 
ATOM      2  C   UNL     1       6.624   4.717   1.663  1.00  0.00     0.207 C 
ATOM      3  C   UNL     1       5.429   3.820   1.861  1.00  0.00     0.180 C 
ATOM      4  C   UNL     1       5.860   2.991   3.073  1.00  0.00     0.179 C 
ATOM      5  O   UNL     1       7.270   2.934   3.125  1.00  0.00    -0.337 OA
ENDROOT
BRANCH   1   6
ATOM      6  O   UNL     1       8.739   4.669   2.946  1.00  0.00    -0.349 OA
ATOM      7  C   UNL     1      10.003   4.057   3.120  1.00  0.00     0.198 C 
ENDBRANCH   1   6
BRANCH   1   8
ATOM      8  C   UNL     1       8.503   3.033   1.100  1.00  0.00     0.224 C 
BRANCH   8   9
ATOM      9  O   UNL     1       8.213   3.513  -0.186  1.00  0.00    -0.391 OA
ATOM     10  H   UNL     1       7.782   2.762  -0.671  1.00  0.00     0.210 HD
ENDBRANCH   8   9
ENDBRANCH   1   8
BRANCH   2  11
ATOM     11  O   UNL     1       6.459   5.927   2.369  1.00  0.00    -0.385 OA
ATOM     12  H   UNL     1       7.336   6.187   2.758  1.00  0.00     0.211 HD
ENDBRANCH   2  11
BRANCH   3  13
ATOM     13  O   UNL     1       5.244   3.028   0.715  1.00  0.00    -0.387 OA
ATOM     14  H   UNL     1       4.930   3.633  -0.006  1.00  0.00     0.211 HD
ENDBRANCH   3  13
BRANCH   4  15
ATOM     15  C   UNL     1       5.266   1.576   3.124  1.00  0.00     0.191 C 
BRANCH  15  16
ATOM     16  O   UNL     1       6.220   0.624   2.740  1.00  0.00    -0.394 OA
ATOM     17  H   UNL     1       6.277   0.676   1.750  1.00  0.00     0.210 HD
ENDBRANCH  15  16
ENDBRANCH   4  15
TORSDOF 7
ENDMDL
MODEL 5
REMARK VINA RESULT:    -2.785      1.958      4.406
REMARK INTER + INTRA:          -4.176
REMARK INTER:                  -3.626
REMARK INTRA:                  -0.549
REMARK UNBOUND:                -0.576
REMARK SMILES CO[C@@]1(CO)O[C@H](CO)[C@H](O)[C@H]1O
REMARK SMILES IDX 3 1 12 2 10 3 7 4 6 5 2 6 1 7 4 8 5 9 13 11 11 13 8 15 9 16
REMARK H PARENT 5 10 13 12 11 14 9 17
REMARK Flexibility Score: inf
ROOT
ATOM      1  C   UNL     1       9.430   7.089   2.074  1.00  0.00     0.221 C 
ATOM      2  C   UNL     1       8.093   6.417   1.657  1.00  0.00     0.207 C 
ATOM      3  C   UNL     1       8.334   4.952   1.927  1.00  0.00     0.180 C 
ATOM      4  C   UNL     1       9.350   5.010   3.069  1.00  0.00     0.179 C 
ATOM      5  O   UNL     1      10.067   6.225   2.999  1.00  0.00    -0.337 OA
ENDROOT
BRANCH   1   6
ATOM      6  O   UNL     1       9.219   8.328   2.753  1.00  0.00    -0.349 OA
ATOM      7  C   UNL     1      10.386   9.116   2.881  1.00  0.00     0.198 C 
ENDBRANCH   1   6
BRANCH   1   8
ATOM      8  C   UNL     1      10.420   7.234   0.881  1.00  0.00     0.224 C 
BRANCH   8   9
ATOM      9  O   UNL     1      11.216   6.092   0.712  1.00  0.00    -0.391 OA
ATOM     10  H   UNL     1      10.595   5.353   0.484  1.00  0.00     0.210 HD
ENDBRANCH   8   9
ENDBRANCH   1   8
BRANCH   2  11
ATOM     11  O   UNL     1       7.000   6.887   2.414  1.00  0.00    -0.385 OA
ATOM     12  H   UNL     1       7.289   6.980   3.360  1.00  0.00     0.211 HD
ENDBRANCH   2  11
BRANCH   3  13
ATOM     13  O   UNL     1       8.865   4.346   0.775  1.00  0.00    -0.387 OA
ATOM     14  H   UNL     1       9.412   3.576   1.081  1.00  0.00     0.211 HD
ENDBRANCH   3  13
BRANCH   4  15
ATOM     15  C   UNL     1      10.319   3.820   3.124  1.00  0.00     0.191 C 
BRANCH  15  16
ATOM     16  O   UNL     1      11.576   4.182   2.622  1.00  0.00    -0.394 OA
ATOM     17  H   UNL     1      12.198   4.160   3.395  1.00  0.00     0.210 HD
ENDBRANCH  15  16
ENDBRANCH   4  15
TORSDOF 7
ENDMDL
MODEL 6
REMARK VINA RESULT:    -2.744      1.898      3.679
REMARK INTER + INTRA:          -4.122
REMARK INTER:                  -3.453
REMARK INTRA:                  -0.669
REMARK UNBOUND:                -0.576
REMARK SMILES CO[C@@]1(CO)O[C@H](CO)[C@H](O)[C@H]1O
REMARK SMILES IDX 3 1 12 2 10 3 7 4 6 5 2 6 1 7 4 8 5 9 13 11 11 13 8 15 9 16
REMARK H PARENT 5 10 13 12 11 14 9 17
REMARK Flexibility Score: inf
ROOT
ATOM      1  C   UNL     1       8.828   5.466   1.915  1.00  0.00     0.221 C 
ATOM      2  C   UNL     1       8.893   6.953   2.360  1.00  0.00     0.207 C 
ATOM      3  C   UNL     1      10.303   7.364   2.017  1.00  0.00     0.180 C 
ATOM      4  C   UNL     1      10.616   6.444   0.835  1.00  0.00     0.179 C 
ATOM      5  O   UNL     1       9.826   5.277   0.927  1.00  0.00    -0.337 OA
ENDROOT
BRANCH   1   6
ATOM      6  O   UNL     1       7.580   5.144   1.300  1.00  0.00    -0.349 OA
ATOM      7  C   UNL     1       7.500   3.812   0.831  1.00  0.00     0.198 C 
ENDBRANCH   1   6
BRANCH   1   8
ATOM      8  C   UNL     1       9.184   4.485   3.070  1.00  0.00     0.224 C 
BRANCH   8   9
ATOM      9  O   UNL     1      10.295   3.686   2.761  1.00  0.00    -0.391 OA
ATOM     10  H   UNL     1      11.095   4.217   3.013  1.00  0.00     0.210 HD
ENDBRANCH   8   9
ENDBRANCH   1   8
BRANCH   2  11
ATOM     11  O   UNL     1       7.961   7.758   1.672  1.00  0.00    -0.385 OA
ATOM     12  H   UNL     1       8.135   8.709   1.901  1.00  0.00     0.211 HD
ENDBRANCH   2  11
BRANCH   3  13
ATOM     13  O   UNL     1      11.142   7.118   3.118  1.00  0.00    -0.387 OA
ATOM     14  H   UNL     1      12.006   6.791   2.754  1.00  0.00     0.211 HD
ENDBRANCH   3  13
BRANCH   4  15
ATOM     15  C   UNL     1      12.099   6.075   0.688  1.00  0.00     0.191 C 
BRANCH  15  16
ATOM     16  O   UNL     1      12.428   5.002   1.527  1.00  0.00    -0.394 OA
ATOM     17  H   UNL     1      13.101   5.351   2.169  1.00  0.00     0.210 HD
ENDBRANCH  15  16
ENDBRANCH   4  15
TORSDOF 7
ENDMDL
MODEL 7
REMARK VINA RESULT:    -2.605      2.823      4.658
REMARK INTER + INTRA:          -3.942
REMARK INTER:                  -3.446
REMARK INTRA:                  -0.496
REMARK UNBOUND:                -0.576
REMARK SMILES CO[C@@]1(CO)O[C@H](CO)[C@H](O)[C@H]1O
REMARK SMILES IDX 3 1 12 2 10 3 7 4 6 5 2 6 1 7 4 8 5 9 13 11 11 13 8 15 9 16
REMARK H PARENT 5 10 13 12 11 14 9 17
REMARK Flexibility Score: inf
ROOT
ATOM      1  C   UNL     1      11.820   6.618   1.948  1.00  0.00     0.221 C 
ATOM      2  C   UNL     1      11.198   8.042   1.950  1.00  0.00     0.207 C 
ATOM      3  C   UNL     1       9.715   7.782   1.868  1.00  0.00     0.180 C 
ATOM      4  C   UNL     1       9.602   6.414   2.546  1.00  0.00     0.179 C 
ATOM      5  O   UNL     1      10.827   5.723   2.416  1.00  0.00    -0.337 OA
ENDROOT
BRANCH   1   6
ATOM      6  O   UNL     1      12.922   6.512   2.850  1.00  0.00    -0.349 OA
ATOM      7  C   UNL     1      14.145   6.178   2.222  1.00  0.00     0.198 C 
ENDBRANCH   1   6
BRANCH   1   8
ATOM      8  C   UNL     1      12.185   6.133   0.514  1.00  0.00     0.224 C 
BRANCH   8   9
ATOM      9  O   UNL     1      11.048   5.821  -0.245  1.00  0.00    -0.391 OA
ATOM     10  H   UNL     1      10.456   6.616  -0.196  1.00  0.00     0.210 HD
ENDBRANCH   8   9
ENDBRANCH   1   8
BRANCH   2  11
ATOM     11  O   UNL     1      11.511   8.759   3.125  1.00  0.00    -0.385 OA
ATOM     12  H   UNL     1      10.699   9.249   3.420  1.00  0.00     0.211 HD
ENDBRANCH   2  11
BRANCH   3  13
ATOM     13  O   UNL     1       9.323   7.738   0.519  1.00  0.00    -0.387 OA
ATOM     14  H   UNL     1       9.932   8.345   0.022  1.00  0.00     0.211 HD
ENDBRANCH   3  13
BRANCH   4  15
ATOM     15  C   UNL     1       8.441   5.545   2.043  1.00  0.00     0.191 C 
BRANCH  15  16
ATOM     16  O   UNL     1       8.813   4.843   0.888  1.00  0.00    -0.394 OA
ATOM     17  H   UNL     1       9.794   4.964   0.797  1.00  0.00     0.210 HD
ENDBRANCH  15  16
ENDBRANCH   4  15
TORSDOF 7
ENDMDL
MODEL 8
REMARK VINA RESULT:    -2.492      1.254      2.609
REMARK INTER + INTRA:          -3.797
REMARK INTER:                  -3.257
REMARK INTRA:                  -0.539
REMARK UNBOUND:                -0.576
REMARK SMILES CO[C@@]1(CO)O[C@H](CO)[C@H](O)[C@H]1O
REMARK SMILES IDX 3 1 12 2 10 3 7 4 6 5 2 6 1 7 4 8 5 9 13 11 11 13 8 15 9 16
REMARK H PARENT 5 10 13 12 11 14 9 17
REMARK Flexibility Score: inf
ROOT
ATOM      1  C   UNL     1       7.894   4.053   2.375  1.00  0.00     0.221 C 
ATOM      2  C   UNL     1       8.138   4.550   0.923  1.00  0.00     0.207 C 
ATOM      3  C   UNL     1       9.294   5.508   1.067  1.00  0.00     0.180 C 
ATOM      4  C   UNL     1      10.022   4.936   2.285  1.00  0.00     0.179 C 
ATOM      5  O   UNL     1       9.104   4.227   3.090  1.00  0.00    -0.337 OA
ENDROOT
BRANCH   1   6
ATOM      6  O   UNL     1       7.590   2.659   2.421  1.00  0.00    -0.349 OA
ATOM      7  C   UNL     1       6.245   2.377   2.757  1.00  0.00     0.198 C 
ENDBRANCH   1   6
BRANCH   1   8
ATOM      8  C   UNL     1       6.832   4.911   3.125  1.00  0.00     0.224 C 
BRANCH   8   9
ATOM      9  O   UNL     1       6.264   5.891   2.298  1.00  0.00    -0.391 OA
ATOM     10  H   UNL     1       6.324   5.539   1.372  1.00  0.00     0.210 HD
ENDBRANCH   8   9
ENDBRANCH   1   8
BRANCH   2  11
ATOM     11  O   UNL     1       8.474   3.495   0.048  1.00  0.00    -0.385 OA
ATOM     12  H   UNL     1       7.634   3.074  -0.275  1.00  0.00     0.211 HD
ENDBRANCH   2  11
BRANCH   3  13
ATOM     13  O   UNL     1       8.801   6.802   1.304  1.00  0.00    -0.387 OA
ATOM     14  H   UNL     1       8.750   6.917   2.289  1.00  0.00     0.211 HD
ENDBRANCH   3  13
BRANCH   4  15
ATOM     15  C   UNL     1      10.778   5.976   3.125  1.00  0.00     0.191 C 
BRANCH  15  16
ATOM     16  O   UNL     1      11.506   6.844   2.300  1.00  0.00    -0.394 OA
ATOM     17  H   UNL     1      11.223   7.763   2.551  1.00  0.00     0.210 HD
ENDBRANCH  15  16
ENDBRANCH   4  15
TORSDOF 7
ENDMDL
