MODEL 1
REMARK VINA RESULT:    -5.689      0.000      0.000
REMARK INTER + INTRA:          -8.675
REMARK INTER:                  -7.851
REMARK INTRA:                  -0.823
REMARK UNBOUND:                -0.823
REMARK SMILES CCCCc1cccc(O)c1CCCC
REMARK SMILES IDX 5 1 11 2 9 3 8 4 7 5 6 6 4 7 3 8 2 9 1 10 12 11 13 12 14 13
REMARK SMILES IDX 15 14 10 15
REMARK H PARENT 10 16
REMARK Flexibility Score: inf
ROOT
ATOM      1  C   UNL     1     -14.084 -28.114 -33.998  1.00  0.00    -0.041 A 
ATOM      2  C   UNL     1     -15.261 -27.721 -34.706  1.00  0.00    -0.003 A 
ATOM      3  C   UNL     1     -15.191 -27.552 -36.109  1.00  0.00     0.119 A 
ATOM      4  C   UNL     1     -14.000 -27.811 -36.795  1.00  0.00     0.046 A 
ATOM      5  C   UNL     1     -12.869 -28.236 -36.106  1.00  0.00     0.004 A 
ATOM      6  C   UNL     1     -12.909 -28.387 -34.723  1.00  0.00     0.004 A 
ENDROOT
BRANCH   1   7
ATOM      7  C   UNL     1     -14.025 -28.255 -32.490  1.00  0.00     0.036 C 
BRANCH   7   8
ATOM      8  C   UNL     1     -14.431 -29.666 -32.041  1.00  0.00     0.004 C 
BRANCH   8   9
ATOM      9  C   UNL     1     -13.252 -30.468 -31.472  1.00  0.00    -0.003 C 
ATOM     10  C   UNL     1     -13.617 -31.235 -30.201  1.00  0.00     0.004 C 
ENDBRANCH   8   9
ENDBRANCH   7   8
ENDBRANCH   1   7
BRANCH   2  11
ATOM     11  C   UNL     1     -16.600 -27.512 -34.019  1.00  0.00     0.040 C 
BRANCH  11  12
ATOM     12  C   UNL     1     -16.710 -26.092 -33.436  1.00  0.00     0.005 C 
BRANCH  12  13
ATOM     13  C   UNL     1     -17.117 -26.094 -31.953  1.00  0.00    -0.003 C 
ATOM     14  C   UNL     1     -16.038 -25.497 -31.048  1.00  0.00     0.004 C 
ENDBRANCH  12  13
ENDBRANCH  11  12
ENDBRANCH   2  11
BRANCH   3  15
ATOM     15  O   UNL     1     -16.312 -27.124 -36.821  1.00  0.00    -0.508 OA
ATOM     16  H   UNL     1     -16.641 -27.617 -37.644  1.00  0.00     0.293 HD
ENDBRANCH   3  15
TORSDOF 7
ENDMDL
MODEL 2
REMARK VINA RESULT:    -5.522      1.460      4.181
REMARK INTER + INTRA:          -8.444
REMARK INTER:                  -7.621
REMARK INTRA:                  -0.823
REMARK UNBOUND:                -0.823
REMARK SMILES CCCCc1cccc(O)c1CCCC
REMARK SMILES IDX 5 1 11 2 9 3 8 4 7 5 6 6 4 7 3 8 2 9 1 10 12 11 13 12 14 13
REMARK SMILES IDX 15 14 10 15
REMARK H PARENT 10 16
REMARK Flexibility Score: inf
ROOT
ATOM      1  C   UNL     1     -15.219 -27.774 -34.658  1.00  0.00    -0.041 A 
ATOM      2  C   UNL     1     -14.035 -28.164 -33.963  1.00  0.00    -0.003 A 
ATOM      3  C   UNL     1     -12.856 -28.411 -34.705  1.00  0.00     0.119 A 
ATOM      4  C   UNL     1     -12.841 -28.231 -36.092  1.00  0.00     0.046 A 
ATOM      5  C   UNL     1     -13.986 -27.807 -36.759  1.00  0.00     0.004 A 
ATOM      6  C   UNL     1     -15.163 -27.580 -36.051  1.00  0.00     0.004 A 
ENDROOT
BRANCH   1   7
ATOM      7  C   UNL     1     -16.555 -27.553 -33.975  1.00  0.00     0.036 C 
BRANCH   7   8
ATOM      8  C   UNL     1     -16.680 -26.121 -33.435  1.00  0.00     0.004 C 
BRANCH   8   9
ATOM      9  C   UNL     1     -17.084 -26.080 -31.954  1.00  0.00    -0.003 C 
ATOM     10  C   UNL     1     -15.976 -25.538 -31.053  1.00  0.00     0.004 C 
ENDBRANCH   8   9
ENDBRANCH   7   8
ENDBRANCH   1   7
BRANCH   2  11
ATOM     11  C   UNL     1     -13.976 -28.291 -32.450  1.00  0.00     0.040 C 
BRANCH  11  12
ATOM     12  C   UNL     1     -14.395 -29.700 -31.993  1.00  0.00     0.005 C 
BRANCH  12  13
ATOM     13  C   UNL     1     -13.223 -30.498 -31.398  1.00  0.00    -0.003 C 
ATOM     14  C   UNL     1     -13.615 -31.254 -30.127  1.00  0.00     0.004 C 
ENDBRANCH  12  13
ENDBRANCH  11  12
ENDBRANCH   2  11
BRANCH   3  15
ATOM     15  O   UNL     1     -11.696 -28.840 -34.058  1.00  0.00    -0.508 OA
ATOM     16  H   UNL     1     -11.351 -29.788 -34.155  1.00  0.00     0.293 HD
ENDBRANCH   3  15
TORSDOF 7
ENDMDL
MODEL 3
REMARK VINA RESULT:    -5.292     14.994     17.064
REMARK INTER + INTRA:          -8.126
REMARK INTER:                  -7.252
REMARK INTRA:                  -0.874
REMARK UNBOUND:                -0.823
REMARK SMILES CCCCc1cccc(O)c1CCCC
REMARK SMILES IDX 5 1 11 2 9 3 8 4 7 5 6 6 4 7 3 8 2 9 1 10 12 11 13 12 14 13
REMARK SMILES IDX 15 14 10 15
REMARK H PARENT 10 16
REMARK Flexibility Score: inf
ROOT
ATOM      1  C   UNL     1      -6.801 -22.196 -19.626  1.00  0.00    -0.041 A 
ATOM      2  C   UNL     1      -7.572 -21.161 -20.237  1.00  0.00    -0.003 A 
ATOM      3  C   UNL     1      -7.628 -19.892 -19.614  1.00  0.00     0.119 A 
ATOM      4  C   UNL     1      -6.903 -19.645 -18.444  1.00  0.00     0.046 A 
ATOM      5  C   UNL     1      -6.118 -20.643 -17.878  1.00  0.00     0.004 A 
ATOM      6  C   UNL     1      -6.066 -21.906 -18.462  1.00  0.00     0.004 A 
ENDROOT
BRANCH   1   7
ATOM      7  C   UNL     1      -6.727 -23.611 -20.166  1.00  0.00     0.036 C 
BRANCH   7   8
ATOM      8  C   UNL     1      -5.415 -24.300 -19.760  1.00  0.00     0.004 C 
BRANCH   8   9
ATOM      9  C   UNL     1      -5.647 -25.643 -19.054  1.00  0.00    -0.003 C 
ATOM     10  C   UNL     1      -6.654 -25.544 -17.909  1.00  0.00     0.004 C 
ENDBRANCH   8   9
ENDBRANCH   7   8
ENDBRANCH   1   7
BRANCH   2  11
ATOM     11  C   UNL     1      -8.307 -21.353 -21.553  1.00  0.00     0.040 C 
BRANCH  11  12
ATOM     12  C   UNL     1      -7.389 -21.053 -22.751  1.00  0.00     0.005 C 
BRANCH  12  13
ATOM     13  C   UNL     1      -7.694 -21.946 -23.965  1.00  0.00    -0.003 C 
ATOM     14  C   UNL     1      -8.979 -22.758 -23.787  1.00  0.00     0.004 C 
ENDBRANCH  12  13
ENDBRANCH  11  12
ENDBRANCH   2  11
BRANCH   3  15
ATOM     15  O   UNL     1      -8.411 -18.875 -20.163  1.00  0.00    -0.508 OA
ATOM     16  H   UNL     1      -8.849 -18.168 -19.583  1.00  0.00     0.293 HD
ENDBRANCH   3  15
TORSDOF 7
ENDMDL
MODEL 4
REMARK VINA RESULT:    -5.247     14.896     16.024
REMARK INTER + INTRA:          -8.064
REMARK INTER:                  -6.855
REMARK INTRA:                  -1.209
REMARK UNBOUND:                -0.823
REMARK SMILES CCCCc1cccc(O)c1CCCC
REMARK SMILES IDX 5 1 11 2 9 3 8 4 7 5 6 6 4 7 3 8 2 9 1 10 12 11 13 12 14 13
REMARK SMILES IDX 15 14 10 15
REMARK H PARENT 10 16
REMARK Flexibility Score: inf
ROOT
ATOM      1  C   UNL     1      -5.783 -23.197 -22.022  1.00  0.00    -0.041 A 
ATOM      2  C   UNL     1      -6.748 -22.243 -22.467  1.00  0.00    -0.003 A 
ATOM      3  C   UNL     1      -6.452 -21.445 -23.596  1.00  0.00     0.119 A 
ATOM      4  C   UNL     1      -5.251 -21.621 -24.292  1.00  0.00     0.046 A 
ATOM      5  C   UNL     1      -4.334 -22.583 -23.881  1.00  0.00     0.004 A 
ATOM      6  C   UNL     1      -4.596 -23.364 -22.759  1.00  0.00     0.004 A 
ENDROOT
BRANCH   1   7
ATOM      7  C   UNL     1      -5.965 -24.053 -20.784  1.00  0.00     0.036 C 
BRANCH   7   8
ATOM      8  C   UNL     1      -5.070 -23.573 -19.632  1.00  0.00     0.004 C 
BRANCH   8   9
ATOM      9  C   UNL     1      -5.582 -24.024 -18.257  1.00  0.00    -0.003 C 
ATOM     10  C   UNL     1      -6.915 -24.766 -18.336  1.00  0.00     0.004 C 
ENDBRANCH   8   9
ENDBRANCH   7   8
ENDBRANCH   1   7
BRANCH   2  11
ATOM     11  C   UNL     1      -8.102 -22.073 -21.798  1.00  0.00     0.040 C 
BRANCH  11  12
ATOM     12  C   UNL     1      -8.101 -20.871 -20.836  1.00  0.00     0.005 C 
BRANCH  12  13
ATOM     13  C   UNL     1      -7.924 -21.292 -19.368  1.00  0.00    -0.003 C 
ATOM     14  C   UNL     1      -6.858 -20.466 -18.646  1.00  0.00     0.004 C 
ENDBRANCH  12  13
ENDBRANCH  11  12
ENDBRANCH   2  11
BRANCH   3  15
ATOM     15  O   UNL     1      -7.356 -20.472 -24.026  1.00  0.00    -0.508 OA
ATOM     16  H   UNL     1      -7.348 -19.533 -23.645  1.00  0.00     0.293 HD
ENDBRANCH   3  15
TORSDOF 7
ENDMDL
MODEL 5
REMARK VINA RESULT:    -5.215      1.179      3.766
REMARK INTER + INTRA:          -8.020
REMARK INTER:                  -7.702
REMARK INTRA:                  -0.318
REMARK UNBOUND:                -0.823
REMARK SMILES CCCCc1cccc(O)c1CCCC
REMARK SMILES IDX 5 1 11 2 9 3 8 4 7 5 6 6 4 7 3 8 2 9 1 10 12 11 13 12 14 13
REMARK SMILES IDX 15 14 10 15
REMARK H PARENT 10 16
REMARK Flexibility Score: inf
ROOT
ATOM      1  C   UNL     1     -14.944 -27.792 -32.859  1.00  0.00    -0.041 A 
ATOM      2  C   UNL     1     -14.863 -27.691 -34.281  1.00  0.00    -0.003 A 
ATOM      3  C   UNL     1     -15.900 -27.028 -34.980  1.00  0.00     0.119 A 
ATOM      4  C   UNL     1     -16.963 -26.443 -34.283  1.00  0.00     0.046 A 
ATOM      5  C   UNL     1     -17.013 -26.507 -32.895  1.00  0.00     0.004 A 
ATOM      6  C   UNL     1     -16.016 -27.174 -32.189  1.00  0.00     0.004 A 
ENDROOT
BRANCH   1   7
ATOM      7  C   UNL     1     -13.929 -28.540 -32.016  1.00  0.00     0.036 C 
BRANCH   7   8
ATOM      8  C   UNL     1     -14.302 -30.022 -31.870  1.00  0.00     0.004 C 
BRANCH   8   9
ATOM      9  C   UNL     1     -13.177 -30.856 -31.242  1.00  0.00    -0.003 C 
ATOM     10  C   UNL     1     -13.510 -31.328 -29.827  1.00  0.00     0.004 C 
ENDBRANCH   8   9
ENDBRANCH   7   8
ENDBRANCH   1   7
BRANCH   2  11
ATOM     11  C   UNL     1     -13.688 -28.233 -35.077  1.00  0.00     0.040 C 
BRANCH  11  12
ATOM     12  C   UNL     1     -12.352 -27.702 -34.525  1.00  0.00     0.005 C 
BRANCH  12  13
ATOM     13  C   UNL     1     -11.292 -28.807 -34.387  1.00  0.00    -0.003 C 
ATOM     14  C   UNL     1      -9.982 -28.456 -35.096  1.00  0.00     0.004 C 
ENDBRANCH  12  13
ENDBRANCH  11  12
ENDBRANCH   2  11
BRANCH   3  15
ATOM     15  O   UNL     1     -15.871 -26.954 -36.374  1.00  0.00    -0.508 OA
ATOM     16  H   UNL     1     -15.279 -27.563 -36.927  1.00  0.00     0.293 HD
ENDBRANCH   3  15
TORSDOF 7
ENDMDL
MODEL 6
REMARK VINA RESULT:    -5.213     15.099     16.554
REMARK INTER + INTRA:          -8.017
REMARK INTER:                  -6.644
REMARK INTRA:                  -1.374
REMARK UNBOUND:                -0.823
REMARK SMILES CCCCc1cccc(O)c1CCCC
REMARK SMILES IDX 5 1 11 2 9 3 8 4 7 5 6 6 4 7 3 8 2 9 1 10 12 11 13 12 14 13
REMARK SMILES IDX 15 14 10 15
REMARK H PARENT 10 16
REMARK Flexibility Score: inf
ROOT
ATOM      1  C   UNL     1      -6.680 -22.371 -22.412  1.00  0.00    -0.041 A 
ATOM      2  C   UNL     1      -5.630 -23.256 -22.021  1.00  0.00    -0.003 A 
ATOM      3  C   UNL     1      -4.456 -23.315 -22.807  1.00  0.00     0.119 A 
ATOM      4  C   UNL     1      -4.309 -22.485 -23.924  1.00  0.00     0.046 A 
ATOM      5  C   UNL     1      -5.316 -21.593 -24.275  1.00  0.00     0.004 A 
ATOM      6  C   UNL     1      -6.490 -21.535 -23.528  1.00  0.00     0.004 A 
ENDROOT
BRANCH   1   7
ATOM      7  C   UNL     1      -8.008 -22.278 -21.687  1.00  0.00     0.036 C 
BRANCH   7   8
ATOM      8  C   UNL     1      -8.163 -20.929 -20.968  1.00  0.00     0.004 C 
BRANCH   8   9
ATOM      9  C   UNL     1      -8.017 -21.051 -19.445  1.00  0.00    -0.003 C 
ATOM     10  C   UNL     1      -6.970 -20.096 -18.873  1.00  0.00     0.004 C 
ENDBRANCH   8   9
ENDBRANCH   7   8
ENDBRANCH   1   7
BRANCH   2  11
ATOM     11  C   UNL     1      -5.705 -24.114 -20.769  1.00  0.00     0.040 C 
BRANCH  11  12
ATOM     12  C   UNL     1      -5.158 -23.359 -19.544  1.00  0.00     0.005 C 
BRANCH  12  13
ATOM     13  C   UNL     1      -5.852 -23.775 -18.237  1.00  0.00    -0.003 C 
ATOM     14  C   UNL     1      -7.144 -24.556 -18.483  1.00  0.00     0.004 C 
ENDBRANCH  12  13
ENDBRANCH  11  12
ENDBRANCH   2  11
BRANCH   3  15
ATOM     15  O   UNL     1      -3.433 -24.205 -22.475  1.00  0.00    -0.508 OA
ATOM     16  H   UNL     1      -2.459 -23.923 -22.481  1.00  0.00     0.293 HD
ENDBRANCH   3  15
TORSDOF 7
ENDMDL
MODEL 7
REMARK VINA RESULT:    -5.198     14.701     16.935
REMARK INTER + INTRA:          -7.997
REMARK INTER:                  -7.042
REMARK INTRA:                  -0.955
REMARK UNBOUND:                -0.823
REMARK SMILES CCCCc1cccc(O)c1CCCC
REMARK SMILES IDX 5 1 11 2 9 3 8 4 7 5 6 6 4 7 3 8 2 9 1 10 12 11 13 12 14 13
REMARK SMILES IDX 15 14 10 15
REMARK H PARENT 10 16
REMARK Flexibility Score: inf
ROOT
ATOM      1  C   UNL     1      -7.005 -23.377 -19.362  1.00  0.00    -0.041 A 
ATOM      2  C   UNL     1      -6.355 -23.623 -20.609  1.00  0.00    -0.003 A 
ATOM      3  C   UNL     1      -5.711 -24.865 -20.812  1.00  0.00     0.119 A 
ATOM      4  C   UNL     1      -5.750 -25.854 -19.822  1.00  0.00     0.046 A 
ATOM      5  C   UNL     1      -6.422 -25.626 -18.626  1.00  0.00     0.004 A 
ATOM      6  C   UNL     1      -7.044 -24.401 -18.397  1.00  0.00     0.004 A 
ENDROOT
BRANCH   1   7
ATOM      7  C   UNL     1      -7.664 -22.058 -19.009  1.00  0.00     0.036 C 
BRANCH   7   8
ATOM      8  C   UNL     1      -6.662 -21.079 -18.380  1.00  0.00     0.004 C 
BRANCH   8   9
ATOM      9  C   UNL     1      -6.955 -19.617 -18.745  1.00  0.00    -0.003 C 
ATOM     10  C   UNL     1      -7.871 -19.482 -19.960  1.00  0.00     0.004 C 
ENDBRANCH   8   9
ENDBRANCH   7   8
ENDBRANCH   1   7
BRANCH   2  11
ATOM     11  C   UNL     1      -6.358 -22.616 -21.747  1.00  0.00     0.040 C 
BRANCH  11  12
ATOM     12  C   UNL     1      -7.701 -22.632 -22.499  1.00  0.00     0.005 C 
BRANCH  12  13
ATOM     13  C   UNL     1      -7.682 -21.748 -23.757  1.00  0.00    -0.003 C 
ATOM     14  C   UNL     1      -7.075 -20.368 -23.494  1.00  0.00     0.004 C 
ENDBRANCH  12  13
ENDBRANCH  11  12
ENDBRANCH   2  11
BRANCH   3  15
ATOM     15  O   UNL     1      -5.027 -25.116 -22.003  1.00  0.00    -0.508 OA
ATOM     16  H   UNL     1      -4.123 -25.575 -22.012  1.00  0.00     0.293 HD
ENDBRANCH   3  15
TORSDOF 7
ENDMDL
MODEL 8
REMARK VINA RESULT:    -4.978     14.409     16.429
REMARK INTER + INTRA:          -7.693
REMARK INTER:                  -6.762
REMARK INTRA:                  -0.931
REMARK UNBOUND:                -0.823
REMARK SMILES CCCCc1cccc(O)c1CCCC
REMARK SMILES IDX 5 1 11 2 9 3 8 4 7 5 6 6 4 7 3 8 2 9 1 10 12 11 13 12 14 13
REMARK SMILES IDX 15 14 10 15
REMARK H PARENT 10 16
REMARK Flexibility Score: inf
ROOT
ATOM      1  C   UNL     1      -6.611 -22.500 -21.599  1.00  0.00    -0.041 A 
ATOM      2  C   UNL     1      -6.876 -22.850 -20.241  1.00  0.00    -0.003 A 
ATOM      3  C   UNL     1      -6.279 -24.015 -19.706  1.00  0.00     0.119 A 
ATOM      4  C   UNL     1      -5.405 -24.784 -20.483  1.00  0.00     0.046 A 
ATOM      5  C   UNL     1      -5.115 -24.413 -21.791  1.00  0.00     0.004 A 
ATOM      6  C   UNL     1      -5.710 -23.283 -22.345  1.00  0.00     0.004 A 
ENDROOT
BRANCH   1   7
ATOM      7  C   UNL     1      -7.251 -21.315 -22.297  1.00  0.00     0.036 C 
BRANCH   7   8
ATOM      8  C   UNL     1      -7.776 -21.699 -23.688  1.00  0.00     0.004 C 
BRANCH   8   9
ATOM      9  C   UNL     1      -9.042 -22.565 -23.626  1.00  0.00    -0.003 C 
ATOM     10  C   UNL     1      -9.375 -23.224 -24.963  1.00  0.00     0.004 C 
ENDBRANCH   8   9
ENDBRANCH   7   8
ENDBRANCH   1   7
BRANCH   2  11
ATOM     11  C   UNL     1      -7.748 -22.002 -19.330  1.00  0.00     0.040 C 
BRANCH  11  12
ATOM     12  C   UNL     1      -6.895 -21.043 -18.480  1.00  0.00     0.005 C 
BRANCH  12  13
ATOM     13  C   UNL     1      -7.043 -19.577 -18.919  1.00  0.00    -0.003 C 
ATOM     14  C   UNL     1      -8.437 -19.268 -19.467  1.00  0.00     0.004 C 
ENDBRANCH  12  13
ENDBRANCH  11  12
ENDBRANCH   2  11
BRANCH   3  15
ATOM     15  O   UNL     1      -6.557 -24.409 -18.396  1.00  0.00    -0.508 OA
ATOM     16  H   UNL     1      -6.993 -23.779 -17.732  1.00  0.00     0.293 HD
ENDBRANCH   3  15
TORSDOF 7
ENDMDL
MODEL 9
REMARK VINA RESULT:    -4.957     14.692     16.833
REMARK INTER + INTRA:          -7.664
REMARK INTER:                  -6.569
REMARK INTRA:                  -1.095
REMARK UNBOUND:                -0.823
REMARK SMILES CCCCc1cccc(O)c1CCCC
REMARK SMILES IDX 5 1 11 2 9 3 8 4 7 5 6 6 4 7 3 8 2 9 1 10 12 11 13 12 14 13
REMARK SMILES IDX 15 14 10 15
REMARK H PARENT 10 16
REMARK Flexibility Score: inf
ROOT
ATOM      1  C   UNL     1      -7.242 -22.406 -21.553  1.00  0.00    -0.041 A 
ATOM      2  C   UNL     1      -6.025 -22.856 -20.958  1.00  0.00    -0.003 A 
ATOM      3  C   UNL     1      -5.804 -22.610 -19.583  1.00  0.00     0.119 A 
ATOM      4  C   UNL     1      -6.783 -21.977 -18.810  1.00  0.00     0.046 A 
ATOM      5  C   UNL     1      -7.986 -21.581 -19.385  1.00  0.00     0.004 A 
ATOM      6  C   UNL     1      -8.215 -21.793 -20.742  1.00  0.00     0.004 A 
ENDROOT
BRANCH   1   7
ATOM      7  C   UNL     1      -7.554 -22.552 -23.030  1.00  0.00     0.036 C 
BRANCH   7   8
ATOM      8  C   UNL     1      -7.754 -21.184 -23.700  1.00  0.00     0.004 C 
BRANCH   8   9
ATOM      9  C   UNL     1      -6.435 -20.422 -23.893  1.00  0.00    -0.003 C 
ATOM     10  C   UNL     1      -5.377 -21.246 -24.624  1.00  0.00     0.004 C 
ENDBRANCH   8   9
ENDBRANCH   7   8
ENDBRANCH   1   7
BRANCH   2  11
ATOM     11  C   UNL     1      -4.968 -23.624 -21.734  1.00  0.00     0.040 C 
BRANCH  11  12
ATOM     12  C   UNL     1      -5.323 -25.119 -21.826  1.00  0.00     0.005 C 
BRANCH  12  13
ATOM     13  C   UNL     1      -4.661 -25.951 -20.715  1.00  0.00    -0.003 C 
ATOM     14  C   UNL     1      -5.636 -26.314 -19.594  1.00  0.00     0.004 C 
ENDBRANCH  12  13
ENDBRANCH  11  12
ENDBRANCH   2  11
BRANCH   3  15
ATOM     15  O   UNL     1      -4.603 -22.997 -18.985  1.00  0.00    -0.508 OA
ATOM     16  H   UNL     1      -3.925 -23.569 -19.474  1.00  0.00     0.293 HD
ENDBRANCH   3  15
TORSDOF 7
ENDMDL
