MODEL 1
REMARK VINA RESULT:    -4.324      0.000      0.000
REMARK INTER + INTRA:          -4.689
REMARK INTER:                  -6.599
REMARK INTRA:                   1.910
REMARK UNBOUND:                 1.910
REMARK SMILES CC1=CCC[C@@H](C)C(=O)C[C@@H](C(C)C)C(=O)C1
REMARK SMILES IDX 8 1 9 2 6 3 7 4 5 5 4 6 3 7 2 8 1 9 10 11 11 12 15 13 16 14
REMARK SMILES IDX 17 15 12 17 13 18 14 19
REMARK H PARENT
REMARK Flexibility Score: 70.00
ROOT
ATOM      1  C   UNL     1      -3.160  28.361  30.847  1.00  0.00     0.136 C 
ATOM      2  O   UNL     1      -2.728  29.364  31.394  1.00  0.00    -0.299 OA
ENDROOT
BRANCH   1   3
ATOM      3  C   UNL     1      -4.653  28.093  30.869  1.00  0.00     0.053 C 
ATOM      4  C   UNL     1      -5.009  26.927  29.940  1.00  0.00     0.016 C 
BRANCH   3   5
ATOM      5  C   UNL     1      -5.417  29.387  30.475  1.00  0.00     0.015 C 
BRANCH   5   6
ATOM      6  C   UNL     1      -6.001  29.391  29.050  1.00  0.00     0.028 C 
BRANCH   6   7
ATOM      7  C   UNL     1      -5.524  30.503  28.137  1.00  0.00    -0.028 C 
ATOM      8  C   UNL     1      -4.238  30.849  27.890  1.00  0.00    -0.070 CG0
ATOM      9  C   UNL     1      -3.978  31.940  26.880  1.00  0.00     0.039 C 
ATOM     10  G   UNL     1      -3.053  30.247  28.619  1.00  0.00     0.000 G0
ENDBRANCH   6   7
ENDBRANCH   5   6
ENDBRANCH   3   5
ENDBRANCH   1   3
BRANCH   1  11
ATOM     11  C   UNL     1      -2.185  27.421  30.170  1.00  0.00     0.087 C 
BRANCH  11  12
ATOM     12  C   UNL     1      -1.634  27.949  28.815  1.00  0.00     0.066 C 
BRANCH  12  13
ATOM     13  C   UNL     1      -2.635  28.851  28.094  1.00  0.00     0.140 C 
ATOM     14  O   UNL     1      -3.138  28.459  27.051  1.00  0.00    -0.299 OA
BRANCH  13  15
ATOM     15  C   UNL     1      -3.032  30.233  28.589  1.00  0.00     0.106 CG0
ATOM     16  G   UNL     1      -4.236  30.829  27.886  1.00  0.00     0.000 G0
ENDBRANCH  13  15
ENDBRANCH  12  13
BRANCH  12  17
ATOM     17  C   UNL     1      -1.115  26.827  27.863  1.00  0.00    -0.006 C 
ATOM     18  C   UNL     1      -2.123  25.694  27.603  1.00  0.00     0.008 C 
ATOM     19  C   UNL     1       0.219  26.237  28.350  1.00  0.00     0.008 C 
ENDBRANCH  12  17
ENDBRANCH  11  12
ENDBRANCH   1  11
TORSDOF 1
ENDMDL
MODEL 2
REMARK VINA RESULT:    -4.199      1.751      3.138
REMARK INTER + INTRA:          -4.498
REMARK INTER:                  -6.238
REMARK INTRA:                   1.740
REMARK UNBOUND:                 1.910
REMARK SMILES CC1=CCC[C@@H](C)C(=O)C[C@@H](C(C)C)C(=O)C1
REMARK SMILES IDX 8 1 9 2 6 3 7 4 5 5 4 6 3 7 2 8 1 9 10 11 11 12 15 13 16 14
REMARK SMILES IDX 17 15 12 17 13 18 14 19
REMARK H PARENT
REMARK Flexibility Score: 70.00
ROOT
ATOM      1  C   UNL     1      -3.452  29.999  27.852  1.00  0.00     0.136 C 
ATOM      2  O   UNL     1      -3.125  31.091  28.292  1.00  0.00    -0.299 OA
ENDROOT
BRANCH   1   3
ATOM      3  C   UNL     1      -4.925  29.672  27.705  1.00  0.00     0.053 C 
ATOM      4  C   UNL     1      -5.788  30.902  28.011  1.00  0.00     0.016 C 
BRANCH   3   5
ATOM      5  C   UNL     1      -5.286  28.480  28.633  1.00  0.00     0.015 C 
BRANCH   5   6
ATOM      6  C   UNL     1      -5.811  28.874  30.027  1.00  0.00     0.028 C 
BRANCH   6   7
ATOM      7  C   UNL     1      -4.818  29.564  30.942  1.00  0.00    -0.028 C 
ATOM      8  C   UNL     1      -3.580  29.123  31.269  1.00  0.00    -0.070 CG0
ATOM      9  C   UNL     1      -2.719  30.007  32.137  1.00  0.00     0.039 C 
ATOM     10  G   UNL     1      -3.039  27.766  30.866  1.00  0.00     0.000 G0
ENDBRANCH   6   7
ENDBRANCH   5   6
ENDBRANCH   3   5
ENDBRANCH   1   3
BRANCH   1  11
ATOM     11  C   UNL     1      -2.367  29.011  27.474  1.00  0.00     0.087 C 
BRANCH  11  12
ATOM     12  C   UNL     1      -2.447  27.661  28.242  1.00  0.00     0.066 C 
BRANCH  12  13
ATOM     13  C   UNL     1      -2.041  27.803  29.708  1.00  0.00     0.140 C 
ATOM     14  O   UNL     1      -0.857  27.932  29.983  1.00  0.00    -0.299 OA
BRANCH  13  15
ATOM     15  C   UNL     1      -3.031  27.768  30.863  1.00  0.00     0.106 CG0
ATOM     16  G   UNL     1      -3.576  29.126  31.263  1.00  0.00     0.000 G0
ENDBRANCH  13  15
ENDBRANCH  12  13
BRANCH  12  17
ATOM     17  C   UNL     1      -1.658  26.499  27.560  1.00  0.00    -0.006 C 
ATOM     18  C   UNL     1      -2.386  25.143  27.569  1.00  0.00     0.008 C 
ATOM     19  C   UNL     1      -0.249  26.339  28.156  1.00  0.00     0.008 C 
ENDBRANCH  12  17
ENDBRANCH  11  12
ENDBRANCH   1  11
TORSDOF 1
ENDMDL
MODEL 3
REMARK VINA RESULT:    -4.190      1.771      4.771
REMARK INTER + INTRA:          -4.485
REMARK INTER:                  -5.276
REMARK INTRA:                   0.791
REMARK UNBOUND:                 1.910
REMARK SMILES CC1=CCC[C@@H](C)C(=O)C[C@@H](C(C)C)C(=O)C1
REMARK SMILES IDX 8 1 9 2 6 3 7 4 5 5 4 6 3 7 2 8 1 9 10 11 11 12 15 13 16 14
REMARK SMILES IDX 17 15 12 17 13 18 14 19
REMARK H PARENT
REMARK Flexibility Score: 70.00
ROOT
ATOM      1  C   UNL     1      -2.301  28.559  27.710  1.00  0.00     0.136 C 
ATOM      2  O   UNL     1      -1.575  29.534  27.587  1.00  0.00    -0.299 OA
ENDROOT
BRANCH   1   3
ATOM      3  C   UNL     1      -1.674  27.190  27.891  1.00  0.00     0.053 C 
ATOM      4  C   UNL     1      -2.743  26.144  28.228  1.00  0.00     0.016 C 
BRANCH   3   5
ATOM      5  C   UNL     1      -0.582  27.262  28.994  1.00  0.00     0.015 C 
BRANCH   5   6
ATOM      6  C   UNL     1      -1.101  27.111  30.436  1.00  0.00     0.028 C 
BRANCH   6   7
ATOM      7  C   UNL     1      -1.458  28.398  31.155  1.00  0.00    -0.028 C 
ATOM      8  C   UNL     1      -2.705  28.864  31.405  1.00  0.00    -0.070 CG0
ATOM      9  C   UNL     1      -2.839  30.133  32.209  1.00  0.00     0.039 C 
ATOM     10  G   UNL     1      -3.966  28.217  30.866  1.00  0.00     0.000 G0
ENDBRANCH   6   7
ENDBRANCH   5   6
ENDBRANCH   3   5
ENDBRANCH   1   3
BRANCH   1  11
ATOM     11  C   UNL     1      -3.802  28.758  27.673  1.00  0.00     0.087 C 
BRANCH  11  12
ATOM     12  C   UNL     1      -4.328  29.795  28.707  1.00  0.00     0.066 C 
BRANCH  12  13
ATOM     13  C   UNL     1      -4.835  29.132  29.986  1.00  0.00     0.140 C 
ATOM     14  O   UNL     1      -5.980  29.357  30.353  1.00  0.00    -0.299 OA
BRANCH  13  15
ATOM     15  C   UNL     1      -3.986  28.216  30.855  1.00  0.00     0.106 CG0
ATOM     16  G   UNL     1      -2.726  28.860  31.400  1.00  0.00     0.000 G0
ENDBRANCH  13  15
ENDBRANCH  12  13
BRANCH  12  17
ATOM     17  C   UNL     1      -5.396  30.775  28.130  1.00  0.00    -0.006 C 
ATOM     18  C   UNL     1      -4.859  31.752  27.069  1.00  0.00     0.008 C 
ATOM     19  C   UNL     1      -6.113  31.557  29.244  1.00  0.00     0.008 C 
ENDBRANCH  12  17
ENDBRANCH  11  12
ENDBRANCH   1  11
TORSDOF 1
ENDMDL
MODEL 4
REMARK VINA RESULT:    -3.741      1.718      4.465
REMARK INTER + INTRA:          -3.799
REMARK INTER:                  -4.870
REMARK INTRA:                   1.071
REMARK UNBOUND:                 1.910
REMARK SMILES CC1=CCC[C@@H](C)C(=O)C[C@@H](C(C)C)C(=O)C1
REMARK SMILES IDX 8 1 9 2 6 3 7 4 5 5 4 6 3 7 2 8 1 9 10 11 11 12 15 13 16 14
REMARK SMILES IDX 17 15 12 17 13 18 14 19
REMARK H PARENT
REMARK Flexibility Score: 70.00
ROOT
ATOM      1  C   UNL     1      -4.532  28.731  30.508  1.00  0.00     0.136 C 
ATOM      2  O   UNL     1      -5.304  27.815  30.265  1.00  0.00    -0.299 OA
ENDROOT
BRANCH   1   3
ATOM      3  C   UNL     1      -3.516  28.566  31.622  1.00  0.00     0.053 C 
ATOM      4  C   UNL     1      -2.794  29.890  31.899  1.00  0.00     0.016 C 
BRANCH   3   5
ATOM      5  C   UNL     1      -2.514  27.440  31.245  1.00  0.00     0.015 C 
BRANCH   5   6
ATOM      6  C   UNL     1      -1.272  27.908  30.463  1.00  0.00     0.028 C 
BRANCH   6   7
ATOM      7  C   UNL     1      -0.893  27.076  29.254  1.00  0.00    -0.028 C 
ATOM      8  C   UNL     1      -1.617  26.925  28.119  1.00  0.00    -0.070 CG0
ATOM      9  C   UNL     1      -1.017  26.112  26.998  1.00  0.00     0.039 C 
ATOM     10  G   UNL     1      -3.020  27.471  27.940  1.00  0.00     0.000 G0
ENDBRANCH   6   7
ENDBRANCH   5   6
ENDBRANCH   3   5
ENDBRANCH   1   3
BRANCH   1  11
ATOM     11  C   UNL     1      -4.624  30.000  29.686  1.00  0.00     0.087 C 
BRANCH  11  12
ATOM     12  C   UNL     1      -4.407  29.783  28.161  1.00  0.00     0.066 C 
BRANCH  12  13
ATOM     13  C   UNL     1      -3.129  29.000  27.864  1.00  0.00     0.140 C 
ATOM     14  O   UNL     1      -2.128  29.613  27.521  1.00  0.00    -0.299 OA
BRANCH  13  15
ATOM     15  C   UNL     1      -3.031  27.485  27.945  1.00  0.00     0.106 CG0
ATOM     16  G   UNL     1      -1.622  26.956  28.128  1.00  0.00     0.000 G0
ENDBRANCH  13  15
ENDBRANCH  12  13
BRANCH  12  17
ATOM     17  C   UNL     1      -4.459  31.098  27.322  1.00  0.00    -0.006 C 
ATOM     18  C   UNL     1      -3.613  32.250  27.890  1.00  0.00     0.008 C 
ATOM     19  C   UNL     1      -5.903  31.573  27.095  1.00  0.00     0.008 C 
ENDBRANCH  12  17
ENDBRANCH  11  12
ENDBRANCH   1  11
TORSDOF 1
ENDMDL
MODEL 5
REMARK VINA RESULT:    -3.168      1.727      3.483
REMARK INTER + INTRA:          -2.924
REMARK INTER:                  -5.509
REMARK INTRA:                   2.585
REMARK UNBOUND:                 1.910
REMARK SMILES CC1=CCC[C@@H](C)C(=O)C[C@@H](C(C)C)C(=O)C1
REMARK SMILES IDX 8 1 9 2 6 3 7 4 5 5 4 6 3 7 2 8 1 9 10 11 11 12 15 13 16 14
REMARK SMILES IDX 17 15 12 17 13 18 14 19
REMARK H PARENT
REMARK Flexibility Score: 70.00
ROOT
ATOM      1  C   UNL     1      -4.247  29.843  27.435  1.00  0.00     0.136 C 
ATOM      2  O   UNL     1      -4.637  29.087  26.557  1.00  0.00    -0.299 OA
ENDROOT
BRANCH   1   3
ATOM      3  C   UNL     1      -5.069  31.073  27.769  1.00  0.00     0.053 C 
ATOM      4  C   UNL     1      -4.160  32.239  28.176  1.00  0.00     0.016 C 
BRANCH   3   5
ATOM      5  C   UNL     1      -6.087  30.727  28.890  1.00  0.00     0.015 C 
BRANCH   5   6
ATOM      6  C   UNL     1      -5.625  29.638  29.876  1.00  0.00     0.028 C 
BRANCH   6   7
ATOM      7  C   UNL     1      -4.590  30.061  30.900  1.00  0.00    -0.028 C 
ATOM      8  C   UNL     1      -3.563  29.311  31.367  1.00  0.00    -0.070 CG0
ATOM      9  C   UNL     1      -2.595  29.954  32.329  1.00  0.00     0.039 C 
ATOM     10  G   UNL     1      -3.372  27.845  31.028  1.00  0.00     0.000 G0
ENDBRANCH   6   7
ENDBRANCH   5   6
ENDBRANCH   3   5
ENDBRANCH   1   3
BRANCH   1  11
ATOM     11  C   UNL     1      -2.953  29.521  28.154  1.00  0.00     0.087 C 
BRANCH  11  12
ATOM     12  C   UNL     1      -2.739  28.004  28.421  1.00  0.00     0.066 C 
BRANCH  12  13
ATOM     13  C   UNL     1      -3.602  27.491  29.572  1.00  0.00     0.140 C 
ATOM     14  O   UNL     1      -4.551  26.762  29.320  1.00  0.00    -0.299 OA
BRANCH  13  15
ATOM     15  C   UNL     1      -3.364  27.854  31.030  1.00  0.00     0.106 CG0
ATOM     16  G   UNL     1      -3.545  29.326  31.347  1.00  0.00     0.000 G0
ENDBRANCH  13  15
ENDBRANCH  12  13
BRANCH  12  17
ATOM     17  C   UNL     1      -1.245  27.603  28.628  1.00  0.00    -0.006 C 
ATOM     18  C   UNL     1      -0.825  26.312  27.905  1.00  0.00     0.008 C 
ATOM     19  C   UNL     1      -0.881  27.509  30.119  1.00  0.00     0.008 C 
ENDBRANCH  12  17
ENDBRANCH  11  12
ENDBRANCH   1  11
TORSDOF 1
ENDMDL
MODEL 6
REMARK VINA RESULT:    -1.845      1.683      3.754
REMARK INTER + INTRA:          -0.905
REMARK INTER:                  -1.505
REMARK INTRA:                   0.600
REMARK UNBOUND:                 1.910
REMARK SMILES CC1=CCC[C@@H](C)C(=O)C[C@@H](C(C)C)C(=O)C1
REMARK SMILES IDX 8 1 9 2 6 3 7 4 5 5 4 6 3 7 2 8 1 9 10 11 11 12 15 13 16 14
REMARK SMILES IDX 17 15 12 17 13 18 14 19
REMARK H PARENT
REMARK Flexibility Score: 70.00
ROOT
ATOM      1  C   UNL     1      -2.050  27.248  30.156  1.00  0.00     0.136 C 
ATOM      2  O   UNL     1      -1.214  27.327  31.044  1.00  0.00    -0.299 OA
ENDROOT
BRANCH   1   3
ATOM      3  C   UNL     1      -1.591  27.188  28.712  1.00  0.00     0.053 C 
ATOM      4  C   UNL     1      -0.124  26.750  28.626  1.00  0.00     0.016 C 
BRANCH   3   5
ATOM      5  C   UNL     1      -1.811  28.571  28.041  1.00  0.00     0.015 C 
BRANCH   5   6
ATOM      6  C   UNL     1      -2.963  28.624  27.019  1.00  0.00     0.028 C 
BRANCH   6   7
ATOM      7  C   UNL     1      -3.882  29.826  27.113  1.00  0.00    -0.028 C 
ATOM      8  C   UNL     1      -4.939  29.972  27.947  1.00  0.00    -0.070 CG0
ATOM      9  C   UNL     1      -5.677  31.287  27.934  1.00  0.00     0.039 C 
ATOM     10  G   UNL     1      -5.459  28.864  28.843  1.00  0.00     0.000 G0
ENDBRANCH   6   7
ENDBRANCH   5   6
ENDBRANCH   3   5
ENDBRANCH   1   3
BRANCH   1  11
ATOM     11  C   UNL     1      -3.516  27.216  30.536  1.00  0.00     0.087 C 
BRANCH  11  12
ATOM     12  C   UNL     1      -4.044  28.551  31.132  1.00  0.00     0.066 C 
BRANCH  12  13
ATOM     13  C   UNL     1      -5.229  29.109  30.345  1.00  0.00     0.140 C 
ATOM     14  O   UNL     1      -6.067  29.777  30.934  1.00  0.00    -0.299 OA
BRANCH  13  15
ATOM     15  C   UNL     1      -5.445  28.862  28.859  1.00  0.00     0.106 CG0
ATOM     16  G   UNL     1      -4.936  29.971  27.959  1.00  0.00     0.000 G0
ENDBRANCH  13  15
ENDBRANCH  12  13
BRANCH  12  17
ATOM     17  C   UNL     1      -2.941  29.640  31.318  1.00  0.00    -0.006 C 
ATOM     18  C   UNL     1      -2.753  30.114  32.769  1.00  0.00     0.008 C 
ATOM     19  C   UNL     1      -3.174  30.850  30.399  1.00  0.00     0.008 C 
ENDBRANCH  12  17
ENDBRANCH  11  12
ENDBRANCH   1  11
TORSDOF 1
ENDMDL
MODEL 7
REMARK VINA RESULT:    -1.502      1.630      4.721
REMARK INTER + INTRA:          -0.381
REMARK INTER:                  -3.748
REMARK INTRA:                   3.366
REMARK UNBOUND:                 1.910
REMARK SMILES CC1=CCC[C@@H](C)C(=O)C[C@@H](C(C)C)C(=O)C1
REMARK SMILES IDX 8 1 9 2 6 3 7 4 5 5 4 6 3 7 2 8 1 9 10 11 11 12 15 13 16 14
REMARK SMILES IDX 17 15 12 17 13 18 14 19
REMARK H PARENT
REMARK Flexibility Score: 70.00
ROOT
ATOM      1  C   UNL     1      -2.576  28.868  27.782  1.00  0.00     0.136 C 
ATOM      2  O   UNL     1      -3.611  28.475  27.265  1.00  0.00    -0.299 OA
ENDROOT
BRANCH   1   3
ATOM      3  C   UNL     1      -1.451  27.880  28.024  1.00  0.00     0.053 C 
ATOM      4  C   UNL     1      -1.956  26.438  27.896  1.00  0.00     0.016 C 
BRANCH   3   5
ATOM      5  C   UNL     1      -0.825  28.141  29.422  1.00  0.00     0.015 C 
BRANCH   5   6
ATOM      6  C   UNL     1      -1.836  28.240  30.580  1.00  0.00     0.028 C 
BRANCH   6   7
ATOM      7  C   UNL     1      -3.074  27.374  30.461  1.00  0.00    -0.028 C 
ATOM      8  C   UNL     1      -4.351  27.804  30.322  1.00  0.00    -0.070 CG0
ATOM      9  C   UNL     1      -5.433  26.769  30.139  1.00  0.00     0.039 C 
ATOM     10  G   UNL     1      -4.758  29.262  30.407  1.00  0.00     0.000 G0
ENDBRANCH   6   7
ENDBRANCH   5   6
ENDBRANCH   3   5
ENDBRANCH   1   3
BRANCH   1  11
ATOM     11  C   UNL     1      -2.460  30.328  28.165  1.00  0.00     0.087 C 
BRANCH  11  12
ATOM     12  C   UNL     1      -3.811  30.985  28.571  1.00  0.00     0.066 C 
BRANCH  12  13
ATOM     13  C   UNL     1      -4.836  29.956  29.044  1.00  0.00     0.140 C 
ATOM     14  O   UNL     1      -5.778  29.682  28.313  1.00  0.00    -0.299 OA
BRANCH  13  15
ATOM     15  C   UNL     1      -4.771  29.260  30.395  1.00  0.00     0.106 CG0
ATOM     16  G   UNL     1      -4.361  27.802  30.330  1.00  0.00     0.000 G0
ENDBRANCH  13  15
ENDBRANCH  12  13
BRANCH  12  17
ATOM     17  C   UNL     1      -4.420  31.908  27.470  1.00  0.00    -0.006 C 
ATOM     18  C   UNL     1      -3.563  33.138  27.123  1.00  0.00     0.008 C 
ATOM     19  C   UNL     1      -5.849  32.351  27.824  1.00  0.00     0.008 C 
ENDBRANCH  12  17
ENDBRANCH  11  12
ENDBRANCH   1  11
TORSDOF 1
ENDMDL
