MODEL 1
REMARK VINA RESULT:    -4.382      0.000      0.000
REMARK INTER + INTRA:          -6.148
REMARK INTER:                  -5.407
REMARK INTRA:                  -0.741
REMARK UNBOUND:                -0.741
REMARK SMILES C=CC(=C)CCC=C(C)C
REMARK SMILES IDX 5 1 6 2 7 3 9 4 8 5 10 6 3 7 4 8 2 9 1 10
REMARK H PARENT
REMARK Flexibility Score: inf
ROOT
ATOM      1  C   UNL     1     -47.673 -50.988  16.602  1.00  0.00     0.039 C 
ENDROOT
BRANCH   1   2
ATOM      2  C   UNL     1     -47.795 -50.521  18.057  1.00  0.00     0.032 C 
BRANCH   2   3
ATOM      3  C   UNL     1     -49.237 -50.514  18.498  1.00  0.00    -0.028 C 
ATOM      4  C   UNL     1     -49.217 -48.076  19.070  1.00  0.00     0.039 C 
ATOM      5  C   UNL     1     -49.879 -49.429  18.986  1.00  0.00    -0.080 C 
ATOM      6  C   UNL     1     -51.316 -49.542  19.426  1.00  0.00     0.039 C 
ENDBRANCH   2   3
ENDBRANCH   1   2
BRANCH   1   7
ATOM      7  C   UNL     1     -48.099 -49.892  15.649  1.00  0.00    -0.055 C 
ATOM      8  C   UNL     1     -47.520 -48.690  15.742  1.00  0.00     0.012 C 
BRANCH   7   9
ATOM      9  C   UNL     1     -49.176 -50.089  14.643  1.00  0.00    -0.005 C 
ATOM     10  C   UNL     1     -50.155 -50.986  14.764  1.00  0.00     0.009 C 
ENDBRANCH   7   9
ENDBRANCH   1   7
TORSDOF 4
ENDMDL
MODEL 2
REMARK VINA RESULT:    -4.358      1.477      2.965
REMARK INTER + INTRA:          -6.118
REMARK INTER:                  -5.389
REMARK INTRA:                  -0.729
REMARK UNBOUND:                -0.741
REMARK SMILES C=CC(=C)CCC=C(C)C
REMARK SMILES IDX 5 1 6 2 7 3 9 4 8 5 10 6 3 7 4 8 2 9 1 10
REMARK H PARENT
REMARK Flexibility Score: inf
ROOT
ATOM      1  C   UNL     1     -48.740 -50.497  18.259  1.00  0.00     0.039 C 
ENDROOT
BRANCH   1   2
ATOM      2  C   UNL     1     -47.523 -49.568  18.332  1.00  0.00     0.032 C 
BRANCH   2   3
ATOM      3  C   UNL     1     -47.928 -48.136  18.087  1.00  0.00    -0.028 C 
ATOM      4  C   UNL     1     -47.161 -48.158  15.703  1.00  0.00     0.039 C 
ATOM      5  C   UNL     1     -47.741 -47.480  16.920  1.00  0.00    -0.080 C 
ATOM      6  C   UNL     1     -48.157 -46.037  16.794  1.00  0.00     0.039 C 
ENDBRANCH   2   3
ENDBRANCH   1   2
BRANCH   1   7
ATOM      7  C   UNL     1     -48.835 -51.152  16.899  1.00  0.00    -0.055 C 
ATOM      8  C   UNL     1     -47.787 -51.842  16.436  1.00  0.00     0.012 C 
BRANCH   7   9
ATOM      9  C   UNL     1     -50.037 -51.016  16.034  1.00  0.00    -0.005 C 
ATOM     10  C   UNL     1     -49.990 -50.765  14.725  1.00  0.00     0.009 C 
ENDBRANCH   7   9
ENDBRANCH   1   7
TORSDOF 4
ENDMDL
MODEL 3
REMARK VINA RESULT:    -4.309      0.688      1.787
REMARK INTER + INTRA:          -6.058
REMARK INTER:                  -5.334
REMARK INTRA:                  -0.724
REMARK UNBOUND:                -0.741
REMARK SMILES C=CC(=C)CCC=C(C)C
REMARK SMILES IDX 5 1 6 2 7 3 9 4 8 5 10 6 3 7 4 8 2 9 1 10
REMARK H PARENT
REMARK Flexibility Score: inf
ROOT
ATOM      1  C   UNL     1     -48.152 -51.421  16.904  1.00  0.00     0.039 C 
ENDROOT
BRANCH   1   2
ATOM      2  C   UNL     1     -48.320 -50.969  18.358  1.00  0.00     0.032 C 
BRANCH   2   3
ATOM      3  C   UNL     1     -49.779 -50.796  18.700  1.00  0.00    -0.028 C 
ATOM      4  C   UNL     1     -49.540 -48.353  19.194  1.00  0.00     0.039 C 
ATOM      5  C   UNL     1     -50.334 -49.633  19.108  1.00  0.00    -0.080 C 
ATOM      6  C   UNL     1     -51.801 -49.581  19.453  1.00  0.00     0.039 C 
ENDBRANCH   2   3
ENDBRANCH   1   2
BRANCH   1   7
ATOM      7  C   UNL     1     -48.191 -50.235  15.965  1.00  0.00    -0.055 C 
ATOM      8  C   UNL     1     -49.002 -50.274  14.903  1.00  0.00     0.012 C 
BRANCH   7   9
ATOM      9  C   UNL     1     -47.321 -49.044  16.154  1.00  0.00    -0.005 C 
ATOM     10  C   UNL     1     -47.597 -47.833  15.669  1.00  0.00     0.009 C 
ENDBRANCH   7   9
ENDBRANCH   1   7
TORSDOF 4
ENDMDL
MODEL 4
REMARK VINA RESULT:    -4.279      1.042      1.551
REMARK INTER + INTRA:          -6.021
REMARK INTER:                  -5.392
REMARK INTRA:                  -0.629
REMARK UNBOUND:                -0.741
REMARK SMILES C=CC(=C)CCC=C(C)C
REMARK SMILES IDX 5 1 6 2 7 3 9 4 8 5 10 6 3 7 4 8 2 9 1 10
REMARK H PARENT
REMARK Flexibility Score: inf
ROOT
ATOM      1  C   UNL     1     -47.455 -49.693  17.853  1.00  0.00     0.039 C 
ENDROOT
BRANCH   1   2
ATOM      2  C   UNL     1     -48.454 -50.756  18.320  1.00  0.00     0.032 C 
BRANCH   2   3
ATOM      3  C   UNL     1     -49.478 -50.156  19.252  1.00  0.00    -0.028 C 
ATOM      4  C   UNL     1     -51.397 -50.646  17.718  1.00  0.00     0.039 C 
ATOM      5  C   UNL     1     -50.799 -50.071  18.979  1.00  0.00    -0.080 C 
ATOM      6  C   UNL     1     -51.730 -49.423  19.971  1.00  0.00     0.039 C 
ENDBRANCH   2   3
ENDBRANCH   1   2
BRANCH   1   7
ATOM      7  C   UNL     1     -47.581 -49.454  16.364  1.00  0.00    -0.055 C 
ATOM      8  C   UNL     1     -47.221 -48.268  15.863  1.00  0.00     0.012 C 
BRANCH   7   9
ATOM      9  C   UNL     1     -48.139 -50.478  15.441  1.00  0.00    -0.005 C 
ATOM     10  C   UNL     1     -49.210 -50.285  14.672  1.00  0.00     0.009 C 
ENDBRANCH   7   9
ENDBRANCH   1   7
TORSDOF 4
ENDMDL
MODEL 5
REMARK VINA RESULT:    -4.231     14.040     15.952
REMARK INTER + INTRA:          -5.962
REMARK INTER:                  -5.134
REMARK INTRA:                  -0.828
REMARK UNBOUND:                -0.741
REMARK SMILES C=CC(=C)CCC=C(C)C
REMARK SMILES IDX 5 1 6 2 7 3 9 4 8 5 10 6 3 7 4 8 2 9 1 10
REMARK H PARENT
REMARK Flexibility Score: inf
ROOT
ATOM      1  C   UNL     1     -46.254 -52.069  32.330  1.00  0.00     0.039 C 
ENDROOT
BRANCH   1   2
ATOM      2  C   UNL     1     -45.252 -52.130  31.172  1.00  0.00     0.032 C 
BRANCH   2   3
ATOM      3  C   UNL     1     -45.126 -50.785  30.502  1.00  0.00    -0.028 C 
ATOM      4  C   UNL     1     -42.713 -50.522  31.120  1.00  0.00     0.039 C 
ATOM      5  C   UNL     1     -43.999 -50.037  30.498  1.00  0.00    -0.080 C 
ATOM      6  C   UNL     1     -43.994 -48.690  29.821  1.00  0.00     0.039 C 
ENDBRANCH   2   3
ENDBRANCH   1   2
BRANCH   1   7
ATOM      7  C   UNL     1     -45.659 -51.347  33.519  1.00  0.00    -0.055 C 
ATOM      8  C   UNL     1     -44.587 -51.868  34.125  1.00  0.00     0.012 C 
BRANCH   7   9
ATOM      9  C   UNL     1     -46.253 -50.100  34.069  1.00  0.00    -0.005 C 
ATOM     10  C   UNL     1     -46.987 -49.245  33.356  1.00  0.00     0.009 C 
ENDBRANCH   7   9
ENDBRANCH   1   7
TORSDOF 4
ENDMDL
MODEL 6
REMARK VINA RESULT:    -4.192     13.990     15.663
REMARK INTER + INTRA:          -5.913
REMARK INTER:                  -5.155
REMARK INTRA:                  -0.759
REMARK UNBOUND:                -0.741
REMARK SMILES C=CC(=C)CCC=C(C)C
REMARK SMILES IDX 5 1 6 2 7 3 9 4 8 5 10 6 3 7 4 8 2 9 1 10
REMARK H PARENT
REMARK Flexibility Score: inf
ROOT
ATOM      1  C   UNL     1     -46.483 -49.808  31.353  1.00  0.00     0.039 C 
ENDROOT
BRANCH   1   2
ATOM      2  C   UNL     1     -45.107 -49.205  31.050  1.00  0.00     0.032 C 
BRANCH   2   3
ATOM      3  C   UNL     1     -44.321 -50.101  30.126  1.00  0.00    -0.028 C 
ATOM      4  C   UNL     1     -42.749 -50.847  31.927  1.00  0.00     0.039 C 
ATOM      5  C   UNL     1     -43.239 -50.820  30.500  1.00  0.00    -0.080 C 
ATOM      6  C   UNL     1     -42.509 -51.662  29.485  1.00  0.00     0.039 C 
ENDBRANCH   2   3
ENDBRANCH   1   2
BRANCH   1   7
ATOM      7  C   UNL     1     -46.612 -50.140  32.823  1.00  0.00    -0.055 C 
ATOM      8  C   UNL     1     -46.989 -49.180  33.674  1.00  0.00     0.012 C 
BRANCH   7   9
ATOM      9  C   UNL     1     -46.286 -51.486  33.364  1.00  0.00    -0.005 C 
ATOM     10  C   UNL     1     -45.937 -52.529  32.611  1.00  0.00     0.009 C 
ENDBRANCH   7   9
ENDBRANCH   1   7
TORSDOF 4
ENDMDL
MODEL 7
REMARK VINA RESULT:    -4.029     13.243     14.838
REMARK INTER + INTRA:          -5.712
REMARK INTER:                  -5.130
REMARK INTRA:                  -0.582
REMARK UNBOUND:                -0.741
REMARK SMILES C=CC(=C)CCC=C(C)C
REMARK SMILES IDX 5 1 6 2 7 3 9 4 8 5 10 6 3 7 4 8 2 9 1 10
REMARK H PARENT
REMARK Flexibility Score: inf
ROOT
ATOM      1  C   UNL     1     -40.653 -46.973  27.806  1.00  0.00     0.039 C 
ENDROOT
BRANCH   1   2
ATOM      2  C   UNL     1     -41.318 -48.345  27.648  1.00  0.00     0.032 C 
BRANCH   2   3
ATOM      3  C   UNL     1     -42.584 -48.423  28.465  1.00  0.00    -0.028 C 
ATOM      4  C   UNL     1     -41.533 -49.820  30.258  1.00  0.00     0.039 C 
ATOM      5  C   UNL     1     -42.703 -49.109  29.623  1.00  0.00    -0.080 C 
ATOM      6  C   UNL     1     -44.027 -49.144  30.342  1.00  0.00     0.039 C 
ENDBRANCH   2   3
ENDBRANCH   1   2
BRANCH   1   7
ATOM      7  C   UNL     1     -39.372 -47.086  28.603  1.00  0.00    -0.055 C 
ATOM      8  C   UNL     1     -38.960 -46.036  29.321  1.00  0.00     0.012 C 
BRANCH   7   9
ATOM      9  C   UNL     1     -38.528 -48.310  28.580  1.00  0.00    -0.005 C 
ATOM     10  C   UNL     1     -37.218 -48.317  28.827  1.00  0.00     0.009 C 
ENDBRANCH   7   9
ENDBRANCH   1   7
TORSDOF 4
ENDMDL
MODEL 8
REMARK VINA RESULT:    -3.975      1.245      4.132
REMARK INTER + INTRA:          -5.646
REMARK INTER:                  -4.746
REMARK INTRA:                  -0.900
REMARK UNBOUND:                -0.741
REMARK SMILES C=CC(=C)CCC=C(C)C
REMARK SMILES IDX 5 1 6 2 7 3 9 4 8 5 10 6 3 7 4 8 2 9 1 10
REMARK H PARENT
REMARK Flexibility Score: inf
ROOT
ATOM      1  C   UNL     1     -48.588 -48.060  19.109  1.00  0.00     0.039 C 
ENDROOT
BRANCH   1   2
ATOM      2  C   UNL     1     -47.443 -48.842  18.457  1.00  0.00     0.032 C 
BRANCH   2   3
ATOM      3  C   UNL     1     -47.803 -49.246  17.049  1.00  0.00    -0.028 C 
ATOM      4  C   UNL     1     -47.964 -51.680  17.618  1.00  0.00     0.039 C 
ATOM      5  C   UNL     1     -48.008 -50.522  16.651  1.00  0.00    -0.080 C 
ATOM      6  C   UNL     1     -48.335 -50.816  15.209  1.00  0.00     0.039 C 
ENDBRANCH   2   3
ENDBRANCH   1   2
BRANCH   1   7
ATOM      7  C   UNL     1     -49.580 -49.000  19.757  1.00  0.00    -0.055 C 
ATOM      8  C   UNL     1     -49.225 -49.653  20.869  1.00  0.00     0.012 C 
BRANCH   7   9
ATOM      9  C   UNL     1     -50.923 -49.263  19.175  1.00  0.00    -0.005 C 
ATOM     10  C   UNL     1     -51.296 -50.434  18.658  1.00  0.00     0.009 C 
ENDBRANCH   7   9
ENDBRANCH   1   7
TORSDOF 4
ENDMDL
MODEL 9
REMARK VINA RESULT:    -3.947     13.205     15.061
REMARK INTER + INTRA:          -5.611
REMARK INTER:                  -4.974
REMARK INTRA:                  -0.637
REMARK UNBOUND:                -0.741
REMARK SMILES C=CC(=C)CCC=C(C)C
REMARK SMILES IDX 5 1 6 2 7 3 9 4 8 5 10 6 3 7 4 8 2 9 1 10
REMARK H PARENT
REMARK Flexibility Score: inf
ROOT
ATOM      1  C   UNL     1     -42.502 -47.843  28.143  1.00  0.00     0.039 C 
ENDROOT
BRANCH   1   2
ATOM      2  C   UNL     1     -41.058 -47.952  27.639  1.00  0.00     0.032 C 
BRANCH   2   3
ATOM      3  C   UNL     1     -40.198 -46.868  28.240  1.00  0.00    -0.028 C 
ATOM      4  C   UNL     1     -38.334 -48.442  28.809  1.00  0.00     0.039 C 
ATOM      5  C   UNL     1     -38.985 -47.081  28.799  1.00  0.00    -0.080 C 
ATOM      6  C   UNL     1     -38.223 -45.927  29.398  1.00  0.00     0.039 C 
ENDBRANCH   2   3
ENDBRANCH   1   2
BRANCH   1   7
ATOM      7  C   UNL     1     -42.771 -48.866  29.225  1.00  0.00    -0.055 C 
ATOM      8  C   UNL     1     -43.962 -48.870  29.833  1.00  0.00     0.012 C 
BRANCH   7   9
ATOM      9  C   UNL     1     -41.738 -49.838  29.673  1.00  0.00    -0.005 C 
ATOM     10  C   UNL     1     -41.320 -49.955  30.933  1.00  0.00     0.009 C 
ENDBRANCH   7   9
ENDBRANCH   1   7
TORSDOF 4
ENDMDL
