MODEL 1
REMARK VINA RESULT:    -7.174      0.000      0.000
REMARK INTER + INTRA:          -9.115
REMARK INTER:                  -8.852
REMARK INTRA:                  -0.263
REMARK UNBOUND:                -0.263
REMARK SMILES O=c1c(O)c(-c2cc(O)c(O)c(O)c2)oc2cc(O)cc(O)c12
REMARK SMILES IDX 5 1 3 2 2 3 1 4 23 5 21 6 20 7 18 8 17 9 16 10 15 11 6 12
REMARK SMILES IDX 7 13 8 14 14 15 10 16 12 17 9 18 11 20 13 22 4 24 22 26
REMARK SMILES IDX 19 28
REMARK H PARENT 9 19 11 21 13 23 4 25 22 27 19 29
REMARK Flexibility Score: inf
ROOT
ATOM      1  C   UNL     1      13.036  -0.063  13.985  1.00  0.00     0.180 A 
ATOM      2  C   UNL     1      12.532  -1.018  14.890  1.00  0.00     0.208 A 
ATOM      3  C   UNL     1      12.524  -2.370  14.513  1.00  0.00     0.238 A 
ATOM      4  O   UNL     1      12.084  -3.235  15.319  1.00  0.00    -0.285 OA
ATOM      5  C   UNL     1      12.999  -2.742  13.239  1.00  0.00     0.111 A 
ATOM      6  C   UNL     1      13.022  -4.083  12.782  1.00  0.00     0.134 A 
ATOM      7  C   UNL     1      13.502  -4.370  11.496  1.00  0.00     0.093 A 
ATOM      8  C   UNL     1      13.959  -3.345  10.659  1.00  0.00     0.123 A 
ATOM      9  C   UNL     1      13.939  -2.023  11.107  1.00  0.00     0.094 A 
ATOM     10  C   UNL     1      13.466  -1.715  12.385  1.00  0.00     0.146 A 
ATOM     11  O   UNL     1      13.463  -0.449  12.786  1.00  0.00    -0.452 OA
ENDROOT
BRANCH   1  12
ATOM     12  C   UNL     1      13.095   1.379  14.316  1.00  0.00     0.029 A 
ATOM     13  C   UNL     1      12.204   2.299  13.737  1.00  0.00     0.062 A 
ATOM     14  C   UNL     1      12.259   3.656  14.081  1.00  0.00     0.162 A 
ATOM     15  C   UNL     1      14.017   1.831  15.272  1.00  0.00     0.062 A 
ATOM     16  C   UNL     1      13.203   4.104  15.022  1.00  0.00     0.200 A 
ATOM     17  C   UNL     1      14.080   3.184  15.619  1.00  0.00     0.162 A 
BRANCH  14  18
ATOM     18  O   UNL     1      11.376   4.562  13.495  1.00  0.00    -0.504 OA
ATOM     19  H   UNL     1      11.648   5.519  13.297  1.00  0.00     0.293 HD
ENDBRANCH  14  18
BRANCH  16  20
ATOM     20  O   UNL     1      13.274   5.453  15.372  1.00  0.00    -0.502 OA
ATOM     21  H   UNL     1      14.120   5.874  15.735  1.00  0.00     0.293 HD
ENDBRANCH  16  20
BRANCH  17  22
ATOM     22  O   UNL     1      15.022   3.596  16.563  1.00  0.00    -0.504 OA
ATOM     23  H   UNL     1      15.057   4.545  16.911  1.00  0.00     0.293 HD
ENDBRANCH  17  22
ENDBRANCH   1  12
BRANCH   2  24
ATOM     24  O   UNL     1      12.020  -0.617  16.127  1.00  0.00    -0.502 OA
ATOM     25  H   UNL     1      11.031  -0.651  16.342  1.00  0.00     0.293 HD
ENDBRANCH   2  24
BRANCH   6  26
ATOM     26  O   UNL     1      12.572  -5.125  13.592  1.00  0.00    -0.507 OA
ATOM     27  H   UNL     1      11.957  -5.848  13.238  1.00  0.00     0.293 HD
ENDBRANCH   6  26
BRANCH   8  28
ATOM     28  O   UNL     1      14.435  -3.631   9.382  1.00  0.00    -0.508 OA
ATOM     29  H   UNL     1      15.382  -3.398   9.105  1.00  0.00     0.293 HD
ENDBRANCH   8  28
TORSDOF 7
ENDMDL
MODEL 2
REMARK VINA RESULT:    -7.173      0.293      1.777
REMARK INTER + INTRA:          -9.113
REMARK INTER:                  -8.780
REMARK INTRA:                  -0.334
REMARK UNBOUND:                -0.263
REMARK SMILES O=c1c(O)c(-c2cc(O)c(O)c(O)c2)oc2cc(O)cc(O)c12
REMARK SMILES IDX 5 1 3 2 2 3 1 4 23 5 21 6 20 7 18 8 17 9 16 10 15 11 6 12
REMARK SMILES IDX 7 13 8 14 14 15 10 16 12 17 9 18 11 20 13 22 4 24 22 26
REMARK SMILES IDX 19 28
REMARK H PARENT 9 19 11 21 13 23 4 25 22 27 19 29
REMARK Flexibility Score: inf
ROOT
ATOM      1  C   UNL     1      13.129  -0.076  14.163  1.00  0.00     0.180 A 
ATOM      2  C   UNL     1      12.495  -1.031  14.982  1.00  0.00     0.208 A 
ATOM      3  C   UNL     1      12.516  -2.379  14.592  1.00  0.00     0.238 A 
ATOM      4  O   UNL     1      11.960  -3.245  15.322  1.00  0.00    -0.285 OA
ATOM      5  C   UNL     1      13.148  -2.747  13.386  1.00  0.00     0.111 A 
ATOM      6  C   UNL     1      13.210  -4.083  12.921  1.00  0.00     0.134 A 
ATOM      7  C   UNL     1      13.851  -4.366  11.705  1.00  0.00     0.093 A 
ATOM      8  C   UNL     1      14.429  -3.341  10.948  1.00  0.00     0.123 A 
ATOM      9  C   UNL     1      14.371  -2.023  11.404  1.00  0.00     0.094 A 
ATOM     10  C   UNL     1      13.739  -1.720  12.613  1.00  0.00     0.146 A 
ATOM     11  O   UNL     1      13.704  -0.458  13.026  1.00  0.00    -0.452 OA
ENDROOT
BRANCH   1  12
ATOM     12  C   UNL     1      13.166   1.361  14.516  1.00  0.00     0.029 A 
ATOM     13  C   UNL     1      14.060   1.855  15.482  1.00  0.00     0.062 A 
ATOM     14  C   UNL     1      14.096   3.223  15.785  1.00  0.00     0.162 A 
ATOM     15  C   UNL     1      12.336   2.261  13.831  1.00  0.00     0.062 A 
ATOM     16  C   UNL     1      13.243   4.114  15.111  1.00  0.00     0.200 A 
ATOM     17  C   UNL     1      12.364   3.628  14.129  1.00  0.00     0.162 A 
BRANCH  14  18
ATOM     18  O   UNL     1      14.981   3.700  16.751  1.00  0.00    -0.504 OA
ATOM     19  H   UNL     1      15.984   3.702  16.599  1.00  0.00     0.293 HD
ENDBRANCH  14  18
BRANCH  16  20
ATOM     20  O   UNL     1      13.264   5.478  15.405  1.00  0.00    -0.502 OA
ATOM     21  H   UNL     1      14.115   5.962  15.663  1.00  0.00     0.293 HD
ENDBRANCH  16  20
BRANCH  17  22
ATOM     22  O   UNL     1      11.512   4.487  13.437  1.00  0.00    -0.504 OA
ATOM     23  H   UNL     1      11.482   4.519  12.426  1.00  0.00     0.293 HD
ENDBRANCH  17  22
ENDBRANCH   1  12
BRANCH   2  24
ATOM     24  O   UNL     1      11.832  -0.634  16.146  1.00  0.00    -0.502 OA
ATOM     25  H   UNL     1      11.833  -1.195  16.989  1.00  0.00     0.293 HD
ENDBRANCH   2  24
BRANCH   6  26
ATOM     26  O   UNL     1      12.642  -5.125  13.652  1.00  0.00    -0.507 OA
ATOM     27  H   UNL     1      12.263  -5.950  13.200  1.00  0.00     0.293 HD
ENDBRANCH   6  26
BRANCH   8  28
ATOM     28  O   UNL     1      15.065  -3.622   9.741  1.00  0.00    -0.508 OA
ATOM     29  H   UNL     1      14.828  -3.126   8.889  1.00  0.00     0.293 HD
ENDBRANCH   8  28
TORSDOF 7
ENDMDL
MODEL 3
REMARK VINA RESULT:    -6.958      2.603      3.972
REMARK INTER + INTRA:          -8.848
REMARK INTER:                  -8.511
REMARK INTRA:                  -0.337
REMARK UNBOUND:                -0.263
REMARK SMILES O=c1c(O)c(-c2cc(O)c(O)c(O)c2)oc2cc(O)cc(O)c12
REMARK SMILES IDX 5 1 3 2 2 3 1 4 23 5 21 6 20 7 18 8 17 9 16 10 15 11 6 12
REMARK SMILES IDX 7 13 8 14 14 15 10 16 12 17 9 18 11 20 13 22 4 24 22 26
REMARK SMILES IDX 19 28
REMARK H PARENT 9 19 11 21 13 23 4 25 22 27 19 29
REMARK Flexibility Score: inf
ROOT
ATOM      1  C   UNL     1      14.376   2.248  14.636  1.00  0.00     0.180 A 
ATOM      2  C   UNL     1      13.344   2.427  15.577  1.00  0.00     0.208 A 
ATOM      3  C   UNL     1      12.297   1.492  15.621  1.00  0.00     0.238 A 
ATOM      4  O   UNL     1      11.373   1.636  16.467  1.00  0.00    -0.285 OA
ATOM      5  C   UNL     1      12.289   0.413  14.715  1.00  0.00     0.111 A 
ATOM      6  C   UNL     1      11.269  -0.570  14.691  1.00  0.00     0.134 A 
ATOM      7  C   UNL     1      11.328  -1.610  13.751  1.00  0.00     0.093 A 
ATOM      8  C   UNL     1      12.385  -1.686  12.836  1.00  0.00     0.123 A 
ATOM      9  C   UNL     1      13.391  -0.720  12.857  1.00  0.00     0.094 A 
ATOM     10  C   UNL     1      13.353   0.323  13.786  1.00  0.00     0.146 A 
ATOM     11  O   UNL     1      14.327   1.226  13.787  1.00  0.00    -0.452 OA
ENDROOT
BRANCH   1  12
ATOM     12  C   UNL     1      15.523   3.181  14.541  1.00  0.00     0.029 A 
ATOM     13  C   UNL     1      15.539   4.228  13.603  1.00  0.00     0.062 A 
ATOM     14  C   UNL     1      16.622   5.114  13.545  1.00  0.00     0.162 A 
ATOM     15  C   UNL     1      16.590   3.056  15.443  1.00  0.00     0.062 A 
ATOM     16  C   UNL     1      17.698   4.967  14.437  1.00  0.00     0.200 A 
ATOM     17  C   UNL     1      17.676   3.936  15.390  1.00  0.00     0.162 A 
BRANCH  14  18
ATOM     18  O   UNL     1      16.631   6.145  12.605  1.00  0.00    -0.504 OA
ATOM     19  H   UNL     1      15.897   6.238  11.911  1.00  0.00     0.293 HD
ENDBRANCH  14  18
BRANCH  16  20
ATOM     20  O   UNL     1      18.787   5.839  14.388  1.00  0.00    -0.502 OA
ATOM     21  H   UNL     1      19.734   5.531  14.568  1.00  0.00     0.293 HD
ENDBRANCH  16  20
BRANCH  17  22
ATOM     22  O   UNL     1      18.724   3.769  16.294  1.00  0.00    -0.504 OA
ATOM     23  H   UNL     1      18.964   4.475  16.979  1.00  0.00     0.293 HD
ENDBRANCH  17  22
ENDBRANCH   1  12
BRANCH   2  24
ATOM     24  O   UNL     1      13.350   3.533  16.431  1.00  0.00    -0.502 OA
ATOM     25  H   UNL     1      14.056   3.663  17.146  1.00  0.00     0.293 HD
ENDBRANCH   2  24
BRANCH   6  26
ATOM     26  O   UNL     1      10.204  -0.521  15.589  1.00  0.00    -0.507 OA
ATOM     27  H   UNL     1       9.889  -1.344  16.091  1.00  0.00     0.293 HD
ENDBRANCH   6  26
BRANCH   8  28
ATOM     28  O   UNL     1      12.442  -2.718  11.903  1.00  0.00    -0.508 OA
ATOM     29  H   UNL     1      13.040  -2.661  11.086  1.00  0.00     0.293 HD
ENDBRANCH   8  28
TORSDOF 7
ENDMDL
MODEL 4
REMARK VINA RESULT:    -6.937      1.366      2.827
REMARK INTER + INTRA:          -8.822
REMARK INTER:                  -8.459
REMARK INTRA:                  -0.363
REMARK UNBOUND:                -0.263
REMARK SMILES O=c1c(O)c(-c2cc(O)c(O)c(O)c2)oc2cc(O)cc(O)c12
REMARK SMILES IDX 5 1 3 2 2 3 1 4 23 5 21 6 20 7 18 8 17 9 16 10 15 11 6 12
REMARK SMILES IDX 7 13 8 14 14 15 10 16 12 17 9 18 11 20 13 22 4 24 22 26
REMARK SMILES IDX 19 28
REMARK H PARENT 9 19 11 21 13 23 4 25 22 27 19 29
REMARK Flexibility Score: inf
ROOT
ATOM      1  C   UNL     1      13.632  -0.156  13.897  1.00  0.00     0.180 A 
ATOM      2  C   UNL     1      14.546  -0.691  12.968  1.00  0.00     0.208 A 
ATOM      3  C   UNL     1      14.486  -2.061  12.669  1.00  0.00     0.238 A 
ATOM      4  O   UNL     1      15.291  -2.548  11.830  1.00  0.00    -0.285 OA
ATOM      5  C   UNL     1      13.533  -2.874  13.316  1.00  0.00     0.111 A 
ATOM      6  C   UNL     1      13.410  -4.264  13.074  1.00  0.00     0.134 A 
ATOM      7  C   UNL     1      12.441  -5.007  13.766  1.00  0.00     0.093 A 
ATOM      8  C   UNL     1      11.596  -4.387  14.694  1.00  0.00     0.123 A 
ATOM      9  C   UNL     1      11.714  -3.018  14.934  1.00  0.00     0.094 A 
ATOM     10  C   UNL     1      12.671  -2.260  14.254  1.00  0.00     0.146 A 
ATOM     11  O   UNL     1      12.757  -0.957  14.499  1.00  0.00    -0.452 OA
ENDROOT
BRANCH   1  12
ATOM     12  C   UNL     1      13.621   1.281  14.251  1.00  0.00     0.029 A 
ATOM     13  C   UNL     1      12.789   2.194  13.579  1.00  0.00     0.062 A 
ATOM     14  C   UNL     1      12.775   3.546  13.944  1.00  0.00     0.162 A 
ATOM     15  C   UNL     1      14.411   1.736  15.317  1.00  0.00     0.062 A 
ATOM     16  C   UNL     1      13.588   3.997  14.998  1.00  0.00     0.200 A 
ATOM     17  C   UNL     1      14.404   3.086  15.686  1.00  0.00     0.162 A 
BRANCH  14  18
ATOM     18  O   UNL     1      11.951   4.444  13.265  1.00  0.00    -0.504 OA
ATOM     19  H   UNL     1      11.168   4.898  13.723  1.00  0.00     0.293 HD
ENDBRANCH  14  18
BRANCH  16  20
ATOM     20  O   UNL     1      13.589   5.342  15.370  1.00  0.00    -0.502 OA
ATOM     21  H   UNL     1      14.413   5.925  15.292  1.00  0.00     0.293 HD
ENDBRANCH  16  20
BRANCH  17  22
ATOM     22  O   UNL     1      15.216   3.500  16.742  1.00  0.00    -0.504 OA
ATOM     23  H   UNL     1      16.205   3.289  16.777  1.00  0.00     0.293 HD
ENDBRANCH  17  22
ENDBRANCH   1  12
BRANCH   2  24
ATOM     24  O   UNL     1      15.513   0.128  12.378  1.00  0.00    -0.502 OA
ATOM     25  H   UNL     1      15.993  -0.129  11.523  1.00  0.00     0.293 HD
ENDBRANCH   2  24
BRANCH   6  26
ATOM     26  O   UNL     1      14.238  -4.909  12.157  1.00  0.00    -0.507 OA
ATOM     27  H   UNL     1      14.064  -4.868  11.159  1.00  0.00     0.293 HD
ENDBRANCH   6  26
BRANCH   8  28
ATOM     28  O   UNL     1      10.635  -5.125  15.381  1.00  0.00    -0.508 OA
ATOM     29  H   UNL     1      10.585  -5.116  16.393  1.00  0.00     0.293 HD
ENDBRANCH   8  28
TORSDOF 7
ENDMDL
MODEL 5
REMARK VINA RESULT:    -6.936      2.611      4.328
REMARK INTER + INTRA:          -8.821
REMARK INTER:                  -8.465
REMARK INTRA:                  -0.357
REMARK UNBOUND:                -0.263
REMARK SMILES O=c1c(O)c(-c2cc(O)c(O)c(O)c2)oc2cc(O)cc(O)c12
REMARK SMILES IDX 5 1 3 2 2 3 1 4 23 5 21 6 20 7 18 8 17 9 16 10 15 11 6 12
REMARK SMILES IDX 7 13 8 14 14 15 10 16 12 17 9 18 11 20 13 22 4 24 22 26
REMARK SMILES IDX 19 28
REMARK H PARENT 9 19 11 21 13 23 4 25 22 27 19 29
REMARK Flexibility Score: inf
ROOT
ATOM      1  C   UNL     1      14.386   2.256  14.730  1.00  0.00     0.180 A 
ATOM      2  C   UNL     1      13.358   2.410  15.680  1.00  0.00     0.208 A 
ATOM      3  C   UNL     1      12.307   1.480  15.698  1.00  0.00     0.238 A 
ATOM      4  O   UNL     1      11.385   1.602  16.550  1.00  0.00    -0.285 OA
ATOM      5  C   UNL     1      12.290   0.429  14.758  1.00  0.00     0.111 A 
ATOM      6  C   UNL     1      11.266  -0.548  14.707  1.00  0.00     0.134 A 
ATOM      7  C   UNL     1      11.317  -1.558  13.735  1.00  0.00     0.093 A 
ATOM      8  C   UNL     1      12.371  -1.610  12.815  1.00  0.00     0.123 A 
ATOM      9  C   UNL     1      13.382  -0.650  12.863  1.00  0.00     0.094 A 
ATOM     10  C   UNL     1      13.351   0.364  13.824  1.00  0.00     0.146 A 
ATOM     11  O   UNL     1      14.330   1.261  13.850  1.00  0.00    -0.452 OA
ENDROOT
BRANCH   1  12
ATOM     12  C   UNL     1      15.537   3.186  14.661  1.00  0.00     0.029 A 
ATOM     13  C   UNL     1      16.649   3.039  15.509  1.00  0.00     0.062 A 
ATOM     14  C   UNL     1      17.739   3.914  15.412  1.00  0.00     0.162 A 
ATOM     15  C   UNL     1      15.549   4.198  13.690  1.00  0.00     0.062 A 
ATOM     16  C   UNL     1      17.731   4.940  14.451  1.00  0.00     0.200 A 
ATOM     17  C   UNL     1      16.632   5.077  13.588  1.00  0.00     0.162 A 
BRANCH  14  18
ATOM     18  O   UNL     1      18.833   3.764  16.263  1.00  0.00    -0.504 OA
ATOM     19  H   UNL     1      19.429   2.944  16.224  1.00  0.00     0.293 HD
ENDBRANCH  14  18
BRANCH  16  20
ATOM     20  O   UNL     1      18.807   5.823  14.345  1.00  0.00    -0.502 OA
ATOM     21  H   UNL     1      18.891   6.645  14.930  1.00  0.00     0.293 HD
ENDBRANCH  16  20
BRANCH  17  22
ATOM     22  O   UNL     1      16.599   6.080  12.619  1.00  0.00    -0.504 OA
ATOM     23  H   UNL     1      16.252   5.914  11.683  1.00  0.00     0.293 HD
ENDBRANCH  17  22
ENDBRANCH   1  12
BRANCH   2  24
ATOM     24  O   UNL     1      13.372   3.490  16.567  1.00  0.00    -0.502 OA
ATOM     25  H   UNL     1      13.327   4.452  16.253  1.00  0.00     0.293 HD
ENDBRANCH   2  24
BRANCH   6  26
ATOM     26  O   UNL     1      10.203  -0.521  15.609  1.00  0.00    -0.507 OA
ATOM     27  H   UNL     1       9.474   0.181  15.554  1.00  0.00     0.293 HD
ENDBRANCH   6  26
BRANCH   8  28
ATOM     28  O   UNL     1      12.421  -2.613  11.849  1.00  0.00    -0.508 OA
ATOM     29  H   UNL     1      12.511  -3.589  12.104  1.00  0.00     0.293 HD
ENDBRANCH   8  28
TORSDOF 7
ENDMDL
MODEL 6
REMARK VINA RESULT:    -6.888      2.079      6.884
REMARK INTER + INTRA:          -8.761
REMARK INTER:                  -8.481
REMARK INTRA:                  -0.280
REMARK UNBOUND:                -0.263
REMARK SMILES O=c1c(O)c(-c2cc(O)c(O)c(O)c2)oc2cc(O)cc(O)c12
REMARK SMILES IDX 5 1 3 2 2 3 1 4 23 5 21 6 20 7 18 8 17 9 16 10 15 11 6 12
REMARK SMILES IDX 7 13 8 14 14 15 10 16 12 17 9 18 11 20 13 22 4 24 22 26
REMARK SMILES IDX 19 28
REMARK H PARENT 9 19 11 21 13 23 4 25 22 27 19 29
REMARK Flexibility Score: inf
ROOT
ATOM      1  C   UNL     1      13.624   0.893  14.285  1.00  0.00     0.180 A 
ATOM      2  C   UNL     1      13.113   1.144  15.573  1.00  0.00     0.208 A 
ATOM      3  C   UNL     1      13.372   2.386  16.175  1.00  0.00     0.238 A 
ATOM      4  O   UNL     1      12.911   2.627  17.323  1.00  0.00    -0.285 OA
ATOM      5  C   UNL     1      14.152   3.342  15.492  1.00  0.00     0.111 A 
ATOM      6  C   UNL     1      14.462   4.615  16.030  1.00  0.00     0.134 A 
ATOM      7  C   UNL     1      15.253   5.507  15.291  1.00  0.00     0.093 A 
ATOM      8  C   UNL     1      15.738   5.153  14.027  1.00  0.00     0.123 A 
ATOM      9  C   UNL     1      15.433   3.900  13.493  1.00  0.00     0.094 A 
ATOM     10  C   UNL     1      14.646   2.996  14.212  1.00  0.00     0.146 A 
ATOM     11  O   UNL     1      14.368   1.813  13.677  1.00  0.00    -0.452 OA
ENDROOT
BRANCH   1  12
ATOM     12  C   UNL     1      13.378  -0.384  13.577  1.00  0.00     0.029 A 
ATOM     13  C   UNL     1      12.105  -0.711  13.078  1.00  0.00     0.062 A 
ATOM     14  C   UNL     1      11.897  -1.914  12.390  1.00  0.00     0.162 A 
ATOM     15  C   UNL     1      14.447  -1.262  13.345  1.00  0.00     0.062 A 
ATOM     16  C   UNL     1      12.969  -2.798  12.184  1.00  0.00     0.200 A 
ATOM     17  C   UNL     1      14.247  -2.466  12.661  1.00  0.00     0.162 A 
BRANCH  14  18
ATOM     18  O   UNL     1      10.628  -2.231  11.906  1.00  0.00    -0.504 OA
ATOM     19  H   UNL     1      10.501  -2.849  11.112  1.00  0.00     0.293 HD
ENDBRANCH  14  18
BRANCH  16  20
ATOM     20  O   UNL     1      12.777  -4.002  11.505  1.00  0.00    -0.502 OA
ATOM     21  H   UNL     1      11.903  -4.512  11.544  1.00  0.00     0.293 HD
ENDBRANCH  16  20
BRANCH  17  22
ATOM     22  O   UNL     1      15.334  -3.319  12.465  1.00  0.00    -0.504 OA
ATOM     23  H   UNL     1      16.285  -2.977  12.410  1.00  0.00     0.293 HD
ENDBRANCH  17  22
ENDBRANCH   1  12
BRANCH   2  24
ATOM     24  O   UNL     1      12.385   0.161  16.248  1.00  0.00    -0.502 OA
ATOM     25  H   UNL     1      12.178   0.223  17.238  1.00  0.00     0.293 HD
ENDBRANCH   2  24
BRANCH   6  26
ATOM     26  O   UNL     1      13.995   4.996  17.287  1.00  0.00    -0.507 OA
ATOM     27  H   UNL     1      14.029   5.960  17.600  1.00  0.00     0.293 HD
ENDBRANCH   6  26
BRANCH   8  28
ATOM     28  O   UNL     1      16.523   6.039  13.294  1.00  0.00    -0.508 OA
ATOM     29  H   UNL     1      17.221   5.710  12.637  1.00  0.00     0.293 HD
ENDBRANCH   8  28
TORSDOF 7
ENDMDL
MODEL 7
REMARK VINA RESULT:    -6.849      1.563      6.819
REMARK INTER + INTRA:          -8.714
REMARK INTER:                  -8.491
REMARK INTRA:                  -0.223
REMARK UNBOUND:                -0.263
REMARK SMILES O=c1c(O)c(-c2cc(O)c(O)c(O)c2)oc2cc(O)cc(O)c12
REMARK SMILES IDX 5 1 3 2 2 3 1 4 23 5 21 6 20 7 18 8 17 9 16 10 15 11 6 12
REMARK SMILES IDX 7 13 8 14 14 15 10 16 12 17 9 18 11 20 13 22 4 24 22 26
REMARK SMILES IDX 19 28
REMARK H PARENT 9 19 11 21 13 23 4 25 22 27 19 29
REMARK Flexibility Score: inf
ROOT
ATOM      1  C   UNL     1      12.618  -1.506  12.716  1.00  0.00     0.180 A 
ATOM      2  C   UNL     1      11.966  -1.911  13.897  1.00  0.00     0.208 A 
ATOM      3  C   UNL     1      11.735  -0.960  14.904  1.00  0.00     0.238 A 
ATOM      4  O   UNL     1      11.142  -1.309  15.961  1.00  0.00    -0.285 OA
ATOM      5  C   UNL     1      12.174   0.367  14.723  1.00  0.00     0.111 A 
ATOM      6  C   UNL     1      11.983   1.384  15.690  1.00  0.00     0.134 A 
ATOM      7  C   UNL     1      12.458   2.680  15.438  1.00  0.00     0.093 A 
ATOM      8  C   UNL     1      13.120   2.978  14.242  1.00  0.00     0.123 A 
ATOM      9  C   UNL     1      13.309   1.978  13.286  1.00  0.00     0.094 A 
ATOM     10  C   UNL     1      12.842   0.681  13.516  1.00  0.00     0.146 A 
ATOM     11  O   UNL     1      13.031  -0.248  12.587  1.00  0.00    -0.452 OA
ENDROOT
BRANCH   1  12
ATOM     12  C   UNL     1      12.882  -2.446  11.603  1.00  0.00     0.029 A 
ATOM     13  C   UNL     1      11.831  -3.029  10.873  1.00  0.00     0.062 A 
ATOM     14  C   UNL     1      12.102  -3.898   9.807  1.00  0.00     0.162 A 
ATOM     15  C   UNL     1      14.206  -2.715  11.226  1.00  0.00     0.062 A 
ATOM     16  C   UNL     1      13.432  -4.180   9.452  1.00  0.00     0.200 A 
ATOM     17  C   UNL     1      14.484  -3.582  10.164  1.00  0.00     0.162 A 
BRANCH  14  18
ATOM     18  O   UNL     1      11.052  -4.477   9.096  1.00  0.00    -0.504 OA
ATOM     19  H   UNL     1      11.213  -5.209   8.412  1.00  0.00     0.293 HD
ENDBRANCH  14  18
BRANCH  16  20
ATOM     20  O   UNL     1      13.718  -5.047   8.396  1.00  0.00    -0.502 OA
ATOM     21  H   UNL     1      13.540  -4.799   7.430  1.00  0.00     0.293 HD
ENDBRANCH  16  20
BRANCH  17  22
ATOM     22  O   UNL     1      15.815  -3.835   9.831  1.00  0.00    -0.504 OA
ATOM     23  H   UNL     1      16.569  -3.225  10.119  1.00  0.00     0.293 HD
ENDBRANCH  17  22
ENDBRANCH   1  12
BRANCH   2  24
ATOM     24  O   UNL     1      11.586  -3.244  14.072  1.00  0.00    -0.502 OA
ATOM     25  H   UNL     1      10.984  -3.727  13.416  1.00  0.00     0.293 HD
ENDBRANCH   2  24
BRANCH   6  26
ATOM     26  O   UNL     1      11.329   1.118  16.892  1.00  0.00    -0.507 OA
ATOM     27  H   UNL     1      11.508   1.661  17.729  1.00  0.00     0.293 HD
ENDBRANCH   6  26
BRANCH   8  28
ATOM     28  O   UNL     1      13.592   4.264  13.993  1.00  0.00    -0.508 OA
ATOM     29  H   UNL     1      14.033   4.506  13.113  1.00  0.00     0.293 HD
ENDBRANCH   8  28
TORSDOF 7
ENDMDL
MODEL 8
REMARK VINA RESULT:    -6.829      2.185      6.616
REMARK INTER + INTRA:          -8.689
REMARK INTER:                  -8.431
REMARK INTRA:                  -0.258
REMARK UNBOUND:                -0.263
REMARK SMILES O=c1c(O)c(-c2cc(O)c(O)c(O)c2)oc2cc(O)cc(O)c12
REMARK SMILES IDX 5 1 3 2 2 3 1 4 23 5 21 6 20 7 18 8 17 9 16 10 15 11 6 12
REMARK SMILES IDX 7 13 8 14 14 15 10 16 12 17 9 18 11 20 13 22 4 24 22 26
REMARK SMILES IDX 19 28
REMARK H PARENT 9 19 11 21 13 23 4 25 22 27 19 29
REMARK Flexibility Score: inf
ROOT
ATOM      1  C   UNL     1      14.161  -2.053  12.827  1.00  0.00     0.180 A 
ATOM      2  C   UNL     1      13.236  -2.821  13.561  1.00  0.00     0.208 A 
ATOM      3  C   UNL     1      12.220  -2.162  14.270  1.00  0.00     0.238 A 
ATOM      4  O   UNL     1      11.379  -2.839  14.922  1.00  0.00    -0.285 OA
ATOM      5  C   UNL     1      12.157  -0.754  14.251  1.00  0.00     0.111 A 
ATOM      6  C   UNL     1      11.166  -0.013  14.942  1.00  0.00     0.134 A 
ATOM      7  C   UNL     1      11.177   1.388  14.880  1.00  0.00     0.093 A 
ATOM      8  C   UNL     1      12.158   2.062  14.143  1.00  0.00     0.123 A 
ATOM      9  C   UNL     1      13.135   1.336  13.461  1.00  0.00     0.094 A 
ATOM     10  C   UNL     1      13.141  -0.060  13.507  1.00  0.00     0.146 A 
ATOM     11  O   UNL     1      14.079  -0.726  12.843  1.00  0.00    -0.452 OA
ENDROOT
BRANCH   1  12
ATOM     12  C   UNL     1      15.249  -2.676  12.039  1.00  0.00     0.029 A 
ATOM     13  C   UNL     1      14.977  -3.434  10.887  1.00  0.00     0.062 A 
ATOM     14  C   UNL     1      16.022  -3.995  10.142  1.00  0.00     0.162 A 
ATOM     15  C   UNL     1      16.583  -2.457  12.412  1.00  0.00     0.062 A 
ATOM     16  C   UNL     1      17.355  -3.790  10.537  1.00  0.00     0.200 A 
ATOM     17  C   UNL     1      17.633  -3.015  11.675  1.00  0.00     0.162 A 
BRANCH  14  18
ATOM     18  O   UNL     1      15.741  -4.753   9.005  1.00  0.00    -0.504 OA
ATOM     19  H   UNL     1      16.093  -4.491   8.090  1.00  0.00     0.293 HD
ENDBRANCH  14  18
BRANCH  16  20
ATOM     20  O   UNL     1      18.407  -4.347   9.808  1.00  0.00    -0.502 OA
ATOM     21  H   UNL     1      18.511  -4.200   8.811  1.00  0.00     0.293 HD
ENDBRANCH  16  20
BRANCH  17  22
ATOM     22  O   UNL     1      18.945  -2.786  12.088  1.00  0.00    -0.504 OA
ATOM     23  H   UNL     1      19.669  -3.487  11.996  1.00  0.00     0.293 HD
ENDBRANCH  17  22
ENDBRANCH   1  12
BRANCH   2  24
ATOM     24  O   UNL     1      13.350  -4.213  13.604  1.00  0.00    -0.502 OA
ATOM     25  H   UNL     1      12.632  -4.828  13.239  1.00  0.00     0.293 HD
ENDBRANCH   2  24
BRANCH   6  26
ATOM     26  O   UNL     1      10.178  -0.657  15.685  1.00  0.00    -0.507 OA
ATOM     27  H   UNL     1      10.400  -1.394  16.344  1.00  0.00     0.293 HD
ENDBRANCH   6  26
BRANCH   8  28
ATOM     28  O   UNL     1      12.169   3.454  14.083  1.00  0.00    -0.508 OA
ATOM     29  H   UNL     1      12.967   3.962  13.721  1.00  0.00     0.293 HD
ENDBRANCH   8  28
TORSDOF 7
ENDMDL
MODEL 9
REMARK VINA RESULT:    -6.816      1.670      2.213
REMARK INTER + INTRA:          -8.673
REMARK INTER:                  -8.396
REMARK INTRA:                  -0.276
REMARK UNBOUND:                -0.263
REMARK SMILES O=c1c(O)c(-c2cc(O)c(O)c(O)c2)oc2cc(O)cc(O)c12
REMARK SMILES IDX 5 1 3 2 2 3 1 4 23 5 21 6 20 7 18 8 17 9 16 10 15 11 6 12
REMARK SMILES IDX 7 13 8 14 14 15 10 16 12 17 9 18 11 20 13 22 4 24 22 26
REMARK SMILES IDX 19 28
REMARK H PARENT 9 19 11 21 13 23 4 25 22 27 19 29
REMARK Flexibility Score: inf
ROOT
ATOM      1  C   UNL     1      13.485   1.201  14.801  1.00  0.00     0.180 A 
ATOM      2  C   UNL     1      12.398   0.619  15.482  1.00  0.00     0.208 A 
ATOM      3  C   UNL     1      11.805  -0.537  14.950  1.00  0.00     0.238 A 
ATOM      4  O   UNL     1      10.838  -1.073  15.557  1.00  0.00    -0.285 OA
ATOM      5  C   UNL     1      12.291  -1.077  13.742  1.00  0.00     0.111 A 
ATOM      6  C   UNL     1      11.747  -2.236  13.137  1.00  0.00     0.134 A 
ATOM      7  C   UNL     1      12.282  -2.706  11.928  1.00  0.00     0.093 A 
ATOM      8  C   UNL     1      13.348  -2.040  11.314  1.00  0.00     0.123 A 
ATOM      9  C   UNL     1      13.888  -0.898  11.907  1.00  0.00     0.094 A 
ATOM     10  C   UNL     1      13.371  -0.414  13.112  1.00  0.00     0.146 A 
ATOM     11  O   UNL     1      13.907   0.672  13.656  1.00  0.00    -0.452 OA
ENDROOT
BRANCH   1  12
ATOM     12  C   UNL     1      14.174   2.409  15.309  1.00  0.00     0.029 A 
ATOM     13  C   UNL     1      13.566   3.675  15.257  1.00  0.00     0.062 A 
ATOM     14  C   UNL     1      14.225   4.802  15.765  1.00  0.00     0.162 A 
ATOM     15  C   UNL     1      15.436   2.282  15.909  1.00  0.00     0.062 A 
ATOM     16  C   UNL     1      15.499   4.670  16.343  1.00  0.00     0.200 A 
ATOM     17  C   UNL     1      16.101   3.403  16.417  1.00  0.00     0.162 A 
BRANCH  14  18
ATOM     18  O   UNL     1      13.615   6.055  15.701  1.00  0.00    -0.504 OA
ATOM     19  H   UNL     1      14.026   6.870  16.144  1.00  0.00     0.293 HD
ENDBRANCH  14  18
BRANCH  16  20
ATOM     20  O   UNL     1      16.170   5.784  16.849  1.00  0.00    -0.502 OA
ATOM     21  H   UNL     1      16.034   6.113  17.796  1.00  0.00     0.293 HD
ENDBRANCH  16  20
BRANCH  17  22
ATOM     22  O   UNL     1      17.361   3.237  16.992  1.00  0.00    -0.504 OA
ATOM     23  H   UNL     1      17.874   2.367  16.925  1.00  0.00     0.293 HD
ENDBRANCH  17  22
ENDBRANCH   1  12
BRANCH   2  24
ATOM     24  O   UNL     1      11.903   1.202  16.652  1.00  0.00    -0.502 OA
ATOM     25  H   UNL     1      11.135   1.864  16.645  1.00  0.00     0.293 HD
ENDBRANCH   2  24
BRANCH   6  26
ATOM     26  O   UNL     1      10.684  -2.920  13.725  1.00  0.00    -0.507 OA
ATOM     27  H   UNL     1      10.275  -3.742  13.295  1.00  0.00     0.293 HD
ENDBRANCH   6  26
BRANCH   8  28
ATOM     28  O   UNL     1      13.879  -2.506  10.113  1.00  0.00    -0.508 OA
ATOM     29  H   UNL     1      14.676  -2.057   9.677  1.00  0.00     0.293 HD
ENDBRANCH   8  28
TORSDOF 7
ENDMDL
