MODEL 1
REMARK VINA RESULT:    -4.530      0.000      0.000
REMARK INTER + INTRA:          -4.818
REMARK INTER:                  -4.794
REMARK INTRA:                  -0.023
REMARK UNBOUND:                -0.023
REMARK SMILES O=C([O-])c1cccnc1
REMARK SMILES IDX 4 1 5 2 9 3 6 4 8 5 7 6 2 7 1 8 3 9
REMARK H PARENT
REMARK Flexibility Score: inf
ROOT
ATOM      1  C   UNL     1     -10.072  -3.374  16.694  1.00  0.00     0.016 A 
ATOM      2  C   UNL     1     -11.386  -3.099  17.111  1.00  0.00     0.013 A 
ATOM      3  C   UNL     1      -9.884  -4.027  15.464  1.00  0.00     0.120 A 
ATOM      4  C   UNL     1     -12.467  -3.470  16.311  1.00  0.00     0.021 A 
ATOM      5  N   UNL     1     -10.956  -4.378  14.703  1.00  0.00    -0.264 NA
ATOM      6  C   UNL     1     -12.230  -4.116  15.097  1.00  0.00     0.111 A 
ENDROOT
BRANCH   1   7
ATOM      7  C   UNL     1      -8.912  -2.989  17.527  1.00  0.00     0.073 C 
ATOM      8  O   UNL     1      -9.060  -2.738  18.753  1.00  0.00    -0.545 OA
ATOM      9  O   UNL     1      -7.643  -2.899  16.969  1.00  0.00    -0.545 OA
ENDBRANCH   1   7
TORSDOF 1
ENDMDL
MODEL 2
REMARK VINA RESULT:    -4.486      5.601      6.794
REMARK INTER + INTRA:          -4.772
REMARK INTER:                  -4.749
REMARK INTRA:                  -0.023
REMARK UNBOUND:                -0.023
REMARK SMILES O=C([O-])c1cccnc1
REMARK SMILES IDX 4 1 5 2 9 3 6 4 8 5 7 6 2 7 1 8 3 9
REMARK H PARENT
REMARK Flexibility Score: inf
ROOT
ATOM      1  C   UNL     1     -11.236  -5.324  11.112  1.00  0.00     0.016 A 
ATOM      2  C   UNL     1      -9.957  -5.734  10.696  1.00  0.00     0.013 A 
ATOM      3  C   UNL     1     -11.425  -4.996  12.466  1.00  0.00     0.120 A 
ATOM      4  C   UNL     1      -8.911  -5.807  11.616  1.00  0.00     0.021 A 
ATOM      5  N   UNL     1     -10.388  -5.077  13.342  1.00  0.00    -0.264 NA
ATOM      6  C   UNL     1      -9.148  -5.472  12.950  1.00  0.00     0.111 A 
ENDROOT
BRANCH   1   7
ATOM      7  C   UNL     1     -12.358  -5.239  10.153  1.00  0.00     0.073 C 
ATOM      8  O   UNL     1     -13.386  -4.562  10.428  1.00  0.00    -0.545 OA
ATOM      9  O   UNL     1     -12.296  -5.903   8.934  1.00  0.00    -0.545 OA
ENDBRANCH   1   7
TORSDOF 1
ENDMDL
MODEL 3
REMARK VINA RESULT:    -4.407      2.677      3.541
REMARK INTER + INTRA:          -4.688
REMARK INTER:                  -4.667
REMARK INTRA:                  -0.021
REMARK UNBOUND:                -0.023
REMARK SMILES O=C([O-])c1cccnc1
REMARK SMILES IDX 4 1 5 2 9 3 6 4 8 5 7 6 2 7 1 8 3 9
REMARK H PARENT
REMARK Flexibility Score: inf
ROOT
ATOM      1  C   UNL     1     -10.873  -3.419  16.444  1.00  0.00     0.016 A 
ATOM      2  C   UNL     1     -10.690  -2.731  17.656  1.00  0.00     0.013 A 
ATOM      3  C   UNL     1      -9.746  -3.969  15.811  1.00  0.00     0.120 A 
ATOM      4  C   UNL     1      -9.412  -2.607  18.204  1.00  0.00     0.021 A 
ATOM      5  N   UNL     1      -8.511  -3.832  16.366  1.00  0.00    -0.264 NA
ATOM      6  C   UNL     1      -8.323  -3.169  17.537  1.00  0.00     0.111 A 
ENDROOT
BRANCH   1   7
ATOM      7  C   UNL     1     -12.218  -3.564  15.847  1.00  0.00     0.073 C 
ATOM      8  O   UNL     1     -13.238  -3.662  16.581  1.00  0.00    -0.545 OA
ATOM      9  O   UNL     1     -12.376  -3.593  14.466  1.00  0.00    -0.545 OA
ENDBRANCH   1   7
TORSDOF 1
ENDMDL
MODEL 4
REMARK VINA RESULT:    -4.289      1.183      1.708
REMARK INTER + INTRA:          -4.563
REMARK INTER:                  -4.543
REMARK INTRA:                  -0.019
REMARK UNBOUND:                -0.023
REMARK SMILES O=C([O-])c1cccnc1
REMARK SMILES IDX 4 1 5 2 9 3 6 4 8 5 7 6 2 7 1 8 3 9
REMARK H PARENT
REMARK Flexibility Score: inf
ROOT
ATOM      1  C   UNL     1      -9.662  -3.495  17.005  1.00  0.00     0.016 A 
ATOM      2  C   UNL     1      -9.751  -4.531  16.059  1.00  0.00     0.013 A 
ATOM      3  C   UNL     1     -10.844  -2.848  17.401  1.00  0.00     0.120 A 
ATOM      4  C   UNL     1     -10.992  -4.897  15.536  1.00  0.00     0.021 A 
ATOM      5  N   UNL     1     -12.041  -3.224  16.875  1.00  0.00    -0.264 NA
ATOM      6  C   UNL     1     -12.139  -4.224  15.960  1.00  0.00     0.111 A 
ENDROOT
BRANCH   1   7
ATOM      7  C   UNL     1      -8.357  -3.092  17.571  1.00  0.00     0.073 C 
ATOM      8  O   UNL     1      -8.216  -2.948  18.816  1.00  0.00    -0.545 OA
ATOM      9  O   UNL     1      -7.266  -2.867  16.740  1.00  0.00    -0.545 OA
ENDBRANCH   1   7
TORSDOF 1
ENDMDL
MODEL 5
REMARK VINA RESULT:    -4.203      2.866      3.510
REMARK INTER + INTRA:          -4.472
REMARK INTER:                  -4.448
REMARK INTRA:                  -0.024
REMARK UNBOUND:                -0.023
REMARK SMILES O=C([O-])c1cccnc1
REMARK SMILES IDX 4 1 5 2 9 3 6 4 8 5 7 6 2 7 1 8 3 9
REMARK H PARENT
REMARK Flexibility Score: inf
ROOT
ATOM      1  C   UNL     1     -10.418  -4.063  15.934  1.00  0.00     0.016 A 
ATOM      2  C   UNL     1     -11.294  -3.262  16.687  1.00  0.00     0.013 A 
ATOM      3  C   UNL     1      -9.066  -4.116  16.315  1.00  0.00     0.120 A 
ATOM      4  C   UNL     1     -10.818  -2.544  17.785  1.00  0.00     0.021 A 
ATOM      5  N   UNL     1      -8.628  -3.405  17.389  1.00  0.00    -0.264 NA
ATOM      6  C   UNL     1      -9.467  -2.628  18.124  1.00  0.00     0.111 A 
ENDROOT
BRANCH   1   7
ATOM      7  C   UNL     1     -10.902  -4.833  14.768  1.00  0.00     0.073 C 
ATOM      8  O   UNL     1     -12.032  -4.590  14.264  1.00  0.00    -0.545 OA
ATOM      9  O   UNL     1     -10.118  -5.835  14.211  1.00  0.00    -0.545 OA
ENDBRANCH   1   7
TORSDOF 1
ENDMDL
MODEL 6
REMARK VINA RESULT:    -4.132      4.705      5.600
REMARK INTER + INTRA:          -4.396
REMARK INTER:                  -4.380
REMARK INTRA:                  -0.017
REMARK UNBOUND:                -0.023
REMARK SMILES O=C([O-])c1cccnc1
REMARK SMILES IDX 4 1 5 2 9 3 6 4 8 5 7 6 2 7 1 8 3 9
REMARK H PARENT
REMARK Flexibility Score: inf
ROOT
ATOM      1  C   UNL     1     -11.047  -5.630  12.008  1.00  0.00     0.016 A 
ATOM      2  C   UNL     1     -12.362  -5.585  11.514  1.00  0.00     0.013 A 
ATOM      3  C   UNL     1      -9.988  -5.677  11.085  1.00  0.00     0.120 A 
ATOM      4  C   UNL     1     -12.595  -5.586  10.138  1.00  0.00     0.021 A 
ATOM      5  N   UNL     1     -10.243  -5.678   9.748  1.00  0.00    -0.264 NA
ATOM      6  C   UNL     1     -11.511  -5.634   9.261  1.00  0.00     0.111 A 
ENDROOT
BRANCH   1   7
ATOM      7  C   UNL     1     -10.779  -5.629  13.462  1.00  0.00     0.073 C 
ATOM      8  O   UNL     1     -10.352  -6.667  14.035  1.00  0.00    -0.545 OA
ATOM      9  O   UNL     1     -10.994  -4.483  14.217  1.00  0.00    -0.545 OA
ENDBRANCH   1   7
TORSDOF 1
ENDMDL
MODEL 7
REMARK VINA RESULT:    -4.127      1.463      2.160
REMARK INTER + INTRA:          -4.391
REMARK INTER:                  -4.368
REMARK INTRA:                  -0.023
REMARK UNBOUND:                -0.023
REMARK SMILES O=C([O-])c1cccnc1
REMARK SMILES IDX 4 1 5 2 9 3 6 4 8 5 7 6 2 7 1 8 3 9
REMARK H PARENT
REMARK Flexibility Score: inf
ROOT
ATOM      1  C   UNL     1      -9.100  -3.215  16.176  1.00  0.00     0.016 A 
ATOM      2  C   UNL     1      -9.530  -2.623  17.376  1.00  0.00     0.013 A 
ATOM      3  C   UNL     1     -10.061  -3.812  15.343  1.00  0.00     0.120 A 
ATOM      4  C   UNL     1     -10.883  -2.634  17.717  1.00  0.00     0.021 A 
ATOM      5  N   UNL     1     -11.374  -3.809  15.699  1.00  0.00    -0.264 NA
ATOM      6  C   UNL     1     -11.800  -3.240  16.857  1.00  0.00     0.111 A 
ENDROOT
BRANCH   1   7
ATOM      7  C   UNL     1      -7.671  -3.213  15.795  1.00  0.00     0.073 C 
ATOM      8  O   UNL     1      -7.311  -3.615  14.656  1.00  0.00    -0.545 OA
ATOM      9  O   UNL     1      -6.704  -2.769  16.689  1.00  0.00    -0.545 OA
ENDBRANCH   1   7
TORSDOF 1
ENDMDL
MODEL 8
REMARK VINA RESULT:    -4.089      4.925      6.094
REMARK INTER + INTRA:          -4.351
REMARK INTER:                  -4.334
REMARK INTRA:                  -0.018
REMARK UNBOUND:                -0.023
REMARK SMILES O=C([O-])c1cccnc1
REMARK SMILES IDX 4 1 5 2 9 3 6 4 8 5 7 6 2 7 1 8 3 9
REMARK H PARENT
REMARK Flexibility Score: inf
ROOT
ATOM      1  C   UNL     1     -10.726  -5.247  12.044  1.00  0.00     0.016 A 
ATOM      2  C   UNL     1      -9.684  -5.955  11.420  1.00  0.00     0.013 A 
ATOM      3  C   UNL     1     -10.395  -4.306  13.034  1.00  0.00     0.120 A 
ATOM      4  C   UNL     1      -8.358  -5.716  11.784  1.00  0.00     0.021 A 
ATOM      5  N   UNL     1      -9.094  -4.093  13.370  1.00  0.00    -0.264 NA
ATOM      6  C   UNL     1      -8.080  -4.771  12.772  1.00  0.00     0.111 A 
ENDROOT
BRANCH   1   7
ATOM      7  C   UNL     1     -12.137  -5.485  11.673  1.00  0.00     0.073 C 
ATOM      8  O   UNL     1     -12.969  -5.877  12.535  1.00  0.00    -0.545 OA
ATOM      9  O   UNL     1     -12.567  -5.279  10.368  1.00  0.00    -0.545 OA
ENDBRANCH   1   7
TORSDOF 1
ENDMDL
MODEL 9
REMARK VINA RESULT:    -4.085      3.694      4.437
REMARK INTER + INTRA:          -4.347
REMARK INTER:                  -4.324
REMARK INTRA:                  -0.023
REMARK UNBOUND:                -0.023
REMARK SMILES O=C([O-])c1cccnc1
REMARK SMILES IDX 4 1 5 2 9 3 6 4 8 5 7 6 2 7 1 8 3 9
REMARK H PARENT
REMARK Flexibility Score: inf
ROOT
ATOM      1  C   UNL     1     -12.684  -3.340  14.774  1.00  0.00     0.016 A 
ATOM      2  C   UNL     1     -12.506  -3.425  16.165  1.00  0.00     0.013 A 
ATOM      3  C   UNL     1     -11.544  -3.230  13.959  1.00  0.00     0.120 A 
ATOM      4  C   UNL     1     -11.220  -3.399  16.710  1.00  0.00     0.021 A 
ATOM      5  N   UNL     1     -10.303  -3.206  14.516  1.00  0.00    -0.264 NA
ATOM      6  C   UNL     1     -10.119  -3.288  15.860  1.00  0.00     0.111 A 
ENDROOT
BRANCH   1   7
ATOM      7  C   UNL     1     -14.036  -3.366  14.176  1.00  0.00     0.073 C 
ATOM      8  O   UNL     1     -15.053  -3.128  14.883  1.00  0.00    -0.545 OA
ATOM      9  O   UNL     1     -14.206  -3.653  12.827  1.00  0.00    -0.545 OA
ENDBRANCH   1   7
TORSDOF 1
ENDMDL
