MODEL 1
REMARK VINA RESULT:    -3.952      0.000      0.000
REMARK INTER + INTRA:          -4.867
REMARK INTER:                  -4.761
REMARK INTRA:                  -0.106
REMARK UNBOUND:                -0.106
REMARK SMILES CC[C@H](C)[C@H]([NH3+])C(=O)[O-]
REMARK SMILES IDX 3 1 4 2 5 3 6 4 7 8 8 9 9 10 2 11 1 12
REMARK H PARENT 6 5 6 6 6 7
REMARK Flexibility Score: inf
ROOT
ATOM      1  C   UNL     1     121.423 145.486 133.852  1.00  0.00     0.050 C 
ATOM      2  C   UNL     1     120.560 146.760 133.814  1.00  0.00     0.014 C 
ENDROOT
BRANCH   1   3
ATOM      3  C   UNL     1     122.120 145.293 135.237  1.00  0.00     0.230 C 
BRANCH   3   4
ATOM      4  N   UNL     1     123.554 145.619 135.216  1.00  0.00    -0.350 N 
ATOM      5  H   UNL     1     123.869 145.886 134.257  1.00  0.00     0.345 HD
ATOM      6  H   UNL     1     124.102 144.783 135.521  1.00  0.00     0.345 HD
ATOM      7  H   UNL     1     123.761 146.394 135.886  1.00  0.00     0.345 HD
ENDBRANCH   3   4
BRANCH   3   8
ATOM      8  C   UNL     1     121.897 143.896 135.764  1.00  0.00     0.099 C 
ATOM      9  O   UNL     1     122.456 143.533 136.832  1.00  0.00    -0.544 OA
ATOM     10  O   UNL     1     121.045 143.014 135.108  1.00  0.00    -0.544 OA
ENDBRANCH   3   8
ENDBRANCH   1   3
BRANCH   1  11
ATOM     11  C   UNL     1     122.364 145.348 132.620  1.00  0.00     0.006 C 
ATOM     12  C   UNL     1     122.596 146.632 131.814  1.00  0.00     0.004 C 
ENDBRANCH   1  11
TORSDOF 4
ENDMDL
MODEL 2
REMARK VINA RESULT:    -3.687      3.581      4.365
REMARK INTER + INTRA:          -4.548
REMARK INTER:                  -4.459
REMARK INTRA:                  -0.089
REMARK UNBOUND:                -0.106
REMARK SMILES CC[C@H](C)[C@H]([NH3+])C(=O)[O-]
REMARK SMILES IDX 3 1 4 2 5 3 6 4 7 8 8 9 9 10 2 11 1 12
REMARK H PARENT 6 5 6 6 6 7
REMARK Flexibility Score: inf
ROOT
ATOM      1  C   UNL     1     120.719 146.204 133.912  1.00  0.00     0.050 C 
ATOM      2  C   UNL     1     119.206 145.978 134.085  1.00  0.00     0.014 C 
ENDROOT
BRANCH   1   3
ATOM      3  C   UNL     1     121.069 146.761 132.495  1.00  0.00     0.230 C 
BRANCH   3   4
ATOM      4  N   UNL     1     122.469 147.190 132.368  1.00  0.00    -0.350 N 
ATOM      5  H   UNL     1     123.097 146.382 132.162  1.00  0.00     0.345 HD
ATOM      6  H   UNL     1     122.779 147.626 133.267  1.00  0.00     0.345 HD
ATOM      7  H   UNL     1     122.562 147.912 131.619  1.00  0.00     0.345 HD
ENDBRANCH   3   4
BRANCH   3   8
ATOM      8  C   UNL     1     120.129 147.877 132.107  1.00  0.00     0.099 C 
ATOM      9  O   UNL     1     120.187 148.983 132.707  1.00  0.00    -0.544 OA
ATOM     10  O   UNL     1     119.225 147.718 131.063  1.00  0.00    -0.544 OA
ENDBRANCH   3   8
ENDBRANCH   1   3
BRANCH   1  11
ATOM     11  C   UNL     1     121.574 144.986 134.366  1.00  0.00     0.006 C 
ATOM     12  C   UNL     1     122.556 145.253 135.514  1.00  0.00     0.004 C 
ENDBRANCH   1  11
TORSDOF 4
ENDMDL
MODEL 3
REMARK VINA RESULT:    -3.669      1.246      2.209
REMARK INTER + INTRA:          -4.526
REMARK INTER:                  -4.461
REMARK INTRA:                  -0.066
REMARK UNBOUND:                -0.106
REMARK SMILES CC[C@H](C)[C@H]([NH3+])C(=O)[O-]
REMARK SMILES IDX 3 1 4 2 5 3 6 4 7 8 8 9 9 10 2 11 1 12
REMARK H PARENT 6 5 6 6 6 7
REMARK Flexibility Score: inf
ROOT
ATOM      1  C   UNL     1     120.930 146.256 134.195  1.00  0.00     0.050 C 
ATOM      2  C   UNL     1     121.421 146.513 132.759  1.00  0.00     0.014 C 
ENDROOT
BRANCH   1   3
ATOM      3  C   UNL     1     121.935 145.378 135.008  1.00  0.00     0.230 C 
BRANCH   3   4
ATOM      4  N   UNL     1     123.333 145.560 134.594  1.00  0.00    -0.350 N 
ATOM      5  H   UNL     1     123.841 144.648 134.561  1.00  0.00     0.345 HD
ATOM      6  H   UNL     1     123.819 146.181 135.281  1.00  0.00     0.345 HD
ATOM      7  H   UNL     1     123.379 146.026 133.660  1.00  0.00     0.345 HD
ENDBRANCH   3   4
BRANCH   3   8
ATOM      8  C   UNL     1     121.545 143.920 134.953  1.00  0.00     0.099 C 
ATOM      9  O   UNL     1     121.706 143.269 133.888  1.00  0.00    -0.544 OA
ATOM     10  O   UNL     1     121.049 143.272 136.079  1.00  0.00    -0.544 OA
ENDBRANCH   3   8
ENDBRANCH   1   3
BRANCH   1  11
ATOM     11  C   UNL     1     119.448 145.783 134.259  1.00  0.00     0.006 C 
ATOM     12  C   UNL     1     118.564 146.207 133.079  1.00  0.00     0.004 C 
ENDBRANCH   1  11
TORSDOF 4
ENDMDL
MODEL 4
REMARK VINA RESULT:    -3.636      4.000      4.961
REMARK INTER + INTRA:          -4.486
REMARK INTER:                  -4.394
REMARK INTRA:                  -0.092
REMARK UNBOUND:                -0.106
REMARK SMILES CC[C@H](C)[C@H]([NH3+])C(=O)[O-]
REMARK SMILES IDX 3 1 4 2 5 3 6 4 7 8 8 9 9 10 2 11 1 12
REMARK H PARENT 6 5 6 6 6 7
REMARK Flexibility Score: inf
ROOT
ATOM      1  C   UNL     1     118.767 146.341 133.460  1.00  0.00     0.050 C 
ATOM      2  C   UNL     1     118.050 145.921 132.164  1.00  0.00     0.014 C 
ENDROOT
BRANCH   1   3
ATOM      3  C   UNL     1     120.252 146.748 133.200  1.00  0.00     0.230 C 
BRANCH   3   4
ATOM      4  N   UNL     1     120.981 147.105 134.425  1.00  0.00    -0.350 N 
ATOM      5  H   UNL     1     121.556 146.305 134.772  1.00  0.00     0.345 HD
ATOM      6  H   UNL     1     120.295 147.364 135.171  1.00  0.00     0.345 HD
ATOM      7  H   UNL     1     121.593 147.935 134.257  1.00  0.00     0.345 HD
ENDBRANCH   3   4
BRANCH   3   8
ATOM      8  C   UNL     1     120.337 147.861 132.183  1.00  0.00     0.099 C 
ATOM      9  O   UNL     1     119.914 149.010 132.475  1.00  0.00    -0.544 OA
ATOM     10  O   UNL     1     120.918 147.647 130.938  1.00  0.00    -0.544 OA
ENDBRANCH   3   8
ENDBRANCH   1   3
BRANCH   1  11
ATOM     11  C   UNL     1     118.559 145.334 134.628  1.00  0.00     0.006 C 
ATOM     12  C   UNL     1     117.237 144.556 134.607  1.00  0.00     0.004 C 
ENDBRANCH   1  11
TORSDOF 4
ENDMDL
MODEL 5
REMARK VINA RESULT:    -3.606      1.399      1.715
REMARK INTER + INTRA:          -4.451
REMARK INTER:                  -4.359
REMARK INTRA:                  -0.091
REMARK UNBOUND:                -0.106
REMARK SMILES CC[C@H](C)[C@H]([NH3+])C(=O)[O-]
REMARK SMILES IDX 3 1 4 2 5 3 6 4 7 8 8 9 9 10 2 11 1 12
REMARK H PARENT 6 5 6 6 6 7
REMARK Flexibility Score: inf
ROOT
ATOM      1  C   UNL     1     120.741 146.053 133.252  1.00  0.00     0.050 C 
ATOM      2  C   UNL     1     119.341 146.177 133.880  1.00  0.00     0.014 C 
ENDROOT
BRANCH   1   3
ATOM      3  C   UNL     1     121.802 145.555 134.284  1.00  0.00     0.230 C 
BRANCH   3   4
ATOM      4  N   UNL     1     123.188 145.766 133.842  1.00  0.00    -0.350 N 
ATOM      5  H   UNL     1     123.867 145.311 134.492  1.00  0.00     0.345 HD
ATOM      6  H   UNL     1     123.391 146.792 133.822  1.00  0.00     0.345 HD
ATOM      7  H   UNL     1     123.322 145.398 132.873  1.00  0.00     0.345 HD
ENDBRANCH   3   4
BRANCH   3   8
ATOM      8  C   UNL     1     121.569 144.106 134.640  1.00  0.00     0.099 C 
ATOM      9  O   UNL     1     121.619 143.741 135.844  1.00  0.00    -0.544 OA
ATOM     10  O   UNL     1     121.256 143.172 133.658  1.00  0.00    -0.544 OA
ENDBRANCH   3   8
ENDBRANCH   1   3
BRANCH   1  11
ATOM     11  C   UNL     1     121.160 147.313 132.439  1.00  0.00     0.006 C 
ATOM     12  C   UNL     1     120.141 148.460 132.419  1.00  0.00     0.004 C 
ENDBRANCH   1  11
TORSDOF 4
ENDMDL
MODEL 6
REMARK VINA RESULT:    -3.598     17.117     18.032
REMARK INTER + INTRA:          -4.441
REMARK INTER:                  -4.309
REMARK INTRA:                  -0.131
REMARK UNBOUND:                -0.106
REMARK SMILES CC[C@H](C)[C@H]([NH3+])C(=O)[O-]
REMARK SMILES IDX 3 1 4 2 5 3 6 4 7 8 8 9 9 10 2 11 1 12
REMARK H PARENT 6 5 6 6 6 7
REMARK Flexibility Score: inf
ROOT
ATOM      1  C   UNL     1     130.415 161.258 133.454  1.00  0.00     0.050 C 
ATOM      2  C   UNL     1     130.099 161.702 132.014  1.00  0.00     0.014 C 
ENDROOT
BRANCH   1   3
ATOM      3  C   UNL     1     129.296 161.687 134.456  1.00  0.00     0.230 C 
BRANCH   3   4
ATOM      4  N   UNL     1     129.774 162.600 135.505  1.00  0.00    -0.350 N 
ATOM      5  H   UNL     1     130.371 163.358 135.105  1.00  0.00     0.345 HD
ATOM      6  H   UNL     1     130.345 162.062 136.196  1.00  0.00     0.345 HD
ATOM      7  H   UNL     1     128.966 163.018 136.020  1.00  0.00     0.345 HD
ENDBRANCH   3   4
BRANCH   3   8
ATOM      8  C   UNL     1     128.624 160.479 135.063  1.00  0.00     0.099 C 
ATOM      9  O   UNL     1     128.508 159.422 134.390  1.00  0.00    -0.544 OA
ATOM     10  O   UNL     1     128.166 160.503 136.376  1.00  0.00    -0.544 OA
ENDBRANCH   3   8
ENDBRANCH   1   3
BRANCH   1  11
ATOM     11  C   UNL     1     131.863 161.612 133.898  1.00  0.00     0.006 C 
ATOM     12  C   UNL     1     132.624 160.502 134.634  1.00  0.00     0.004 C 
ENDBRANCH   1  11
TORSDOF 4
ENDMDL
MODEL 7
REMARK VINA RESULT:    -3.558     17.522     18.310
REMARK INTER + INTRA:          -4.392
REMARK INTER:                  -4.236
REMARK INTRA:                  -0.156
REMARK UNBOUND:                -0.106
REMARK SMILES CC[C@H](C)[C@H]([NH3+])C(=O)[O-]
REMARK SMILES IDX 3 1 4 2 5 3 6 4 7 8 8 9 9 10 2 11 1 12
REMARK H PARENT 6 5 6 6 6 7
REMARK Flexibility Score: inf
ROOT
ATOM      1  C   UNL     1     129.707 160.600 135.000  1.00  0.00     0.050 C 
ATOM      2  C   UNL     1     128.595 159.753 134.354  1.00  0.00     0.014 C 
ENDROOT
BRANCH   1   3
ATOM      3  C   UNL     1     129.133 161.850 135.740  1.00  0.00     0.230 C 
BRANCH   3   4
ATOM      4  N   UNL     1     129.534 163.125 135.126  1.00  0.00    -0.350 N 
ATOM      5  H   UNL     1     128.713 163.756 134.990  1.00  0.00     0.345 HD
ATOM      6  H   UNL     1     129.962 162.937 134.190  1.00  0.00     0.345 HD
ATOM      7  H   UNL     1     130.255 163.601 135.713  1.00  0.00     0.345 HD
ENDBRANCH   3   4
BRANCH   3   8
ATOM      8  C   UNL     1     129.497 161.824 137.205  1.00  0.00     0.099 C 
ATOM      9  O   UNL     1     130.683 162.052 137.560  1.00  0.00    -0.544 OA
ATOM     10  O   UNL     1     128.529 161.594 138.176  1.00  0.00    -0.544 OA
ENDBRANCH   3   8
ENDBRANCH   1   3
BRANCH   1  11
ATOM     11  C   UNL     1     130.888 160.897 134.031  1.00  0.00     0.006 C 
ATOM     12  C   UNL     1     132.293 160.708 134.618  1.00  0.00     0.004 C 
ENDBRANCH   1  11
TORSDOF 4
ENDMDL
MODEL 8
REMARK VINA RESULT:    -3.557      2.942      3.655
REMARK INTER + INTRA:          -4.392
REMARK INTER:                  -4.325
REMARK INTRA:                  -0.067
REMARK UNBOUND:                -0.106
REMARK SMILES CC[C@H](C)[C@H]([NH3+])C(=O)[O-]
REMARK SMILES IDX 3 1 4 2 5 3 6 4 7 8 8 9 9 10 2 11 1 12
REMARK H PARENT 6 5 6 6 6 7
REMARK Flexibility Score: inf
ROOT
ATOM      1  C   UNL     1     120.761 146.447 133.920  1.00  0.00     0.050 C 
ATOM      2  C   UNL     1     120.614 147.785 133.173  1.00  0.00     0.014 C 
ENDROOT
BRANCH   1   3
ATOM      3  C   UNL     1     121.883 145.553 133.301  1.00  0.00     0.230 C 
BRANCH   3   4
ATOM      4  N   UNL     1     123.201 145.763 133.918  1.00  0.00    -0.350 N 
ATOM      5  H   UNL     1     123.151 146.464 134.690  1.00  0.00     0.345 HD
ATOM      6  H   UNL     1     123.868 146.117 133.195  1.00  0.00     0.345 HD
ATOM      7  H   UNL     1     123.580 144.860 134.282  1.00  0.00     0.345 HD
ENDBRANCH   3   4
BRANCH   3   8
ATOM      8  C   UNL     1     121.957 145.741 131.804  1.00  0.00     0.099 C 
ATOM      9  O   UNL     1     122.925 146.368 131.298  1.00  0.00    -0.544 OA
ATOM     10  O   UNL     1     120.991 145.191 130.968  1.00  0.00    -0.544 OA
ENDBRANCH   3   8
ENDBRANCH   1   3
BRANCH   1  11
ATOM     11  C   UNL     1     119.403 145.724 134.153  1.00  0.00     0.006 C 
ATOM     12  C   UNL     1     118.298 146.042 133.138  1.00  0.00     0.004 C 
ENDBRANCH   1  11
TORSDOF 4
ENDMDL
MODEL 9
REMARK VINA RESULT:    -3.465     17.405     18.252
REMARK INTER + INTRA:          -4.280
REMARK INTER:                  -4.135
REMARK INTRA:                  -0.145
REMARK UNBOUND:                -0.106
REMARK SMILES CC[C@H](C)[C@H]([NH3+])C(=O)[O-]
REMARK SMILES IDX 3 1 4 2 5 3 6 4 7 8 8 9 9 10 2 11 1 12
REMARK H PARENT 6 5 6 6 6 7
REMARK Flexibility Score: inf
ROOT
ATOM      1  C   UNL     1     130.779 161.310 134.011  1.00  0.00     0.050 C 
ATOM      2  C   UNL     1     132.226 160.876 134.308  1.00  0.00     0.014 C 
ENDROOT
BRANCH   1   3
ATOM      3  C   UNL     1     129.755 160.620 134.967  1.00  0.00     0.230 C 
BRANCH   3   4
ATOM      4  N   UNL     1     128.723 159.850 134.257  1.00  0.00    -0.350 N 
ATOM      5  H   UNL     1     128.571 160.219 133.292  1.00  0.00     0.345 HD
ATOM      6  H   UNL     1     127.820 159.918 134.780  1.00  0.00     0.345 HD
ATOM      7  H   UNL     1     128.988 158.840 134.213  1.00  0.00     0.345 HD
ENDBRANCH   3   4
BRANCH   3   8
ATOM      8  C   UNL     1     129.124 161.626 135.899  1.00  0.00     0.099 C 
ATOM      9  O   UNL     1     129.360 162.854 135.750  1.00  0.00    -0.544 OA
ATOM     10  O   UNL     1     128.247 161.220 136.899  1.00  0.00    -0.544 OA
ENDBRANCH   3   8
ENDBRANCH   1   3
BRANCH   1  11
ATOM     11  C   UNL     1     130.416 161.237 132.500  1.00  0.00     0.006 C 
ATOM     12  C   UNL     1     130.010 162.564 131.848  1.00  0.00     0.004 C 
ENDBRANCH   1  11
TORSDOF 4
ENDMDL
