MODEL 1
REMARK VINA RESULT:    -7.269      0.000      0.000
REMARK INTER + INTRA:         -11.110
REMARK INTER:                 -10.244
REMARK INTRA:                  -0.866
REMARK UNBOUND:                -0.866
REMARK SMILES COc1ccc(-c2cc(=O)c3c(OC)c(OC)c(OC)c(OC)c3o2)cc1OC
REMARK SMILES IDX 7 1 8 2 9 3 10 4 11 5 24 6 25 7 21 8 18 9 15 10 12 11 6 12
REMARK SMILES IDX 3 13 27 14 4 15 26 16 5 17 2 18 1 19 28 20 29 21 22 22 23 23
REMARK SMILES IDX 13 24 14 25 19 26 20 27 16 28 17 29
REMARK H PARENT
REMARK Flexibility Score: inf
ROOT
ATOM      1  C   UNL     1      -4.917  -5.644   6.537  1.00  0.00     0.138 A 
ATOM      2  C   UNL     1      -4.488  -5.258   7.811  1.00  0.00     0.100 A 
ATOM      3  C   UNL     1      -5.076  -4.156   8.424  1.00  0.00     0.197 A 
ATOM      4  O   UNL     1      -4.653  -3.799   9.557  1.00  0.00    -0.289 OA
ATOM      5  C   UNL     1      -6.108  -3.453   7.763  1.00  0.00     0.115 A 
ATOM      6  C   UNL     1      -6.470  -3.880   6.460  1.00  0.00     0.188 A 
ATOM      7  O   UNL     1      -5.865  -4.939   5.926  1.00  0.00    -0.452 OA
ATOM      8  C   UNL     1      -7.479  -3.195   5.737  1.00  0.00     0.209 A 
ATOM      9  C   UNL     1      -8.093  -2.056   6.316  1.00  0.00     0.211 A 
ATOM     10  C   UNL     1      -7.724  -1.626   7.599  1.00  0.00     0.208 A 
ATOM     11  C   UNL     1      -6.778  -2.357   8.350  1.00  0.00     0.179 A 
ENDROOT
BRANCH   1  12
ATOM     12  C   UNL     1      -4.330  -6.817   5.844  1.00  0.00     0.021 A 
ATOM     13  C   UNL     1      -3.172  -9.018   4.510  1.00  0.00     0.160 A 
ATOM     14  C   UNL     1      -4.553  -8.793   4.417  1.00  0.00     0.161 A 
ATOM     15  C   UNL     1      -2.375  -8.139   5.265  1.00  0.00     0.051 A 
ATOM     16  C   UNL     1      -5.127  -7.692   5.082  1.00  0.00     0.062 A 
ATOM     17  C   UNL     1      -2.950  -7.050   5.920  1.00  0.00     0.016 A 
BRANCH  13  18
ATOM     18  O   UNL     1      -2.629 -10.125   3.839  1.00  0.00    -0.493 OA
ATOM     19  C   UNL     1      -1.407 -10.106   3.109  1.00  0.00     0.278 C 
ENDBRANCH  13  18
BRANCH  14  20
ATOM     20  O   UNL     1      -5.322  -9.684   3.651  1.00  0.00    -0.493 OA
ATOM     21  C   UNL     1      -6.659 -10.066   3.955  1.00  0.00     0.278 C 
ENDBRANCH  14  20
ENDBRANCH   1  12
BRANCH   8  22
ATOM     22  O   UNL     1      -7.903  -3.605   4.459  1.00  0.00    -0.490 OA
ATOM     23  C   UNL     1      -8.950  -4.516   4.150  1.00  0.00     0.278 C 
ENDBRANCH   8  22
BRANCH  11  24
ATOM     24  O   UNL     1      -6.539  -2.020   9.684  1.00  0.00    -0.492 OA
ATOM     25  C   UNL     1      -7.486  -2.330  10.701  1.00  0.00     0.278 C 
ENDBRANCH  11  24
BRANCH   9  26
ATOM     26  O   UNL     1      -9.079  -1.284   5.667  1.00  0.00    -0.490 OA
ATOM     27  C   UNL     1      -8.875  -0.296   4.662  1.00  0.00     0.279 C 
ENDBRANCH   9  26
BRANCH  10  28
ATOM     28  O   UNL     1      -8.341  -0.454   8.078  1.00  0.00    -0.490 OA
ATOM     29  C   UNL     1      -7.741   0.836   8.149  1.00  0.00     0.278 C 
ENDBRANCH  10  28
TORSDOF 7
ENDMDL
MODEL 2
REMARK VINA RESULT:    -7.035      1.801      8.538
REMARK INTER + INTRA:         -10.780
REMARK INTER:                 -10.024
REMARK INTRA:                  -0.757
REMARK UNBOUND:                -0.866
REMARK SMILES COc1ccc(-c2cc(=O)c3c(OC)c(OC)c(OC)c(OC)c3o2)cc1OC
REMARK SMILES IDX 7 1 8 2 9 3 10 4 11 5 24 6 25 7 21 8 18 9 15 10 12 11 6 12
REMARK SMILES IDX 3 13 27 14 4 15 26 16 5 17 2 18 1 19 28 20 29 21 22 22 23 23
REMARK SMILES IDX 13 24 14 25 19 26 20 27 16 28 17 29
REMARK H PARENT
REMARK Flexibility Score: inf
ROOT
ATOM      1  C   UNL     1      -7.630  -3.148   5.475  1.00  0.00     0.138 A 
ATOM      2  C   UNL     1      -8.545  -3.849   4.681  1.00  0.00     0.100 A 
ATOM      3  C   UNL     1      -8.303  -5.186   4.382  1.00  0.00     0.197 A 
ATOM      4  O   UNL     1      -9.118  -5.794   3.636  1.00  0.00    -0.289 OA
ATOM      5  C   UNL     1      -7.152  -5.824   4.896  1.00  0.00     0.115 A 
ATOM      6  C   UNL     1      -6.252  -5.044   5.666  1.00  0.00     0.188 A 
ATOM      7  O   UNL     1      -6.536  -3.767   5.912  1.00  0.00    -0.452 OA
ATOM      8  C   UNL     1      -5.065  -5.622   6.183  1.00  0.00     0.209 A 
ATOM      9  C   UNL     1      -4.770  -6.977   5.888  1.00  0.00     0.211 A 
ATOM     10  C   UNL     1      -5.654  -7.744   5.114  1.00  0.00     0.208 A 
ATOM     11  C   UNL     1      -6.874  -7.190   4.669  1.00  0.00     0.179 A 
ENDROOT
BRANCH   1  12
ATOM     12  C   UNL     1      -7.846  -1.725   5.832  1.00  0.00     0.021 A 
ATOM     13  C   UNL     1      -8.228   0.999   6.467  1.00  0.00     0.160 A 
ATOM     14  C   UNL     1      -7.909   0.083   7.481  1.00  0.00     0.161 A 
ATOM     15  C   UNL     1      -8.348   0.550   5.139  1.00  0.00     0.051 A 
ATOM     16  C   UNL     1      -7.717  -1.275   7.159  1.00  0.00     0.062 A 
ATOM     17  C   UNL     1      -8.155  -0.796   4.828  1.00  0.00     0.016 A 
BRANCH  13  18
ATOM     18  O   UNL     1      -8.416   2.345   6.818  1.00  0.00    -0.493 OA
ATOM     19  C   UNL     1      -9.014   3.323   5.973  1.00  0.00     0.278 C 
ENDBRANCH  13  18
BRANCH  14  20
ATOM     20  O   UNL     1      -7.789   0.562   8.795  1.00  0.00    -0.493 OA
ATOM     21  C   UNL     1      -8.540   0.079   9.904  1.00  0.00     0.278 C 
ENDBRANCH  14  20
ENDBRANCH   1  12
BRANCH   8  22
ATOM     22  O   UNL     1      -4.162  -4.902   6.987  1.00  0.00    -0.490 OA
ATOM     23  C   UNL     1      -4.301  -4.585   8.366  1.00  0.00     0.278 C 
ENDBRANCH   8  22
BRANCH  11  24
ATOM     24  O   UNL     1      -7.820  -8.004   4.044  1.00  0.00    -0.492 OA
ATOM     25  C   UNL     1      -8.592  -8.940   4.788  1.00  0.00     0.278 C 
ENDBRANCH  11  24
BRANCH   9  26
ATOM     26  O   UNL     1      -3.602  -7.636   6.323  1.00  0.00    -0.490 OA
ATOM     27  C   UNL     1      -2.353  -7.712   5.642  1.00  0.00     0.279 C 
ENDBRANCH   9  26
BRANCH  10  28
ATOM     28  O   UNL     1      -5.260  -9.063   4.820  1.00  0.00    -0.490 OA
ATOM     29  C   UNL     1      -4.795  -9.534   3.559  1.00  0.00     0.278 C 
ENDBRANCH  10  28
TORSDOF 7
ENDMDL
MODEL 3
REMARK VINA RESULT:    -6.853      2.306      8.869
REMARK INTER + INTRA:         -10.523
REMARK INTER:                  -9.944
REMARK INTRA:                  -0.579
REMARK UNBOUND:                -0.866
REMARK SMILES COc1ccc(-c2cc(=O)c3c(OC)c(OC)c(OC)c(OC)c3o2)cc1OC
REMARK SMILES IDX 7 1 8 2 9 3 10 4 11 5 24 6 25 7 21 8 18 9 15 10 12 11 6 12
REMARK SMILES IDX 3 13 27 14 4 15 26 16 5 17 2 18 1 19 28 20 29 21 22 22 23 23
REMARK SMILES IDX 13 24 14 25 19 26 20 27 16 28 17 29
REMARK H PARENT
REMARK Flexibility Score: inf
ROOT
ATOM      1  C   UNL     1      -8.039  -1.869   5.968  1.00  0.00     0.138 A 
ATOM      2  C   UNL     1      -8.973  -2.378   5.059  1.00  0.00     0.100 A 
ATOM      3  C   UNL     1      -8.787  -3.653   4.534  1.00  0.00     0.197 A 
ATOM      4  O   UNL     1      -9.617  -4.084   3.688  1.00  0.00    -0.289 OA
ATOM      5  C   UNL     1      -7.672  -4.423   4.936  1.00  0.00     0.115 A 
ATOM      6  C   UNL     1      -6.749  -3.830   5.835  1.00  0.00     0.188 A 
ATOM      7  O   UNL     1      -6.980  -2.604   6.298  1.00  0.00    -0.452 OA
ATOM      8  C   UNL     1      -5.597  -4.544   6.251  1.00  0.00     0.209 A 
ATOM      9  C   UNL     1      -5.358  -5.839   5.726  1.00  0.00     0.211 A 
ATOM     10  C   UNL     1      -6.264  -6.418   4.825  1.00  0.00     0.208 A 
ATOM     11  C   UNL     1      -7.451  -5.740   4.476  1.00  0.00     0.179 A 
ENDROOT
BRANCH   1  12
ATOM     12  C   UNL     1      -8.197  -0.520   6.566  1.00  0.00     0.021 A 
ATOM     13  C   UNL     1      -8.531   2.025   7.739  1.00  0.00     0.160 A 
ATOM     14  C   UNL     1      -8.509   1.897   6.343  1.00  0.00     0.161 A 
ATOM     15  C   UNL     1      -8.392   0.879   8.543  1.00  0.00     0.051 A 
ATOM     16  C   UNL     1      -8.345   0.624   5.761  1.00  0.00     0.062 A 
ATOM     17  C   UNL     1      -8.230  -0.378   7.960  1.00  0.00     0.016 A 
BRANCH  13  18
ATOM     18  O   UNL     1      -8.694   3.305   8.290  1.00  0.00    -0.493 OA
ATOM     19  C   UNL     1      -8.522   3.619   9.668  1.00  0.00     0.278 C 
ENDBRANCH  13  18
BRANCH  14  20
ATOM     20  O   UNL     1      -8.658   3.058   5.566  1.00  0.00    -0.493 OA
ATOM     21  C   UNL     1      -9.908   3.627   5.193  1.00  0.00     0.278 C 
ENDBRANCH  14  20
ENDBRANCH   1  12
BRANCH   8  22
ATOM     22  O   UNL     1      -4.674  -4.017   7.173  1.00  0.00    -0.490 OA
ATOM     23  C   UNL     1      -4.740  -4.085   8.592  1.00  0.00     0.278 C 
ENDBRANCH   8  22
BRANCH  11  24
ATOM     24  O   UNL     1      -8.424  -6.389   3.713  1.00  0.00    -0.492 OA
ATOM     25  C   UNL     1      -9.373  -7.260   4.318  1.00  0.00     0.278 C 
ENDBRANCH  11  24
BRANCH   9  26
ATOM     26  O   UNL     1      -4.226  -6.617   6.047  1.00  0.00    -0.490 OA
ATOM     27  C   UNL     1      -4.032  -7.416   7.210  1.00  0.00     0.279 C 
ENDBRANCH   9  26
BRANCH  10  28
ATOM     28  O   UNL     1      -5.925  -7.683   4.309  1.00  0.00    -0.490 OA
ATOM     29  C   UNL     1      -6.342  -8.939   4.834  1.00  0.00     0.278 C 
ENDBRANCH  10  28
TORSDOF 7
ENDMDL
MODEL 4
REMARK VINA RESULT:    -6.551      1.924      8.111
REMARK INTER + INTRA:         -10.098
REMARK INTER:                  -9.463
REMARK INTRA:                  -0.635
REMARK UNBOUND:                -0.866
REMARK SMILES COc1ccc(-c2cc(=O)c3c(OC)c(OC)c(OC)c(OC)c3o2)cc1OC
REMARK SMILES IDX 7 1 8 2 9 3 10 4 11 5 24 6 25 7 21 8 18 9 15 10 12 11 6 12
REMARK SMILES IDX 3 13 27 14 4 15 26 16 5 17 2 18 1 19 28 20 29 21 22 22 23 23
REMARK SMILES IDX 13 24 14 25 19 26 20 27 16 28 17 29
REMARK H PARENT
REMARK Flexibility Score: inf
ROOT
ATOM      1  C   UNL     1      -6.860  -2.851   6.658  1.00  0.00     0.138 A 
ATOM      2  C   UNL     1      -5.634  -3.160   7.257  1.00  0.00     0.100 A 
ATOM      3  C   UNL     1      -5.124  -4.449   7.139  1.00  0.00     0.197 A 
ATOM      4  O   UNL     1      -4.036  -4.721   7.715  1.00  0.00    -0.289 OA
ATOM      5  C   UNL     1      -5.837  -5.422   6.404  1.00  0.00     0.115 A 
ATOM      6  C   UNL     1      -7.088  -5.048   5.852  1.00  0.00     0.188 A 
ATOM      7  O   UNL     1      -7.525  -3.800   6.004  1.00  0.00    -0.452 OA
ATOM      8  C   UNL     1      -7.862  -5.992   5.129  1.00  0.00     0.209 A 
ATOM      9  C   UNL     1      -7.388  -7.321   5.000  1.00  0.00     0.211 A 
ATOM     10  C   UNL     1      -6.156  -7.693   5.559  1.00  0.00     0.208 A 
ATOM     11  C   UNL     1      -5.351  -6.733   6.207  1.00  0.00     0.179 A 
ENDROOT
BRANCH   1  12
ATOM     12  C   UNL     1      -7.444  -1.490   6.744  1.00  0.00     0.021 A 
ATOM     13  C   UNL     1      -8.526   1.114   6.864  1.00  0.00     0.160 A 
ATOM     14  C   UNL     1      -8.063   0.496   8.035  1.00  0.00     0.161 A 
ATOM     15  C   UNL     1      -8.440   0.431   5.638  1.00  0.00     0.051 A 
ATOM     16  C   UNL     1      -7.521  -0.803   7.970  1.00  0.00     0.062 A 
ATOM     17  C   UNL     1      -7.901  -0.855   5.581  1.00  0.00     0.016 A 
BRANCH  13  18
ATOM     18  O   UNL     1      -9.063   2.408   6.960  1.00  0.00    -0.493 OA
ATOM     19  C   UNL     1      -8.996   3.387   5.928  1.00  0.00     0.278 C 
ENDBRANCH  13  18
BRANCH  14  20
ATOM     20  O   UNL     1      -8.155   1.206   9.243  1.00  0.00    -0.493 OA
ATOM     21  C   UNL     1      -8.897   0.775  10.379  1.00  0.00     0.278 C 
ENDBRANCH  14  20
ENDBRANCH   1  12
BRANCH   8  22
ATOM     22  O   UNL     1      -9.089  -5.658   4.527  1.00  0.00    -0.490 OA
ATOM     23  C   UNL     1      -9.286  -4.970   3.298  1.00  0.00     0.278 C 
ENDBRANCH   8  22
BRANCH  11  24
ATOM     24  O   UNL     1      -4.058  -7.071   6.614  1.00  0.00    -0.492 OA
ATOM     25  C   UNL     1      -2.981  -7.108   5.685  1.00  0.00     0.278 C 
ENDBRANCH  11  24
BRANCH   9  26
ATOM     26  O   UNL     1      -8.096  -8.342   4.334  1.00  0.00    -0.490 OA
ATOM     27  C   UNL     1      -9.198  -9.094   4.834  1.00  0.00     0.279 C 
ENDBRANCH   9  26
BRANCH  10  28
ATOM     28  O   UNL     1      -5.786  -9.046   5.434  1.00  0.00    -0.490 OA
ATOM     29  C   UNL     1      -5.118  -9.629   4.320  1.00  0.00     0.278 C 
ENDBRANCH  10  28
TORSDOF 7
ENDMDL
MODEL 5
REMARK VINA RESULT:    -6.305      1.896      8.065
REMARK INTER + INTRA:          -9.752
REMARK INTER:                  -9.116
REMARK INTRA:                  -0.636
REMARK UNBOUND:                -0.866
REMARK SMILES COc1ccc(-c2cc(=O)c3c(OC)c(OC)c(OC)c(OC)c3o2)cc1OC
REMARK SMILES IDX 7 1 8 2 9 3 10 4 11 5 24 6 25 7 21 8 18 9 15 10 12 11 6 12
REMARK SMILES IDX 3 13 27 14 4 15 26 16 5 17 2 18 1 19 28 20 29 21 22 22 23 23
REMARK SMILES IDX 13 24 14 25 19 26 20 27 16 28 17 29
REMARK H PARENT
REMARK Flexibility Score: inf
ROOT
ATOM      1  C   UNL     1      -6.766  -3.043   7.267  1.00  0.00     0.138 A 
ATOM      2  C   UNL     1      -5.466  -3.367   7.670  1.00  0.00     0.100 A 
ATOM      3  C   UNL     1      -4.899  -4.565   7.244  1.00  0.00     0.197 A 
ATOM      4  O   UNL     1      -3.741  -4.860   7.645  1.00  0.00    -0.289 OA
ATOM      5  C   UNL     1      -5.633  -5.428   6.400  1.00  0.00     0.115 A 
ATOM      6  C   UNL     1      -6.956  -5.051   6.058  1.00  0.00     0.188 A 
ATOM      7  O   UNL     1      -7.444  -3.894   6.502  1.00  0.00    -0.452 OA
ATOM      8  C   UNL     1      -7.751  -5.891   5.238  1.00  0.00     0.209 A 
ATOM      9  C   UNL     1      -7.220  -7.129   4.796  1.00  0.00     0.211 A 
ATOM     10  C   UNL     1      -5.916  -7.507   5.147  1.00  0.00     0.208 A 
ATOM     11  C   UNL     1      -5.099  -6.633   5.895  1.00  0.00     0.179 A 
ENDROOT
BRANCH   1  12
ATOM     12  C   UNL     1      -7.412  -1.774   7.684  1.00  0.00     0.021 A 
ATOM     13  C   UNL     1      -8.667   0.613   8.516  1.00  0.00     0.160 A 
ATOM     14  C   UNL     1      -8.534   0.334   7.148  1.00  0.00     0.161 A 
ATOM     15  C   UNL     1      -8.179  -0.306   9.462  1.00  0.00     0.051 A 
ATOM     16  C   UNL     1      -7.909  -0.860   6.737  1.00  0.00     0.062 A 
ATOM     17  C   UNL     1      -7.561  -1.486   9.048  1.00  0.00     0.016 A 
BRANCH  13  18
ATOM     18  O   UNL     1      -9.293   1.811   8.895  1.00  0.00    -0.493 OA
ATOM     19  C   UNL     1      -8.602   2.991   9.293  1.00  0.00     0.278 C 
ENDBRANCH  13  18
BRANCH  14  20
ATOM     20  O   UNL     1      -9.038   1.266   6.227  1.00  0.00    -0.493 OA
ATOM     21  C   UNL     1      -8.267   2.291   5.608  1.00  0.00     0.278 C 
ENDBRANCH  14  20
ENDBRANCH   1  12
BRANCH   8  22
ATOM     22  O   UNL     1      -9.054  -5.542   4.836  1.00  0.00    -0.490 OA
ATOM     23  C   UNL     1      -9.437  -4.873   3.641  1.00  0.00     0.278 C 
ENDBRANCH   8  22
BRANCH  11  24
ATOM     24  O   UNL     1      -3.752  -6.944   6.098  1.00  0.00    -0.492 OA
ATOM     25  C   UNL     1      -3.367  -8.057   6.896  1.00  0.00     0.278 C 
ENDBRANCH  11  24
BRANCH   9  26
ATOM     26  O   UNL     1      -7.939  -8.051   4.008  1.00  0.00    -0.490 OA
ATOM     27  C   UNL     1      -8.939  -8.964   4.449  1.00  0.00     0.279 C 
ENDBRANCH   9  26
BRANCH  10  28
ATOM     28  O   UNL     1      -5.486  -8.776   4.715  1.00  0.00    -0.490 OA
ATOM     29  C   UNL     1      -4.684  -9.041   3.568  1.00  0.00     0.278 C 
ENDBRANCH  10  28
TORSDOF 7
ENDMDL
MODEL 6
REMARK VINA RESULT:    -5.969     11.449     14.381
REMARK INTER + INTRA:          -9.278
REMARK INTER:                  -8.906
REMARK INTRA:                  -0.372
REMARK UNBOUND:                -0.866
REMARK SMILES COc1ccc(-c2cc(=O)c3c(OC)c(OC)c(OC)c(OC)c3o2)cc1OC
REMARK SMILES IDX 7 1 8 2 9 3 10 4 11 5 24 6 25 7 21 8 18 9 15 10 12 11 6 12
REMARK SMILES IDX 3 13 27 14 4 15 26 16 5 17 2 18 1 19 28 20 29 21 22 22 23 23
REMARK SMILES IDX 13 24 14 25 19 26 20 27 16 28 17 29
REMARK H PARENT
REMARK Flexibility Score: inf
ROOT
ATOM      1  C   UNL     1      -0.411  -4.842  -6.633  1.00  0.00     0.138 A 
ATOM      2  C   UNL     1      -0.792  -3.778  -7.458  1.00  0.00     0.100 A 
ATOM      3  C   UNL     1      -2.145  -3.504  -7.635  1.00  0.00     0.197 A 
ATOM      4  O   UNL     1      -2.473  -2.565  -8.409  1.00  0.00    -0.289 OA
ATOM      5  C   UNL     1      -3.113  -4.289  -6.969  1.00  0.00     0.115 A 
ATOM      6  C   UNL     1      -2.656  -5.371  -6.176  1.00  0.00     0.188 A 
ATOM      7  O   UNL     1      -1.348  -5.586  -6.051  1.00  0.00    -0.452 OA
ATOM      8  C   UNL     1      -3.583  -6.211  -5.508  1.00  0.00     0.209 A 
ATOM      9  C   UNL     1      -4.971  -5.979  -5.675  1.00  0.00     0.211 A 
ATOM     10  C   UNL     1      -5.422  -4.917  -6.472  1.00  0.00     0.208 A 
ATOM     11  C   UNL     1      -4.498  -4.033  -7.069  1.00  0.00     0.179 A 
ENDROOT
BRANCH   1  12
ATOM     12  C   UNL     1       1.018  -5.170  -6.403  1.00  0.00     0.021 A 
ATOM     13  C   UNL     1       3.741  -5.745  -5.938  1.00  0.00     0.160 A 
ATOM     14  C   UNL     1       3.181  -5.994  -7.199  1.00  0.00     0.161 A 
ATOM     15  C   UNL     1       2.940  -5.204  -4.916  1.00  0.00     0.051 A 
ATOM     16  C   UNL     1       1.822  -5.702  -7.428  1.00  0.00     0.062 A 
ATOM     17  C   UNL     1       1.595  -4.918  -5.151  1.00  0.00     0.016 A 
BRANCH  13  18
ATOM     18  O   UNL     1       5.098  -6.047  -5.738  1.00  0.00    -0.493 OA
ATOM     19  C   UNL     1       5.697  -6.268  -4.466  1.00  0.00     0.278 C 
ENDBRANCH  13  18
BRANCH  14  20
ATOM     20  O   UNL     1       4.008  -6.527  -8.201  1.00  0.00    -0.493 OA
ATOM     21  C   UNL     1       4.043  -7.900  -8.575  1.00  0.00     0.278 C 
ENDBRANCH  14  20
ENDBRANCH   1  12
BRANCH   8  22
ATOM     22  O   UNL     1      -3.178  -7.272  -4.676  1.00  0.00    -0.490 OA
ATOM     23  C   UNL     1      -2.581  -8.500  -5.075  1.00  0.00     0.278 C 
ENDBRANCH   8  22
BRANCH  11  24
ATOM     24  O   UNL     1      -4.955  -2.886  -7.721  1.00  0.00    -0.492 OA
ATOM     25  C   UNL     1      -5.515  -2.957  -9.028  1.00  0.00     0.278 C 
ENDBRANCH  11  24
BRANCH   9  26
ATOM     26  O   UNL     1      -5.973  -6.777  -5.085  1.00  0.00    -0.490 OA
ATOM     27  C   UNL     1      -6.585  -6.587  -3.813  1.00  0.00     0.279 C 
ENDBRANCH   9  26
BRANCH  10  28
ATOM     28  O   UNL     1      -6.816  -4.790  -6.631  1.00  0.00    -0.490 OA
ATOM     29  C   UNL     1      -7.602  -5.421  -7.637  1.00  0.00     0.278 C 
ENDBRANCH  10  28
TORSDOF 7
ENDMDL
MODEL 7
REMARK VINA RESULT:    -5.786     11.947     14.353
REMARK INTER + INTRA:          -9.020
REMARK INTER:                  -8.224
REMARK INTRA:                  -0.795
REMARK UNBOUND:                -0.866
REMARK SMILES COc1ccc(-c2cc(=O)c3c(OC)c(OC)c(OC)c(OC)c3o2)cc1OC
REMARK SMILES IDX 7 1 8 2 9 3 10 4 11 5 24 6 25 7 21 8 18 9 15 10 12 11 6 12
REMARK SMILES IDX 3 13 27 14 4 15 26 16 5 17 2 18 1 19 28 20 29 21 22 22 23 23
REMARK SMILES IDX 13 24 14 25 19 26 20 27 16 28 17 29
REMARK H PARENT
REMARK Flexibility Score: inf
ROOT
ATOM      1  C   UNL     1      -0.288  -5.266  -5.962  1.00  0.00     0.138 A 
ATOM      2  C   UNL     1      -0.989  -5.803  -4.877  1.00  0.00     0.100 A 
ATOM      3  C   UNL     1      -2.372  -5.655  -4.818  1.00  0.00     0.197 A 
ATOM      4  O   UNL     1      -2.984  -6.112  -3.815  1.00  0.00    -0.289 OA
ATOM      5  C   UNL     1      -3.051  -4.982  -5.857  1.00  0.00     0.115 A 
ATOM      6  C   UNL     1      -2.273  -4.434  -6.909  1.00  0.00     0.188 A 
ATOM      7  O   UNL     1      -0.953  -4.605  -6.906  1.00  0.00    -0.452 OA
ATOM      8  C   UNL     1      -2.898  -3.723  -7.965  1.00  0.00     0.209 A 
ATOM      9  C   UNL     1      -4.302  -3.532  -7.936  1.00  0.00     0.211 A 
ATOM     10  C   UNL     1      -5.068  -4.062  -6.887  1.00  0.00     0.208 A 
ATOM     11  C   UNL     1      -4.456  -4.839  -5.881  1.00  0.00     0.179 A 
ENDROOT
BRANCH   1  12
ATOM     12  C   UNL     1       1.184  -5.406  -6.079  1.00  0.00     0.021 A 
ATOM     13  C   UNL     1       3.991  -5.625  -6.275  1.00  0.00     0.160 A 
ATOM     14  C   UNL     1       3.187  -5.934  -7.382  1.00  0.00     0.161 A 
ATOM     15  C   UNL     1       3.388  -5.202  -5.076  1.00  0.00     0.051 A 
ATOM     16  C   UNL     1       1.787  -5.821  -7.281  1.00  0.00     0.062 A 
ATOM     17  C   UNL     1       2.001  -5.091  -4.984  1.00  0.00     0.016 A 
BRANCH  13  18
ATOM     18  O   UNL     1       5.383  -5.749  -6.404  1.00  0.00    -0.493 OA
ATOM     19  C   UNL     1       6.309  -4.684  -6.218  1.00  0.00     0.278 C 
ENDBRANCH  13  18
BRANCH  14  20
ATOM     20  O   UNL     1       3.818  -6.347  -8.567  1.00  0.00    -0.493 OA
ATOM     21  C   UNL     1       4.215  -7.685  -8.848  1.00  0.00     0.278 C 
ENDBRANCH  14  20
ENDBRANCH   1  12
BRANCH   8  22
ATOM     22  O   UNL     1      -2.175  -3.198  -9.053  1.00  0.00    -0.490 OA
ATOM     23  C   UNL     1      -1.522  -1.936  -9.125  1.00  0.00     0.278 C 
ENDBRANCH   8  22
BRANCH  11  24
ATOM     24  O   UNL     1      -5.244  -5.499  -4.935  1.00  0.00    -0.492 OA
ATOM     25  C   UNL     1      -5.966  -6.678  -5.274  1.00  0.00     0.278 C 
ENDBRANCH  11  24
BRANCH   9  26
ATOM     26  O   UNL     1      -5.014  -2.811  -8.916  1.00  0.00    -0.490 OA
ATOM     27  C   UNL     1      -5.166  -1.397  -9.003  1.00  0.00     0.279 C 
ENDBRANCH   9  26
BRANCH  10  28
ATOM     28  O   UNL     1      -6.447  -3.779  -6.903  1.00  0.00    -0.490 OA
ATOM     29  C   UNL     1      -7.117  -2.841  -6.067  1.00  0.00     0.278 C 
ENDBRANCH  10  28
TORSDOF 7
ENDMDL
MODEL 8
REMARK VINA RESULT:    -5.328     11.990     14.758
REMARK INTER + INTRA:          -8.374
REMARK INTER:                  -7.517
REMARK INTRA:                  -0.857
REMARK UNBOUND:                -0.866
REMARK SMILES COc1ccc(-c2cc(=O)c3c(OC)c(OC)c(OC)c(OC)c3o2)cc1OC
REMARK SMILES IDX 7 1 8 2 9 3 10 4 11 5 24 6 25 7 21 8 18 9 15 10 12 11 6 12
REMARK SMILES IDX 3 13 27 14 4 15 26 16 5 17 2 18 1 19 28 20 29 21 22 22 23 23
REMARK SMILES IDX 13 24 14 25 19 26 20 27 16 28 17 29
REMARK H PARENT
REMARK Flexibility Score: inf
ROOT
ATOM      1  C   UNL     1      -0.135  -5.741  -6.914  1.00  0.00     0.138 A 
ATOM      2  C   UNL     1      -0.716  -4.476  -6.768  1.00  0.00     0.100 A 
ATOM      3  C   UNL     1      -2.090  -4.376  -6.571  1.00  0.00     0.197 A 
ATOM      4  O   UNL     1      -2.603  -3.228  -6.478  1.00  0.00    -0.289 OA
ATOM      5  C   UNL     1      -2.877  -5.547  -6.504  1.00  0.00     0.115 A 
ATOM      6  C   UNL     1      -2.226  -6.793  -6.693  1.00  0.00     0.188 A 
ATOM      7  O   UNL     1      -0.909  -6.823  -6.883  1.00  0.00    -0.452 OA
ATOM      8  C   UNL     1      -2.970  -8.000  -6.665  1.00  0.00     0.209 A 
ATOM      9  C   UNL     1      -4.375  -7.943  -6.485  1.00  0.00     0.211 A 
ATOM     10  C   UNL     1      -5.019  -6.709  -6.312  1.00  0.00     0.208 A 
ATOM     11  C   UNL     1      -4.267  -5.516  -6.259  1.00  0.00     0.179 A 
ENDROOT
BRANCH   1  12
ATOM     12  C   UNL     1       1.326  -5.903  -7.115  1.00  0.00     0.021 A 
ATOM     13  C   UNL     1       4.096  -6.263  -7.515  1.00  0.00     0.160 A 
ATOM     14  C   UNL     1       3.635  -5.626  -6.353  1.00  0.00     0.161 A 
ATOM     15  C   UNL     1       3.170  -6.724  -8.468  1.00  0.00     0.051 A 
ATOM     16  C   UNL     1       2.251  -5.451  -6.157  1.00  0.00     0.062 A 
ATOM     17  C   UNL     1       1.801  -6.547  -8.266  1.00  0.00     0.016 A 
BRANCH  13  18
ATOM     18  O   UNL     1       5.481  -6.422  -7.685  1.00  0.00    -0.493 OA
ATOM     19  C   UNL     1       6.182  -7.646  -7.494  1.00  0.00     0.278 C 
ENDBRANCH  13  18
BRANCH  14  20
ATOM     20  O   UNL     1       4.583  -5.184  -5.417  1.00  0.00    -0.493 OA
ATOM     21  C   UNL     1       4.956  -5.900  -4.243  1.00  0.00     0.278 C 
ENDBRANCH  14  20
ENDBRANCH   1  12
BRANCH   8  22
ATOM     22  O   UNL     1      -2.365  -9.263  -6.805  1.00  0.00    -0.490 OA
ATOM     23  C   UNL     1      -1.894 -10.113  -5.766  1.00  0.00     0.278 C 
ENDBRANCH   8  22
BRANCH  11  24
ATOM     24  O   UNL     1      -4.894  -4.314  -5.923  1.00  0.00    -0.492 OA
ATOM     25  C   UNL     1      -5.374  -4.079  -4.603  1.00  0.00     0.278 C 
ENDBRANCH  11  24
BRANCH   9  26
ATOM     26  O   UNL     1      -5.209  -9.080  -6.477  1.00  0.00    -0.490 OA
ATOM     27  C   UNL     1      -5.605  -9.864  -7.598  1.00  0.00     0.279 C 
ENDBRANCH   9  26
BRANCH  10  28
ATOM     28  O   UNL     1      -6.422  -6.736  -6.197  1.00  0.00    -0.490 OA
ATOM     29  C   UNL     1      -7.351  -6.448  -7.236  1.00  0.00     0.278 C 
ENDBRANCH  10  28
TORSDOF 7
ENDMDL
