MODEL 1
REMARK VINA RESULT:    -4.419      0.000      0.000
REMARK INTER + INTRA:          -5.204
REMARK INTER:                  -5.065
REMARK INTRA:                  -0.139
REMARK UNBOUND:                -0.139
REMARK SMILES O=C([O-])C=Cc1ccc(O)cc1
REMARK SMILES IDX 6 1 7 2 12 3 8 4 11 5 9 6 5 7 4 8 2 9 1 10 3 11 10 12
REMARK H PARENT 10 13
REMARK Flexibility Score: inf
ROOT
ATOM      1  C   UNL     1      77.695  34.065  52.102  1.00  0.00    -0.025 A 
ATOM      2  C   UNL     1      78.775  34.934  51.870  1.00  0.00     0.012 A 
ATOM      3  C   UNL     1      77.962  32.714  52.401  1.00  0.00     0.012 A 
ATOM      4  C   UNL     1      80.090  34.460  51.911  1.00  0.00     0.047 A 
ATOM      5  C   UNL     1      79.279  32.244  52.442  1.00  0.00     0.047 A 
ATOM      6  C   UNL     1      80.346  33.117  52.195  1.00  0.00     0.115 A 
ENDROOT
BRANCH   1   7
ATOM      7  C   UNL     1      76.318  34.617  52.057  1.00  0.00     0.010 C 
ATOM      8  C   UNL     1      75.284  34.097  52.733  1.00  0.00     0.025 C 
BRANCH   8   9
ATOM      9  C   UNL     1      73.928  34.665  52.656  1.00  0.00     0.064 C 
ATOM     10  O   UNL     1      72.946  34.084  53.190  1.00  0.00    -0.545 OA
ATOM     11  O   UNL     1      73.728  35.862  51.982  1.00  0.00    -0.545 OA
ENDBRANCH   8   9
ENDBRANCH   1   7
BRANCH   6  12
ATOM     12  O   UNL     1      81.661  32.659  52.231  1.00  0.00    -0.508 OA
ATOM     13  H   UNL     1      81.880  31.670  52.192  1.00  0.00     0.293 HD
ENDBRANCH   6  12
TORSDOF 3
ENDMDL
MODEL 2
REMARK VINA RESULT:    -4.353      2.491      5.890
REMARK INTER + INTRA:          -5.128
REMARK INTER:                  -4.982
REMARK INTRA:                  -0.146
REMARK UNBOUND:                -0.139
REMARK SMILES O=C([O-])C=Cc1ccc(O)cc1
REMARK SMILES IDX 6 1 7 2 12 3 8 4 11 5 9 6 5 7 4 8 2 9 1 10 3 11 10 12
REMARK H PARENT 10 13
REMARK Flexibility Score: inf
ROOT
ATOM      1  C   UNL     1      75.277  35.286  53.120  1.00  0.00    -0.025 A 
ATOM      2  C   UNL     1      74.777  33.977  53.005  1.00  0.00     0.012 A 
ATOM      3  C   UNL     1      74.765  36.122  54.133  1.00  0.00     0.012 A 
ATOM      4  C   UNL     1      73.773  33.521  53.865  1.00  0.00     0.047 A 
ATOM      5  C   UNL     1      73.762  35.662  54.991  1.00  0.00     0.047 A 
ATOM      6  C   UNL     1      73.262  34.360  54.857  1.00  0.00     0.115 A 
ENDROOT
BRANCH   1   7
ATOM      7  C   UNL     1      76.349  35.720  52.190  1.00  0.00     0.010 C 
ATOM      8  C   UNL     1      77.386  34.947  51.837  1.00  0.00     0.025 C 
BRANCH   8   9
ATOM      9  C   UNL     1      78.438  35.416  50.920  1.00  0.00     0.064 C 
ATOM     10  O   UNL     1      78.159  36.125  49.915  1.00  0.00    -0.545 OA
ATOM     11  O   UNL     1      79.760  35.070  51.164  1.00  0.00    -0.545 OA
ENDBRANCH   8   9
ENDBRANCH   1   7
BRANCH   6  12
ATOM     12  O   UNL     1      72.261  33.893  55.706  1.00  0.00    -0.508 OA
ATOM     13  H   UNL     1      72.459  33.230  56.446  1.00  0.00     0.293 HD
ENDBRANCH   6  12
TORSDOF 3
ENDMDL
MODEL 3
REMARK VINA RESULT:    -4.151      1.852      5.854
REMARK INTER + INTRA:          -4.897
REMARK INTER:                  -4.747
REMARK INTRA:                  -0.150
REMARK UNBOUND:                -0.139
REMARK SMILES O=C([O-])C=Cc1ccc(O)cc1
REMARK SMILES IDX 6 1 7 2 12 3 8 4 11 5 9 6 5 7 4 8 2 9 1 10 3 11 10 12
REMARK H PARENT 10 13
REMARK Flexibility Score: inf
ROOT
ATOM      1  C   UNL     1      76.127  35.221  52.267  1.00  0.00    -0.025 A 
ATOM      2  C   UNL     1      75.928  33.929  52.783  1.00  0.00     0.012 A 
ATOM      3  C   UNL     1      75.024  36.093  52.174  1.00  0.00     0.012 A 
ATOM      4  C   UNL     1      74.652  33.508  53.173  1.00  0.00     0.047 A 
ATOM      5  C   UNL     1      73.750  35.669  52.565  1.00  0.00     0.047 A 
ATOM      6  C   UNL     1      73.562  34.374  53.064  1.00  0.00     0.115 A 
ENDROOT
BRANCH   1   7
ATOM      7  C   UNL     1      77.501  35.624  51.876  1.00  0.00     0.010 C 
ATOM      8  C   UNL     1      78.505  34.758  51.682  1.00  0.00     0.025 C 
BRANCH   8   9
ATOM      9  C   UNL     1      79.859  35.195  51.305  1.00  0.00     0.064 C 
ATOM     10  O   UNL     1      80.336  34.934  50.168  1.00  0.00    -0.545 OA
ATOM     11  O   UNL     1      80.625  35.908  52.218  1.00  0.00    -0.545 OA
ENDBRANCH   8   9
ENDBRANCH   1   7
BRANCH   6  12
ATOM     12  O   UNL     1      72.297  33.940  53.455  1.00  0.00    -0.508 OA
ATOM     13  H   UNL     1      72.041  32.961  53.431  1.00  0.00     0.293 HD
ENDBRANCH   6  12
TORSDOF 3
ENDMDL
MODEL 4
REMARK VINA RESULT:    -4.115      2.016      5.735
REMARK INTER + INTRA:          -4.855
REMARK INTER:                  -4.717
REMARK INTRA:                  -0.138
REMARK UNBOUND:                -0.139
REMARK SMILES O=C([O-])C=Cc1ccc(O)cc1
REMARK SMILES IDX 6 1 7 2 12 3 8 4 11 5 9 6 5 7 4 8 2 9 1 10 3 11 10 12
REMARK H PARENT 10 13
REMARK Flexibility Score: inf
ROOT
ATOM      1  C   UNL     1      76.072  35.267  52.212  1.00  0.00    -0.025 A 
ATOM      2  C   UNL     1      74.962  36.125  52.115  1.00  0.00     0.012 A 
ATOM      3  C   UNL     1      75.882  33.964  52.714  1.00  0.00     0.012 A 
ATOM      4  C   UNL     1      73.697  35.700  52.532  1.00  0.00     0.047 A 
ATOM      5  C   UNL     1      74.614  33.543  53.129  1.00  0.00     0.047 A 
ATOM      6  C   UNL     1      73.519  34.412  53.041  1.00  0.00     0.115 A 
ENDROOT
BRANCH   1   7
ATOM      7  C   UNL     1      77.392  35.760  51.748  1.00  0.00     0.010 C 
ATOM      8  C   UNL     1      78.442  34.963  51.504  1.00  0.00     0.025 C 
BRANCH   8   9
ATOM      9  C   UNL     1      79.742  35.489  51.054  1.00  0.00     0.064 C 
ATOM     10  O   UNL     1      80.525  36.064  51.857  1.00  0.00    -0.545 OA
ATOM     11  O   UNL     1      80.110  35.350  49.723  1.00  0.00    -0.545 OA
ENDBRANCH   8   9
ENDBRANCH   1   7
BRANCH   6  12
ATOM     12  O   UNL     1      72.253  34.003  53.453  1.00  0.00    -0.508 OA
ATOM     13  H   UNL     1      71.496  33.874  52.792  1.00  0.00     0.293 HD
ENDBRANCH   6  12
TORSDOF 3
ENDMDL
MODEL 5
REMARK VINA RESULT:    -4.105     14.896     16.233
REMARK INTER + INTRA:          -4.844
REMARK INTER:                  -4.692
REMARK INTRA:                  -0.152
REMARK UNBOUND:                -0.139
REMARK SMILES O=C([O-])C=Cc1ccc(O)cc1
REMARK SMILES IDX 6 1 7 2 12 3 8 4 11 5 9 6 5 7 4 8 2 9 1 10 3 11 10 12
REMARK H PARENT 10 13
REMARK Flexibility Score: inf
ROOT
ATOM      1  C   UNL     1      85.571  31.793  64.942  1.00  0.00    -0.025 A 
ATOM      2  C   UNL     1      86.376  30.646  65.055  1.00  0.00     0.012 A 
ATOM      3  C   UNL     1      84.180  31.633  64.784  1.00  0.00     0.012 A 
ATOM      4  C   UNL     1      85.810  29.370  64.986  1.00  0.00     0.047 A 
ATOM      5  C   UNL     1      83.617  30.355  64.716  1.00  0.00     0.047 A 
ATOM      6  C   UNL     1      84.432  29.220  64.815  1.00  0.00     0.115 A 
ENDROOT
BRANCH   1   7
ATOM      7  C   UNL     1      86.218  33.125  65.031  1.00  0.00     0.010 C 
ATOM      8  C   UNL     1      87.543  33.305  65.132  1.00  0.00     0.025 C 
BRANCH   8   9
ATOM      9  C   UNL     1      88.150  34.643  65.229  1.00  0.00     0.064 C 
ATOM     10  O   UNL     1      89.125  34.863  65.997  1.00  0.00    -0.545 OA
ATOM     11  O   UNL     1      87.639  35.681  64.463  1.00  0.00    -0.545 OA
ENDBRANCH   8   9
ENDBRANCH   1   7
BRANCH   6  12
ATOM     12  O   UNL     1      83.881  27.942  64.747  1.00  0.00    -0.508 OA
ATOM     13  H   UNL     1      83.874  27.324  65.550  1.00  0.00     0.293 HD
ENDBRANCH   6  12
TORSDOF 3
ENDMDL
MODEL 6
REMARK VINA RESULT:    -3.991     17.001     17.712
REMARK INTER + INTRA:          -4.713
REMARK INTER:                  -4.577
REMARK INTRA:                  -0.136
REMARK UNBOUND:                -0.139
REMARK SMILES O=C([O-])C=Cc1ccc(O)cc1
REMARK SMILES IDX 6 1 7 2 12 3 8 4 11 5 9 6 5 7 4 8 2 9 1 10 3 11 10 12
REMARK H PARENT 10 13
REMARK Flexibility Score: inf
ROOT
ATOM      1  C   UNL     1      88.761  27.627  64.167  1.00  0.00    -0.025 A 
ATOM      2  C   UNL     1      88.374  26.403  64.740  1.00  0.00     0.012 A 
ATOM      3  C   UNL     1      89.125  27.655  62.805  1.00  0.00     0.012 A 
ATOM      4  C   UNL     1      88.374  25.230  63.978  1.00  0.00     0.047 A 
ATOM      5  C   UNL     1      89.123  26.480  62.047  1.00  0.00     0.047 A 
ATOM      6  C   UNL     1      88.749  25.264  62.634  1.00  0.00     0.115 A 
ENDROOT
BRANCH   1   7
ATOM      7  C   UNL     1      88.735  28.846  65.013  1.00  0.00     0.010 C 
ATOM      8  C   UNL     1      87.709  29.708  65.047  1.00  0.00     0.025 C 
BRANCH   8   9
ATOM      9  C   UNL     1      87.723  30.914  65.891  1.00  0.00     0.064 C 
ATOM     10  O   UNL     1      86.982  31.900  65.632  1.00  0.00    -0.545 OA
ATOM     11  O   UNL     1      88.568  30.966  66.992  1.00  0.00    -0.545 OA
ENDBRANCH   8   9
ENDBRANCH   1   7
BRANCH   6  12
ATOM     12  O   UNL     1      88.746  24.088  61.887  1.00  0.00    -0.508 OA
ATOM     13  H   UNL     1      88.774  23.178  62.332  1.00  0.00     0.293 HD
ENDBRANCH   6  12
TORSDOF 3
ENDMDL
MODEL 7
REMARK VINA RESULT:    -3.917      2.293      3.436
REMARK INTER + INTRA:          -4.629
REMARK INTER:                  -4.488
REMARK INTRA:                  -0.141
REMARK UNBOUND:                -0.139
REMARK SMILES O=C([O-])C=Cc1ccc(O)cc1
REMARK SMILES IDX 6 1 7 2 12 3 8 4 11 5 9 6 5 7 4 8 2 9 1 10 3 11 10 12
REMARK H PARENT 10 13
REMARK Flexibility Score: inf
ROOT
ATOM      1  C   UNL     1      75.321  34.773  52.893  1.00  0.00    -0.025 A 
ATOM      2  C   UNL     1      76.078  33.605  52.694  1.00  0.00     0.012 A 
ATOM      3  C   UNL     1      75.809  35.993  52.384  1.00  0.00     0.012 A 
ATOM      4  C   UNL     1      77.304  33.658  52.024  1.00  0.00     0.047 A 
ATOM      5  C   UNL     1      77.035  36.042  51.714  1.00  0.00     0.047 A 
ATOM      6  C   UNL     1      77.787  34.873  51.535  1.00  0.00     0.115 A 
ENDROOT
BRANCH   1   7
ATOM      7  C   UNL     1      74.022  34.664  53.601  1.00  0.00     0.010 C 
ATOM      8  C   UNL     1      73.893  34.213  54.857  1.00  0.00     0.025 C 
BRANCH   8   9
ATOM      9  C   UNL     1      72.585  34.108  55.524  1.00  0.00     0.064 C 
ATOM     10  O   UNL     1      71.541  33.834  54.873  1.00  0.00    -0.545 OA
ATOM     11  O   UNL     1      72.499  34.316  56.894  1.00  0.00    -0.545 OA
ENDBRANCH   8   9
ENDBRANCH   1   7
BRANCH   6  12
ATOM     12  O   UNL     1      79.011  34.911  50.870  1.00  0.00    -0.508 OA
ATOM     13  H   UNL     1      79.433  34.073  50.487  1.00  0.00     0.293 HD
ENDBRANCH   6  12
TORSDOF 3
ENDMDL
