MODEL 1
REMARK VINA RESULT:    13.562      0.000      0.000
REMARK INTER + INTRA:          24.781
REMARK INTER:                  24.661
REMARK INTRA:                   0.120
REMARK UNBOUND:                 0.120
REMARK SMILES CCCCCCCCCCCCCCCC(=O)[O-]
REMARK SMILES IDX 9 1 10 2 11 3 12 4 13 5 14 6 15 7 16 8 17 9 18 10 8 11 7 12
REMARK SMILES IDX 6 13 5 14 4 15 3 16 2 17 1 18
REMARK H PARENT
REMARK Flexibility Score: inf
ROOT
ATOM      1  C   UNL     1      13.956   6.764   7.982  1.00  0.00     0.000 C 
ENDROOT
BRANCH   1   2
ATOM      2  C   UNL     1      15.356   6.619   7.363  1.00  0.00     0.000 C 
BRANCH   2   3
ATOM      3  C   UNL     1      15.669   5.179   6.930  1.00  0.00     0.000 C 
BRANCH   3   4
ATOM      4  C   UNL     1      17.158   5.018   6.595  1.00  0.00     0.000 C 
BRANCH   4   5
ATOM      5  C   UNL     1      18.085   5.487   7.731  1.00  0.00     0.000 C 
BRANCH   5   6
ATOM      6  C   UNL     1      17.362   5.961   9.006  1.00  0.00     0.006 C 
BRANCH   6   7
ATOM      7  C   UNL     1      18.125   7.065   9.749  1.00  0.00     0.053 C 
BRANCH   7   8
ATOM      8  C   UNL     1      17.293   8.305   9.835  1.00  0.00     0.041 C 
ATOM      9  O   UNL     1      16.061   8.226  10.084  1.00  0.00    -0.550 OA
ATOM     10  O   UNL     1      17.867   9.546   9.590  1.00  0.00    -0.550 OA
ENDBRANCH   7   8
ENDBRANCH   6   7
ENDBRANCH   5   6
ENDBRANCH   4   5
ENDBRANCH   3   4
ENDBRANCH   2   3
ENDBRANCH   1   2
BRANCH   1  11
ATOM     11  C   UNL     1      13.023   7.640   7.131  1.00  0.00     0.000 C 
BRANCH  11  12
ATOM     12  C   UNL     1      11.565   7.145   7.145  1.00  0.00    -0.000 C 
BRANCH  12  13
ATOM     13  C   UNL     1      11.053   6.766   8.550  1.00  0.00    -0.000 C 
BRANCH  13  14
ATOM     14  C   UNL     1      10.291   5.432   8.548  1.00  0.00    -0.000 C 
BRANCH  14  15
ATOM     15  C   UNL     1      11.217   4.269   8.171  1.00  0.00    -0.000 C 
BRANCH  15  16
ATOM     16  C   UNL     1      10.420   2.977   7.960  1.00  0.00    -0.000 C 
BRANCH  16  17
ATOM     17  C   UNL     1      10.135   2.281   9.296  1.00  0.00    -0.003 C 
ATOM     18  C   UNL     1      11.379   2.251  10.178  1.00  0.00     0.004 C 
ENDBRANCH  16  17
ENDBRANCH  15  16
ENDBRANCH  14  15
ENDBRANCH  13  14
ENDBRANCH  12  13
ENDBRANCH  11  12
ENDBRANCH   1  11
TORSDOF 14
ENDMDL
MODEL 2
REMARK VINA RESULT:    13.980      1.211      1.923
REMARK INTER + INTRA:          25.541
REMARK INTER:                  23.376
REMARK INTRA:                   2.165
REMARK UNBOUND:                 0.120
REMARK SMILES CCCCCCCCCCCCCCCC(=O)[O-]
REMARK SMILES IDX 9 1 10 2 11 3 12 4 13 5 14 6 15 7 16 8 17 9 18 10 8 11 7 12
REMARK SMILES IDX 6 13 5 14 4 15 3 16 2 17 1 18
REMARK H PARENT
REMARK Flexibility Score: inf
ROOT
ATOM      1  C   UNL     1      14.375   6.294   7.979  1.00  0.00     0.000 C 
ENDROOT
BRANCH   1   2
ATOM      2  C   UNL     1      15.418   6.178   6.855  1.00  0.00     0.000 C 
BRANCH   2   3
ATOM      3  C   UNL     1      15.499   4.763   6.263  1.00  0.00     0.000 C 
BRANCH   3   4
ATOM      4  C   UNL     1      16.916   4.189   6.407  1.00  0.00     0.000 C 
BRANCH   4   5
ATOM      5  C   UNL     1      17.849   5.090   7.237  1.00  0.00     0.000 C 
BRANCH   5   6
ATOM      6  C   UNL     1      17.143   5.955   8.297  1.00  0.00     0.006 C 
BRANCH   6   7
ATOM      7  C   UNL     1      18.125   6.696   9.213  1.00  0.00     0.053 C 
BRANCH   7   8
ATOM      8  C   UNL     1      17.440   7.837   9.896  1.00  0.00     0.041 C 
ATOM      9  O   UNL     1      18.117   8.751  10.436  1.00  0.00    -0.550 OA
ATOM     10  O   UNL     1      16.054   7.867   9.979  1.00  0.00    -0.550 OA
ENDBRANCH   7   8
ENDBRANCH   6   7
ENDBRANCH   5   6
ENDBRANCH   4   5
ENDBRANCH   3   4
ENDBRANCH   2   3
ENDBRANCH   1   2
BRANCH   1  11
ATOM     11  C   UNL     1      13.454   7.513   7.805  1.00  0.00     0.000 C 
BRANCH  11  12
ATOM     12  C   UNL     1      11.963   7.157   7.941  1.00  0.00    -0.000 C 
BRANCH  12  13
ATOM     13  C   UNL     1      11.697   5.644   8.078  1.00  0.00    -0.000 C 
BRANCH  13  14
ATOM     14  C   UNL     1      10.267   5.348   8.556  1.00  0.00    -0.000 C 
BRANCH  14  15
ATOM     15  C   UNL     1       9.929   3.862   8.396  1.00  0.00    -0.000 C 
BRANCH  15  16
ATOM     16  C   UNL     1      10.483   3.310   7.077  1.00  0.00    -0.000 C 
BRANCH  16  17
ATOM     17  C   UNL     1       9.918   4.079   5.878  1.00  0.00    -0.003 C 
ATOM     18  C   UNL     1       8.392   4.062   5.882  1.00  0.00     0.004 C 
ENDBRANCH  16  17
ENDBRANCH  15  16
ENDBRANCH  14  15
ENDBRANCH  13  14
ENDBRANCH  12  13
ENDBRANCH  11  12
ENDBRANCH   1  11
TORSDOF 14
ENDMDL
MODEL 3
REMARK VINA RESULT:    14.685      3.018      7.291
REMARK INTER + INTRA:          26.823
REMARK INTER:                  27.001
REMARK INTRA:                  -0.178
REMARK UNBOUND:                 0.120
REMARK SMILES CCCCCCCCCCCCCCCC(=O)[O-]
REMARK SMILES IDX 9 1 10 2 11 3 12 4 13 5 14 6 15 7 16 8 17 9 18 10 8 11 7 12
REMARK SMILES IDX 6 13 5 14 4 15 3 16 2 17 1 18
REMARK H PARENT
REMARK Flexibility Score: inf
ROOT
ATOM      1  C   UNL     1      14.399   5.668   8.215  1.00  0.00     0.000 C 
ENDROOT
BRANCH   1   2
ATOM      2  C   UNL     1      13.857   7.096   8.043  1.00  0.00     0.000 C 
BRANCH   2   3
ATOM      3  C   UNL     1      12.538   7.140   7.256  1.00  0.00     0.000 C 
BRANCH   3   4
ATOM      4  C   UNL     1      11.335   7.206   8.208  1.00  0.00     0.000 C 
BRANCH   4   5
ATOM      5  C   UNL     1      10.665   5.837   8.427  1.00  0.00     0.000 C 
BRANCH   5   6
ATOM      6  C   UNL     1      10.943   4.794   7.329  1.00  0.00     0.006 C 
BRANCH   6   7
ATOM      7  C   UNL     1      10.597   3.364   7.762  1.00  0.00     0.053 C 
BRANCH   7   8
ATOM      8  C   UNL     1      10.432   3.295   9.247  1.00  0.00     0.041 C 
ATOM      9  O   UNL     1       9.769   4.178   9.853  1.00  0.00    -0.550 OA
ATOM     10  O   UNL     1      11.052   2.284   9.970  1.00  0.00    -0.550 OA
ENDBRANCH   7   8
ENDBRANCH   6   7
ENDBRANCH   5   6
ENDBRANCH   4   5
ENDBRANCH   3   4
ENDBRANCH   2   3
ENDBRANCH   1   2
BRANCH   1  11
ATOM     11  C   UNL     1      14.992   5.103   6.913  1.00  0.00     0.000 C 
BRANCH  11  12
ATOM     12  C   UNL     1      16.487   5.430   6.748  1.00  0.00    -0.000 C 
BRANCH  12  13
ATOM     13  C   UNL     1      17.332   5.117   8.001  1.00  0.00    -0.000 C 
BRANCH  13  14
ATOM     14  C   UNL     1      18.123   6.342   8.487  1.00  0.00    -0.000 C 
BRANCH  14  15
ATOM     15  C   UNL     1      17.552   6.879   9.804  1.00  0.00    -0.000 C 
BRANCH  15  16
ATOM     16  C   UNL     1      17.017   8.306   9.631  1.00  0.00    -0.000 C 
BRANCH  16  17
ATOM     17  C   UNL     1      18.114   9.342   9.895  1.00  0.00    -0.003 C 
ATOM     18  C   UNL     1      17.933  10.574   9.015  1.00  0.00     0.004 C 
ENDBRANCH  16  17
ENDBRANCH  15  16
ENDBRANCH  14  15
ENDBRANCH  13  14
ENDBRANCH  12  13
ENDBRANCH  11  12
ENDBRANCH   1  11
TORSDOF 14
ENDMDL
MODEL 4
REMARK VINA RESULT:    15.494      2.858      6.951
REMARK INTER + INTRA:          28.294
REMARK INTER:                  28.614
REMARK INTRA:                  -0.321
REMARK UNBOUND:                 0.120
REMARK SMILES CCCCCCCCCCCCCCCC(=O)[O-]
REMARK SMILES IDX 9 1 10 2 11 3 12 4 13 5 14 6 15 7 16 8 17 9 18 10 8 11 7 12
REMARK SMILES IDX 6 13 5 14 4 15 3 16 2 17 1 18
REMARK H PARENT
REMARK Flexibility Score: inf
ROOT
ATOM      1  C   UNL     1      14.553   6.378   8.008  1.00  0.00     0.000 C 
ENDROOT
BRANCH   1   2
ATOM      2  C   UNL     1      13.724   7.649   7.761  1.00  0.00     0.000 C 
BRANCH   2   3
ATOM      3  C   UNL     1      12.253   7.346   7.440  1.00  0.00     0.000 C 
BRANCH   3   4
ATOM      4  C   UNL     1      11.548   6.712   8.648  1.00  0.00     0.000 C 
BRANCH   4   5
ATOM      5  C   UNL     1      10.543   5.615   8.252  1.00  0.00     0.000 C 
BRANCH   5   6
ATOM      6  C   UNL     1      11.147   4.430   7.476  1.00  0.00     0.006 C 
BRANCH   6   7
ATOM      7  C   UNL     1      10.586   3.074   7.924  1.00  0.00     0.053 C 
BRANCH   7   8
ATOM      8  C   UNL     1      10.541   2.997   9.418  1.00  0.00     0.041 C 
ATOM      9  O   UNL     1       9.488   3.305  10.037  1.00  0.00    -0.550 OA
ATOM     10  O   UNL     1      11.676   2.633  10.130  1.00  0.00    -0.550 OA
ENDBRANCH   7   8
ENDBRANCH   6   7
ENDBRANCH   5   6
ENDBRANCH   4   5
ENDBRANCH   3   4
ENDBRANCH   2   3
ENDBRANCH   1   2
BRANCH   1  11
ATOM     11  C   UNL     1      15.313   5.917   6.752  1.00  0.00     0.000 C 
BRANCH  11  12
ATOM     12  C   UNL     1      15.551   4.397   6.724  1.00  0.00    -0.000 C 
BRANCH  12  13
ATOM     13  C   UNL     1      16.831   3.983   5.968  1.00  0.00    -0.000 C 
BRANCH  13  14
ATOM     14  C   UNL     1      18.029   4.875   6.328  1.00  0.00    -0.000 C 
BRANCH  14  15
ATOM     15  C   UNL     1      18.125   5.084   7.844  1.00  0.00    -0.000 C 
BRANCH  15  16
ATOM     16  C   UNL     1      17.990   6.568   8.205  1.00  0.00    -0.000 C 
BRANCH  16  17
ATOM     17  C   UNL     1      18.019   6.770   9.724  1.00  0.00    -0.003 C 
ATOM     18  C   UNL     1      16.881   7.676  10.182  1.00  0.00     0.004 C 
ENDBRANCH  16  17
ENDBRANCH  15  16
ENDBRANCH  14  15
ENDBRANCH  13  14
ENDBRANCH  12  13
ENDBRANCH  11  12
ENDBRANCH   1  11
TORSDOF 14
ENDMDL
