MODEL 1
REMARK VINA RESULT:    -2.994      0.000      0.000
REMARK INTER + INTRA:          -4.908
REMARK INTER:                  -4.219
REMARK INTRA:                  -0.689
REMARK UNBOUND:                -0.689
REMARK SMILES CCCCCCCCC(=O)[O-]
REMARK SMILES IDX 6 1 7 2 8 3 9 4 10 5 11 6 5 7 4 8 3 9 2 10 1 11
REMARK H PARENT
REMARK Flexibility Score: inf
ROOT
ATOM      1  C   UNL     1      35.334   5.944 -31.616  1.00  0.00     0.000 C 
ENDROOT
BRANCH   1   2
ATOM      2  C   UNL     1      34.728   7.333 -31.328  1.00  0.00     0.006 C 
BRANCH   2   3
ATOM      3  C   UNL     1      33.512   7.317 -30.390  1.00  0.00     0.053 C 
BRANCH   3   4
ATOM      4  C   UNL     1      32.809   8.639 -30.361  1.00  0.00     0.041 C 
ATOM      5  O   UNL     1      31.751   8.780 -29.692  1.00  0.00    -0.550 OA
ATOM      6  O   UNL     1      33.303   9.707 -31.099  1.00  0.00    -0.550 OA
ENDBRANCH   3   4
ENDBRANCH   2   3
ENDBRANCH   1   2
BRANCH   1   7
ATOM      7  C   UNL     1      35.002   5.363 -33.003  1.00  0.00     0.000 C 
BRANCH   7   8
ATOM      8  C   UNL     1      34.103   4.120 -32.933  1.00  0.00    -0.000 C 
BRANCH   8   9
ATOM      9  C   UNL     1      32.622   4.517 -32.866  1.00  0.00    -0.000 C 
BRANCH   9  10
ATOM     10  C   UNL     1      31.945   4.057 -31.565  1.00  0.00    -0.003 C 
ATOM     11  C   UNL     1      32.894   3.290 -30.645  1.00  0.00     0.004 C 
ENDBRANCH   9  10
ENDBRANCH   8   9
ENDBRANCH   7   8
ENDBRANCH   1   7
TORSDOF 7
ENDMDL
MODEL 2
REMARK VINA RESULT:    -2.971      4.705      6.026
REMARK INTER + INTRA:          -4.875
REMARK INTER:                  -4.583
REMARK INTRA:                  -0.292
REMARK UNBOUND:                -0.689
REMARK SMILES CCCCCCCCC(=O)[O-]
REMARK SMILES IDX 6 1 7 2 8 3 9 4 10 5 11 6 5 7 4 8 3 9 2 10 1 11
REMARK H PARENT
REMARK Flexibility Score: inf
ROOT
ATOM      1  C   UNL     1      32.377   1.588 -34.064  1.00  0.00     0.000 C 
ENDROOT
BRANCH   1   2
ATOM      2  C   UNL     1      33.418   2.426 -33.293  1.00  0.00     0.006 C 
BRANCH   2   3
ATOM      3  C   UNL     1      33.118   3.932 -33.248  1.00  0.00     0.053 C 
BRANCH   3   4
ATOM      4  C   UNL     1      34.295   4.724 -32.766  1.00  0.00     0.041 C 
ATOM      5  O   UNL     1      34.938   5.454 -33.565  1.00  0.00    -0.550 OA
ATOM      6  O   UNL     1      34.701   4.629 -31.441  1.00  0.00    -0.550 OA
ENDBRANCH   3   4
ENDBRANCH   2   3
ENDBRANCH   1   2
BRANCH   1   7
ATOM      7  C   UNL     1      32.807   0.144 -34.379  1.00  0.00     0.000 C 
BRANCH   7   8
ATOM      8  C   UNL     1      33.772   0.052 -35.570  1.00  0.00    -0.000 C 
BRANCH   8   9
ATOM      9  C   UNL     1      33.245  -0.927 -36.629  1.00  0.00    -0.000 C 
BRANCH   9  10
ATOM     10  C   UNL     1      33.090  -0.275 -38.012  1.00  0.00    -0.003 C 
ATOM     11  C   UNL     1      31.776   0.490 -38.160  1.00  0.00     0.004 C 
ENDBRANCH   9  10
ENDBRANCH   8   9
ENDBRANCH   7   8
ENDBRANCH   1   7
TORSDOF 7
ENDMDL
MODEL 3
REMARK VINA RESULT:    -2.956      2.720      4.658
REMARK INTER + INTRA:          -4.854
REMARK INTER:                  -4.381
REMARK INTRA:                  -0.474
REMARK UNBOUND:                -0.689
REMARK SMILES CCCCCCCCC(=O)[O-]
REMARK SMILES IDX 6 1 7 2 8 3 9 4 10 5 11 6 5 7 4 8 3 9 2 10 1 11
REMARK H PARENT
REMARK Flexibility Score: inf
ROOT
ATOM      1  C   UNL     1      35.528   6.771 -31.126  1.00  0.00     0.000 C 
ENDROOT
BRANCH   1   2
ATOM      2  C   UNL     1      35.397   5.349 -31.710  1.00  0.00     0.006 C 
BRANCH   2   3
ATOM      3  C   UNL     1      34.715   5.284 -33.085  1.00  0.00     0.053 C 
BRANCH   3   4
ATOM      4  C   UNL     1      33.494   4.418 -33.066  1.00  0.00     0.041 C 
ATOM      5  O   UNL     1      33.571   3.207 -33.402  1.00  0.00    -0.550 OA
ATOM      6  O   UNL     1      32.264   4.956 -32.708  1.00  0.00    -0.550 OA
ENDBRANCH   3   4
ENDBRANCH   2   3
ENDBRANCH   1   2
BRANCH   1   7
ATOM      7  C   UNL     1      34.261   7.639 -31.233  1.00  0.00     0.000 C 
BRANCH   7   8
ATOM      8  C   UNL     1      33.218   7.314 -30.154  1.00  0.00    -0.000 C 
BRANCH   8   9
ATOM      9  C   UNL     1      31.860   7.944 -30.497  1.00  0.00    -0.000 C 
BRANCH   9  10
ATOM     10  C   UNL     1      31.727   9.382 -29.974  1.00  0.00    -0.003 C 
ATOM     11  C   UNL     1      32.390   9.580 -28.611  1.00  0.00     0.004 C 
ENDBRANCH   9  10
ENDBRANCH   8   9
ENDBRANCH   7   8
ENDBRANCH   1   7
TORSDOF 7
ENDMDL
MODEL 4
REMARK VINA RESULT:    -2.929     13.826     15.435
REMARK INTER + INTRA:          -4.817
REMARK INTER:                  -4.081
REMARK INTRA:                  -0.735
REMARK UNBOUND:                -0.689
REMARK SMILES CCCCCCCCC(=O)[O-]
REMARK SMILES IDX 6 1 7 2 8 3 9 4 10 5 11 6 5 7 4 8 3 9 2 10 1 11
REMARK H PARENT
REMARK Flexibility Score: inf
ROOT
ATOM      1  C   UNL     1      24.179  -5.605 -27.971  1.00  0.00     0.000 C 
ENDROOT
BRANCH   1   2
ATOM      2  C   UNL     1      24.057  -4.880 -29.328  1.00  0.00     0.006 C 
BRANCH   2   3
ATOM      3  C   UNL     1      24.058  -5.811 -30.550  1.00  0.00     0.053 C 
BRANCH   3   4
ATOM      4  C   UNL     1      24.532  -5.112 -31.787  1.00  0.00     0.041 C 
ATOM      5  O   UNL     1      25.750  -4.826 -31.926  1.00  0.00    -0.550 OA
ATOM      6  O   UNL     1      23.623  -4.747 -32.772  1.00  0.00    -0.550 OA
ENDBRANCH   3   4
ENDBRANCH   2   3
ENDBRANCH   1   2
BRANCH   1   7
ATOM      7  C   UNL     1      24.073  -7.139 -28.040  1.00  0.00     0.000 C 
BRANCH   7   8
ATOM      8  C   UNL     1      25.312  -7.852 -27.479  1.00  0.00    -0.000 C 
BRANCH   8   9
ATOM      9  C   UNL     1      26.420  -7.942 -28.538  1.00  0.00    -0.000 C 
BRANCH   9  10
ATOM     10  C   UNL     1      27.635  -7.064 -28.200  1.00  0.00    -0.003 C 
ATOM     11  C   UNL     1      27.872  -5.962 -29.232  1.00  0.00     0.004 C 
ENDBRANCH   9  10
ENDBRANCH   8   9
ENDBRANCH   7   8
ENDBRANCH   1   7
TORSDOF 7
ENDMDL
MODEL 5
REMARK VINA RESULT:    -2.927      1.137      2.076
REMARK INTER + INTRA:          -4.814
REMARK INTER:                  -4.116
REMARK INTRA:                  -0.698
REMARK UNBOUND:                -0.689
REMARK SMILES CCCCCCCCC(=O)[O-]
REMARK SMILES IDX 6 1 7 2 8 3 9 4 10 5 11 6 5 7 4 8 3 9 2 10 1 11
REMARK H PARENT
REMARK Flexibility Score: inf
ROOT
ATOM      1  C   UNL     1      34.261   7.689 -31.149  1.00  0.00     0.000 C 
ENDROOT
BRANCH   1   2
ATOM      2  C   UNL     1      33.169   7.233 -30.160  1.00  0.00     0.006 C 
BRANCH   2   3
ATOM      3  C   UNL     1      31.732   7.390 -30.679  1.00  0.00     0.053 C 
BRANCH   3   4
ATOM      4  C   UNL     1      31.147   8.721 -30.315  1.00  0.00     0.041 C 
ATOM      5  O   UNL     1      30.072   9.106 -30.845  1.00  0.00    -0.550 OA
ATOM      6  O   UNL     1      31.807   9.548 -29.416  1.00  0.00    -0.550 OA
ENDBRANCH   3   4
ENDBRANCH   2   3
ENDBRANCH   1   2
BRANCH   1   7
ATOM      7  C   UNL     1      35.557   6.857 -31.118  1.00  0.00     0.000 C 
BRANCH   7   8
ATOM      8  C   UNL     1      35.329   5.378 -31.461  1.00  0.00    -0.000 C 
BRANCH   8   9
ATOM      9  C   UNL     1      34.901   5.214 -32.926  1.00  0.00    -0.000 C 
BRANCH   9  10
ATOM     10  C   UNL     1      33.640   4.349 -33.081  1.00  0.00    -0.003 C 
ATOM     11  C   UNL     1      33.180   3.734 -31.760  1.00  0.00     0.004 C 
ENDBRANCH   9  10
ENDBRANCH   8   9
ENDBRANCH   7   8
ENDBRANCH   1   7
TORSDOF 7
ENDMDL
MODEL 6
REMARK VINA RESULT:    -2.909      1.898      2.580
REMARK INTER + INTRA:          -4.788
REMARK INTER:                  -4.317
REMARK INTRA:                  -0.471
REMARK UNBOUND:                -0.689
REMARK SMILES CCCCCCCCC(=O)[O-]
REMARK SMILES IDX 6 1 7 2 8 3 9 4 10 5 11 6 5 7 4 8 3 9 2 10 1 11
REMARK H PARENT
REMARK Flexibility Score: inf
ROOT
ATOM      1  C   UNL     1      34.822   5.107 -32.978  1.00  0.00     0.000 C 
ENDROOT
BRANCH   1   2
ATOM      2  C   UNL     1      35.053   5.406 -31.482  1.00  0.00     0.006 C 
BRANCH   2   3
ATOM      3  C   UNL     1      35.153   6.900 -31.139  1.00  0.00     0.053 C 
BRANCH   3   4
ATOM      4  C   UNL     1      33.804   7.544 -31.041  1.00  0.00     0.041 C 
ATOM      5  O   UNL     1      33.680   8.785 -31.221  1.00  0.00    -0.550 OA
ATOM      6  O   UNL     1      32.690   6.781 -30.718  1.00  0.00    -0.550 OA
ENDBRANCH   3   4
ENDBRANCH   2   3
ENDBRANCH   1   2
BRANCH   1   7
ATOM      7  C   UNL     1      33.625   4.186 -33.281  1.00  0.00     0.000 C 
BRANCH   7   8
ATOM      8  C   UNL     1      33.118   3.434 -32.042  1.00  0.00    -0.000 C 
BRANCH   8   9
ATOM      9  C   UNL     1      32.902   1.946 -32.355  1.00  0.00    -0.000 C 
BRANCH   9  10
ATOM     10  C   UNL     1      32.379   1.711 -33.780  1.00  0.00    -0.003 C 
ATOM     11  C   UNL     1      33.186   0.658 -34.540  1.00  0.00     0.004 C 
ENDBRANCH   9  10
ENDBRANCH   8   9
ENDBRANCH   7   8
ENDBRANCH   1   7
TORSDOF 7
ENDMDL
MODEL 7
REMARK VINA RESULT:    -2.904      1.666      2.840
REMARK INTER + INTRA:          -4.781
REMARK INTER:                  -4.110
REMARK INTRA:                  -0.671
REMARK UNBOUND:                -0.689
REMARK SMILES CCCCCCCCC(=O)[O-]
REMARK SMILES IDX 6 1 7 2 8 3 9 4 10 5 11 6 5 7 4 8 3 9 2 10 1 11
REMARK H PARENT
REMARK Flexibility Score: inf
ROOT
ATOM      1  C   UNL     1      32.537   6.142 -30.039  1.00  0.00     0.000 C 
ENDROOT
BRANCH   1   2
ATOM      2  C   UNL     1      32.030   7.397 -30.779  1.00  0.00     0.006 C 
BRANCH   2   3
ATOM      3  C   UNL     1      32.820   8.679 -30.476  1.00  0.00     0.053 C 
BRANCH   3   4
ATOM      4  C   UNL     1      32.172   9.496 -29.401  1.00  0.00     0.041 C 
ATOM      5  O   UNL     1      32.824   9.827 -28.376  1.00  0.00    -0.550 OA
ATOM      6  O   UNL     1      30.837   9.864 -29.516  1.00  0.00    -0.550 OA
ENDBRANCH   3   4
ENDBRANCH   2   3
ENDBRANCH   1   2
BRANCH   1   7
ATOM      7  C   UNL     1      34.035   6.156 -29.684  1.00  0.00     0.000 C 
BRANCH   7   8
ATOM      8  C   UNL     1      34.877   5.253 -30.598  1.00  0.00    -0.000 C 
BRANCH   8   9
ATOM      9  C   UNL     1      35.446   6.048 -31.781  1.00  0.00    -0.000 C 
BRANCH   9  10
ATOM     10  C   UNL     1      35.102   5.415 -33.139  1.00  0.00    -0.003 C 
ATOM     11  C   UNL     1      33.985   4.377 -33.041  1.00  0.00     0.004 C 
ENDBRANCH   9  10
ENDBRANCH   8   9
ENDBRANCH   7   8
ENDBRANCH   1   7
TORSDOF 7
ENDMDL
MODEL 8
REMARK VINA RESULT:    -2.857      2.961      5.377
REMARK INTER + INTRA:          -4.715
REMARK INTER:                  -4.437
REMARK INTRA:                  -0.278
REMARK UNBOUND:                -0.689
REMARK SMILES CCCCCCCCC(=O)[O-]
REMARK SMILES IDX 6 1 7 2 8 3 9 4 10 5 11 6 5 7 4 8 3 9 2 10 1 11
REMARK H PARENT
REMARK Flexibility Score: inf
ROOT
ATOM      1  C   UNL     1      33.516   7.356 -30.707  1.00  0.00     0.000 C 
ENDROOT
BRANCH   1   2
ATOM      2  C   UNL     1      34.918   6.808 -31.044  1.00  0.00     0.006 C 
BRANCH   2   3
ATOM      3  C   UNL     1      34.949   5.314 -31.400  1.00  0.00     0.053 C 
BRANCH   3   4
ATOM      4  C   UNL     1      34.825   5.086 -32.875  1.00  0.00     0.041 C 
ATOM      5  O   UNL     1      33.887   4.380 -33.331  1.00  0.00    -0.550 OA
ATOM      6  O   UNL     1      35.764   5.626 -33.744  1.00  0.00    -0.550 OA
ENDBRANCH   3   4
ENDBRANCH   2   3
ENDBRANCH   1   2
BRANCH   1   7
ATOM      7  C   UNL     1      33.351   8.877 -30.888  1.00  0.00     0.000 C 
BRANCH   7   8
ATOM      8  C   UNL     1      32.357   9.495 -29.893  1.00  0.00    -0.000 C 
BRANCH   8   9
ATOM      9  C   UNL     1      32.422   8.778 -28.537  1.00  0.00    -0.000 C 
BRANCH   9  10
ATOM     10  C   UNL     1      32.008   9.685 -27.368  1.00  0.00    -0.003 C 
ATOM     11  C   UNL     1      33.134  10.614 -26.915  1.00  0.00     0.004 C 
ENDBRANCH   9  10
ENDBRANCH   8   9
ENDBRANCH   7   8
ENDBRANCH   1   7
TORSDOF 7
ENDMDL
MODEL 9
REMARK VINA RESULT:    -2.851      2.775      3.975
REMARK INTER + INTRA:          -4.707
REMARK INTER:                  -3.846
REMARK INTRA:                  -0.861
REMARK UNBOUND:                -0.689
REMARK SMILES CCCCCCCCC(=O)[O-]
REMARK SMILES IDX 6 1 7 2 8 3 9 4 10 5 11 6 5 7 4 8 3 9 2 10 1 11
REMARK H PARENT
REMARK Flexibility Score: inf
ROOT
ATOM      1  C   UNL     1      35.275   6.641 -30.824  1.00  0.00     0.000 C 
ENDROOT
BRANCH   1   2
ATOM      2  C   UNL     1      35.428   5.389 -31.713  1.00  0.00     0.006 C 
BRANCH   2   3
ATOM      3  C   UNL     1      34.635   5.441 -33.028  1.00  0.00     0.053 C 
BRANCH   3   4
ATOM      4  C   UNL     1      33.486   4.480 -33.027  1.00  0.00     0.041 C 
ATOM      5  O   UNL     1      33.670   3.272 -33.332  1.00  0.00    -0.550 OA
ATOM      6  O   UNL     1      32.206   4.926 -32.723  1.00  0.00    -0.550 OA
ENDBRANCH   3   4
ENDBRANCH   2   3
ENDBRANCH   1   2
BRANCH   1   7
ATOM      7  C   UNL     1      34.175   7.624 -31.265  1.00  0.00     0.000 C 
BRANCH   7   8
ATOM      8  C   UNL     1      32.964   7.631 -30.322  1.00  0.00    -0.000 C 
BRANCH   8   9
ATOM      9  C   UNL     1      33.160   6.635 -29.169  1.00  0.00    -0.000 C 
BRANCH   9  10
ATOM     10  C   UNL     1      32.161   5.469 -29.219  1.00  0.00    -0.003 C 
ATOM     11  C   UNL     1      32.847   4.107 -29.313  1.00  0.00     0.004 C 
ENDBRANCH   9  10
ENDBRANCH   8   9
ENDBRANCH   7   8
ENDBRANCH   1   7
TORSDOF 7
ENDMDL
