MODEL 1
REMARK VINA RESULT:    -3.063      0.000      0.000
REMARK INTER + INTRA:          -3.693
REMARK INTER:                  -3.690
REMARK INTRA:                  -0.002
REMARK UNBOUND:                -0.002
REMARK SMILES OCC(O)CO
REMARK SMILES IDX 3 1 5 2 6 3 2 5 1 6 4 8
REMARK H PARENT 6 4 1 7 4 9
REMARK Flexibility Score: inf
ROOT
ATOM      1  C   UNL     1     178.923 162.235 175.493  1.00  0.00     0.165 C 
ENDROOT
BRANCH   1   2
ATOM      2  C   UNL     1     178.945 160.747 175.876  1.00  0.00     0.190 C 
BRANCH   2   3
ATOM      3  O   UNL     1     180.125 160.131 175.434  1.00  0.00    -0.394 OA
ATOM      4  H   UNL     1     180.170 159.246 175.883  1.00  0.00     0.210 HD
ENDBRANCH   2   3
ENDBRANCH   1   2
BRANCH   1   5
ATOM      5  C   UNL     1     177.618 162.919 175.928  1.00  0.00     0.190 C 
BRANCH   5   6
ATOM      6  O   UNL     1     177.876 163.892 176.901  1.00  0.00    -0.394 OA
ATOM      7  H   UNL     1     178.863 163.937 176.992  1.00  0.00     0.210 HD
ENDBRANCH   5   6
ENDBRANCH   1   5
BRANCH   1   8
ATOM      8  O   UNL     1     180.021 162.874 176.090  1.00  0.00    -0.388 OA
ATOM      9  H   UNL     1     180.165 162.435 176.969  1.00  0.00     0.211 HD
ENDBRANCH   1   8
TORSDOF 5
ENDMDL
MODEL 2
REMARK VINA RESULT:    -3.063      1.233      2.614
REMARK INTER + INTRA:          -3.692
REMARK INTER:                  -3.472
REMARK INTRA:                  -0.220
REMARK UNBOUND:                -0.002
REMARK SMILES OCC(O)CO
REMARK SMILES IDX 3 1 5 2 6 3 2 5 1 6 4 8
REMARK H PARENT 6 4 1 7 4 9
REMARK Flexibility Score: inf
ROOT
ATOM      1  C   UNL     1     178.749 162.053 175.598  1.00  0.00     0.165 C 
ENDROOT
BRANCH   1   2
ATOM      2  C   UNL     1     178.798 162.121 174.063  1.00  0.00     0.190 C 
BRANCH   2   3
ATOM      3  O   UNL     1     180.122 162.111 173.601  1.00  0.00    -0.394 OA
ATOM      4  H   UNL     1     180.551 161.301 173.984  1.00  0.00     0.210 HD
ENDBRANCH   2   3
ENDBRANCH   1   2
BRANCH   1   5
ATOM      5  C   UNL     1     178.933 160.617 176.113  1.00  0.00     0.190 C 
BRANCH   5   6
ATOM      6  O   UNL     1     180.124 160.069 175.620  1.00  0.00    -0.394 OA
ATOM      7  H   UNL     1     180.044 160.078 174.631  1.00  0.00     0.210 HD
ENDBRANCH   5   6
ENDBRANCH   1   5
BRANCH   1   8
ATOM      8  O   UNL     1     179.753 162.882 176.122  1.00  0.00    -0.388 OA
ATOM      9  H   UNL     1     179.782 163.694 175.550  1.00  0.00     0.211 HD
ENDBRANCH   1   8
TORSDOF 5
ENDMDL
MODEL 3
REMARK VINA RESULT:    -3.034      1.593      2.769
REMARK INTER + INTRA:          -3.657
REMARK INTER:                  -3.433
REMARK INTRA:                  -0.224
REMARK UNBOUND:                -0.002
REMARK SMILES OCC(O)CO
REMARK SMILES IDX 3 1 5 2 6 3 2 5 1 6 4 8
REMARK H PARENT 6 4 1 7 4 9
REMARK Flexibility Score: inf
ROOT
ATOM      1  C   UNL     1     178.975 160.798 175.070  1.00  0.00     0.165 C 
ENDROOT
BRANCH   1   2
ATOM      2  C   UNL     1     178.734 162.058 175.917  1.00  0.00     0.190 C 
BRANCH   2   3
ATOM      3  O   UNL     1     179.905 162.822 176.025  1.00  0.00    -0.394 OA
ATOM      4  H   UNL     1     180.647 162.255 175.686  1.00  0.00     0.210 HD
ENDBRANCH   2   3
ENDBRANCH   1   2
BRANCH   1   5
ATOM      5  C   UNL     1     179.136 161.133 173.579  1.00  0.00     0.190 C 
BRANCH   5   6
ATOM      6  O   UNL     1     178.756 162.459 173.332  1.00  0.00    -0.394 OA
ATOM      7  H   UNL     1     179.580 162.932 173.045  1.00  0.00     0.210 HD
ENDBRANCH   5   6
ENDBRANCH   1   5
BRANCH   1   8
ATOM      8  O   UNL     1     180.124 160.146 175.541  1.00  0.00    -0.388 OA
ATOM      9  H   UNL     1     180.605 160.794 176.120  1.00  0.00     0.211 HD
ENDBRANCH   1   8
TORSDOF 5
ENDMDL
MODEL 4
REMARK VINA RESULT:    -3.016     23.997     24.742
REMARK INTER + INTRA:          -3.636
REMARK INTER:                  -3.420
REMARK INTRA:                  -0.215
REMARK UNBOUND:                -0.002
REMARK SMILES OCC(O)CO
REMARK SMILES IDX 3 1 5 2 6 3 2 5 1 6 4 8
REMARK H PARENT 6 4 1 7 4 9
REMARK Flexibility Score: inf
ROOT
ATOM      1  C   UNL     1     162.902 177.658 187.435  1.00  0.00     0.165 C 
ENDROOT
BRANCH   1   2
ATOM      2  C   UNL     1     162.089 177.085 186.263  1.00  0.00     0.190 C 
BRANCH   2   3
ATOM      3  O   UNL     1     162.807 177.174 185.062  1.00  0.00    -0.394 OA
ATOM      4  H   UNL     1     162.189 177.563 184.389  1.00  0.00     0.210 HD
ENDBRANCH   2   3
ENDBRANCH   1   2
BRANCH   1   5
ATOM      5  C   UNL     1     164.414 177.588 187.170  1.00  0.00     0.190 C 
BRANCH   5   6
ATOM      6  O   UNL     1     164.822 178.665 186.373  1.00  0.00    -0.394 OA
ATOM      7  H   UNL     1     165.782 178.812 186.578  1.00  0.00     0.210 HD
ENDBRANCH   5   6
ENDBRANCH   1   5
BRANCH   1   8
ATOM      8  O   UNL     1     162.515 178.990 187.649  1.00  0.00    -0.388 OA
ATOM      9  H   UNL     1     163.276 179.559 187.360  1.00  0.00     0.211 HD
ENDBRANCH   1   8
TORSDOF 5
ENDMDL
MODEL 5
REMARK VINA RESULT:    -3.012     18.495     19.608
REMARK INTER + INTRA:          -3.631
REMARK INTER:                  -3.413
REMARK INTRA:                  -0.218
REMARK UNBOUND:                -0.002
REMARK SMILES OCC(O)CO
REMARK SMILES IDX 3 1 5 2 6 3 2 5 1 6 4 8
REMARK H PARENT 6 4 1 7 4 9
REMARK Flexibility Score: inf
ROOT
ATOM      1  C   UNL     1     175.248 178.244 187.469  1.00  0.00     0.165 C 
ENDROOT
BRANCH   1   2
ATOM      2  C   UNL     1     174.330 178.756 186.348  1.00  0.00     0.190 C 
BRANCH   2   3
ATOM      3  O   UNL     1     174.733 178.257 185.100  1.00  0.00    -0.394 OA
ATOM      4  H   UNL     1     174.084 178.602 184.432  1.00  0.00     0.210 HD
ENDBRANCH   2   3
ENDBRANCH   1   2
BRANCH   1   5
ATOM      5  C   UNL     1     175.693 176.793 187.226  1.00  0.00     0.190 C 
BRANCH   5   6
ATOM      6  O   UNL     1     176.795 176.756 186.363  1.00  0.00    -0.394 OA
ATOM      7  H   UNL     1     176.452 176.427 185.492  1.00  0.00     0.210 HD
ENDBRANCH   5   6
ENDBRANCH   1   5
BRANCH   1   8
ATOM      8  O   UNL     1     176.372 179.080 187.554  1.00  0.00    -0.388 OA
ATOM      9  H   UNL     1     176.767 178.939 188.454  1.00  0.00     0.211 HD
ENDBRANCH   1   8
TORSDOF 5
ENDMDL
MODEL 6
REMARK VINA RESULT:    -2.962     18.362     19.484
REMARK INTER + INTRA:          -3.571
REMARK INTER:                  -3.356
REMARK INTRA:                  -0.215
REMARK UNBOUND:                -0.002
REMARK SMILES OCC(O)CO
REMARK SMILES IDX 3 1 5 2 6 3 2 5 1 6 4 8
REMARK H PARENT 6 4 1 7 4 9
REMARK Flexibility Score: inf
ROOT
ATOM      1  C   UNL     1     174.653 177.906 186.569  1.00  0.00     0.165 C 
ENDROOT
BRANCH   1   2
ATOM      2  C   UNL     1     175.522 176.699 186.957  1.00  0.00     0.190 C 
BRANCH   2   3
ATOM      3  O   UNL     1     176.755 176.732 186.290  1.00  0.00    -0.394 OA
ATOM      4  H   UNL     1     176.564 176.564 185.330  1.00  0.00     0.210 HD
ENDBRANCH   2   3
ENDBRANCH   1   2
BRANCH   1   5
ATOM      5  C   UNL     1     175.013 179.157 187.386  1.00  0.00     0.190 C 
BRANCH   5   6
ATOM      6  O   UNL     1     176.375 179.153 187.712  1.00  0.00    -0.394 OA
ATOM      7  H   UNL     1     176.822 178.595 187.024  1.00  0.00     0.210 HD
ENDBRANCH   5   6
ENDBRANCH   1   5
BRANCH   1   8
ATOM      8  O   UNL     1     174.819 178.164 185.199  1.00  0.00    -0.388 OA
ATOM      9  H   UNL     1     175.153 179.096 185.122  1.00  0.00     0.211 HD
ENDBRANCH   1   8
TORSDOF 5
ENDMDL
MODEL 7
REMARK VINA RESULT:    -2.959     23.882     24.678
REMARK INTER + INTRA:          -3.567
REMARK INTER:                  -3.350
REMARK INTRA:                  -0.218
REMARK UNBOUND:                -0.002
REMARK SMILES OCC(O)CO
REMARK SMILES IDX 3 1 5 2 6 3 2 5 1 6 4 8
REMARK H PARENT 6 4 1 7 4 9
REMARK Flexibility Score: inf
ROOT
ATOM      1  C   UNL     1     163.088 176.994 186.550  1.00  0.00     0.165 C 
ENDROOT
BRANCH   1   2
ATOM      2  C   UNL     1     164.492 177.464 186.962  1.00  0.00     0.190 C 
BRANCH   2   3
ATOM      3  O   UNL     1     164.849 178.639 186.284  1.00  0.00    -0.394 OA
ATOM      4  H   UNL     1     164.013 179.161 186.161  1.00  0.00     0.210 HD
ENDBRANCH   2   3
ENDBRANCH   1   2
BRANCH   1   5
ATOM      5  C   UNL     1     161.987 177.718 187.341  1.00  0.00     0.190 C 
BRANCH   5   6
ATOM      6  O   UNL     1     162.424 178.988 187.737  1.00  0.00    -0.394 OA
ATOM      7  H   UNL     1     161.834 179.639 187.276  1.00  0.00     0.210 HD
ENDBRANCH   5   6
ENDBRANCH   1   5
BRANCH   1   8
ATOM      8  O   UNL     1     162.918 177.221 185.175  1.00  0.00    -0.388 OA
ATOM      9  H   UNL     1     162.657 176.352 184.771  1.00  0.00     0.211 HD
ENDBRANCH   1   8
TORSDOF 5
ENDMDL
MODEL 8
REMARK VINA RESULT:    -2.779      1.668      3.193
REMARK INTER + INTRA:          -3.350
REMARK INTER:                  -3.151
REMARK INTRA:                  -0.200
REMARK UNBOUND:                -0.002
REMARK SMILES OCC(O)CO
REMARK SMILES IDX 3 1 5 2 6 3 2 5 1 6 4 8
REMARK H PARENT 6 4 1 7 4 9
REMARK Flexibility Score: inf
ROOT
ATOM      1  C   UNL     1     178.919 161.669 174.161  1.00  0.00     0.165 C 
ENDROOT
BRANCH   1   2
ATOM      2  C   UNL     1     178.615 162.292 175.533  1.00  0.00     0.190 C 
BRANCH   2   3
ATOM      3  O   UNL     1     179.767 162.868 176.090  1.00  0.00    -0.394 OA
ATOM      4  H   UNL     1     179.556 163.824 176.253  1.00  0.00     0.210 HD
ENDBRANCH   2   3
ENDBRANCH   1   2
BRANCH   1   5
ATOM      5  C   UNL     1     179.771 160.396 174.287  1.00  0.00     0.190 C 
BRANCH   5   6
ATOM      6  O   UNL     1     180.125 160.174 175.624  1.00  0.00    -0.394 OA
ATOM      7  H   UNL     1     179.453 159.540 175.985  1.00  0.00     0.210 HD
ENDBRANCH   5   6
ENDBRANCH   1   5
BRANCH   1   8
ATOM      8  O   UNL     1     177.708 161.373 173.518  1.00  0.00    -0.388 OA
ATOM      9  H   UNL     1     177.936 160.853 172.702  1.00  0.00     0.211 HD
ENDBRANCH   1   8
TORSDOF 5
ENDMDL
