MODEL 1
REMARK VINA RESULT:    -4.099      0.000      0.000
REMARK INTER + INTRA:          -9.640
REMARK INTER:                  -7.694
REMARK INTRA:                  -1.946
REMARK UNBOUND:                -1.946
REMARK SMILES CCCCCCCCC=CCCCCCCCC(=O)[O-]
REMARK SMILES IDX 10 1 9 2 11 3 12 4 13 5 14 6 15 7 16 8 17 9 18 10 19 11
REMARK SMILES IDX 20 12 8 13 7 14 6 15 5 16 4 17 3 18 2 19 1 20
REMARK H PARENT
REMARK Flexibility Score: inf
ROOT
ATOM      1  C   UNL     1      -3.084  13.355 -15.481  1.00  0.00    -0.031 C 
ATOM      2  C   UNL     1      -4.250  13.043 -14.885  1.00  0.00    -0.031 C 
ENDROOT
BRANCH   1   3
ATOM      3  C   UNL     1      -2.890  14.490 -16.454  1.00  0.00     0.027 C 
BRANCH   3   4
ATOM      4  C   UNL     1      -2.750  13.968 -17.889  1.00  0.00     0.004 C 
BRANCH   4   5
ATOM      5  C   UNL     1      -1.915  14.932 -18.744  1.00  0.00     0.000 C 
BRANCH   5   6
ATOM      6  C   UNL     1      -1.050  15.877 -17.895  1.00  0.00     0.000 C 
BRANCH   6   7
ATOM      7  C   UNL     1       0.366  16.058 -18.469  1.00  0.00     0.000 C 
BRANCH   7   8
ATOM      8  C   UNL     1       0.578  17.434 -19.125  1.00  0.00     0.006 C 
BRANCH   8   9
ATOM      9  C   UNL     1      -0.488  18.477 -18.743  1.00  0.00     0.053 C 
BRANCH   9  10
ATOM     10  C   UNL     1       0.043  19.541 -17.833  1.00  0.00     0.041 C 
ATOM     11  O   UNL     1      -0.722  20.125 -17.021  1.00  0.00    -0.550 OA
ATOM     12  O   UNL     1       1.380  19.914 -17.905  1.00  0.00    -0.550 OA
ENDBRANCH   9  10
ENDBRANCH   8   9
ENDBRANCH   7   8
ENDBRANCH   6   7
ENDBRANCH   5   6
ENDBRANCH   4   5
ENDBRANCH   3   4
ENDBRANCH   1   3
BRANCH   2  13
ATOM     13  C   UNL     1      -5.567  13.741 -15.132  1.00  0.00     0.027 C 
BRANCH  13  14
ATOM     14  C   UNL     1      -6.519  12.863 -15.953  1.00  0.00     0.004 C 
BRANCH  14  15
ATOM     15  C   UNL     1      -6.204  12.914 -17.455  1.00  0.00     0.000 C 
BRANCH  15  16
ATOM     16  C   UNL     1      -5.904  11.514 -18.003  1.00  0.00     0.000 C 
BRANCH  16  17
ATOM     17  C   UNL     1      -5.703  10.509 -16.859  1.00  0.00    -0.000 C 
BRANCH  17  18
ATOM     18  C   UNL     1      -4.252  10.013 -16.756  1.00  0.00    -0.000 C 
BRANCH  18  19
ATOM     19  C   UNL     1      -3.467  10.209 -18.061  1.00  0.00    -0.003 C 
ATOM     20  C   UNL     1      -3.123   8.867 -18.701  1.00  0.00     0.004 C 
ENDBRANCH  18  19
ENDBRANCH  17  18
ENDBRANCH  16  17
ENDBRANCH  15  16
ENDBRANCH  14  15
ENDBRANCH  13  14
ENDBRANCH   2  13
TORSDOF 15
ENDMDL
MODEL 2
REMARK VINA RESULT:    -4.092      3.771      7.862
REMARK INTER + INTRA:          -9.626
REMARK INTER:                  -8.098
REMARK INTRA:                  -1.527
REMARK UNBOUND:                -1.946
REMARK SMILES CCCCCCCCC=CCCCCCCCC(=O)[O-]
REMARK SMILES IDX 10 1 9 2 11 3 12 4 13 5 14 6 15 7 16 8 17 9 18 10 19 11
REMARK SMILES IDX 20 12 8 13 7 14 6 15 5 16 4 17 3 18 2 19 1 20
REMARK H PARENT
REMARK Flexibility Score: inf
ROOT
ATOM      1  C   UNL     1      -2.908  13.734 -15.348  1.00  0.00    -0.031 C 
ATOM      2  C   UNL     1      -2.372  14.495 -16.320  1.00  0.00    -0.031 C 
ENDROOT
BRANCH   1   3
ATOM      3  C   UNL     1      -3.957  12.672 -15.564  1.00  0.00     0.027 C 
BRANCH   3   4
ATOM      4  C   UNL     1      -5.367  13.240 -15.360  1.00  0.00     0.004 C 
BRANCH   4   5
ATOM      5  C   UNL     1      -6.179  13.172 -16.661  1.00  0.00     0.000 C 
BRANCH   5   6
ATOM      6  C   UNL     1      -5.851  11.926 -17.498  1.00  0.00     0.000 C 
BRANCH   6   7
ATOM      7  C   UNL     1      -5.495  12.270 -18.955  1.00  0.00     0.000 C 
BRANCH   7   8
ATOM      8  C   UNL     1      -4.311  11.448 -19.496  1.00  0.00     0.006 C 
BRANCH   8   9
ATOM      9  C   UNL     1      -3.307  11.015 -18.413  1.00  0.00     0.053 C 
BRANCH   9  10
ATOM     10  C   UNL     1      -3.495   9.592 -17.986  1.00  0.00     0.041 C 
ATOM     11  O   UNL     1      -3.881   9.323 -16.818  1.00  0.00    -0.550 OA
ATOM     12  O   UNL     1      -3.213   8.557 -18.870  1.00  0.00    -0.550 OA
ENDBRANCH   9  10
ENDBRANCH   8   9
ENDBRANCH   7   8
ENDBRANCH   6   7
ENDBRANCH   5   6
ENDBRANCH   4   5
ENDBRANCH   3   4
ENDBRANCH   1   3
BRANCH   2  13
ATOM     13  C   UNL     1      -2.769  14.451 -17.777  1.00  0.00     0.027 C 
BRANCH  13  14
ATOM     14  C   UNL     1      -1.657  15.006 -18.676  1.00  0.00     0.004 C 
BRANCH  14  15
ATOM     15  C   UNL     1      -0.650  15.860 -17.891  1.00  0.00     0.000 C 
BRANCH  15  16
ATOM     16  C   UNL     1       0.657  16.028 -18.672  1.00  0.00     0.000 C 
BRANCH  16  17
ATOM     17  C   UNL     1       1.118  17.493 -18.665  1.00  0.00    -0.000 C 
BRANCH  17  18
ATOM     18  C   UNL     1       0.105  18.435 -19.335  1.00  0.00    -0.000 C 
BRANCH  18  19
ATOM     19  C   UNL     1       0.054  19.818 -18.669  1.00  0.00    -0.003 C 
ATOM     20  C   UNL     1      -1.254  20.012 -17.906  1.00  0.00     0.004 C 
ENDBRANCH  18  19
ENDBRANCH  17  18
ENDBRANCH  16  17
ENDBRANCH  15  16
ENDBRANCH  14  15
ENDBRANCH  13  14
ENDBRANCH   2  13
TORSDOF 15
ENDMDL
MODEL 3
REMARK VINA RESULT:    -3.975      1.515      2.058
REMARK INTER + INTRA:          -9.406
REMARK INTER:                  -7.894
REMARK INTRA:                  -1.513
REMARK UNBOUND:                -1.946
REMARK SMILES CCCCCCCCC=CCCCCCCCC(=O)[O-]
REMARK SMILES IDX 10 1 9 2 11 3 12 4 13 5 14 6 15 7 16 8 17 9 18 10 19 11
REMARK SMILES IDX 20 12 8 13 7 14 6 15 5 16 4 17 3 18 2 19 1 20
REMARK H PARENT
REMARK Flexibility Score: inf
ROOT
ATOM      1  C   UNL     1      -3.950  12.245 -15.315  1.00  0.00    -0.031 C 
ATOM      2  C   UNL     1      -5.234  11.858 -15.424  1.00  0.00    -0.031 C 
ENDROOT
BRANCH   1   3
ATOM      3  C   UNL     1      -3.471  13.673 -15.393  1.00  0.00     0.027 C 
BRANCH   3   4
ATOM      4  C   UNL     1      -3.075  14.045 -16.827  1.00  0.00     0.004 C 
BRANCH   4   5
ATOM      5  C   UNL     1      -1.860  14.984 -16.833  1.00  0.00     0.000 C 
BRANCH   5   6
ATOM      6  C   UNL     1      -1.487  15.458 -18.247  1.00  0.00     0.000 C 
BRANCH   6   7
ATOM      7  C   UNL     1      -0.223  16.334 -18.263  1.00  0.00     0.000 C 
BRANCH   7   8
ATOM      8  C   UNL     1      -0.515  17.806 -18.609  1.00  0.00     0.006 C 
BRANCH   8   9
ATOM      9  C   UNL     1       0.748  18.669 -18.776  1.00  0.00     0.053 C 
BRANCH   9  10
ATOM     10  C   UNL     1       1.155  18.827 -20.208  1.00  0.00     0.041 C 
ATOM     11  O   UNL     1       1.621  17.849 -20.850  1.00  0.00    -0.550 OA
ATOM     12  O   UNL     1       1.051  20.067 -20.828  1.00  0.00    -0.550 OA
ENDBRANCH   9  10
ENDBRANCH   8   9
ENDBRANCH   7   8
ENDBRANCH   6   7
ENDBRANCH   5   6
ENDBRANCH   4   5
ENDBRANCH   3   4
ENDBRANCH   1   3
BRANCH   2  13
ATOM     13  C   UNL     1      -6.401  12.779 -15.695  1.00  0.00     0.027 C 
BRANCH  13  14
ATOM     14  C   UNL     1      -6.569  13.040 -17.197  1.00  0.00     0.004 C 
BRANCH  14  15
ATOM     15  C   UNL     1      -6.108  11.847 -18.047  1.00  0.00     0.000 C 
BRANCH  15  16
ATOM     16  C   UNL     1      -5.563  12.314 -19.402  1.00  0.00     0.000 C 
BRANCH  16  17
ATOM     17  C   UNL     1      -4.255  11.586 -19.748  1.00  0.00    -0.000 C 
BRANCH  17  18
ATOM     18  C   UNL     1      -3.401  11.282 -18.508  1.00  0.00    -0.000 C 
BRANCH  18  19
ATOM     19  C   UNL     1      -2.930   9.821 -18.459  1.00  0.00    -0.003 C 
ATOM     20  C   UNL     1      -3.600   9.066 -17.313  1.00  0.00     0.004 C 
ENDBRANCH  18  19
ENDBRANCH  17  18
ENDBRANCH  16  17
ENDBRANCH  15  16
ENDBRANCH  14  15
ENDBRANCH  13  14
ENDBRANCH   2  13
TORSDOF 15
ENDMDL
MODEL 4
REMARK VINA RESULT:    -3.967      1.392      2.737
REMARK INTER + INTRA:          -9.391
REMARK INTER:                  -7.414
REMARK INTRA:                  -1.977
REMARK UNBOUND:                -1.946
REMARK SMILES CCCCCCCCC=CCCCCCCCC(=O)[O-]
REMARK SMILES IDX 10 1 9 2 11 3 12 4 13 5 14 6 15 7 16 8 17 9 18 10 19 11
REMARK SMILES IDX 20 12 8 13 7 14 6 15 5 16 4 17 3 18 2 19 1 20
REMARK H PARENT
REMARK Flexibility Score: inf
ROOT
ATOM      1  C   UNL     1      -4.698  13.638 -15.744  1.00  0.00    -0.031 C 
ATOM      2  C   UNL     1      -5.622  12.660 -15.700  1.00  0.00    -0.031 C 
ENDROOT
BRANCH   1   3
ATOM      3  C   UNL     1      -3.217  13.433 -15.546  1.00  0.00     0.027 C 
BRANCH   3   4
ATOM      4  C   UNL     1      -2.408  14.503 -16.288  1.00  0.00     0.004 C 
BRANCH   4   5
ATOM      5  C   UNL     1      -2.777  14.534 -17.778  1.00  0.00     0.000 C 
BRANCH   5   6
ATOM      6  C   UNL     1      -1.598  14.951 -18.671  1.00  0.00     0.000 C 
BRANCH   6   7
ATOM      7  C   UNL     1      -0.666  15.964 -17.983  1.00  0.00     0.000 C 
BRANCH   7   8
ATOM      8  C   UNL     1       0.684  16.126 -18.705  1.00  0.00     0.006 C 
BRANCH   8   9
ATOM      9  C   UNL     1       1.328  17.512 -18.519  1.00  0.00     0.053 C 
BRANCH   9  10
ATOM     10  C   UNL     1       0.874  18.503 -19.547  1.00  0.00     0.041 C 
ATOM     11  O   UNL     1       1.354  18.477 -20.711  1.00  0.00    -0.550 OA
ATOM     12  O   UNL     1      -0.056  19.478 -19.210  1.00  0.00    -0.550 OA
ENDBRANCH   9  10
ENDBRANCH   8   9
ENDBRANCH   7   8
ENDBRANCH   6   7
ENDBRANCH   5   6
ENDBRANCH   4   5
ENDBRANCH   3   4
ENDBRANCH   1   3
BRANCH   2  13
ATOM     13  C   UNL     1      -5.339  11.209 -15.391  1.00  0.00     0.027 C 
BRANCH  13  14
ATOM     14  C   UNL     1      -5.271  10.368 -16.672  1.00  0.00     0.004 C 
BRANCH  14  15
ATOM     15  C   UNL     1      -3.879   9.759 -16.892  1.00  0.00     0.000 C 
BRANCH  15  16
ATOM     16  C   UNL     1      -3.404   9.976 -18.333  1.00  0.00     0.000 C 
BRANCH  16  17
ATOM     17  C   UNL     1      -3.447  11.466 -18.706  1.00  0.00    -0.000 C 
BRANCH  17  18
ATOM     18  C   UNL     1      -4.401  11.755 -19.875  1.00  0.00    -0.000 C 
BRANCH  18  19
ATOM     19  C   UNL     1      -5.629  12.572 -19.447  1.00  0.00    -0.003 C 
ATOM     20  C   UNL     1      -6.919  11.925 -19.943  1.00  0.00     0.004 C 
ENDBRANCH  18  19
ENDBRANCH  17  18
ENDBRANCH  16  17
ENDBRANCH  15  16
ENDBRANCH  14  15
ENDBRANCH  13  14
ENDBRANCH   2  13
TORSDOF 15
ENDMDL
MODEL 5
REMARK VINA RESULT:    -3.900      3.380      8.426
REMARK INTER + INTRA:          -9.266
REMARK INTER:                  -7.871
REMARK INTRA:                  -1.395
REMARK UNBOUND:                -1.946
REMARK SMILES CCCCCCCCC=CCCCCCCCC(=O)[O-]
REMARK SMILES IDX 10 1 9 2 11 3 12 4 13 5 14 6 15 7 16 8 17 9 18 10 19 11
REMARK SMILES IDX 20 12 8 13 7 14 6 15 5 16 4 17 3 18 2 19 1 20
REMARK H PARENT
REMARK Flexibility Score: inf
ROOT
ATOM      1  C   UNL     1      -2.401  14.526 -17.620  1.00  0.00    -0.031 C 
ATOM      2  C   UNL     1      -1.613  15.246 -18.441  1.00  0.00    -0.031 C 
ENDROOT
BRANCH   1   3
ATOM      3  C   UNL     1      -2.283  14.501 -16.117  1.00  0.00     0.027 C 
BRANCH   3   4
ATOM      4  C   UNL     1      -3.288  13.518 -15.502  1.00  0.00     0.004 C 
BRANCH   4   5
ATOM      5  C   UNL     1      -4.695  13.745 -16.071  1.00  0.00     0.000 C 
BRANCH   5   6
ATOM      6  C   UNL     1      -5.781  13.002 -15.277  1.00  0.00     0.000 C 
BRANCH   6   7
ATOM      7  C   UNL     1      -6.519  11.952 -16.125  1.00  0.00     0.000 C 
BRANCH   7   8
ATOM      8  C   UNL     1      -5.686  11.447 -17.317  1.00  0.00     0.006 C 
BRANCH   8   9
ATOM      9  C   UNL     1      -4.655  10.367 -16.944  1.00  0.00     0.053 C 
BRANCH   9  10
ATOM     10  C   UNL     1      -3.495  10.324 -17.890  1.00  0.00     0.041 C 
ATOM     11  O   UNL     1      -2.706   9.343 -17.887  1.00  0.00    -0.550 OA
ATOM     12  O   UNL     1      -3.264  11.387 -18.756  1.00  0.00    -0.550 OA
ENDBRANCH   9  10
ENDBRANCH   8   9
ENDBRANCH   7   8
ENDBRANCH   6   7
ENDBRANCH   5   6
ENDBRANCH   4   5
ENDBRANCH   3   4
ENDBRANCH   1   3
BRANCH   2  13
ATOM     13  C   UNL     1      -0.450  16.103 -17.999  1.00  0.00     0.027 C 
BRANCH  13  14
ATOM     14  C   UNL     1       0.834  15.733 -18.752  1.00  0.00     0.004 C 
BRANCH  14  15
ATOM     15  C   UNL     1       1.781  16.932 -18.905  1.00  0.00     0.000 C 
BRANCH  15  16
ATOM     16  C   UNL     1       1.797  17.440 -20.351  1.00  0.00     0.000 C 
BRANCH  16  17
ATOM     17  C   UNL     1       1.389  18.919 -20.418  1.00  0.00    -0.000 C 
BRANCH  17  18
ATOM     18  C   UNL     1       0.928  19.468 -19.059  1.00  0.00    -0.000 C 
BRANCH  18  19
ATOM     19  C   UNL     1      -0.458  20.125 -19.127  1.00  0.00    -0.003 C 
ATOM     20  C   UNL     1      -1.258  19.851 -17.855  1.00  0.00     0.004 C 
ENDBRANCH  18  19
ENDBRANCH  17  18
ENDBRANCH  16  17
ENDBRANCH  15  16
ENDBRANCH  14  15
ENDBRANCH  13  14
ENDBRANCH   2  13
TORSDOF 15
ENDMDL
MODEL 6
REMARK VINA RESULT:    -3.864      2.913      7.998
REMARK INTER + INTRA:          -9.198
REMARK INTER:                  -8.330
REMARK INTRA:                  -0.869
REMARK UNBOUND:                -1.946
REMARK SMILES CCCCCCCCC=CCCCCCCCC(=O)[O-]
REMARK SMILES IDX 10 1 9 2 11 3 12 4 13 5 14 6 15 7 16 8 17 9 18 10 19 11
REMARK SMILES IDX 20 12 8 13 7 14 6 15 5 16 4 17 3 18 2 19 1 20
REMARK H PARENT
REMARK Flexibility Score: inf
ROOT
ATOM      1  C   UNL     1      -3.170  13.482 -17.842  1.00  0.00    -0.031 C 
ATOM      2  C   UNL     1      -2.318  14.496 -17.598  1.00  0.00    -0.031 C 
ENDROOT
BRANCH   1   3
ATOM      3  C   UNL     1      -3.465  12.914 -19.208  1.00  0.00     0.027 C 
BRANCH   3   4
ATOM      4  C   UNL     1      -3.927  11.455 -19.110  1.00  0.00     0.004 C 
BRANCH   4   5
ATOM      5  C   UNL     1      -3.149  10.706 -18.019  1.00  0.00     0.000 C 
BRANCH   5   6
ATOM      6  C   UNL     1      -4.062   9.860 -17.118  1.00  0.00     0.000 C 
BRANCH   6   7
ATOM      7  C   UNL     1      -4.835  10.711 -16.095  1.00  0.00     0.000 C 
BRANCH   7   8
ATOM      8  C   UNL     1      -6.207  11.177 -16.614  1.00  0.00     0.006 C 
BRANCH   8   9
ATOM      9  C   UNL     1      -6.469  12.681 -16.421  1.00  0.00     0.053 C 
BRANCH   9  10
ATOM     10  C   UNL     1      -5.876  13.212 -15.152  1.00  0.00     0.041 C 
ATOM     11  O   UNL     1      -6.612  13.472 -14.165  1.00  0.00    -0.550 OA
ATOM     12  O   UNL     1      -4.509  13.453 -15.071  1.00  0.00    -0.550 OA
ENDBRANCH   9  10
ENDBRANCH   8   9
ENDBRANCH   7   8
ENDBRANCH   6   7
ENDBRANCH   5   6
ENDBRANCH   4   5
ENDBRANCH   3   4
ENDBRANCH   1   3
BRANCH   2  13
ATOM     13  C   UNL     1      -1.561  15.267 -18.653  1.00  0.00     0.027 C 
BRANCH  13  14
ATOM     14  C   UNL     1      -0.453  16.125 -18.030  1.00  0.00     0.004 C 
BRANCH  14  15
ATOM     15  C   UNL     1       0.882  15.977 -18.775  1.00  0.00     0.000 C 
BRANCH  15  16
ATOM     16  C   UNL     1       1.313  17.308 -19.402  1.00  0.00     0.000 C 
BRANCH  16  17
ATOM     17  C   UNL     1       0.287  18.412 -19.105  1.00  0.00    -0.000 C 
BRANCH  17  18
ATOM     18  C   UNL     1       0.875  19.553 -18.259  1.00  0.00    -0.000 C 
BRANCH  18  19
ATOM     19  C   UNL     1      -0.136  20.123 -17.253  1.00  0.00    -0.003 C 
ATOM     20  C   UNL     1      -1.551  20.103 -17.826  1.00  0.00     0.004 C 
ENDBRANCH  18  19
ENDBRANCH  17  18
ENDBRANCH  16  17
ENDBRANCH  15  16
ENDBRANCH  14  15
ENDBRANCH  13  14
ENDBRANCH   2  13
TORSDOF 15
ENDMDL
MODEL 7
REMARK VINA RESULT:    -3.811      1.093      3.087
REMARK INTER + INTRA:          -9.099
REMARK INTER:                  -7.123
REMARK INTRA:                  -1.976
REMARK UNBOUND:                -1.946
REMARK SMILES CCCCCCCCC=CCCCCCCCC(=O)[O-]
REMARK SMILES IDX 10 1 9 2 11 3 12 4 13 5 14 6 15 7 16 8 17 9 18 10 19 11
REMARK SMILES IDX 20 12 8 13 7 14 6 15 5 16 4 17 3 18 2 19 1 20
REMARK H PARENT
REMARK Flexibility Score: inf
ROOT
ATOM      1  C   UNL     1      -3.579  13.321 -19.080  1.00  0.00    -0.031 C 
ATOM      2  C   UNL     1      -3.960  12.033 -19.164  1.00  0.00    -0.031 C 
ENDROOT
BRANCH   1   3
ATOM      3  C   UNL     1      -2.320  13.805 -18.407  1.00  0.00     0.027 C 
BRANCH   3   4
ATOM      4  C   UNL     1      -1.996  15.248 -18.815  1.00  0.00     0.004 C 
BRANCH   4   5
ATOM      5  C   UNL     1      -0.805  15.791 -18.012  1.00  0.00     0.000 C 
BRANCH   5   6
ATOM      6  C   UNL     1       0.518  15.707 -18.789  1.00  0.00     0.000 C 
BRANCH   6   7
ATOM      7  C   UNL     1       1.322  17.018 -18.729  1.00  0.00     0.000 C 
BRANCH   7   8
ATOM      8  C   UNL     1       1.086  17.924 -19.952  1.00  0.00     0.006 C 
BRANCH   8   9
ATOM      9  C   UNL     1       0.973  19.420 -19.606  1.00  0.00     0.053 C 
BRANCH   9  10
ATOM     10  C   UNL     1       0.131  19.671 -18.393  1.00  0.00     0.041 C 
ATOM     11  O   UNL     1       0.650  20.125 -17.340  1.00  0.00    -0.550 OA
ATOM     12  O   UNL     1      -1.226  19.372 -18.415  1.00  0.00    -0.550 OA
ENDBRANCH   9  10
ENDBRANCH   8   9
ENDBRANCH   7   8
ENDBRANCH   6   7
ENDBRANCH   5   6
ENDBRANCH   4   5
ENDBRANCH   3   4
ENDBRANCH   1   3
BRANCH   2  13
ATOM     13  C   UNL     1      -3.220  10.866 -18.551  1.00  0.00     0.027 C 
BRANCH  13  14
ATOM     14  C   UNL     1      -4.066  10.169 -17.479  1.00  0.00     0.004 C 
BRANCH  14  15
ATOM     15  C   UNL     1      -5.470  10.781 -17.361  1.00  0.00     0.000 C 
BRANCH  15  16
ATOM     16  C   UNL     1      -5.689  11.394 -15.974  1.00  0.00     0.000 C 
BRANCH  16  17
ATOM     17  C   UNL     1      -6.007  12.893 -16.081  1.00  0.00    -0.000 C 
BRANCH  17  18
ATOM     18  C   UNL     1      -4.794  13.780 -15.759  1.00  0.00    -0.000 C 
BRANCH  18  19
ATOM     19  C   UNL     1      -3.674  13.011 -15.043  1.00  0.00    -0.003 C 
ATOM     20  C   UNL     1      -2.386  13.830 -15.003  1.00  0.00     0.004 C 
ENDBRANCH  18  19
ENDBRANCH  17  18
ENDBRANCH  16  17
ENDBRANCH  15  16
ENDBRANCH  14  15
ENDBRANCH  13  14
ENDBRANCH   2  13
TORSDOF 15
ENDMDL
MODEL 8
REMARK VINA RESULT:    -3.700      3.389      7.660
REMARK INTER + INTRA:          -8.890
REMARK INTER:                  -7.485
REMARK INTRA:                  -1.405
REMARK UNBOUND:                -1.946
REMARK SMILES CCCCCCCCC=CCCCCCCCC(=O)[O-]
REMARK SMILES IDX 10 1 9 2 11 3 12 4 13 5 14 6 15 7 16 8 17 9 18 10 19 11
REMARK SMILES IDX 20 12 8 13 7 14 6 15 5 16 4 17 3 18 2 19 1 20
REMARK H PARENT
REMARK Flexibility Score: inf
ROOT
ATOM      1  C   UNL     1      -3.188  13.823 -15.507  1.00  0.00    -0.031 C 
ATOM      2  C   UNL     1      -2.386  14.342 -16.455  1.00  0.00    -0.031 C 
ENDROOT
BRANCH   1   3
ATOM      3  C   UNL     1      -4.586  13.311 -15.747  1.00  0.00     0.027 C 
BRANCH   3   4
ATOM      4  C   UNL     1      -4.775  11.918 -15.135  1.00  0.00     0.004 C 
BRANCH   4   5
ATOM      5  C   UNL     1      -5.348  10.938 -16.169  1.00  0.00     0.000 C 
BRANCH   5   6
ATOM      6  C   UNL     1      -4.274  10.013 -16.764  1.00  0.00     0.000 C 
BRANCH   6   7
ATOM      7  C   UNL     1      -3.357  10.739 -17.765  1.00  0.00     0.000 C 
BRANCH   7   8
ATOM      8  C   UNL     1      -3.972  10.853 -19.171  1.00  0.00     0.006 C 
BRANCH   8   9
ATOM      9  C   UNL     1      -4.478  12.265 -19.518  1.00  0.00     0.053 C 
BRANCH   9  10
ATOM     10  C   UNL     1      -5.972  12.369 -19.483  1.00  0.00     0.041 C 
ATOM     11  O   UNL     1      -6.561  12.722 -18.428  1.00  0.00    -0.550 OA
ATOM     12  O   UNL     1      -6.718  12.042 -20.609  1.00  0.00    -0.550 OA
ENDBRANCH   9  10
ENDBRANCH   8   9
ENDBRANCH   7   8
ENDBRANCH   6   7
ENDBRANCH   5   6
ENDBRANCH   4   5
ENDBRANCH   3   4
ENDBRANCH   1   3
BRANCH   2  13
ATOM     13  C   UNL     1      -2.769  14.548 -17.902  1.00  0.00     0.027 C 
BRANCH  13  14
ATOM     14  C   UNL     1      -1.563  14.981 -18.743  1.00  0.00     0.004 C 
BRANCH  14  15
ATOM     15  C   UNL     1      -0.620  15.912 -17.967  1.00  0.00     0.000 C 
BRANCH  15  16
ATOM     16  C   UNL     1       0.727  16.054 -18.684  1.00  0.00     0.000 C 
BRANCH  16  17
ATOM     17  C   UNL     1       1.239  17.500 -18.610  1.00  0.00    -0.000 C 
BRANCH  17  18
ATOM     18  C   UNL     1       0.924  18.305 -19.881  1.00  0.00    -0.000 C 
BRANCH  18  19
ATOM     19  C   UNL     1       0.234  19.643 -19.576  1.00  0.00    -0.003 C 
ATOM     20  C   UNL     1      -0.821  19.479 -18.485  1.00  0.00     0.004 C 
ENDBRANCH  18  19
ENDBRANCH  17  18
ENDBRANCH  16  17
ENDBRANCH  15  16
ENDBRANCH  14  15
ENDBRANCH  13  14
ENDBRANCH   2  13
TORSDOF 15
ENDMDL
