MODEL 1
REMARK VINA RESULT:    -7.658      0.000      0.000
REMARK INTER + INTRA:          -8.389
REMARK INTER:                  -8.106
REMARK INTRA:                  -0.283
REMARK UNBOUND:                -0.283
REMARK SMILES C=C1CC[C@@H](C(C)C)[C@@H]2C=C(C)CC[C@@H]12
REMARK SMILES IDX 12 1 11 2 10 3 9 4 15 5 14 6 13 7 2 8 1 9 3 10 4 11 5 12
REMARK SMILES IDX 6 13 7 14 8 15
REMARK H PARENT
REMARK Flexibility Score: inf
ROOT
ATOM      1  C   UNL     1      -5.510 -13.042   6.342  1.00  0.00     0.039 C 
ATOM      2  C   UNL     1      -4.821 -14.260   6.893  1.00  0.00    -0.077 C 
ATOM      3  C   UNL     1      -4.293 -14.236   8.131  1.00  0.00    -0.024 C 
ATOM      4  C   UNL     1      -3.643 -15.492   8.677  1.00  0.00     0.022 C 
ATOM      5  C   UNL     1      -4.610 -16.684   8.437  1.00  0.00     0.022 C 
ATOM      6  C   UNL     1      -5.241 -16.721   7.004  1.00  0.00     0.013 C 
ATOM      7  C   UNL     1      -4.777 -15.555   6.113  1.00  0.00     0.031 C 
ATOM      8  C   UNL     1      -3.902 -17.941   8.903  1.00  0.00    -0.074 C 
ATOM      9  C   UNL     1      -3.227 -18.766   8.080  1.00  0.00     0.008 C 
ATOM     10  C   UNL     1      -3.597 -17.954  10.376  1.00  0.00     0.031 C 
ATOM     11  C   UNL     1      -2.677 -16.764  10.698  1.00  0.00     0.009 C 
ATOM     12  C   UNL     1      -3.248 -15.400  10.193  1.00  0.00    -0.001 C 
ENDROOT
BRANCH  12  13
ATOM     13  C   UNL     1      -2.286 -14.203  10.517  1.00  0.00    -0.014 C 
ATOM     14  C   UNL     1      -2.068 -14.031  12.029  1.00  0.00     0.007 C 
ATOM     15  C   UNL     1      -0.928 -14.270   9.796  1.00  0.00     0.007 C 
ENDBRANCH  12  13
TORSDOF 1
ENDMDL
MODEL 2
REMARK VINA RESULT:    -7.572      1.055      4.155
REMARK INTER + INTRA:          -8.297
REMARK INTER:                  -8.426
REMARK INTRA:                   0.128
REMARK UNBOUND:                -0.283
REMARK SMILES C=C1CC[C@@H](C(C)C)[C@@H]2C=C(C)CC[C@@H]12
REMARK SMILES IDX 12 1 11 2 10 3 9 4 15 5 14 6 13 7 2 8 1 9 3 10 4 11 5 12
REMARK SMILES IDX 6 13 7 14 8 15
REMARK H PARENT
REMARK Flexibility Score: inf
ROOT
ATOM      1  C   UNL     1      -1.251 -12.441  10.316  1.00  0.00     0.039 C 
ATOM      2  C   UNL     1      -2.071 -13.693  10.163  1.00  0.00    -0.077 C 
ATOM      3  C   UNL     1      -2.491 -14.082   8.945  1.00  0.00    -0.024 C 
ATOM      4  C   UNL     1      -3.277 -15.371   8.815  1.00  0.00     0.022 C 
ATOM      5  C   UNL     1      -2.523 -16.482   9.596  1.00  0.00     0.022 C 
ATOM      6  C   UNL     1      -2.019 -16.043  11.013  1.00  0.00     0.013 C 
ATOM      7  C   UNL     1      -2.369 -14.583  11.349  1.00  0.00     0.031 C 
ATOM      8  C   UNL     1      -3.374 -17.735   9.534  1.00  0.00    -0.074 C 
ATOM      9  C   UNL     1      -4.227 -18.106  10.506  1.00  0.00     0.008 C 
ATOM     10  C   UNL     1      -3.562 -18.271   8.141  1.00  0.00     0.031 C 
ATOM     11  C   UNL     1      -4.263 -17.198   7.292  1.00  0.00     0.009 C 
ATOM     12  C   UNL     1      -3.535 -15.816   7.333  1.00  0.00    -0.001 C 
ENDROOT
BRANCH  12  13
ATOM     13  C   UNL     1      -4.278 -14.733   6.474  1.00  0.00    -0.014 C 
ATOM     14  C   UNL     1      -5.213 -15.366   5.431  1.00  0.00     0.007 C 
ATOM     15  C   UNL     1      -5.045 -13.687   7.302  1.00  0.00     0.007 C 
ENDBRANCH  12  13
TORSDOF 1
ENDMDL
MODEL 3
REMARK VINA RESULT:    -6.973      1.606      3.975
REMARK INTER + INTRA:          -7.664
REMARK INTER:                  -7.409
REMARK INTRA:                  -0.255
REMARK UNBOUND:                -0.283
REMARK SMILES C=C1CC[C@@H](C(C)C)[C@@H]2C=C(C)CC[C@@H]12
REMARK SMILES IDX 12 1 11 2 10 3 9 4 15 5 14 6 13 7 2 8 1 9 3 10 4 11 5 12
REMARK SMILES IDX 6 13 7 14 8 15
REMARK H PARENT
REMARK Flexibility Score: inf
ROOT
ATOM      1  C   UNL     1      -3.119 -19.124   7.980  1.00  0.00     0.039 C 
ATOM      2  C   UNL     1      -3.188 -17.671   8.363  1.00  0.00    -0.077 C 
ATOM      3  C   UNL     1      -2.739 -17.267   9.565  1.00  0.00    -0.024 C 
ATOM      4  C   UNL     1      -2.779 -15.790   9.906  1.00  0.00     0.022 C 
ATOM      5  C   UNL     1      -2.169 -14.999   8.717  1.00  0.00     0.022 C 
ATOM      6  C   UNL     1      -2.674 -15.464   7.309  1.00  0.00     0.013 C 
ATOM      7  C   UNL     1      -3.679 -16.627   7.385  1.00  0.00     0.031 C 
ATOM      8  C   UNL     1      -2.307 -13.524   9.038  1.00  0.00    -0.074 C 
ATOM      9  C   UNL     1      -3.316 -12.754   8.588  1.00  0.00     0.008 C 
ATOM     10  C   UNL     1      -1.533 -13.093  10.254  1.00  0.00     0.031 C 
ATOM     11  C   UNL     1      -2.053 -13.877  11.470  1.00  0.00     0.009 C 
ATOM     12  C   UNL     1      -2.048 -15.423  11.245  1.00  0.00    -0.001 C 
ENDROOT
BRANCH  12  13
ATOM     13  C   UNL     1      -2.599 -16.201  12.492  1.00  0.00    -0.014 C 
ATOM     14  C   UNL     1      -1.560 -17.179  13.067  1.00  0.00     0.007 C 
ATOM     15  C   UNL     1      -3.144 -15.297  13.612  1.00  0.00     0.007 C 
ENDBRANCH  12  13
TORSDOF 1
ENDMDL
MODEL 4
REMARK VINA RESULT:    -6.701      1.388      4.435
REMARK INTER + INTRA:          -7.376
REMARK INTER:                  -7.093
REMARK INTRA:                  -0.283
REMARK UNBOUND:                -0.283
REMARK SMILES C=C1CC[C@@H](C(C)C)[C@@H]2C=C(C)CC[C@@H]12
REMARK SMILES IDX 12 1 11 2 10 3 9 4 15 5 14 6 13 7 2 8 1 9 3 10 4 11 5 12
REMARK SMILES IDX 6 13 7 14 8 15
REMARK H PARENT
REMARK Flexibility Score: inf
ROOT
ATOM      1  C   UNL     1       0.362 -14.640   9.134  1.00  0.00     0.039 C 
ATOM      2  C   UNL     1      -1.071 -14.903   9.506  1.00  0.00    -0.077 C 
ATOM      3  C   UNL     1      -1.989 -15.125   8.548  1.00  0.00    -0.024 C 
ATOM      4  C   UNL     1      -3.417 -15.432   8.954  1.00  0.00     0.022 C 
ATOM      5  C   UNL     1      -3.386 -16.531  10.051  1.00  0.00     0.022 C 
ATOM      6  C   UNL     1      -2.315 -16.293  11.170  1.00  0.00     0.013 C 
ATOM      7  C   UNL     1      -1.497 -15.008  10.954  1.00  0.00     0.031 C 
ATOM      8  C   UNL     1      -4.813 -16.753  10.509  1.00  0.00    -0.074 C 
ATOM      9  C   UNL     1      -5.347 -16.165  11.596  1.00  0.00     0.008 C 
ATOM     10  C   UNL     1      -5.721 -17.278   9.431  1.00  0.00     0.031 C 
ATOM     11  C   UNL     1      -5.762 -16.256   8.282  1.00  0.00     0.009 C 
ATOM     12  C   UNL     1      -4.341 -15.866   7.763  1.00  0.00    -0.001 C 
ENDROOT
BRANCH  12  13
ATOM     13  C   UNL     1      -4.406 -14.811   6.604  1.00  0.00    -0.014 C 
ATOM     14  C   UNL     1      -5.163 -15.347   5.377  1.00  0.00     0.007 C 
ATOM     15  C   UNL     1      -4.984 -13.447   7.022  1.00  0.00     0.007 C 
ENDBRANCH  12  13
TORSDOF 1
ENDMDL
MODEL 5
REMARK VINA RESULT:    -6.297      1.871      3.372
REMARK INTER + INTRA:          -6.948
REMARK INTER:                  -7.048
REMARK INTRA:                   0.100
REMARK UNBOUND:                -0.283
REMARK SMILES C=C1CC[C@@H](C(C)C)[C@@H]2C=C(C)CC[C@@H]12
REMARK SMILES IDX 12 1 11 2 10 3 9 4 15 5 14 6 13 7 2 8 1 9 3 10 4 11 5 12
REMARK SMILES IDX 6 13 7 14 8 15
REMARK H PARENT
REMARK Flexibility Score: inf
ROOT
ATOM      1  C   UNL     1       0.465 -13.633   9.471  1.00  0.00     0.039 C 
ATOM      2  C   UNL     1      -0.638 -14.651   9.375  1.00  0.00    -0.077 C 
ATOM      3  C   UNL     1      -1.532 -14.774  10.373  1.00  0.00    -0.024 C 
ATOM      4  C   UNL     1      -2.660 -15.778  10.230  1.00  0.00     0.022 C 
ATOM      5  C   UNL     1      -3.310 -15.583   8.833  1.00  0.00     0.022 C 
ATOM      6  C   UNL     1      -2.283 -15.428   7.661  1.00  0.00     0.013 C 
ATOM      7  C   UNL     1      -0.819 -15.495   8.133  1.00  0.00     0.031 C 
ATOM      8  C   UNL     1      -4.369 -16.657   8.674  1.00  0.00    -0.074 C 
ATOM      9  C   UNL     1      -4.158 -17.823   8.035  1.00  0.00     0.008 C 
ATOM     10  C   UNL     1      -5.494 -16.550   9.666  1.00  0.00     0.031 C 
ATOM     11  C   UNL     1      -4.914 -16.685  11.084  1.00  0.00     0.009 C 
ATOM     12  C   UNL     1      -3.744 -15.687  11.360  1.00  0.00    -0.001 C 
ENDROOT
BRANCH  12  13
ATOM     13  C   UNL     1      -3.156 -15.854  12.806  1.00  0.00    -0.014 C 
ATOM     14  C   UNL     1      -1.973 -16.836  12.838  1.00  0.00     0.007 C 
ATOM     15  C   UNL     1      -2.758 -14.532  13.484  1.00  0.00     0.007 C 
ENDBRANCH  12  13
TORSDOF 1
ENDMDL
MODEL 6
REMARK VINA RESULT:    -5.796      1.677      2.688
REMARK INTER + INTRA:          -6.418
REMARK INTER:                  -6.239
REMARK INTRA:                  -0.180
REMARK UNBOUND:                -0.283
REMARK SMILES C=C1CC[C@@H](C(C)C)[C@@H]2C=C(C)CC[C@@H]12
REMARK SMILES IDX 12 1 11 2 10 3 9 4 15 5 14 6 13 7 2 8 1 9 3 10 4 11 5 12
REMARK SMILES IDX 6 13 7 14 8 15
REMARK H PARENT
REMARK Flexibility Score: inf
ROOT
ATOM      1  C   UNL     1      -2.348 -12.644   9.170  1.00  0.00     0.039 C 
ATOM      2  C   UNL     1      -2.411 -14.145   9.110  1.00  0.00    -0.077 C 
ATOM      3  C   UNL     1      -2.478 -14.865  10.244  1.00  0.00    -0.024 C 
ATOM      4  C   UNL     1      -2.587 -16.375  10.152  1.00  0.00     0.022 C 
ATOM      5  C   UNL     1      -3.704 -16.721   9.129  1.00  0.00     0.022 C 
ATOM      6  C   UNL     1      -3.647 -15.884   7.806  1.00  0.00     0.013 C 
ATOM      7  C   UNL     1      -2.487 -14.872   7.785  1.00  0.00     0.031 C 
ATOM      8  C   UNL     1      -3.729 -18.229   8.981  1.00  0.00    -0.074 C 
ATOM      9  C   UNL     1      -3.096 -18.893   7.996  1.00  0.00     0.008 C 
ATOM     10  C   UNL     1      -4.095 -18.956  10.247  1.00  0.00     0.031 C 
ATOM     11  C   UNL     1      -3.053 -18.619  11.326  1.00  0.00     0.009 C 
ATOM     12  C   UNL     1      -2.859 -17.081  11.526  1.00  0.00    -0.001 C 
ENDROOT
BRANCH  12  13
ATOM     13  C   UNL     1      -1.779 -16.762  12.619  1.00  0.00    -0.014 C 
ATOM     14  C   UNL     1      -2.277 -15.722  13.636  1.00  0.00     0.007 C 
ATOM     15  C   UNL     1      -1.239 -18.000  13.356  1.00  0.00     0.007 C 
ENDBRANCH  12  13
TORSDOF 1
ENDMDL
MODEL 7
REMARK VINA RESULT:    -5.632      1.964      5.053
REMARK INTER + INTRA:          -6.244
REMARK INTER:                  -6.773
REMARK INTRA:                   0.529
REMARK UNBOUND:                -0.283
REMARK SMILES C=C1CC[C@@H](C(C)C)[C@@H]2C=C(C)CC[C@@H]12
REMARK SMILES IDX 12 1 11 2 10 3 9 4 15 5 14 6 13 7 2 8 1 9 3 10 4 11 5 12
REMARK SMILES IDX 6 13 7 14 8 15
REMARK H PARENT
REMARK Flexibility Score: inf
ROOT
ATOM      1  C   UNL     1      -4.720 -15.523  13.661  1.00  0.00     0.039 C 
ATOM      2  C   UNL     1      -3.695 -15.498  12.560  1.00  0.00    -0.077 C 
ATOM      3  C   UNL     1      -3.960 -16.080  11.376  1.00  0.00    -0.024 C 
ATOM      4  C   UNL     1      -2.926 -16.000  10.270  1.00  0.00     0.022 C 
ATOM      5  C   UNL     1      -2.460 -14.523  10.145  1.00  0.00     0.022 C 
ATOM      6  C   UNL     1      -2.157 -13.827  11.515  1.00  0.00     0.013 C 
ATOM      7  C   UNL     1      -2.389 -14.752  12.724  1.00  0.00     0.031 C 
ATOM      8  C   UNL     1      -1.360 -14.483   9.102  1.00  0.00    -0.074 C 
ATOM      9  C   UNL     1      -0.048 -14.515   9.401  1.00  0.00     0.008 C 
ATOM     10  C   UNL     1      -1.816 -14.885   7.726  1.00  0.00     0.031 C 
ATOM     11  C   UNL     1      -2.341 -16.329   7.784  1.00  0.00     0.009 C 
ATOM     12  C   UNL     1      -3.430 -16.538   8.885  1.00  0.00    -0.001 C 
ENDROOT
BRANCH  12  13
ATOM     13  C   UNL     1      -3.937 -18.022   8.937  1.00  0.00    -0.014 C 
ATOM     14  C   UNL     1      -3.186 -18.924   7.944  1.00  0.00     0.007 C 
ATOM     15  C   UNL     1      -3.911 -18.651  10.341  1.00  0.00     0.007 C 
ENDBRANCH  12  13
TORSDOF 1
ENDMDL
MODEL 8
REMARK VINA RESULT:    -5.592      1.764      3.924
REMARK INTER + INTRA:          -6.202
REMARK INTER:                  -6.407
REMARK INTRA:                   0.205
REMARK UNBOUND:                -0.283
REMARK SMILES C=C1CC[C@@H](C(C)C)[C@@H]2C=C(C)CC[C@@H]12
REMARK SMILES IDX 12 1 11 2 10 3 9 4 15 5 14 6 13 7 2 8 1 9 3 10 4 11 5 12
REMARK SMILES IDX 6 13 7 14 8 15
REMARK H PARENT
REMARK Flexibility Score: inf
ROOT
ATOM      1  C   UNL     1      -2.794 -16.089  13.649  1.00  0.00     0.039 C 
ATOM      2  C   UNL     1      -3.338 -15.891  12.261  1.00  0.00    -0.077 C 
ATOM      3  C   UNL     1      -2.508 -15.587  11.247  1.00  0.00    -0.024 C 
ATOM      4  C   UNL     1      -3.078 -15.437   9.850  1.00  0.00     0.022 C 
ATOM      5  C   UNL     1      -3.988 -16.662   9.562  1.00  0.00     0.022 C 
ATOM      6  C   UNL     1      -4.954 -17.036  10.737  1.00  0.00     0.013 C 
ATOM      7  C   UNL     1      -4.804 -16.110  11.957  1.00  0.00     0.031 C 
ATOM      8  C   UNL     1      -4.621 -16.444   8.202  1.00  0.00    -0.074 C 
ATOM      9  C   UNL     1      -5.849 -15.922   8.026  1.00  0.00     0.008 C 
ATOM     10  C   UNL     1      -3.629 -16.398   7.072  1.00  0.00     0.031 C 
ATOM     11  C   UNL     1      -2.658 -15.231   7.318  1.00  0.00     0.009 C 
ATOM     12  C   UNL     1      -1.991 -15.281   8.730  1.00  0.00    -0.001 C 
ENDROOT
BRANCH  12  13
ATOM     13  C   UNL     1      -1.019 -14.072   8.965  1.00  0.00    -0.014 C 
ATOM     14  C   UNL     1      -1.614 -13.030   9.926  1.00  0.00     0.007 C 
ATOM     15  C   UNL     1       0.390 -14.475   9.435  1.00  0.00     0.007 C 
ENDBRANCH  12  13
TORSDOF 1
ENDMDL
MODEL 9
REMARK VINA RESULT:    -5.478      1.223      3.667
REMARK INTER + INTRA:          -6.081
REMARK INTER:                  -6.182
REMARK INTRA:                   0.101
REMARK UNBOUND:                -0.283
REMARK SMILES C=C1CC[C@@H](C(C)C)[C@@H]2C=C(C)CC[C@@H]12
REMARK SMILES IDX 12 1 11 2 10 3 9 4 15 5 14 6 13 7 2 8 1 9 3 10 4 11 5 12
REMARK SMILES IDX 6 13 7 14 8 15
REMARK H PARENT
REMARK Flexibility Score: inf
ROOT
ATOM      1  C   UNL     1      -5.706 -15.427   5.347  1.00  0.00     0.039 C 
ATOM      2  C   UNL     1      -4.919 -15.095   6.585  1.00  0.00    -0.077 C 
ATOM      3  C   UNL     1      -4.077 -16.002   7.113  1.00  0.00    -0.024 C 
ATOM      4  C   UNL     1      -3.263 -15.624   8.335  1.00  0.00     0.022 C 
ATOM      5  C   UNL     1      -2.604 -14.242   8.074  1.00  0.00     0.022 C 
ATOM      6  C   UNL     1      -3.569 -13.178   7.449  1.00  0.00     0.013 C 
ATOM      7  C   UNL     1      -4.990 -13.721   7.212  1.00  0.00     0.031 C 
ATOM      8  C   UNL     1      -1.876 -13.841   9.341  1.00  0.00    -0.074 C 
ATOM      9  C   UNL     1      -2.402 -13.031  10.279  1.00  0.00     0.008 C 
ATOM     10  C   UNL     1      -0.749 -14.767   9.711  1.00  0.00     0.031 C 
ATOM     11  C   UNL     1      -1.324 -16.175   9.938  1.00  0.00     0.009 C 
ATOM     12  C   UNL     1      -2.178 -16.685   8.733  1.00  0.00    -0.001 C 
ENDROOT
BRANCH  12  13
ATOM     13  C   UNL     1      -2.768 -18.116   8.995  1.00  0.00    -0.014 C 
ATOM     14  C   UNL     1      -4.075 -18.062   9.803  1.00  0.00     0.007 C 
ATOM     15  C   UNL     1      -2.972 -18.958   7.723  1.00  0.00     0.007 C 
ENDBRANCH  12  13
TORSDOF 1
ENDMDL
