MODEL 1
REMARK VINA RESULT:    -3.364      0.000      0.000
REMARK INTER + INTRA:          -5.651
REMARK INTER:                  -5.134
REMARK INTRA:                  -0.516
REMARK UNBOUND:                -0.516
REMARK SMILES CCCCCCCCCCC(=O)[O-]
REMARK SMILES IDX 7 1 8 2 9 3 10 4 11 5 12 6 13 7 6 8 5 9 4 10 3 11 2 12 1 13
REMARK H PARENT
REMARK Flexibility Score: inf
ROOT
ATOM      1  C   UNL     1      -5.220  34.674  22.259  1.00  0.00     0.000 C 
ENDROOT
BRANCH   1   2
ATOM      2  C   UNL     1      -5.977  34.223  23.524  1.00  0.00     0.000 C 
BRANCH   2   3
ATOM      3  C   UNL     1      -6.125  35.302  24.615  1.00  0.00     0.006 C 
BRANCH   3   4
ATOM      4  C   UNL     1      -6.007  36.746  24.102  1.00  0.00     0.053 C 
BRANCH   4   5
ATOM      5  C   UNL     1      -5.166  37.596  25.005  1.00  0.00     0.041 C 
ATOM      6  O   UNL     1      -4.657  37.102  26.046  1.00  0.00    -0.550 OA
ATOM      7  O   UNL     1      -4.918  38.923  24.680  1.00  0.00    -0.550 OA
ENDBRANCH   4   5
ENDBRANCH   3   4
ENDBRANCH   2   3
ENDBRANCH   1   2
BRANCH   1   8
ATOM      8  C   UNL     1      -6.117  35.069  21.069  1.00  0.00     0.000 C 
BRANCH   8   9
ATOM      9  C   UNL     1      -5.367  35.348  19.751  1.00  0.00    -0.000 C 
BRANCH   9  10
ATOM     10  C   UNL     1      -4.757  36.757  19.634  1.00  0.00    -0.000 C 
BRANCH  10  11
ATOM     11  C   UNL     1      -5.662  37.849  20.224  1.00  0.00    -0.000 C 
BRANCH  11  12
ATOM     12  C   UNL     1      -4.945  38.607  21.347  1.00  0.00    -0.003 C 
ATOM     13  C   UNL     1      -5.689  39.889  21.709  1.00  0.00     0.004 C 
ENDBRANCH  11  12
ENDBRANCH  10  11
ENDBRANCH   9  10
ENDBRANCH   8   9
ENDBRANCH   1   8
TORSDOF 9
ENDMDL
MODEL 2
REMARK VINA RESULT:    -2.886      2.110      4.167
REMARK INTER + INTRA:          -4.920
REMARK INTER:                  -4.266
REMARK INTRA:                  -0.654
REMARK UNBOUND:                -0.516
REMARK SMILES CCCCCCCCCCC(=O)[O-]
REMARK SMILES IDX 7 1 8 2 9 3 10 4 11 5 12 6 13 7 6 8 5 9 4 10 3 11 2 12 1 13
REMARK H PARENT
REMARK Flexibility Score: inf
ROOT
ATOM      1  C   UNL     1      -4.974  36.885  25.549  1.00  0.00     0.000 C 
ENDROOT
BRANCH   1   2
ATOM      2  C   UNL     1      -4.627  38.307  25.065  1.00  0.00     0.000 C 
BRANCH   2   3
ATOM      3  C   UNL     1      -5.514  38.841  23.921  1.00  0.00     0.006 C 
BRANCH   3   4
ATOM      4  C   UNL     1      -4.966  38.569  22.512  1.00  0.00     0.053 C 
BRANCH   4   5
ATOM      5  C   UNL     1      -5.661  39.392  21.471  1.00  0.00     0.041 C 
ATOM      6  O   UNL     1      -6.125  40.526  21.766  1.00  0.00    -0.550 OA
ATOM      7  O   UNL     1      -5.766  38.923  20.168  1.00  0.00    -0.550 OA
ENDBRANCH   4   5
ENDBRANCH   3   4
ENDBRANCH   2   3
ENDBRANCH   1   2
BRANCH   1   8
ATOM      8  C   UNL     1      -6.125  36.200  24.786  1.00  0.00     0.000 C 
BRANCH   8   9
ATOM      9  C   UNL     1      -5.698  35.033  23.873  1.00  0.00    -0.000 C 
BRANCH   9  10
ATOM     10  C   UNL     1      -6.039  35.215  22.382  1.00  0.00    -0.000 C 
BRANCH  10  11
ATOM     11  C   UNL     1      -4.827  35.003  21.463  1.00  0.00    -0.000 C 
BRANCH  11  12
ATOM     12  C   UNL     1      -5.088  35.586  20.070  1.00  0.00    -0.003 C 
ATOM     13  C   UNL     1      -5.813  34.582  19.178  1.00  0.00     0.004 C 
ENDBRANCH  11  12
ENDBRANCH  10  11
ENDBRANCH   9  10
ENDBRANCH   8   9
ENDBRANCH   1   8
TORSDOF 9
ENDMDL
MODEL 3
REMARK VINA RESULT:    -2.863      1.404      3.561
REMARK INTER + INTRA:          -4.885
REMARK INTER:                  -4.079
REMARK INTRA:                  -0.807
REMARK UNBOUND:                -0.516
REMARK SMILES CCCCCCCCCCC(=O)[O-]
REMARK SMILES IDX 7 1 8 2 9 3 10 4 11 5 12 6 13 7 6 8 5 9 4 10 3 11 2 12 1 13
REMARK H PARENT
REMARK Flexibility Score: inf
ROOT
ATOM      1  C   UNL     1      -5.627  39.235  21.355  1.00  0.00     0.000 C 
ENDROOT
BRANCH   1   2
ATOM      2  C   UNL     1      -4.516  39.214  22.425  1.00  0.00     0.000 C 
BRANCH   2   3
ATOM      3  C   UNL     1      -4.980  38.809  23.839  1.00  0.00     0.006 C 
BRANCH   3   4
ATOM      4  C   UNL     1      -5.704  37.456  23.907  1.00  0.00     0.053 C 
BRANCH   4   5
ATOM      5  C   UNL     1      -5.243  36.631  25.070  1.00  0.00     0.041 C 
ATOM      6  O   UNL     1      -5.442  35.387  25.083  1.00  0.00    -0.550 OA
ATOM      7  O   UNL     1      -4.563  37.230  26.123  1.00  0.00    -0.550 OA
ENDBRANCH   4   5
ENDBRANCH   3   4
ENDBRANCH   2   3
ENDBRANCH   1   2
BRANCH   1   8
ATOM      8  C   UNL     1      -5.606  38.049  20.371  1.00  0.00     0.000 C 
BRANCH   8   9
ATOM      9  C   UNL     1      -4.305  37.221  20.377  1.00  0.00    -0.000 C 
BRANCH   9  10
ATOM     10  C   UNL     1      -4.486  35.725  20.693  1.00  0.00    -0.000 C 
BRANCH  10  11
ATOM     11  C   UNL     1      -5.949  35.267  20.590  1.00  0.00    -0.000 C 
BRANCH  11  12
ATOM     12  C   UNL     1      -6.102  34.151  19.550  1.00  0.00    -0.003 C 
ATOM     13  C   UNL     1      -5.324  34.474  18.277  1.00  0.00     0.004 C 
ENDBRANCH  11  12
ENDBRANCH  10  11
ENDBRANCH   9  10
ENDBRANCH   8   9
ENDBRANCH   1   8
TORSDOF 9
ENDMDL
MODEL 4
REMARK VINA RESULT:    -2.812      1.962      4.227
REMARK INTER + INTRA:          -4.807
REMARK INTER:                  -4.778
REMARK INTRA:                  -0.029
REMARK UNBOUND:                -0.516
REMARK SMILES CCCCCCCCCCC(=O)[O-]
REMARK SMILES IDX 7 1 8 2 9 3 10 4 11 5 12 6 13 7 6 8 5 9 4 10 3 11 2 12 1 13
REMARK H PARENT
REMARK Flexibility Score: inf
ROOT
ATOM      1  C   UNL     1      -5.185  34.670  22.461  1.00  0.00     0.000 C 
ENDROOT
BRANCH   1   2
ATOM      2  C   UNL     1      -6.123  35.393  21.474  1.00  0.00     0.000 C 
BRANCH   2   3
ATOM      3  C   UNL     1      -5.769  35.211  19.984  1.00  0.00     0.006 C 
BRANCH   3   4
ATOM      4  C   UNL     1      -4.924  36.346  19.388  1.00  0.00     0.053 C 
BRANCH   4   5
ATOM      5  C   UNL     1      -5.014  37.600  20.203  1.00  0.00     0.041 C 
ATOM      6  O   UNL     1      -4.147  37.848  21.082  1.00  0.00    -0.550 OA
ATOM      7  O   UNL     1      -6.036  38.511  19.969  1.00  0.00    -0.550 OA
ENDBRANCH   4   5
ENDBRANCH   3   4
ENDBRANCH   2   3
ENDBRANCH   1   2
BRANCH   1   8
ATOM      8  C   UNL     1      -5.875  34.098  23.715  1.00  0.00     0.000 C 
BRANCH   8   9
ATOM      9  C   UNL     1      -6.124  35.118  24.845  1.00  0.00    -0.000 C 
BRANCH   9  10
ATOM     10  C   UNL     1      -5.778  36.576  24.493  1.00  0.00    -0.000 C 
BRANCH  10  11
ATOM     11  C   UNL     1      -5.050  37.308  25.630  1.00  0.00    -0.000 C 
BRANCH  11  12
ATOM     12  C   UNL     1      -4.554  38.683  25.168  1.00  0.00    -0.003 C 
ATOM     13  C   UNL     1      -5.075  39.016  23.773  1.00  0.00     0.004 C 
ENDBRANCH  11  12
ENDBRANCH  10  11
ENDBRANCH   9  10
ENDBRANCH   8   9
ENDBRANCH   1   8
TORSDOF 9
ENDMDL
MODEL 5
REMARK VINA RESULT:    -2.792      1.731      3.748
REMARK INTER + INTRA:          -4.777
REMARK INTER:                  -4.501
REMARK INTRA:                  -0.276
REMARK UNBOUND:                -0.516
REMARK SMILES CCCCCCCCCCC(=O)[O-]
REMARK SMILES IDX 7 1 8 2 9 3 10 4 11 5 12 6 13 7 6 8 5 9 4 10 3 11 2 12 1 13
REMARK H PARENT
REMARK Flexibility Score: inf
ROOT
ATOM      1  C   UNL     1      -4.411  38.950  23.121  1.00  0.00     0.000 C 
ENDROOT
BRANCH   1   2
ATOM      2  C   UNL     1      -4.894  38.756  24.572  1.00  0.00     0.000 C 
BRANCH   2   3
ATOM      3  C   UNL     1      -5.420  37.344  24.901  1.00  0.00     0.006 C 
BRANCH   3   4
ATOM      4  C   UNL     1      -5.715  36.472  23.671  1.00  0.00     0.053 C 
BRANCH   4   5
ATOM      5  C   UNL     1      -5.738  35.013  24.010  1.00  0.00     0.041 C 
ATOM      6  O   UNL     1      -6.125  34.633  25.147  1.00  0.00    -0.550 OA
ATOM      7  O   UNL     1      -5.364  34.072  23.060  1.00  0.00    -0.550 OA
ENDBRANCH   4   5
ENDBRANCH   3   4
ENDBRANCH   2   3
ENDBRANCH   1   2
BRANCH   1   8
ATOM      8  C   UNL     1      -5.479  39.481  22.144  1.00  0.00     0.000 C 
BRANCH   8   9
ATOM      9  C   UNL     1      -5.640  38.663  20.847  1.00  0.00    -0.000 C 
BRANCH   9  10
ATOM     10  C   UNL     1      -4.718  37.436  20.732  1.00  0.00    -0.000 C 
BRANCH  10  11
ATOM     11  C   UNL     1      -5.023  36.573  19.498  1.00  0.00    -0.000 C 
BRANCH  11  12
ATOM     12  C   UNL     1      -5.745  35.282  19.897  1.00  0.00    -0.003 C 
ATOM     13  C   UNL     1      -5.746  34.274  18.751  1.00  0.00     0.004 C 
ENDBRANCH  11  12
ENDBRANCH  10  11
ENDBRANCH   9  10
ENDBRANCH   8   9
ENDBRANCH   1   8
TORSDOF 9
ENDMDL
