MODEL 1
REMARK VINA RESULT:    -4.767      0.000      0.000
REMARK INTER + INTRA:          -6.553
REMARK INTER:                  -6.161
REMARK INTRA:                  -0.392
REMARK UNBOUND:                -0.392
REMARK SMILES CCO[C@@H]1O[C@@H](CO)[C@@H](O)[C@H](O)[C@H]1O
REMARK SMILES IDX 4 1 13 2 11 3 9 4 6 5 5 6 3 7 2 8 1 9 14 10 12 12 7 14 8 15
REMARK SMILES IDX 10 17
REMARK H PARENT 14 11 12 13 8 16 10 18
REMARK Flexibility Score: inf
ROOT
ATOM      1  C   UNL     1     147.969 152.862 127.080  1.00  0.00     0.281 C 
ATOM      2  C   UNL     1     149.163 153.656 126.487  1.00  0.00     0.202 C 
ATOM      3  C   UNL     1     149.306 155.056 127.144  1.00  0.00     0.179 C 
ATOM      4  C   UNL     1     148.670 155.077 128.545  1.00  0.00     0.177 C 
ATOM      5  C   UNL     1     147.180 154.613 128.466  1.00  0.00     0.178 C 
ATOM      6  O   UNL     1     146.885 153.728 127.389  1.00  0.00    -0.341 OA
ENDROOT
BRANCH   1   7
ATOM      7  O   UNL     1     147.582 151.814 126.202  1.00  0.00    -0.350 OA
BRANCH   7   8
ATOM      8  C   UNL     1     146.546 152.197 125.316  1.00  0.00     0.160 C 
ATOM      9  C   UNL     1     146.922 151.784 123.901  1.00  0.00     0.035 C 
ENDBRANCH   7   8
ENDBRANCH   1   7
BRANCH   2  10
ATOM     10  O   UNL     1     150.353 152.916 126.607  1.00  0.00    -0.385 OA
ATOM     11  H   UNL     1     150.147 152.088 127.114  1.00  0.00     0.211 HD
ENDBRANCH   2  10
BRANCH   3  12
ATOM     12  O   UNL     1     148.675 156.029 126.348  1.00  0.00    -0.387 OA
ATOM     13  H   UNL     1     148.752 156.892 126.833  1.00  0.00     0.211 HD
ENDBRANCH   3  12
BRANCH   5  14
ATOM     14  C   UNL     1     146.657 154.037 129.794  1.00  0.00     0.191 C 
BRANCH  14  15
ATOM     15  O   UNL     1     146.791 154.978 130.824  1.00  0.00    -0.394 OA
ATOM     16  H   UNL     1     145.935 155.479 130.866  1.00  0.00     0.210 HD
ENDBRANCH  14  15
ENDBRANCH   5  14
BRANCH   4  17
ATOM     17  O   UNL     1     149.406 154.254 129.419  1.00  0.00    -0.387 OA
ATOM     18  H   UNL     1     149.747 154.838 130.146  1.00  0.00     0.211 HD
ENDBRANCH   4  17
TORSDOF 7
ENDMDL
MODEL 2
REMARK VINA RESULT:    -4.604      2.124      4.409
REMARK INTER + INTRA:          -6.342
REMARK INTER:                  -5.973
REMARK INTRA:                  -0.369
REMARK UNBOUND:                -0.392
REMARK SMILES CCO[C@@H]1O[C@@H](CO)[C@@H](O)[C@H](O)[C@H]1O
REMARK SMILES IDX 4 1 13 2 11 3 9 4 6 5 5 6 3 7 2 8 1 9 14 10 12 12 7 14 8 15
REMARK SMILES IDX 10 17
REMARK H PARENT 14 11 12 13 8 16 10 18
REMARK Flexibility Score: inf
ROOT
ATOM      1  C   UNL     1     148.205 153.013 129.208  1.00  0.00     0.281 C 
ATOM      2  C   UNL     1     148.557 154.453 129.667  1.00  0.00     0.202 C 
ATOM      3  C   UNL     1     149.164 155.293 128.511  1.00  0.00     0.179 C 
ATOM      4  C   UNL     1     148.729 154.744 127.141  1.00  0.00     0.177 C 
ATOM      5  C   UNL     1     149.101 153.231 127.026  1.00  0.00     0.178 C 
ATOM      6  O   UNL     1     149.156 152.532 128.267  1.00  0.00    -0.341 OA
ENDROOT
BRANCH   1   7
ATOM      7  O   UNL     1     148.078 152.149 130.330  1.00  0.00    -0.350 OA
BRANCH   7   8
ATOM      8  C   UNL     1     149.211 152.186 131.179  1.00  0.00     0.160 C 
ATOM      9  C   UNL     1     149.426 150.807 131.782  1.00  0.00     0.035 C 
ENDBRANCH   7   8
ENDBRANCH   1   7
BRANCH   2  10
ATOM     10  O   UNL     1     147.425 155.084 130.214  1.00  0.00    -0.385 OA
ATOM     11  H   UNL     1     146.691 154.418 130.247  1.00  0.00     0.211 HD
ENDBRANCH   2  10
BRANCH   3  12
ATOM     12  O   UNL     1     150.568 155.268 128.582  1.00  0.00    -0.387 OA
ATOM     13  H   UNL     1     150.849 156.102 129.042  1.00  0.00     0.211 HD
ENDBRANCH   3  12
BRANCH   5  14
ATOM     14  C   UNL     1     148.222 152.468 126.019  1.00  0.00     0.191 C 
BRANCH  14  15
ATOM     15  O   UNL     1     148.406 152.975 124.725  1.00  0.00    -0.394 OA
ATOM     16  H   UNL     1     147.523 153.313 124.422  1.00  0.00     0.210 HD
ENDBRANCH  14  15
ENDBRANCH   5  14
BRANCH   4  17
ATOM     17  O   UNL     1     147.346 154.935 126.963  1.00  0.00    -0.387 OA
ATOM     18  H   UNL     1     147.151 155.877 127.210  1.00  0.00     0.211 HD
ENDBRANCH   4  17
TORSDOF 7
ENDMDL
MODEL 3
REMARK VINA RESULT:    -4.421      1.767      3.882
REMARK INTER + INTRA:          -6.106
REMARK INTER:                  -5.735
REMARK INTRA:                  -0.371
REMARK UNBOUND:                -0.392
REMARK SMILES CCO[C@@H]1O[C@@H](CO)[C@@H](O)[C@H](O)[C@H]1O
REMARK SMILES IDX 4 1 13 2 11 3 9 4 6 5 5 6 3 7 2 8 1 9 14 10 12 12 7 14 8 15
REMARK SMILES IDX 10 17
REMARK H PARENT 14 11 12 13 8 16 10 18
REMARK Flexibility Score: inf
ROOT
ATOM      1  C   UNL     1     147.285 154.099 127.310  1.00  0.00     0.281 C 
ATOM      2  C   UNL     1     148.492 155.074 127.345  1.00  0.00     0.202 C 
ATOM      3  C   UNL     1     149.843 154.313 127.435  1.00  0.00     0.179 C 
ATOM      4  C   UNL     1     149.709 152.883 126.882  1.00  0.00     0.177 C 
ATOM      5  C   UNL     1     148.559 152.126 127.620  1.00  0.00     0.178 C 
ATOM      6  O   UNL     1     147.523 152.963 128.130  1.00  0.00    -0.341 OA
ENDROOT
BRANCH   1   7
ATOM      7  O   UNL     1     146.087 154.776 127.669  1.00  0.00    -0.350 OA
BRANCH   7   8
ATOM      8  C   UNL     1     145.602 154.389 128.942  1.00  0.00     0.160 C 
ATOM      9  C   UNL     1     144.147 154.812 129.070  1.00  0.00     0.035 C 
ENDBRANCH   7   8
ENDBRANCH   1   7
BRANCH   2  10
ATOM     10  O   UNL     1     148.464 155.929 126.229  1.00  0.00    -0.385 OA
ATOM     11  H   UNL     1     148.512 155.368 125.413  1.00  0.00     0.211 HD
ENDBRANCH   2  10
BRANCH   3  12
ATOM     12  O   UNL     1     150.268 154.241 128.773  1.00  0.00    -0.387 OA
ATOM     13  H   UNL     1     149.522 154.584 129.331  1.00  0.00     0.211 HD
ENDBRANCH   3  12
BRANCH   5  14
ATOM     14  C   UNL     1     147.960 150.979 126.787  1.00  0.00     0.191 C 
BRANCH  14  15
ATOM     15  O   UNL     1     148.975 150.140 126.308  1.00  0.00    -0.394 OA
ATOM     16  H   UNL     1     149.264 150.512 125.433  1.00  0.00     0.210 HD
ENDBRANCH  14  15
ENDBRANCH   5  14
BRANCH   4  17
ATOM     17  O   UNL     1     149.474 152.924 125.495  1.00  0.00    -0.387 OA
ATOM     18  H   UNL     1     148.489 152.945 125.370  1.00  0.00     0.211 HD
ENDBRANCH   4  17
TORSDOF 7
ENDMDL
MODEL 4
REMARK VINA RESULT:    -4.360      2.085      3.816
REMARK INTER + INTRA:          -6.027
REMARK INTER:                  -5.803
REMARK INTRA:                  -0.223
REMARK UNBOUND:                -0.392
REMARK SMILES CCO[C@@H]1O[C@@H](CO)[C@@H](O)[C@H](O)[C@H]1O
REMARK SMILES IDX 4 1 13 2 11 3 9 4 6 5 5 6 3 7 2 8 1 9 14 10 12 12 7 14 8 15
REMARK SMILES IDX 10 17
REMARK H PARENT 14 11 12 13 8 16 10 18
REMARK Flexibility Score: inf
ROOT
ATOM      1  C   UNL     1     146.304 154.486 128.714  1.00  0.00     0.281 C 
ATOM      2  C   UNL     1     146.337 153.510 129.921  1.00  0.00     0.202 C 
ATOM      3  C   UNL     1     147.782 153.038 130.239  1.00  0.00     0.179 C 
ATOM      4  C   UNL     1     148.820 154.052 129.725  1.00  0.00     0.177 C 
ATOM      5  C   UNL     1     148.609 154.311 128.199  1.00  0.00     0.178 C 
ATOM      6  O   UNL     1     147.273 154.125 127.739  1.00  0.00    -0.341 OA
ENDROOT
BRANCH   1   7
ATOM      7  O   UNL     1     144.994 154.556 128.166  1.00  0.00    -0.350 OA
BRANCH   7   8
ATOM      8  C   UNL     1     144.939 154.110 126.823  1.00  0.00     0.160 C 
ATOM      9  C   UNL     1     144.078 152.858 126.750  1.00  0.00     0.035 C 
ENDBRANCH   7   8
ENDBRANCH   1   7
BRANCH   2  10
ATOM     10  O   UNL     1     145.736 154.100 131.046  1.00  0.00    -0.385 OA
ATOM     11  H   UNL     1     146.074 153.633 131.853  1.00  0.00     0.211 HD
ENDBRANCH   2  10
BRANCH   3  12
ATOM     12  O   UNL     1     148.028 151.794 129.631  1.00  0.00    -0.387 OA
ATOM     13  H   UNL     1     147.624 151.102 130.217  1.00  0.00     0.211 HD
ENDBRANCH   3  12
BRANCH   5  14
ATOM     14  C   UNL     1     149.149 155.677 127.739  1.00  0.00     0.191 C 
BRANCH  14  15
ATOM     15  O   UNL     1     148.694 155.975 126.447  1.00  0.00    -0.394 OA
ATOM     16  H   UNL     1     149.457 155.816 125.832  1.00  0.00     0.210 HD
ENDBRANCH  14  15
ENDBRANCH   5  14
BRANCH   4  17
ATOM     17  O   UNL     1     148.723 155.251 130.456  1.00  0.00    -0.387 OA
ATOM     18  H   UNL     1     148.373 155.014 131.355  1.00  0.00     0.211 HD
ENDBRANCH   4  17
TORSDOF 7
ENDMDL
MODEL 5
REMARK VINA RESULT:    -4.353      2.006      3.797
REMARK INTER + INTRA:          -6.017
REMARK INTER:                  -5.806
REMARK INTRA:                  -0.211
REMARK UNBOUND:                -0.392
REMARK SMILES CCO[C@@H]1O[C@@H](CO)[C@@H](O)[C@H](O)[C@H]1O
REMARK SMILES IDX 4 1 13 2 11 3 9 4 6 5 5 6 3 7 2 8 1 9 14 10 12 12 7 14 8 15
REMARK SMILES IDX 10 17
REMARK H PARENT 14 11 12 13 8 16 10 18
REMARK Flexibility Score: inf
ROOT
ATOM      1  C   UNL     1     148.433 153.159 129.000  1.00  0.00     0.281 C 
ATOM      2  C   UNL     1     147.922 152.270 127.834  1.00  0.00     0.202 C 
ATOM      3  C   UNL     1     147.930 153.034 126.482  1.00  0.00     0.179 C 
ATOM      4  C   UNL     1     148.947 154.189 126.506  1.00  0.00     0.177 C 
ATOM      5  C   UNL     1     148.656 155.136 127.714  1.00  0.00     0.178 C 
ATOM      6  O   UNL     1     148.024 154.510 128.827  1.00  0.00    -0.341 OA
ENDROOT
BRANCH   1   7
ATOM      7  O   UNL     1     148.015 152.630 130.250  1.00  0.00    -0.350 OA
BRANCH   7   8
ATOM      8  C   UNL     1     149.102 152.253 131.075  1.00  0.00     0.160 C 
ATOM      9  C   UNL     1     149.001 150.768 131.386  1.00  0.00     0.035 C 
ENDBRANCH   7   8
ENDBRANCH   1   7
BRANCH   2  10
ATOM     10  O   UNL     1     148.676 151.086 127.754  1.00  0.00    -0.385 OA
ATOM     11  H   UNL     1     149.343 151.198 127.028  1.00  0.00     0.211 HD
ENDBRANCH   2  10
BRANCH   3  12
ATOM     12  O   UNL     1     146.654 153.562 126.218  1.00  0.00    -0.387 OA
ATOM     13  H   UNL     1     146.676 153.917 125.291  1.00  0.00     0.211 HD
ENDBRANCH   3  12
BRANCH   5  14
ATOM     14  C   UNL     1     149.896 155.924 128.175  1.00  0.00     0.191 C 
BRANCH  14  15
ATOM     15  O   UNL     1     149.730 156.372 129.493  1.00  0.00    -0.394 OA
ATOM     16  H   UNL     1     148.793 156.691 129.571  1.00  0.00     0.210 HD
ENDBRANCH  14  15
ENDBRANCH   5  14
BRANCH   4  17
ATOM     17  O   UNL     1     150.256 153.676 126.575  1.00  0.00    -0.387 OA
ATOM     18  H   UNL     1     150.874 154.451 126.507  1.00  0.00     0.211 HD
ENDBRANCH   4  17
TORSDOF 7
ENDMDL
MODEL 6
REMARK VINA RESULT:    -4.338      1.698      1.950
REMARK INTER + INTRA:          -5.998
REMARK INTER:                  -5.578
REMARK INTRA:                  -0.420
REMARK UNBOUND:                -0.392
REMARK SMILES CCO[C@@H]1O[C@@H](CO)[C@@H](O)[C@H](O)[C@H]1O
REMARK SMILES IDX 4 1 13 2 11 3 9 4 6 5 5 6 3 7 2 8 1 9 14 10 12 12 7 14 8 15
REMARK SMILES IDX 10 17
REMARK H PARENT 14 11 12 13 8 16 10 18
REMARK Flexibility Score: inf
ROOT
ATOM      1  C   UNL     1     148.196 152.266 128.345  1.00  0.00     0.281 C 
ATOM      2  C   UNL     1     148.742 153.505 127.587  1.00  0.00     0.202 C 
ATOM      3  C   UNL     1     147.899 154.776 127.879  1.00  0.00     0.179 C 
ATOM      4  C   UNL     1     147.164 154.653 129.226  1.00  0.00     0.177 C 
ATOM      5  C   UNL     1     146.296 153.354 129.249  1.00  0.00     0.178 C 
ATOM      6  O   UNL     1     146.777 152.299 128.420  1.00  0.00    -0.341 OA
ENDROOT
BRANCH   1   7
ATOM      7  O   UNL     1     148.672 151.067 127.748  1.00  0.00    -0.350 OA
BRANCH   7   8
ATOM      8  C   UNL     1     148.477 151.040 126.346  1.00  0.00     0.160 C 
ATOM      9  C   UNL     1     149.706 150.436 125.684  1.00  0.00     0.035 C 
ENDBRANCH   7   8
ENDBRANCH   1   7
BRANCH   2  10
ATOM     10  O   UNL     1     150.098 153.712 127.898  1.00  0.00    -0.385 OA
ATOM     11  H   UNL     1     150.386 154.554 127.460  1.00  0.00     0.211 HD
ENDBRANCH   2  10
BRANCH   3  12
ATOM     12  O   UNL     1     146.947 154.968 126.862  1.00  0.00    -0.387 OA
ATOM     13  H   UNL     1     147.039 155.908 126.556  1.00  0.00     0.211 HD
ENDBRANCH   3  12
BRANCH   5  14
ATOM     14  C   UNL     1     146.022 152.837 130.672  1.00  0.00     0.191 C 
BRANCH  14  15
ATOM     15  O   UNL     1     145.539 153.871 131.486  1.00  0.00    -0.394 OA
ATOM     16  H   UNL     1     146.166 154.634 131.378  1.00  0.00     0.210 HD
ENDBRANCH  14  15
ENDBRANCH   5  14
BRANCH   4  17
ATOM     17  O   UNL     1     148.093 154.654 130.283  1.00  0.00    -0.387 OA
ATOM     18  H   UNL     1     148.972 154.403 129.894  1.00  0.00     0.211 HD
ENDBRANCH   4  17
TORSDOF 7
ENDMDL
MODEL 7
REMARK VINA RESULT:    -4.301      1.522      3.406
REMARK INTER + INTRA:          -5.950
REMARK INTER:                  -5.605
REMARK INTRA:                  -0.346
REMARK UNBOUND:                -0.392
REMARK SMILES CCO[C@@H]1O[C@@H](CO)[C@@H](O)[C@H](O)[C@H]1O
REMARK SMILES IDX 4 1 13 2 11 3 9 4 6 5 5 6 3 7 2 8 1 9 14 10 12 12 7 14 8 15
REMARK SMILES IDX 10 17
REMARK H PARENT 14 11 12 13 8 16 10 18
REMARK Flexibility Score: inf
ROOT
ATOM      1  C   UNL     1     146.420 152.664 125.914  1.00  0.00     0.281 C 
ATOM      2  C   UNL     1     145.431 153.618 126.636  1.00  0.00     0.202 C 
ATOM      3  C   UNL     1     146.118 154.392 127.792  1.00  0.00     0.179 C 
ATOM      4  C   UNL     1     147.637 154.490 127.566  1.00  0.00     0.177 C 
ATOM      5  C   UNL     1     148.244 153.063 127.371  1.00  0.00     0.178 C 
ATOM      6  O   UNL     1     147.344 152.098 126.834  1.00  0.00    -0.341 OA
ENDROOT
BRANCH   1   7
ATOM      7  O   UNL     1     145.712 151.670 125.186  1.00  0.00    -0.350 OA
BRANCH   7   8
ATOM      8  C   UNL     1     146.107 151.603 123.827  1.00  0.00     0.160 C 
ATOM      9  C   UNL     1     147.084 150.450 123.649  1.00  0.00     0.035 C 
ENDBRANCH   7   8
ENDBRANCH   1   7
BRANCH   2  10
ATOM     10  O   UNL     1     144.840 154.500 125.714  1.00  0.00    -0.385 OA
ATOM     11  H   UNL     1     145.567 154.928 125.192  1.00  0.00     0.211 HD
ENDBRANCH   2  10
BRANCH   3  12
ATOM     12  O   UNL     1     145.886 153.739 129.016  1.00  0.00    -0.387 OA
ATOM     13  H   UNL     1     145.439 152.879 128.802  1.00  0.00     0.211 HD
ENDBRANCH   3  12
BRANCH   5  14
ATOM     14  C   UNL     1     149.561 153.071 126.574  1.00  0.00     0.191 C 
BRANCH  14  15
ATOM     15  O   UNL     1     150.332 154.192 126.912  1.00  0.00    -0.394 OA
ATOM     16  H   UNL     1     150.038 154.478 127.816  1.00  0.00     0.210 HD
ENDBRANCH  14  15
ENDBRANCH   5  14
BRANCH   4  17
ATOM     17  O   UNL     1     147.906 155.305 126.451  1.00  0.00    -0.387 OA
ATOM     18  H   UNL     1     148.570 154.821 125.892  1.00  0.00     0.211 HD
ENDBRANCH   4  17
TORSDOF 7
ENDMDL
MODEL 8
REMARK VINA RESULT:    -4.281      2.071      3.961
REMARK INTER + INTRA:          -5.924
REMARK INTER:                  -5.519
REMARK INTRA:                  -0.404
REMARK UNBOUND:                -0.392
REMARK SMILES CCO[C@@H]1O[C@@H](CO)[C@@H](O)[C@H](O)[C@H]1O
REMARK SMILES IDX 4 1 13 2 11 3 9 4 6 5 5 6 3 7 2 8 1 9 14 10 12 12 7 14 8 15
REMARK SMILES IDX 10 17
REMARK H PARENT 14 11 12 13 8 16 10 18
REMARK Flexibility Score: inf
ROOT
ATOM      1  C   UNL     1     147.754 153.274 129.147  1.00  0.00     0.281 C 
ATOM      2  C   UNL     1     149.203 153.344 128.595  1.00  0.00     0.202 C 
ATOM      3  C   UNL     1     149.226 153.391 127.044  1.00  0.00     0.179 C 
ATOM      4  C   UNL     1     147.902 153.944 126.488  1.00  0.00     0.177 C 
ATOM      5  C   UNL     1     146.699 153.108 127.033  1.00  0.00     0.178 C 
ATOM      6  O   UNL     1     146.923 152.493 128.299  1.00  0.00    -0.341 OA
ENDROOT
BRANCH   1   7
ATOM      7  O   UNL     1     147.753 152.795 130.485  1.00  0.00    -0.350 OA
BRANCH   7   8
ATOM      8  C   UNL     1     148.462 151.578 130.631  1.00  0.00     0.160 C 
ATOM      9  C   UNL     1     149.348 151.662 131.864  1.00  0.00     0.035 C 
ENDBRANCH   7   8
ENDBRANCH   1   7
BRANCH   2  10
ATOM     10  O   UNL     1     149.885 154.443 129.147  1.00  0.00    -0.385 OA
ATOM     11  H   UNL     1     150.820 154.163 129.327  1.00  0.00     0.211 HD
ENDBRANCH   2  10
BRANCH   3  12
ATOM     12  O   UNL     1     149.429 152.101 126.524  1.00  0.00    -0.387 OA
ATOM     13  H   UNL     1     149.786 151.545 127.266  1.00  0.00     0.211 HD
ENDBRANCH   3  12
BRANCH   5  14
ATOM     14  C   UNL     1     145.375 153.892 127.044  1.00  0.00     0.191 C 
BRANCH  14  15
ATOM     15  O   UNL     1     145.062 154.345 125.754  1.00  0.00    -0.394 OA
ATOM     16  H   UNL     1     144.230 153.878 125.482  1.00  0.00     0.210 HD
ENDBRANCH  14  15
ENDBRANCH   5  14
BRANCH   4  17
ATOM     17  O   UNL     1     147.765 155.302 126.832  1.00  0.00    -0.387 OA
ATOM     18  H   UNL     1     146.791 155.498 126.854  1.00  0.00     0.211 HD
ENDBRANCH   4  17
TORSDOF 7
ENDMDL
MODEL 9
REMARK VINA RESULT:    -4.246      2.980      4.083
REMARK INTER + INTRA:          -5.878
REMARK INTER:                  -5.516
REMARK INTRA:                  -0.362
REMARK UNBOUND:                -0.392
REMARK SMILES CCO[C@@H]1O[C@@H](CO)[C@@H](O)[C@H](O)[C@H]1O
REMARK SMILES IDX 4 1 13 2 11 3 9 4 6 5 5 6 3 7 2 8 1 9 14 10 12 12 7 14 8 15
REMARK SMILES IDX 10 17
REMARK H PARENT 14 11 12 13 8 16 10 18
REMARK Flexibility Score: inf
ROOT
ATOM      1  C   UNL     1     147.318 152.227 130.347  1.00  0.00     0.281 C 
ATOM      2  C   UNL     1     148.288 153.359 129.914  1.00  0.00     0.202 C 
ATOM      3  C   UNL     1     147.524 154.589 129.353  1.00  0.00     0.179 C 
ATOM      4  C   UNL     1     146.085 154.639 129.895  1.00  0.00     0.177 C 
ATOM      5  C   UNL     1     145.346 153.297 129.586  1.00  0.00     0.178 C 
ATOM      6  O   UNL     1     146.196 152.158 129.477  1.00  0.00    -0.341 OA
ENDROOT
BRANCH   1   7
ATOM      7  O   UNL     1     148.006 150.986 130.432  1.00  0.00    -0.350 OA
BRANCH   7   8
ATOM      8  C   UNL     1     147.130 149.874 130.413  1.00  0.00     0.160 C 
ATOM      9  C   UNL     1     147.657 148.810 131.365  1.00  0.00     0.035 C 
ENDBRANCH   7   8
ENDBRANCH   1   7
BRANCH   2  10
ATOM     10  O   UNL     1     149.123 153.725 130.985  1.00  0.00    -0.385 OA
ATOM     11  H   UNL     1     148.570 153.755 131.807  1.00  0.00     0.211 HD
ENDBRANCH   2  10
BRANCH   3  12
ATOM     12  O   UNL     1     147.475 154.527 127.949  1.00  0.00    -0.387 OA
ATOM     13  H   UNL     1     146.808 153.830 127.715  1.00  0.00     0.211 HD
ENDBRANCH   3  12
BRANCH   5  14
ATOM     14  C   UNL     1     144.186 153.010 130.556  1.00  0.00     0.191 C 
BRANCH  14  15
ATOM     15  O   UNL     1     143.309 154.102 130.608  1.00  0.00    -0.394 OA
ATOM     16  H   UNL     1     143.869 154.921 130.562  1.00  0.00     0.210 HD
ENDBRANCH  14  15
ENDBRANCH   5  14
BRANCH   4  17
ATOM     17  O   UNL     1     146.101 154.896 131.279  1.00  0.00    -0.387 OA
ATOM     18  H   UNL     1     146.072 154.014 131.736  1.00  0.00     0.211 HD
ENDBRANCH   4  17
TORSDOF 7
ENDMDL
