MODEL 1
REMARK VINA RESULT:    -4.468      0.000      0.000
REMARK INTER + INTRA:          -7.191
REMARK INTER:                  -6.035
REMARK INTRA:                  -1.156
REMARK UNBOUND:                -1.156
REMARK SMILES CC(=O)CCC=C(C)CCC=C(C)C
REMARK SMILES IDX 7 1 6 2 8 3 9 4 10 5 11 6 13 7 12 8 14 9 5 10 4 11 2 12 3 13
REMARK SMILES IDX 1 14
REMARK H PARENT
REMARK Flexibility Score: inf
ROOT
ATOM      1  C   UNL     1      45.385  58.137  27.779  1.00  0.00    -0.077 C 
ATOM      2  C   UNL     1      44.800  57.350  28.708  1.00  0.00    -0.028 C 
ATOM      3  C   UNL     1      44.570  58.852  26.727  1.00  0.00     0.039 C 
ENDROOT
BRANCH   1   4
ATOM      4  C   UNL     1      46.888  58.308  27.795  1.00  0.00     0.034 C 
BRANCH   4   5
ATOM      5  C   UNL     1      47.523  57.663  26.558  1.00  0.00     0.032 C 
BRANCH   5   6
ATOM      6  C   UNL     1      48.166  56.346  26.912  1.00  0.00    -0.028 C 
ATOM      7  C   UNL     1      48.343  53.881  27.060  1.00  0.00     0.039 C 
ATOM      8  C   UNL     1      47.594  55.139  26.703  1.00  0.00    -0.080 C 
ATOM      9  C   UNL     1      46.205  54.998  26.131  1.00  0.00     0.039 C 
ENDBRANCH   5   6
ENDBRANCH   4   5
ENDBRANCH   1   4
BRANCH   2  10
ATOM     10  C   UNL     1      43.308  57.114  28.770  1.00  0.00     0.035 C 
BRANCH  10  11
ATOM     11  C   UNL     1      42.907  55.786  28.116  1.00  0.00     0.079 C 
BRANCH  11  12
ATOM     12  C   UNL     1      41.835  55.977  27.073  1.00  0.00     0.130 C 
ATOM     13  O   UNL     1      40.659  55.925  27.402  1.00  0.00    -0.300 OA
ATOM     14  C   UNL     1      42.180  56.244  25.638  1.00  0.00     0.087 C 
ENDBRANCH  11  12
ENDBRANCH  10  11
ENDBRANCH   2  10
TORSDOF 6
ENDMDL
MODEL 2
REMARK VINA RESULT:    -4.324      2.684      4.702
REMARK INTER + INTRA:          -6.996
REMARK INTER:                  -6.350
REMARK INTRA:                  -0.647
REMARK UNBOUND:                -1.156
REMARK SMILES CC(=O)CCC=C(C)CCC=C(C)C
REMARK SMILES IDX 7 1 6 2 8 3 9 4 10 5 11 6 13 7 12 8 14 9 5 10 4 11 2 12 3 13
REMARK SMILES IDX 1 14
REMARK H PARENT
REMARK Flexibility Score: inf
ROOT
ATOM      1  C   UNL     1      41.753  55.794  26.893  1.00  0.00    -0.077 C 
ATOM      2  C   UNL     1      40.484  55.467  27.221  1.00  0.00    -0.028 C 
ATOM      3  C   UNL     1      42.101  56.314  25.518  1.00  0.00     0.039 C 
ENDROOT
BRANCH   1   4
ATOM      4  C   UNL     1      42.847  55.641  27.926  1.00  0.00     0.034 C 
BRANCH   4   5
ATOM      5  C   UNL     1      43.121  56.974  28.631  1.00  0.00     0.032 C 
BRANCH   5   6
ATOM      6  C   UNL     1      44.599  57.270  28.658  1.00  0.00    -0.028 C 
ATOM      7  C   UNL     1      46.704  58.357  27.936  1.00  0.00     0.039 C 
ATOM      8  C   UNL     1      45.225  58.103  27.795  1.00  0.00    -0.080 C 
ATOM      9  C   UNL     1      44.493  58.787  26.668  1.00  0.00     0.039 C 
ENDBRANCH   5   6
ENDBRANCH   4   5
ENDBRANCH   1   4
BRANCH   2  10
ATOM     10  C   UNL     1      39.325  55.581  26.256  1.00  0.00     0.035 C 
BRANCH  10  11
ATOM     11  C   UNL     1      38.616  54.238  26.047  1.00  0.00     0.079 C 
BRANCH  11  12
ATOM     12  C   UNL     1      37.310  54.172  26.800  1.00  0.00     0.130 C 
ATOM     13  O   UNL     1      37.322  54.017  28.012  1.00  0.00    -0.300 OA
ATOM     14  C   UNL     1      35.994  54.306  26.094  1.00  0.00     0.087 C 
ENDBRANCH  11  12
ENDBRANCH  10  11
ENDBRANCH   2  10
TORSDOF 6
ENDMDL
MODEL 3
REMARK VINA RESULT:    -4.201      2.612      4.552
REMARK INTER + INTRA:          -6.831
REMARK INTER:                  -5.360
REMARK INTRA:                  -1.471
REMARK UNBOUND:                -1.156
REMARK SMILES CC(=O)CCC=C(C)CCC=C(C)C
REMARK SMILES IDX 7 1 6 2 8 3 9 4 10 5 11 6 13 7 12 8 14 9 5 10 4 11 2 12 3 13
REMARK SMILES IDX 1 14
REMARK H PARENT
REMARK Flexibility Score: inf
ROOT
ATOM      1  C   UNL     1      45.119  57.771  27.830  1.00  0.00    -0.077 C 
ATOM      2  C   UNL     1      44.627  58.654  26.934  1.00  0.00    -0.028 C 
ATOM      3  C   UNL     1      46.501  57.181  27.675  1.00  0.00     0.039 C 
ENDROOT
BRANCH   1   4
ATOM      4  C   UNL     1      44.270  57.368  29.015  1.00  0.00     0.034 C 
BRANCH   4   5
ATOM      5  C   UNL     1      42.931  56.783  28.552  1.00  0.00     0.032 C 
BRANCH   5   6
ATOM      6  C   UNL     1      43.139  55.473  27.835  1.00  0.00    -0.028 C 
ATOM      7  C   UNL     1      43.088  53.911  25.913  1.00  0.00     0.039 C 
ATOM      8  C   UNL     1      42.800  55.250  26.544  1.00  0.00    -0.080 C 
ATOM      9  C   UNL     1      42.120  56.299  25.701  1.00  0.00     0.039 C 
ENDBRANCH   5   6
ENDBRANCH   4   5
ENDBRANCH   1   4
BRANCH   2  10
ATOM     10  C   UNL     1      45.397  59.114  25.717  1.00  0.00     0.035 C 
BRANCH  10  11
ATOM     11  C   UNL     1      45.030  58.307  24.466  1.00  0.00     0.079 C 
BRANCH  11  12
ATOM     12  C   UNL     1      46.096  57.297  24.119  1.00  0.00     0.130 C 
ATOM     13  O   UNL     1      47.198  57.685  23.762  1.00  0.00    -0.300 OA
ATOM     14  C   UNL     1      45.837  55.823  24.217  1.00  0.00     0.087 C 
ENDBRANCH  11  12
ENDBRANCH  10  11
ENDBRANCH   2  10
TORSDOF 6
ENDMDL
MODEL 4
REMARK VINA RESULT:    -4.197      2.488      5.214
REMARK INTER + INTRA:          -6.826
REMARK INTER:                  -5.979
REMARK INTRA:                  -0.846
REMARK UNBOUND:                -1.156
REMARK SMILES CC(=O)CCC=C(C)CCC=C(C)C
REMARK SMILES IDX 7 1 6 2 8 3 9 4 10 5 11 6 13 7 12 8 14 9 5 10 4 11 2 12 3 13
REMARK SMILES IDX 1 14
REMARK H PARENT
REMARK Flexibility Score: inf
ROOT
ATOM      1  C   UNL     1      45.470  57.474  27.808  1.00  0.00    -0.077 C 
ATOM      2  C   UNL     1      46.465  58.387  27.754  1.00  0.00    -0.028 C 
ATOM      3  C   UNL     1      45.466  56.261  26.908  1.00  0.00     0.039 C 
ENDROOT
BRANCH   1   4
ATOM      4  C   UNL     1      44.339  57.671  28.792  1.00  0.00     0.034 C 
BRANCH   4   5
ATOM      5  C   UNL     1      43.506  56.391  28.927  1.00  0.00     0.032 C 
BRANCH   5   6
ATOM      6  C   UNL     1      42.183  56.537  28.219  1.00  0.00    -0.028 C 
ATOM      7  C   UNL     1      40.255  55.801  26.851  1.00  0.00     0.039 C 
ATOM      8  C   UNL     1      41.600  55.561  27.487  1.00  0.00    -0.080 C 
ATOM      9  C   UNL     1      42.260  54.223  27.264  1.00  0.00     0.039 C 
ENDBRANCH   5   6
ENDBRANCH   4   5
ENDBRANCH   1   4
BRANCH   2  10
ATOM     10  C   UNL     1      47.634  58.279  26.800  1.00  0.00     0.035 C 
BRANCH  10  11
ATOM     11  C   UNL     1      47.636  59.408  25.762  1.00  0.00     0.079 C 
BRANCH  11  12
ATOM     12  C   UNL     1      46.465  59.301  24.818  1.00  0.00     0.130 C 
ATOM     13  O   UNL     1      45.581  60.144  24.858  1.00  0.00    -0.300 OA
ATOM     14  C   UNL     1      46.368  58.189  23.817  1.00  0.00     0.087 C 
ENDBRANCH  11  12
ENDBRANCH  10  11
ENDBRANCH   2  10
TORSDOF 6
ENDMDL
MODEL 5
REMARK VINA RESULT:    -4.179      2.521      5.959
REMARK INTER + INTRA:          -6.802
REMARK INTER:                  -5.926
REMARK INTRA:                  -0.875
REMARK UNBOUND:                -1.156
REMARK SMILES CC(=O)CCC=C(C)CCC=C(C)C
REMARK SMILES IDX 7 1 6 2 8 3 9 4 10 5 11 6 13 7 12 8 14 9 5 10 4 11 2 12 3 13
REMARK SMILES IDX 1 14
REMARK H PARENT
REMARK Flexibility Score: inf
ROOT
ATOM      1  C   UNL     1      42.385  55.990  27.760  1.00  0.00    -0.077 C 
ATOM      2  C   UNL     1      42.850  56.929  28.612  1.00  0.00    -0.028 C 
ATOM      3  C   UNL     1      43.317  55.015  27.078  1.00  0.00     0.039 C 
ENDROOT
BRANCH   1   4
ATOM      4  C   UNL     1      40.900  55.910  27.485  1.00  0.00     0.034 C 
BRANCH   4   5
ATOM      5  C   UNL     1      40.629  55.178  26.165  1.00  0.00     0.032 C 
BRANCH   5   6
ATOM      6  C   UNL     1      39.942  56.090  25.180  1.00  0.00    -0.028 C 
ATOM      7  C   UNL     1      39.755  57.505  23.156  1.00  0.00     0.039 C 
ATOM      8  C   UNL     1      40.546  56.636  24.100  1.00  0.00    -0.080 C 
ATOM      9  C   UNL     1      42.010  56.420  23.805  1.00  0.00     0.039 C 
ENDBRANCH   5   6
ENDBRANCH   4   5
ENDBRANCH   1   4
BRANCH   2  10
ATOM     10  C   UNL     1      44.316  57.090  28.945  1.00  0.00     0.035 C 
BRANCH  10  11
ATOM     11  C   UNL     1      44.961  58.242  28.165  1.00  0.00     0.079 C 
BRANCH  11  12
ATOM     12  C   UNL     1      46.374  57.915  27.753  1.00  0.00     0.130 C 
ATOM     13  O   UNL     1      47.253  58.750  27.903  1.00  0.00    -0.300 OA
ATOM     14  C   UNL     1      46.730  56.578  27.174  1.00  0.00     0.087 C 
ENDBRANCH  11  12
ENDBRANCH  10  11
ENDBRANCH   2  10
TORSDOF 6
ENDMDL
MODEL 6
REMARK VINA RESULT:    -4.162      2.150      4.222
REMARK INTER + INTRA:          -6.778
REMARK INTER:                  -5.720
REMARK INTRA:                  -1.058
REMARK UNBOUND:                -1.156
REMARK SMILES CC(=O)CCC=C(C)CCC=C(C)C
REMARK SMILES IDX 7 1 6 2 8 3 9 4 10 5 11 6 13 7 12 8 14 9 5 10 4 11 2 12 3 13
REMARK SMILES IDX 1 14
REMARK H PARENT
REMARK Flexibility Score: inf
ROOT
ATOM      1  C   UNL     1      42.833  55.641  26.775  1.00  0.00    -0.077 C 
ATOM      2  C   UNL     1      41.903  56.368  26.119  1.00  0.00    -0.028 C 
ATOM      3  C   UNL     1      43.795  54.742  26.035  1.00  0.00     0.039 C 
ENDROOT
BRANCH   1   4
ATOM      4  C   UNL     1      42.914  55.731  28.283  1.00  0.00     0.034 C 
BRANCH   4   5
ATOM      5  C   UNL     1      43.321  57.142  28.723  1.00  0.00     0.032 C 
BRANCH   5   6
ATOM      6  C   UNL     1      44.812  57.331  28.602  1.00  0.00    -0.028 C 
ATOM      7  C   UNL     1      46.906  58.278  27.680  1.00  0.00     0.039 C 
ATOM      8  C   UNL     1      45.406  58.132  27.689  1.00  0.00    -0.080 C 
ATOM      9  C   UNL     1      44.615  58.886  26.649  1.00  0.00     0.039 C 
ENDBRANCH   5   6
ENDBRANCH   4   5
ENDBRANCH   1   4
BRANCH   2  10
ATOM     10  C   UNL     1      41.741  56.340  24.616  1.00  0.00     0.035 C 
BRANCH  10  11
ATOM     11  C   UNL     1      40.573  55.447  24.179  1.00  0.00     0.079 C 
BRANCH  11  12
ATOM     12  C   UNL     1      39.240  56.078  24.493  1.00  0.00     0.130 C 
ATOM     13  O   UNL     1      38.925  57.124  23.946  1.00  0.00    -0.300 OA
ATOM     14  C   UNL     1      38.281  55.440  25.454  1.00  0.00     0.087 C 
ENDBRANCH  11  12
ENDBRANCH  10  11
ENDBRANCH   2  10
TORSDOF 6
ENDMDL
MODEL 7
REMARK VINA RESULT:    -4.073      2.056      4.976
REMARK INTER + INTRA:          -6.658
REMARK INTER:                  -5.621
REMARK INTRA:                  -1.037
REMARK UNBOUND:                -1.156
REMARK SMILES CC(=O)CCC=C(C)CCC=C(C)C
REMARK SMILES IDX 7 1 6 2 8 3 9 4 10 5 11 6 13 7 12 8 14 9 5 10 4 11 2 12 3 13
REMARK SMILES IDX 1 14
REMARK H PARENT
REMARK Flexibility Score: inf
ROOT
ATOM      1  C   UNL     1      45.230  58.333  27.749  1.00  0.00    -0.077 C 
ATOM      2  C   UNL     1      46.566  58.218  27.920  1.00  0.00    -0.028 C 
ATOM      3  C   UNL     1      44.646  58.911  26.482  1.00  0.00     0.039 C 
ENDROOT
BRANCH   1   4
ATOM      4  C   UNL     1      44.301  57.869  28.848  1.00  0.00     0.034 C 
BRANCH   4   5
ATOM      5  C   UNL     1      43.873  56.415  28.622  1.00  0.00     0.032 C 
BRANCH   5   6
ATOM      6  C   UNL     1      42.406  56.336  28.284  1.00  0.00    -0.028 C 
ATOM      7  C   UNL     1      40.432  55.919  26.847  1.00  0.00     0.039 C 
ATOM      8  C   UNL     1      41.921  56.005  27.066  1.00  0.00    -0.080 C 
ATOM      9  C   UNL     1      42.827  55.730  25.891  1.00  0.00     0.039 C 
ENDBRANCH   5   6
ENDBRANCH   4   5
ENDBRANCH   1   4
BRANCH   2  10
ATOM     10  C   UNL     1      47.572  58.659  26.882  1.00  0.00     0.035 C 
BRANCH  10  11
ATOM     11  C   UNL     1      48.348  57.474  26.293  1.00  0.00     0.079 C 
BRANCH  11  12
ATOM     12  C   UNL     1      47.432  56.489  25.611  1.00  0.00     0.130 C 
ATOM     13  O   UNL     1      46.950  56.770  24.523  1.00  0.00    -0.300 OA
ATOM     14  C   UNL     1      47.108  55.163  26.231  1.00  0.00     0.087 C 
ENDBRANCH  11  12
ENDBRANCH  10  11
ENDBRANCH   2  10
TORSDOF 6
ENDMDL
MODEL 8
REMARK VINA RESULT:    -4.032      1.544      2.147
REMARK INTER + INTRA:          -6.602
REMARK INTER:                  -5.410
REMARK INTRA:                  -1.192
REMARK UNBOUND:                -1.156
REMARK SMILES CC(=O)CCC=C(C)CCC=C(C)C
REMARK SMILES IDX 7 1 6 2 8 3 9 4 10 5 11 6 13 7 12 8 14 9 5 10 4 11 2 12 3 13
REMARK SMILES IDX 1 14
REMARK H PARENT
REMARK Flexibility Score: inf
ROOT
ATOM      1  C   UNL     1      45.358  58.138  27.779  1.00  0.00    -0.077 C 
ATOM      2  C   UNL     1      44.734  57.347  28.679  1.00  0.00    -0.028 C 
ATOM      3  C   UNL     1      44.585  58.882  26.715  1.00  0.00     0.039 C 
ENDROOT
BRANCH   1   4
ATOM      4  C   UNL     1      46.862  58.286  27.841  1.00  0.00     0.034 C 
BRANCH   4   5
ATOM      5  C   UNL     1      47.553  57.129  27.111  1.00  0.00     0.032 C 
BRANCH   5   6
ATOM      6  C   UNL     1      48.160  57.601  25.814  1.00  0.00    -0.028 C 
ATOM      7  C   UNL     1      48.289  57.930  23.362  1.00  0.00     0.039 C 
ATOM      8  C   UNL     1      47.617  57.380  24.594  1.00  0.00    -0.080 C 
ATOM      9  C   UNL     1      46.353  56.577  24.413  1.00  0.00     0.039 C 
ENDBRANCH   5   6
ENDBRANCH   4   5
ENDBRANCH   1   4
BRANCH   2  10
ATOM     10  C   UNL     1      43.237  57.134  28.694  1.00  0.00     0.035 C 
BRANCH  10  11
ATOM     11  C   UNL     1      42.857  55.693  28.333  1.00  0.00     0.079 C 
BRANCH  11  12
ATOM     12  C   UNL     1      43.170  55.376  26.892  1.00  0.00     0.130 C 
ATOM     13  O   UNL     1      42.531  55.922  26.004  1.00  0.00    -0.300 OA
ATOM     14  C   UNL     1      44.260  54.415  26.521  1.00  0.00     0.087 C 
ENDBRANCH  11  12
ENDBRANCH  10  11
ENDBRANCH   2  10
TORSDOF 6
ENDMDL
MODEL 9
REMARK VINA RESULT:    -4.023      3.064      6.625
REMARK INTER + INTRA:          -6.590
REMARK INTER:                  -5.990
REMARK INTRA:                  -0.600
REMARK UNBOUND:                -1.156
REMARK SMILES CC(=O)CCC=C(C)CCC=C(C)C
REMARK SMILES IDX 7 1 6 2 8 3 9 4 10 5 11 6 13 7 12 8 14 9 5 10 4 11 2 12 3 13
REMARK SMILES IDX 1 14
REMARK H PARENT
REMARK Flexibility Score: inf
ROOT
ATOM      1  C   UNL     1      42.350  56.030  27.747  1.00  0.00    -0.077 C 
ATOM      2  C   UNL     1      42.848  56.911  28.643  1.00  0.00    -0.028 C 
ATOM      3  C   UNL     1      43.248  55.065  27.010  1.00  0.00     0.039 C 
ENDROOT
BRANCH   1   4
ATOM      4  C   UNL     1      40.862  56.009  27.480  1.00  0.00     0.034 C 
BRANCH   4   5
ATOM      5  C   UNL     1      40.402  54.604  27.074  1.00  0.00     0.032 C 
BRANCH   5   6
ATOM      6  C   UNL     1      38.944  54.609  26.689  1.00  0.00    -0.028 C 
ATOM      7  C   UNL     1      36.586  53.855  26.742  1.00  0.00     0.039 C 
ATOM      8  C   UNL     1      38.027  53.736  27.165  1.00  0.00    -0.080 C 
ATOM      9  C   UNL     1      38.399  52.618  28.107  1.00  0.00     0.039 C 
ENDBRANCH   5   6
ENDBRANCH   4   5
ENDBRANCH   1   4
BRANCH   2  10
ATOM     10  C   UNL     1      44.320  57.010  28.973  1.00  0.00     0.035 C 
BRANCH  10  11
ATOM     11  C   UNL     1      44.971  58.243  28.333  1.00  0.00     0.079 C 
BRANCH  11  12
ATOM     12  C   UNL     1      45.793  57.877  27.123  1.00  0.00     0.130 C 
ATOM     13  O   UNL     1      45.707  58.554  26.110  1.00  0.00    -0.300 OA
ATOM     14  C   UNL     1      46.727  56.704  27.140  1.00  0.00     0.087 C 
ENDBRANCH  11  12
ENDBRANCH  10  11
ENDBRANCH   2  10
TORSDOF 6
ENDMDL
