MODEL 1
REMARK VINA RESULT:    -1.619      0.000      0.000
REMARK INTER + INTRA:          -1.434
REMARK INTER:                  -2.282
REMARK INTRA:                   0.848
REMARK UNBOUND:                 0.848
REMARK SMILES CC1=CCC(=C(C)C)C(=O)CC(C)=CCC1
REMARK SMILES IDX 12 1 14 2 13 3 15 4 16 5 2 6 1 7 3 8 11 10 9 11 10 12 5 13
REMARK SMILES IDX 6 14 7 15 8 16 4 17
REMARK H PARENT
REMARK Flexibility Score: 60.00
ROOT
ATOM      1  C   UNL     1       7.732  -2.888  -3.468  1.00  0.00    -0.070 C 
ATOM      2  C   UNL     1       6.420  -3.010  -3.153  1.00  0.00    -0.027 C 
ATOM      3  C   UNL     1       8.216  -3.584  -4.716  1.00  0.00     0.039 C 
ENDROOT
BRANCH   2   4
ATOM      4  C   UNL     1       5.748  -2.490  -1.906  1.00  0.00     0.032 C 
BRANCH   4   5
ATOM      5  C   UNL     1       6.618  -2.663  -0.646  1.00  0.00     0.034 C 
BRANCH   5   6
ATOM      6  C   UNL     1       6.764  -4.118  -0.246  1.00  0.00    -0.077 C 
ATOM      7  C   UNL     1       5.517  -4.959  -0.141  1.00  0.00     0.039 C 
ATOM      8  C   UNL     1       7.953  -4.714  -0.002  1.00  0.00    -0.023 CG0
ATOM      9  G   UNL     1       9.306  -4.052  -0.090  1.00  0.00     0.000 G0
ENDBRANCH   5   6
ENDBRANCH   4   5
ENDBRANCH   2   4
BRANCH   1  10
ATOM     10  C   UNL     1       8.743  -2.152  -2.603  1.00  0.00     0.111 C 
BRANCH  10  11
ATOM     11  C   UNL     1       9.968  -2.992  -2.345  1.00  0.00     0.163 C 
ATOM     12  O   UNL     1      11.062  -2.620  -2.851  1.00  0.00    -0.294 OA
BRANCH  11  13
ATOM     13  C   UNL     1       9.925  -4.208  -1.474  1.00  0.00    -0.002 C 
ATOM     14  C   UNL     1      10.334  -5.433  -1.926  1.00  0.00    -0.069 C 
ATOM     15  C   UNL     1      10.784  -5.639  -3.355  1.00  0.00     0.039 C 
ATOM     16  C   UNL     1      10.322  -6.650  -1.027  1.00  0.00     0.039 C 
BRANCH  13  17
ATOM     17  C   UNL     1       9.334  -4.041  -0.085  1.00  0.00     0.066 CG0
ATOM     18  G   UNL     1       7.975  -4.693  -0.025  1.00  0.00     0.000 G0
ENDBRANCH  13  17
ENDBRANCH  11  13
ENDBRANCH  10  11
ENDBRANCH   1  10
TORSDOF 0
ENDMDL
MODEL 2
REMARK VINA RESULT:    -1.398     15.890     17.282
REMARK INTER + INTRA:          -1.123
REMARK INTER:                  -2.360
REMARK INTRA:                   1.237
REMARK UNBOUND:                 0.848
REMARK SMILES CC1=CCC(=C(C)C)C(=O)CC(C)=CCC1
REMARK SMILES IDX 12 1 14 2 13 3 15 4 16 5 2 6 1 7 3 8 11 10 9 11 10 12 5 13
REMARK SMILES IDX 6 14 7 15 8 16 4 17
REMARK H PARENT
REMARK Flexibility Score: 60.00
ROOT
ATOM      1  C   UNL     1      -7.597  -6.279  -5.477  1.00  0.00    -0.070 C 
ATOM      2  C   UNL     1      -7.358  -5.823  -6.730  1.00  0.00    -0.027 C 
ATOM      3  C   UNL     1      -6.515  -7.098  -4.817  1.00  0.00     0.039 C 
ENDROOT
BRANCH   2   4
ATOM      4  C   UNL     1      -8.332  -5.080  -7.612  1.00  0.00     0.032 C 
BRANCH   4   5
ATOM      5  C   UNL     1      -9.111  -3.991  -6.851  1.00  0.00     0.034 C 
BRANCH   5   6
ATOM      6  C   UNL     1      -8.198  -2.916  -6.295  1.00  0.00    -0.077 C 
ATOM      7  C   UNL     1      -7.256  -2.218  -7.243  1.00  0.00     0.039 C 
ATOM      8  C   UNL     1      -8.198  -2.526  -5.000  1.00  0.00    -0.023 CG0
ATOM      9  G   UNL     1      -9.088  -3.077  -3.913  1.00  0.00     0.000 G0
ENDBRANCH   5   6
ENDBRANCH   4   5
ENDBRANCH   2   4
BRANCH   1  10
ATOM     10  C   UNL     1      -8.909  -6.070  -4.739  1.00  0.00     0.111 C 
BRANCH  10  11
ATOM     11  C   UNL     1      -8.682  -5.547  -3.342  1.00  0.00     0.163 C 
ATOM     12  O   UNL     1      -8.738  -6.366  -2.384  1.00  0.00    -0.294 OA
BRANCH  11  13
ATOM     13  C   UNL     1      -8.345  -4.113  -3.079  1.00  0.00    -0.002 C 
ATOM     14  C   UNL     1      -7.453  -3.749  -2.108  1.00  0.00    -0.069 C 
ATOM     15  C   UNL     1      -6.813  -4.773  -1.197  1.00  0.00     0.039 C 
ATOM     16  C   UNL     1      -7.089  -2.300  -1.874  1.00  0.00     0.039 C 
BRANCH  13  17
ATOM     17  C   UNL     1      -9.094  -3.069  -3.888  1.00  0.00     0.066 CG0
ATOM     18  G   UNL     1      -8.205  -2.535  -4.984  1.00  0.00     0.000 G0
ENDBRANCH  13  17
ENDBRANCH  11  13
ENDBRANCH  10  11
ENDBRANCH   1  10
TORSDOF 0
ENDMDL
MODEL 3
REMARK VINA RESULT:    -0.908      1.920      3.064
REMARK INTER + INTRA:          -0.432
REMARK INTER:                  -1.742
REMARK INTRA:                   1.310
REMARK UNBOUND:                 0.848
REMARK SMILES CC1=CCC(=C(C)C)C(=O)CC(C)=CCC1
REMARK SMILES IDX 12 1 14 2 13 3 15 4 16 5 2 6 1 7 3 8 11 10 9 11 10 12 5 13
REMARK SMILES IDX 6 14 7 15 8 16 4 17
REMARK H PARENT
REMARK Flexibility Score: 60.00
ROOT
ATOM      1  C   UNL     1       8.009  -3.001  -2.865  1.00  0.00    -0.070 C 
ATOM      2  C   UNL     1       7.843  -3.204  -1.536  1.00  0.00    -0.027 C 
ATOM      3  C   UNL     1       6.953  -3.552  -3.790  1.00  0.00     0.039 C 
ENDROOT
BRANCH   2   4
ATOM      4  C   UNL     1       8.820  -2.835  -0.447  1.00  0.00     0.032 C 
BRANCH   4   5
ATOM      5  C   UNL     1       9.993  -3.828  -0.340  1.00  0.00     0.034 C 
BRANCH   5   6
ATOM      6  C   UNL     1       9.675  -5.161  -0.989  1.00  0.00    -0.077 C 
ATOM      7  C   UNL     1       8.756  -6.109  -0.262  1.00  0.00     0.039 C 
ATOM      8  C   UNL     1      10.149  -5.540  -2.198  1.00  0.00    -0.023 CG0
ATOM      9  G   UNL     1      11.048  -4.718  -3.089  1.00  0.00     0.000 G0
ENDBRANCH   5   6
ENDBRANCH   4   5
ENDBRANCH   2   4
BRANCH   1  10
ATOM     10  C   UNL     1       9.224  -2.315  -3.469  1.00  0.00     0.111 C 
BRANCH  10  11
ATOM     11  C   UNL     1       9.782  -3.098  -4.632  1.00  0.00     0.163 C 
ATOM     12  O   UNL     1       9.720  -2.581  -5.780  1.00  0.00    -0.294 OA
BRANCH  11  13
ATOM     13  C   UNL     1      10.442  -4.428  -4.446  1.00  0.00    -0.002 C 
ATOM     14  C   UNL     1      10.422  -5.384  -5.425  1.00  0.00    -0.069 C 
ATOM     15  C   UNL     1       9.669  -5.176  -6.720  1.00  0.00     0.039 C 
ATOM     16  C   UNL     1      11.124  -6.712  -5.244  1.00  0.00     0.039 C 
BRANCH  13  17
ATOM     17  C   UNL     1      11.072  -4.703  -3.093  1.00  0.00     0.066 CG0
ATOM     18  G   UNL     1      10.139  -5.540  -2.253  1.00  0.00     0.000 G0
ENDBRANCH  13  17
ENDBRANCH  11  13
ENDBRANCH  10  11
ENDBRANCH   1  10
TORSDOF 0
ENDMDL
MODEL 4
REMARK VINA RESULT:    -0.521      1.914      3.693
REMARK INTER + INTRA:           0.114
REMARK INTER:                  -1.977
REMARK INTRA:                   2.091
REMARK UNBOUND:                 0.848
REMARK SMILES CC1=CCC(=C(C)C)C(=O)CC(C)=CCC1
REMARK SMILES IDX 12 1 14 2 13 3 15 4 16 5 2 6 1 7 3 8 11 10 9 11 10 12 5 13
REMARK SMILES IDX 6 14 7 15 8 16 4 17
REMARK H PARENT
REMARK Flexibility Score: 60.00
ROOT
ATOM      1  C   UNL     1       6.382  -2.450  -3.093  1.00  0.00    -0.070 C 
ATOM      2  C   UNL     1       7.170  -1.914  -4.055  1.00  0.00    -0.027 C 
ATOM      3  C   UNL     1       4.997  -1.875  -2.929  1.00  0.00     0.039 C 
ENDROOT
BRANCH   2   4
ATOM      4  C   UNL     1       8.615  -2.260  -4.322  1.00  0.00     0.032 C 
BRANCH   4   5
ATOM      5  C   UNL     1       8.816  -3.749  -4.662  1.00  0.00     0.034 C 
BRANCH   5   6
ATOM      6  C   UNL     1      10.244  -4.203  -4.426  1.00  0.00    -0.077 C 
ATOM      7  C   UNL     1      10.926  -5.007  -5.503  1.00  0.00     0.039 C 
ATOM      8  C   UNL     1      10.953  -3.904  -3.313  1.00  0.00    -0.023 CG0
ATOM      9  G   UNL     1      10.459  -3.084  -2.147  1.00  0.00     0.000 G0
ENDBRANCH   5   6
ENDBRANCH   4   5
ENDBRANCH   2   4
BRANCH   1  10
ATOM     10  C   UNL     1       6.838  -3.541  -2.137  1.00  0.00     0.111 C 
BRANCH  10  11
ATOM     11  C   UNL     1       8.031  -3.101  -1.324  1.00  0.00     0.163 C 
ATOM     12  O   UNL     1       7.882  -2.138  -0.525  1.00  0.00    -0.294 OA
BRANCH  11  13
ATOM     13  C   UNL     1       9.348  -3.807  -1.407  1.00  0.00    -0.002 C 
ATOM     14  C   UNL     1       9.555  -5.017  -0.804  1.00  0.00    -0.069 C 
ATOM     15  C   UNL     1       8.487  -5.674   0.041  1.00  0.00     0.039 C 
ATOM     16  C   UNL     1      10.878  -5.742  -0.924  1.00  0.00     0.039 C 
BRANCH  13  17
ATOM     17  C   UNL     1      10.473  -3.085  -2.127  1.00  0.00     0.066 CG0
ATOM     18  G   UNL     1      10.960  -3.922  -3.285  1.00  0.00     0.000 G0
ENDBRANCH  13  17
ENDBRANCH  11  13
ENDBRANCH  10  11
ENDBRANCH   1  10
TORSDOF 0
ENDMDL
