MODEL 1
REMARK VINA RESULT:    -4.732      0.000      0.000
REMARK INTER + INTRA:          -5.028
REMARK INTER:                  -5.008
REMARK INTRA:                  -0.019
REMARK UNBOUND:                -0.019
REMARK SMILES O=C([O-])c1cccnc1
REMARK SMILES IDX 4 1 5 2 9 3 6 4 8 5 7 6 2 7 1 8 3 9
REMARK H PARENT
REMARK Flexibility Score: inf
ROOT
ATOM      1  C   UNL     1     -24.872   4.057  12.309  1.00  0.00     0.016 A 
ATOM      2  C   UNL     1     -24.510   5.205  11.586  1.00  0.00     0.013 A 
ATOM      3  C   UNL     1     -26.058   4.090  13.064  1.00  0.00     0.120 A 
ATOM      4  C   UNL     1     -25.317   6.343  11.626  1.00  0.00     0.021 A 
ATOM      5  N   UNL     1     -26.826   5.212  13.086  1.00  0.00    -0.264 NA
ATOM      6  C   UNL     1     -26.484   6.327  12.390  1.00  0.00     0.111 A 
ENDROOT
BRANCH   1   7
ATOM      7  C   UNL     1     -24.025   2.845  12.274  1.00  0.00     0.073 C 
ATOM      8  O   UNL     1     -24.541   1.708  12.109  1.00  0.00    -0.545 OA
ATOM      9  O   UNL     1     -22.646   2.945  12.423  1.00  0.00    -0.545 OA
ENDBRANCH   1   7
TORSDOF 1
ENDMDL
MODEL 2
REMARK VINA RESULT:    -4.705      0.936      1.597
REMARK INTER + INTRA:          -5.000
REMARK INTER:                  -4.979
REMARK INTRA:                  -0.021
REMARK UNBOUND:                -0.019
REMARK SMILES O=C([O-])c1cccnc1
REMARK SMILES IDX 4 1 5 2 9 3 6 4 8 5 7 6 2 7 1 8 3 9
REMARK H PARENT
REMARK Flexibility Score: inf
ROOT
ATOM      1  C   UNL     1     -24.829   4.099  12.281  1.00  0.00     0.016 A 
ATOM      2  C   UNL     1     -26.101   4.107  12.876  1.00  0.00     0.013 A 
ATOM      3  C   UNL     1     -24.349   5.293  11.714  1.00  0.00     0.120 A 
ATOM      4  C   UNL     1     -26.859   5.279  12.895  1.00  0.00     0.021 A 
ATOM      5  N   UNL     1     -25.108   6.421  11.745  1.00  0.00    -0.264 NA
ATOM      6  C   UNL     1     -26.340   6.439  12.319  1.00  0.00     0.111 A 
ENDROOT
BRANCH   1   7
ATOM      7  C   UNL     1     -24.017   2.864  12.256  1.00  0.00     0.073 C 
ATOM      8  O   UNL     1     -24.564   1.741  12.087  1.00  0.00    -0.545 OA
ATOM      9  O   UNL     1     -22.637   2.924  12.418  1.00  0.00    -0.545 OA
ENDBRANCH   1   7
TORSDOF 1
ENDMDL
MODEL 3
REMARK VINA RESULT:    -4.701      3.148      4.028
REMARK INTER + INTRA:          -4.996
REMARK INTER:                  -4.980
REMARK INTRA:                  -0.016
REMARK UNBOUND:                -0.019
REMARK SMILES O=C([O-])c1cccnc1
REMARK SMILES IDX 4 1 5 2 9 3 6 4 8 5 7 6 2 7 1 8 3 9
REMARK H PARENT
REMARK Flexibility Score: inf
ROOT
ATOM      1  C   UNL     1     -24.533   4.688  13.370  1.00  0.00     0.016 A 
ATOM      2  C   UNL     1     -25.012   3.405  13.059  1.00  0.00     0.013 A 
ATOM      3  C   UNL     1     -23.183   4.978  13.109  1.00  0.00     0.120 A 
ATOM      4  C   UNL     1     -24.155   2.452  12.505  1.00  0.00     0.021 A 
ATOM      5  N   UNL     1     -22.369   4.032  12.569  1.00  0.00    -0.264 NA
ATOM      6  C   UNL     1     -22.823   2.788  12.264  1.00  0.00     0.111 A 
ENDROOT
BRANCH   1   7
ATOM      7  C   UNL     1     -25.431   5.705  13.957  1.00  0.00     0.073 C 
ATOM      8  O   UNL     1     -26.048   6.518  13.217  1.00  0.00    -0.545 OA
ATOM      9  O   UNL     1     -25.608   5.780  15.334  1.00  0.00    -0.545 OA
ENDBRANCH   1   7
TORSDOF 1
ENDMDL
MODEL 4
REMARK VINA RESULT:    -4.615      2.844      3.830
REMARK INTER + INTRA:          -4.904
REMARK INTER:                  -4.885
REMARK INTRA:                  -0.019
REMARK UNBOUND:                -0.019
REMARK SMILES O=C([O-])c1cccnc1
REMARK SMILES IDX 4 1 5 2 9 3 6 4 8 5 7 6 2 7 1 8 3 9
REMARK H PARENT
REMARK Flexibility Score: inf
ROOT
ATOM      1  C   UNL     1     -25.160   4.399  12.825  1.00  0.00     0.016 A 
ATOM      2  C   UNL     1     -25.009   3.077  12.374  1.00  0.00     0.013 A 
ATOM      3  C   UNL     1     -24.002   5.159  13.065  1.00  0.00     0.120 A 
ATOM      4  C   UNL     1     -23.734   2.545  12.175  1.00  0.00     0.021 A 
ATOM      5  N   UNL     1     -22.771   4.616  12.864  1.00  0.00    -0.264 NA
ATOM      6  C   UNL     1     -22.615   3.339  12.428  1.00  0.00     0.111 A 
ENDROOT
BRANCH   1   7
ATOM      7  C   UNL     1     -26.506   4.974  13.038  1.00  0.00     0.073 C 
ATOM      8  O   UNL     1     -26.786   6.125  12.609  1.00  0.00    -0.545 OA
ATOM      9  O   UNL     1     -27.481   4.251  13.716  1.00  0.00    -0.545 OA
ENDBRANCH   1   7
TORSDOF 1
ENDMDL
MODEL 5
REMARK VINA RESULT:    -4.601      1.068      1.237
REMARK INTER + INTRA:          -4.890
REMARK INTER:                  -4.867
REMARK INTRA:                  -0.023
REMARK UNBOUND:                -0.019
REMARK SMILES O=C([O-])c1cccnc1
REMARK SMILES IDX 4 1 5 2 9 3 6 4 8 5 7 6 2 7 1 8 3 9
REMARK H PARENT
REMARK Flexibility Score: inf
ROOT
ATOM      1  C   UNL     1     -24.219   4.428  12.506  1.00  0.00     0.016 A 
ATOM      2  C   UNL     1     -24.446   5.723  12.015  1.00  0.00     0.013 A 
ATOM      3  C   UNL     1     -25.297   3.734  13.083  1.00  0.00     0.120 A 
ATOM      4  C   UNL     1     -25.716   6.295  12.104  1.00  0.00     0.021 A 
ATOM      5  N   UNL     1     -26.525   4.314  13.158  1.00  0.00    -0.264 NA
ATOM      6  C   UNL     1     -26.755   5.566  12.685  1.00  0.00     0.111 A 
ENDROOT
BRANCH   1   7
ATOM      7  C   UNL     1     -22.877   3.812  12.417  1.00  0.00     0.073 C 
ATOM      8  O   UNL     1     -22.741   2.561  12.487  1.00  0.00    -0.545 OA
ATOM      9  O   UNL     1     -21.747   4.605  12.255  1.00  0.00    -0.545 OA
ENDBRANCH   1   7
TORSDOF 1
ENDMDL
MODEL 6
REMARK VINA RESULT:    -4.586      2.875      3.918
REMARK INTER + INTRA:          -4.874
REMARK INTER:                  -4.852
REMARK INTRA:                  -0.022
REMARK UNBOUND:                -0.019
REMARK SMILES O=C([O-])c1cccnc1
REMARK SMILES IDX 4 1 5 2 9 3 6 4 8 5 7 6 2 7 1 8 3 9
REMARK H PARENT
REMARK Flexibility Score: inf
ROOT
ATOM      1  C   UNL     1     -24.708   4.823  12.242  1.00  0.00     0.016 A 
ATOM      2  C   UNL     1     -25.105   3.479  12.336  1.00  0.00     0.013 A 
ATOM      3  C   UNL     1     -23.332   5.114  12.232  1.00  0.00     0.120 A 
ATOM      4  C   UNL     1     -24.146   2.469  12.417  1.00  0.00     0.021 A 
ATOM      5  N   UNL     1     -22.418   4.110  12.313  1.00  0.00    -0.264 NA
ATOM      6  C   UNL     1     -22.792   2.807  12.404  1.00  0.00     0.111 A 
ENDROOT
BRANCH   1   7
ATOM      7  C   UNL     1     -25.715   5.902  12.154  1.00  0.00     0.073 C 
ATOM      8  O   UNL     1     -26.834   5.781  12.721  1.00  0.00    -0.545 OA
ATOM      9  O   UNL     1     -25.440   7.066  11.445  1.00  0.00    -0.545 OA
ENDBRANCH   1   7
TORSDOF 1
ENDMDL
MODEL 7
REMARK VINA RESULT:    -4.524      2.747      3.720
REMARK INTER + INTRA:          -4.808
REMARK INTER:                  -4.785
REMARK INTRA:                  -0.024
REMARK UNBOUND:                -0.019
REMARK SMILES O=C([O-])c1cccnc1
REMARK SMILES IDX 4 1 5 2 9 3 6 4 8 5 7 6 2 7 1 8 3 9
REMARK H PARENT
REMARK Flexibility Score: inf
ROOT
ATOM      1  C   UNL     1     -27.515   6.015  12.532  1.00  0.00     0.016 A 
ATOM      2  C   UNL     1     -28.755   6.558  12.160  1.00  0.00     0.013 A 
ATOM      3  C   UNL     1     -26.355   6.770  12.285  1.00  0.00     0.120 A 
ATOM      4  C   UNL     1     -28.819   7.817  11.560  1.00  0.00     0.021 A 
ATOM      5  N   UNL     1     -26.444   7.994  11.698  1.00  0.00    -0.264 NA
ATOM      6  C   UNL     1     -27.640   8.527  11.335  1.00  0.00     0.111 A 
ENDROOT
BRANCH   1   7
ATOM      7  C   UNL     1     -27.435   4.683  13.169  1.00  0.00     0.073 C 
ATOM      8  O   UNL     1     -28.469   4.134  13.636  1.00  0.00    -0.545 OA
ATOM      9  O   UNL     1     -26.218   4.018  13.261  1.00  0.00    -0.545 OA
ENDBRANCH   1   7
TORSDOF 1
ENDMDL
MODEL 8
REMARK VINA RESULT:    -4.315      3.190      3.925
REMARK INTER + INTRA:          -4.587
REMARK INTER:                  -4.567
REMARK INTRA:                  -0.020
REMARK UNBOUND:                -0.019
REMARK SMILES O=C([O-])c1cccnc1
REMARK SMILES IDX 4 1 5 2 9 3 6 4 8 5 7 6 2 7 1 8 3 9
REMARK H PARENT
REMARK Flexibility Score: inf
ROOT
ATOM      1  C   UNL     1     -25.740   6.106  12.161  1.00  0.00     0.016 A 
ATOM      2  C   UNL     1     -24.601   5.520  11.586  1.00  0.00     0.013 A 
ATOM      3  C   UNL     1     -26.548   5.316  12.997  1.00  0.00     0.120 A 
ATOM      4  C   UNL     1     -24.292   4.184  11.847  1.00  0.00     0.021 A 
ATOM      5  N   UNL     1     -26.225   4.016  13.234  1.00  0.00    -0.264 NA
ATOM      6  C   UNL     1     -25.125   3.440  12.683  1.00  0.00     0.111 A 
ENDROOT
BRANCH   1   7
ATOM      7  C   UNL     1     -26.077   7.521  11.893  1.00  0.00     0.073 C 
ATOM      8  O   UNL     1     -26.444   8.280  12.829  1.00  0.00    -0.545 OA
ATOM      9  O   UNL     1     -25.993   8.033  10.603  1.00  0.00    -0.545 OA
ENDBRANCH   1   7
TORSDOF 1
ENDMDL
MODEL 9
REMARK VINA RESULT:    -4.276      2.103      3.067
REMARK INTER + INTRA:          -4.546
REMARK INTER:                  -4.522
REMARK INTRA:                  -0.023
REMARK UNBOUND:                -0.019
REMARK SMILES O=C([O-])c1cccnc1
REMARK SMILES IDX 4 1 5 2 9 3 6 4 8 5 7 6 2 7 1 8 3 9
REMARK H PARENT
REMARK Flexibility Score: inf
ROOT
ATOM      1  C   UNL     1     -24.542   5.870  12.496  1.00  0.00     0.016 A 
ATOM      2  C   UNL     1     -24.664   4.498  12.768  1.00  0.00     0.013 A 
ATOM      3  C   UNL     1     -25.714   6.642  12.417  1.00  0.00     0.120 A 
ATOM      4  C   UNL     1     -25.925   3.928  12.953  1.00  0.00     0.021 A 
ATOM      5  N   UNL     1     -26.931   6.062  12.601  1.00  0.00    -0.264 NA
ATOM      6  C   UNL     1     -27.059   4.736  12.865  1.00  0.00     0.111 A 
ENDROOT
BRANCH   1   7
ATOM      7  C   UNL     1     -23.211   6.484  12.299  1.00  0.00     0.073 C 
ATOM      8  O   UNL     1     -23.090   7.735  12.210  1.00  0.00    -0.545 OA
ATOM      9  O   UNL     1     -22.074   5.688  12.210  1.00  0.00    -0.545 OA
ENDBRANCH   1   7
TORSDOF 1
ENDMDL
