MODEL 1
REMARK VINA RESULT:    -3.389      0.000      0.000
REMARK INTER + INTRA:          -9.220
REMARK INTER:                  -6.360
REMARK INTRA:                  -2.860
REMARK UNBOUND:                -2.860
REMARK SMILES CCCCCCCCC=CCCCCCCCC(=O)[O-]
REMARK SMILES IDX 10 1 9 2 11 3 12 4 13 5 14 6 15 7 16 8 17 9 18 10 19 11
REMARK SMILES IDX 20 12 8 13 7 14 6 15 5 16 4 17 3 18 2 19 1 20
REMARK H PARENT
REMARK Flexibility Score: inf
ROOT
ATOM      1  C   UNL     1      14.806  23.284  80.294  1.00  0.00    -0.031 C 
ATOM      2  C   UNL     1      14.707  22.093  79.683  1.00  0.00    -0.031 C 
ENDROOT
BRANCH   1   3
ATOM      3  C   UNL     1      16.137  23.944  80.526  1.00  0.00     0.027 C 
BRANCH   3   4
ATOM      4  C   UNL     1      16.139  24.753  81.829  1.00  0.00     0.004 C 
BRANCH   4   5
ATOM      5  C   UNL     1      15.343  24.030  82.926  1.00  0.00     0.000 C 
BRANCH   5   6
ATOM      6  C   UNL     1      14.377  24.969  83.666  1.00  0.00     0.000 C 
BRANCH   6   7
ATOM      7  C   UNL     1      12.924  24.810  83.183  1.00  0.00     0.000 C 
BRANCH   7   8
ATOM      8  C   UNL     1      12.494  25.930  82.221  1.00  0.00     0.006 C 
BRANCH   8   9
ATOM      9  C   UNL     1      13.111  27.288  82.578  1.00  0.00     0.053 C 
BRANCH   9  10
ATOM     10  C   UNL     1      12.127  28.133  83.324  1.00  0.00     0.041 C 
ATOM     11  O   UNL     1      10.956  27.716  83.521  1.00  0.00    -0.550 OA
ATOM     12  O   UNL     1      12.492  29.394  83.776  1.00  0.00    -0.550 OA
ENDBRANCH   9  10
ENDBRANCH   8   9
ENDBRANCH   7   8
ENDBRANCH   6   7
ENDBRANCH   5   6
ENDBRANCH   4   5
ENDBRANCH   3   4
ENDBRANCH   1   3
BRANCH   2  13
ATOM     13  C   UNL     1      13.373  21.438  79.452  1.00  0.00     0.027 C 
BRANCH  13  14
ATOM     14  C   UNL     1      12.260  22.176  80.209  1.00  0.00     0.004 C 
BRANCH  14  15
ATOM     15  C   UNL     1      11.298  22.929  79.273  1.00  0.00     0.000 C 
BRANCH  15  16
ATOM     16  C   UNL     1      11.714  22.938  77.791  1.00  0.00     0.000 C 
BRANCH  16  17
ATOM     17  C   UNL     1      11.814  24.359  77.210  1.00  0.00    -0.000 C 
BRANCH  17  18
ATOM     18  C   UNL     1      13.133  25.057  77.580  1.00  0.00    -0.000 C 
BRANCH  18  19
ATOM     19  C   UNL     1      12.931  26.200  78.585  1.00  0.00    -0.003 C 
ATOM     20  C   UNL     1      14.269  26.801  79.003  1.00  0.00     0.004 C 
ENDBRANCH  18  19
ENDBRANCH  17  18
ENDBRANCH  16  17
ENDBRANCH  15  16
ENDBRANCH  14  15
ENDBRANCH  13  14
ENDBRANCH   2  13
TORSDOF 15
ENDMDL
MODEL 2
REMARK VINA RESULT:    -3.305      4.667      7.656
REMARK INTER + INTRA:          -9.063
REMARK INTER:                  -6.871
REMARK INTRA:                  -2.192
REMARK UNBOUND:                -2.860
REMARK SMILES CCCCCCCCC=CCCCCCCCC(=O)[O-]
REMARK SMILES IDX 10 1 9 2 11 3 12 4 13 5 14 6 15 7 16 8 17 9 18 10 19 11
REMARK SMILES IDX 20 12 8 13 7 14 6 15 5 16 4 17 3 18 2 19 1 20
REMARK H PARENT
REMARK Flexibility Score: inf
ROOT
ATOM      1  C   UNL     1      13.043  24.036  81.410  1.00  0.00    -0.031 C 
ATOM      2  C   UNL     1      12.704  25.132  82.107  1.00  0.00    -0.031 C 
ENDROOT
BRANCH   1   3
ATOM      3  C   UNL     1      12.626  23.851  79.977  1.00  0.00     0.027 C 
BRANCH   3   4
ATOM      4  C   UNL     1      11.869  22.531  79.783  1.00  0.00     0.004 C 
BRANCH   4   5
ATOM      5  C   UNL     1      12.845  21.368  79.552  1.00  0.00     0.000 C 
BRANCH   5   6
ATOM      6  C   UNL     1      13.557  21.460  78.192  1.00  0.00     0.000 C 
BRANCH   6   7
ATOM      7  C   UNL     1      14.390  20.203  77.884  1.00  0.00     0.000 C 
BRANCH   7   8
ATOM      8  C   UNL     1      14.038  19.019  78.799  1.00  0.00     0.006 C 
BRANCH   8   9
ATOM      9  C   UNL     1      13.554  17.790  78.018  1.00  0.00     0.053 C 
BRANCH   9  10
ATOM     10  C   UNL     1      14.179  16.544  78.560  1.00  0.00     0.041 C 
ATOM     11  O   UNL     1      15.329  16.198  78.183  1.00  0.00    -0.550 OA
ATOM     12  O   UNL     1      13.481  15.747  79.457  1.00  0.00    -0.550 OA
ENDBRANCH   9  10
ENDBRANCH   8   9
ENDBRANCH   7   8
ENDBRANCH   6   7
ENDBRANCH   5   6
ENDBRANCH   4   5
ENDBRANCH   3   4
ENDBRANCH   1   3
BRANCH   2  13
ATOM     13  C   UNL     1      13.125  25.312  83.539  1.00  0.00     0.027 C 
BRANCH  13  14
ATOM     14  C   UNL     1      14.644  25.150  83.689  1.00  0.00     0.004 C 
BRANCH  14  15
ATOM     15  C   UNL     1      15.415  26.454  83.417  1.00  0.00     0.000 C 
BRANCH  15  16
ATOM     16  C   UNL     1      16.514  26.343  82.346  1.00  0.00     0.000 C 
BRANCH  16  17
ATOM     17  C   UNL     1      16.625  24.929  81.750  1.00  0.00    -0.000 C 
BRANCH  17  18
ATOM     18  C   UNL     1      16.303  24.894  80.248  1.00  0.00    -0.000 C 
BRANCH  18  19
ATOM     19  C   UNL     1      16.522  23.506  79.631  1.00  0.00    -0.003 C 
ATOM     20  C   UNL     1      16.236  22.406  80.649  1.00  0.00     0.004 C 
ENDBRANCH  18  19
ENDBRANCH  17  18
ENDBRANCH  16  17
ENDBRANCH  15  16
ENDBRANCH  14  15
ENDBRANCH  13  14
ENDBRANCH   2  13
TORSDOF 15
ENDMDL
MODEL 3
REMARK VINA RESULT:    -3.285      2.585      5.114
REMARK INTER + INTRA:          -9.025
REMARK INTER:                  -6.437
REMARK INTRA:                  -2.588
REMARK UNBOUND:                -2.860
REMARK SMILES CCCCCCCCC=CCCCCCCCC(=O)[O-]
REMARK SMILES IDX 10 1 9 2 11 3 12 4 13 5 14 6 15 7 16 8 17 9 18 10 19 11
REMARK SMILES IDX 20 12 8 13 7 14 6 15 5 16 4 17 3 18 2 19 1 20
REMARK H PARENT
REMARK Flexibility Score: inf
ROOT
ATOM      1  C   UNL     1      14.958  23.894  81.582  1.00  0.00    -0.031 C 
ATOM      2  C   UNL     1      15.336  24.274  82.812  1.00  0.00    -0.031 C 
ENDROOT
BRANCH   1   3
ATOM      3  C   UNL     1      15.932  23.290  80.608  1.00  0.00     0.027 C 
BRANCH   3   4
ATOM      4  C   UNL     1      15.523  21.862  80.224  1.00  0.00     0.004 C 
BRANCH   4   5
ATOM      5  C   UNL     1      14.603  21.867  78.994  1.00  0.00     0.000 C 
BRANCH   5   6
ATOM      6  C   UNL     1      13.312  21.064  79.224  1.00  0.00     0.000 C 
BRANCH   6   7
ATOM      7  C   UNL     1      12.293  21.833  80.082  1.00  0.00     0.000 C 
BRANCH   7   8
ATOM      8  C   UNL     1      12.101  23.286  79.617  1.00  0.00     0.006 C 
BRANCH   8   9
ATOM      9  C   UNL     1      11.351  23.387  78.282  1.00  0.00     0.053 C 
BRANCH   9  10
ATOM     10  C   UNL     1      11.886  24.519  77.464  1.00  0.00     0.041 C 
ATOM     11  O   UNL     1      11.138  25.481  77.148  1.00  0.00    -0.550 OA
ATOM     12  O   UNL     1      13.203  24.499  77.023  1.00  0.00    -0.550 OA
ENDBRANCH   9  10
ENDBRANCH   8   9
ENDBRANCH   7   8
ENDBRANCH   6   7
ENDBRANCH   5   6
ENDBRANCH   4   5
ENDBRANCH   3   4
ENDBRANCH   1   3
BRANCH   2  13
ATOM     13  C   UNL     1      14.359  24.876  83.783  1.00  0.00     0.027 C 
BRANCH  13  14
ATOM     14  C   UNL     1      12.926  24.800  83.238  1.00  0.00     0.004 C 
BRANCH  14  15
ATOM     15  C   UNL     1      12.310  26.187  82.977  1.00  0.00     0.000 C 
BRANCH  15  16
ATOM     16  C   UNL     1      12.511  26.724  81.548  1.00  0.00     0.000 C 
BRANCH  16  17
ATOM     17  C   UNL     1      13.464  27.930  81.494  1.00  0.00    -0.000 C 
BRANCH  17  18
ATOM     18  C   UNL     1      14.883  27.542  81.050  1.00  0.00    -0.000 C 
BRANCH  18  19
ATOM     19  C   UNL     1      15.960  28.030  82.029  1.00  0.00    -0.003 C 
ATOM     20  C   UNL     1      15.347  28.394  83.377  1.00  0.00     0.004 C 
ENDBRANCH  18  19
ENDBRANCH  17  18
ENDBRANCH  16  17
ENDBRANCH  15  16
ENDBRANCH  14  15
ENDBRANCH  13  14
ENDBRANCH   2  13
TORSDOF 15
ENDMDL
MODEL 4
REMARK VINA RESULT:    -3.251      4.941      7.901
REMARK INTER + INTRA:          -8.960
REMARK INTER:                  -7.101
REMARK INTRA:                  -1.859
REMARK UNBOUND:                -2.860
REMARK SMILES CCCCCCCCC=CCCCCCCCC(=O)[O-]
REMARK SMILES IDX 10 1 9 2 11 3 12 4 13 5 14 6 15 7 16 8 17 9 18 10 19 11
REMARK SMILES IDX 20 12 8 13 7 14 6 15 5 16 4 17 3 18 2 19 1 20
REMARK H PARENT
REMARK Flexibility Score: inf
ROOT
ATOM      1  C   UNL     1      12.777  23.952  79.981  1.00  0.00    -0.031 C 
ATOM      2  C   UNL     1      12.680  25.135  79.356  1.00  0.00    -0.031 C 
ENDROOT
BRANCH   1   3
ATOM      3  C   UNL     1      11.996  22.751  79.525  1.00  0.00     0.027 C 
BRANCH   3   4
ATOM      4  C   UNL     1      12.810  21.461  79.688  1.00  0.00     0.004 C 
BRANCH   4   5
ATOM      5  C   UNL     1      13.851  21.324  78.566  1.00  0.00     0.000 C 
BRANCH   5   6
ATOM      6  C   UNL     1      14.631  20.001  78.647  1.00  0.00     0.000 C 
BRANCH   6   7
ATOM      7  C   UNL     1      13.818  18.886  79.329  1.00  0.00     0.000 C 
BRANCH   7   8
ATOM      8  C   UNL     1      13.749  17.603  78.485  1.00  0.00     0.006 C 
BRANCH   8   9
ATOM      9  C   UNL     1      13.423  16.359  79.323  1.00  0.00     0.053 C 
BRANCH   9  10
ATOM     10  C   UNL     1      14.654  15.538  79.544  1.00  0.00     0.041 C 
ATOM     11  O   UNL     1      15.376  15.739  80.555  1.00  0.00    -0.550 OA
ATOM     12  O   UNL     1      15.021  14.570  78.618  1.00  0.00    -0.550 OA
ENDBRANCH   9  10
ENDBRANCH   8   9
ENDBRANCH   7   8
ENDBRANCH   6   7
ENDBRANCH   5   6
ENDBRANCH   4   5
ENDBRANCH   3   4
ENDBRANCH   1   3
BRANCH   2  13
ATOM     13  C   UNL     1      13.464  26.333  79.816  1.00  0.00     0.027 C 
BRANCH  13  14
ATOM     14  C   UNL     1      12.605  27.241  80.707  1.00  0.00     0.004 C 
BRANCH  14  15
ATOM     15  C   UNL     1      13.008  27.178  82.191  1.00  0.00     0.000 C 
BRANCH  15  16
ATOM     16  C   UNL     1      12.224  26.153  83.030  1.00  0.00     0.000 C 
BRANCH  16  17
ATOM     17  C   UNL     1      13.095  24.973  83.494  1.00  0.00    -0.000 C 
BRANCH  17  18
ATOM     18  C   UNL     1      14.596  25.231  83.289  1.00  0.00    -0.000 C 
BRANCH  18  19
ATOM     19  C   UNL     1      15.317  24.033  82.654  1.00  0.00    -0.003 C 
ATOM     20  C   UNL     1      16.227  24.485  81.515  1.00  0.00     0.004 C 
ENDBRANCH  18  19
ENDBRANCH  17  18
ENDBRANCH  16  17
ENDBRANCH  15  16
ENDBRANCH  14  15
ENDBRANCH  13  14
ENDBRANCH   2  13
TORSDOF 15
ENDMDL
MODEL 5
REMARK VINA RESULT:    -3.248      1.710      2.162
REMARK INTER + INTRA:          -8.956
REMARK INTER:                  -6.277
REMARK INTRA:                  -2.679
REMARK UNBOUND:                -2.860
REMARK SMILES CCCCCCCCC=CCCCCCCCC(=O)[O-]
REMARK SMILES IDX 10 1 9 2 11 3 12 4 13 5 14 6 15 7 16 8 17 9 18 10 19 11
REMARK SMILES IDX 20 12 8 13 7 14 6 15 5 16 4 17 3 18 2 19 1 20
REMARK H PARENT
REMARK Flexibility Score: inf
ROOT
ATOM      1  C   UNL     1      14.203  23.269  80.751  1.00  0.00    -0.031 C 
ATOM      2  C   UNL     1      12.885  23.325  80.508  1.00  0.00    -0.031 C 
ENDROOT
BRANCH   1   3
ATOM      3  C   UNL     1      14.955  24.448  81.306  1.00  0.00     0.027 C 
BRANCH   3   4
ATOM      4  C   UNL     1      15.216  24.287  82.809  1.00  0.00     0.004 C 
BRANCH   4   5
ATOM      5  C   UNL     1      14.461  25.356  83.614  1.00  0.00     0.000 C 
BRANCH   5   6
ATOM      6  C   UNL     1      12.939  25.139  83.594  1.00  0.00     0.000 C 
BRANCH   6   7
ATOM      7  C   UNL     1      12.169  26.438  83.297  1.00  0.00     0.000 C 
BRANCH   7   8
ATOM      8  C   UNL     1      12.348  26.916  81.847  1.00  0.00     0.006 C 
BRANCH   8   9
ATOM      9  C   UNL     1      12.883  28.351  81.757  1.00  0.00     0.053 C 
BRANCH   9  10
ATOM     10  C   UNL     1      14.118  28.400  80.915  1.00  0.00     0.041 C 
ATOM     11  O   UNL     1      15.213  27.982  81.372  1.00  0.00    -0.550 OA
ATOM     12  O   UNL     1      14.067  28.936  79.634  1.00  0.00    -0.550 OA
ENDBRANCH   9  10
ENDBRANCH   8   9
ENDBRANCH   7   8
ENDBRANCH   6   7
ENDBRANCH   5   6
ENDBRANCH   4   5
ENDBRANCH   3   4
ENDBRANCH   1   3
BRANCH   2  13
ATOM     13  C   UNL     1      12.138  22.144  79.955  1.00  0.00     0.027 C 
BRANCH  13  14
ATOM     14  C   UNL     1      12.989  21.391  78.921  1.00  0.00     0.004 C 
BRANCH  14  15
ATOM     15  C   UNL     1      13.130  22.156  77.593  1.00  0.00     0.000 C 
BRANCH  15  16
ATOM     16  C   UNL     1      11.830  22.797  77.075  1.00  0.00     0.000 C 
BRANCH  16  17
ATOM     17  C   UNL     1      12.033  24.240  76.584  1.00  0.00    -0.000 C 
BRANCH  17  18
ATOM     18  C   UNL     1      11.295  25.270  77.454  1.00  0.00    -0.000 C 
BRANCH  18  19
ATOM     19  C   UNL     1      12.252  26.100  78.322  1.00  0.00    -0.003 C 
ATOM     20  C   UNL     1      13.700  25.891  77.891  1.00  0.00     0.004 C 
ENDBRANCH  18  19
ENDBRANCH  17  18
ENDBRANCH  16  17
ENDBRANCH  15  16
ENDBRANCH  14  15
ENDBRANCH  13  14
ENDBRANCH   2  13
TORSDOF 15
ENDMDL
MODEL 6
REMARK VINA RESULT:    -3.248      3.232      6.246
REMARK INTER + INTRA:          -8.956
REMARK INTER:                  -6.421
REMARK INTRA:                  -2.535
REMARK UNBOUND:                -2.860
REMARK SMILES CCCCCCCCC=CCCCCCCCC(=O)[O-]
REMARK SMILES IDX 10 1 9 2 11 3 12 4 13 5 14 6 15 7 16 8 17 9 18 10 19 11
REMARK SMILES IDX 20 12 8 13 7 14 6 15 5 16 4 17 3 18 2 19 1 20
REMARK H PARENT
REMARK Flexibility Score: inf
ROOT
ATOM      1  C   UNL     1      12.244  26.318  82.993  1.00  0.00    -0.031 C 
ATOM      2  C   UNL     1      11.462  27.030  83.819  1.00  0.00    -0.031 C 
ENDROOT
BRANCH   1   3
ATOM      3  C   UNL     1      12.848  25.007  83.411  1.00  0.00     0.027 C 
BRANCH   3   4
ATOM      4  C   UNL     1      14.342  25.155  83.725  1.00  0.00     0.004 C 
BRANCH   4   5
ATOM      5  C   UNL     1      15.192  24.939  82.463  1.00  0.00     0.000 C 
BRANCH   5   6
ATOM      6  C   UNL     1      14.735  23.717  81.650  1.00  0.00     0.000 C 
BRANCH   6   7
ATOM      7  C   UNL     1      14.293  24.096  80.226  1.00  0.00     0.000 C 
BRANCH   7   8
ATOM      8  C   UNL     1      12.772  23.990  80.028  1.00  0.00     0.006 C 
BRANCH   8   9
ATOM      9  C   UNL     1      12.262  22.545  80.113  1.00  0.00     0.053 C 
BRANCH   9  10
ATOM     10  C   UNL     1      12.927  21.692  79.080  1.00  0.00     0.041 C 
ATOM     11  O   UNL     1      13.628  20.707  79.429  1.00  0.00    -0.550 OA
ATOM     12  O   UNL     1      12.797  22.001  77.732  1.00  0.00    -0.550 OA
ENDBRANCH   9  10
ENDBRANCH   8   9
ENDBRANCH   7   8
ENDBRANCH   6   7
ENDBRANCH   5   6
ENDBRANCH   4   5
ENDBRANCH   3   4
ENDBRANCH   1   3
BRANCH   2  13
ATOM     13  C   UNL     1      10.860  28.341  83.396  1.00  0.00     0.027 C 
BRANCH  13  14
ATOM     14  C   UNL     1      11.551  29.516  84.101  1.00  0.00     0.004 C 
BRANCH  14  15
ATOM     15  C   UNL     1      12.738  30.081  83.300  1.00  0.00     0.000 C 
BRANCH  15  16
ATOM     16  C   UNL     1      14.120  29.576  83.751  1.00  0.00     0.000 C 
BRANCH  16  17
ATOM     17  C   UNL     1      14.881  28.845  82.632  1.00  0.00    -0.000 C 
BRANCH  17  18
ATOM     18  C   UNL     1      14.045  28.691  81.352  1.00  0.00    -0.000 C 
BRANCH  18  19
ATOM     19  C   UNL     1      14.775  27.892  80.264  1.00  0.00    -0.003 C 
ATOM     20  C   UNL     1      16.257  27.746  80.597  1.00  0.00     0.004 C 
ENDBRANCH  18  19
ENDBRANCH  17  18
ENDBRANCH  16  17
ENDBRANCH  15  16
ENDBRANCH  14  15
ENDBRANCH  13  14
ENDBRANCH   2  13
TORSDOF 15
ENDMDL
MODEL 7
REMARK VINA RESULT:    -3.239      2.574      4.021
REMARK INTER + INTRA:          -8.938
REMARK INTER:                  -7.404
REMARK INTRA:                  -1.534
REMARK UNBOUND:                -2.860
REMARK SMILES CCCCCCCCC=CCCCCCCCC(=O)[O-]
REMARK SMILES IDX 10 1 9 2 11 3 12 4 13 5 14 6 15 7 16 8 17 9 18 10 19 11
REMARK SMILES IDX 20 12 8 13 7 14 6 15 5 16 4 17 3 18 2 19 1 20
REMARK H PARENT
REMARK Flexibility Score: inf
ROOT
ATOM      1  C   UNL     1      12.817  21.500  79.415  1.00  0.00    -0.031 C 
ATOM      2  C   UNL     1      14.112  21.226  79.629  1.00  0.00    -0.031 C 
ENDROOT
BRANCH   1   3
ATOM      3  C   UNL     1      12.137  22.667  80.075  1.00  0.00     0.027 C 
BRANCH   3   4
ATOM      4  C   UNL     1      12.628  24.000  79.496  1.00  0.00     0.004 C 
BRANCH   4   5
ATOM      5  C   UNL     1      13.044  24.965  80.617  1.00  0.00     0.000 C 
BRANCH   5   6
ATOM      6  C   UNL     1      12.984  24.311  82.007  1.00  0.00     0.000 C 
BRANCH   6   7
ATOM      7  C   UNL     1      12.903  25.351  83.138  1.00  0.00     0.000 C 
BRANCH   7   8
ATOM      8  C   UNL     1      12.255  26.670  82.686  1.00  0.00     0.006 C 
BRANCH   8   9
ATOM      9  C   UNL     1      11.127  27.127  83.619  1.00  0.00     0.053 C 
BRANCH   9  10
ATOM     10  C   UNL     1      11.088  28.620  83.704  1.00  0.00     0.041 C 
ATOM     11  O   UNL     1      10.874  29.186  84.808  1.00  0.00    -0.550 OA
ATOM     12  O   UNL     1      11.257  29.388  82.559  1.00  0.00    -0.550 OA
ENDBRANCH   9  10
ENDBRANCH   8   9
ENDBRANCH   7   8
ENDBRANCH   6   7
ENDBRANCH   5   6
ENDBRANCH   4   5
ENDBRANCH   3   4
ENDBRANCH   1   3
BRANCH   2  13
ATOM     13  C   UNL     1      14.788  20.057  78.966  1.00  0.00     0.027 C 
BRANCH  13  14
ATOM     14  C   UNL     1      14.220  18.728  79.484  1.00  0.00     0.004 C 
BRANCH  14  15
ATOM     15  C   UNL     1      14.011  17.691  78.366  1.00  0.00     0.000 C 
BRANCH  15  16
ATOM     16  C   UNL     1      13.041  18.127  77.253  1.00  0.00     0.000 C 
BRANCH  16  17
ATOM     17  C   UNL     1      13.689  18.112  75.859  1.00  0.00    -0.000 C 
BRANCH  17  18
ATOM     18  C   UNL     1      13.321  19.349  75.023  1.00  0.00    -0.000 C 
BRANCH  18  19
ATOM     19  C   UNL     1      12.879  20.535  75.892  1.00  0.00    -0.003 C 
ATOM     20  C   UNL     1      12.720  21.798  75.051  1.00  0.00     0.004 C 
ENDBRANCH  18  19
ENDBRANCH  17  18
ENDBRANCH  16  17
ENDBRANCH  15  16
ENDBRANCH  14  15
ENDBRANCH  13  14
ENDBRANCH   2  13
TORSDOF 15
ENDMDL
MODEL 8
REMARK VINA RESULT:    -3.207      2.497      5.580
REMARK INTER + INTRA:          -8.878
REMARK INTER:                  -6.706
REMARK INTRA:                  -2.172
REMARK UNBOUND:                -2.860
REMARK SMILES CCCCCCCCC=CCCCCCCCC(=O)[O-]
REMARK SMILES IDX 10 1 9 2 11 3 12 4 13 5 14 6 15 7 16 8 17 9 18 10 19 11
REMARK SMILES IDX 20 12 8 13 7 14 6 15 5 16 4 17 3 18 2 19 1 20
REMARK H PARENT
REMARK Flexibility Score: inf
ROOT
ATOM      1  C   UNL     1      13.398  23.292  80.759  1.00  0.00    -0.031 C 
ATOM      2  C   UNL     1      14.692  22.939  80.787  1.00  0.00    -0.031 C 
ENDROOT
BRANCH   1   3
ATOM      3  C   UNL     1      12.360  22.439  80.085  1.00  0.00     0.027 C 
BRANCH   3   4
ATOM      4  C   UNL     1      12.976  21.593  78.963  1.00  0.00     0.004 C 
BRANCH   4   5
ATOM      5  C   UNL     1      12.777  22.265  77.596  1.00  0.00     0.000 C 
BRANCH   5   6
ATOM      6  C   UNL     1      11.512  23.136  77.550  1.00  0.00     0.000 C 
BRANCH   6   7
ATOM      7  C   UNL     1      11.733  24.444  76.770  1.00  0.00     0.000 C 
BRANCH   7   8
ATOM      8  C   UNL     1      11.528  25.695  77.639  1.00  0.00     0.006 C 
BRANCH   8   9
ATOM      9  C   UNL     1      12.701  25.955  78.592  1.00  0.00     0.053 C 
BRANCH   9  10
ATOM     10  C   UNL     1      13.987  26.034  77.833  1.00  0.00     0.041 C 
ATOM     11  O   UNL     1      14.856  25.133  77.964  1.00  0.00    -0.550 OA
ATOM     12  O   UNL     1      14.241  27.119  77.003  1.00  0.00    -0.550 OA
ENDBRANCH   9  10
ENDBRANCH   8   9
ENDBRANCH   7   8
ENDBRANCH   6   7
ENDBRANCH   5   6
ENDBRANCH   4   5
ENDBRANCH   3   4
ENDBRANCH   1   3
BRANCH   2  13
ATOM     13  C   UNL     1      15.726  23.796  81.463  1.00  0.00     0.027 C 
BRANCH  13  14
ATOM     14  C   UNL     1      15.341  25.281  81.390  1.00  0.00     0.004 C 
BRANCH  14  15
ATOM     15  C   UNL     1      15.245  25.942  82.776  1.00  0.00     0.000 C 
BRANCH  15  16
ATOM     16  C   UNL     1      14.438  25.146  83.817  1.00  0.00     0.000 C 
BRANCH  16  17
ATOM     17  C   UNL     1      12.922  25.193  83.559  1.00  0.00    -0.000 C 
BRANCH  17  18
ATOM     18  C   UNL     1      12.462  26.545  82.989  1.00  0.00    -0.000 C 
BRANCH  18  19
ATOM     19  C   UNL     1      11.206  27.081  83.689  1.00  0.00    -0.003 C 
ATOM     20  C   UNL     1      11.129  28.601  83.583  1.00  0.00     0.004 C 
ENDBRANCH  18  19
ENDBRANCH  17  18
ENDBRANCH  16  17
ENDBRANCH  15  16
ENDBRANCH  14  15
ENDBRANCH  13  14
ENDBRANCH   2  13
TORSDOF 15
ENDMDL
MODEL 9
REMARK VINA RESULT:    -3.160      4.014      6.781
REMARK INTER + INTRA:          -8.791
REMARK INTER:                  -6.711
REMARK INTRA:                  -2.080
REMARK UNBOUND:                -2.860
REMARK SMILES CCCCCCCCC=CCCCCCCCC(=O)[O-]
REMARK SMILES IDX 10 1 9 2 11 3 12 4 13 5 14 6 15 7 16 8 17 9 18 10 19 11
REMARK SMILES IDX 20 12 8 13 7 14 6 15 5 16 4 17 3 18 2 19 1 20
REMARK H PARENT
REMARK Flexibility Score: inf
ROOT
ATOM      1  C   UNL     1      11.119  21.428  74.641  1.00  0.00    -0.031 C 
ATOM      2  C   UNL     1      11.093  20.899  73.409  1.00  0.00    -0.031 C 
ENDROOT
BRANCH   1   3
ATOM      3  C   UNL     1      11.472  22.871  74.875  1.00  0.00     0.027 C 
BRANCH   3   4
ATOM      4  C   UNL     1      12.540  23.015  75.966  1.00  0.00     0.004 C 
BRANCH   4   5
ATOM      5  C   UNL     1      12.466  21.849  76.963  1.00  0.00     0.000 C 
BRANCH   5   6
ATOM      6  C   UNL     1      13.730  21.738  77.831  1.00  0.00     0.000 C 
BRANCH   6   7
ATOM      7  C   UNL     1      13.406  21.376  79.291  1.00  0.00     0.000 C 
BRANCH   7   8
ATOM      8  C   UNL     1      12.181  22.132  79.831  1.00  0.00     0.006 C 
BRANCH   8   9
ATOM      9  C   UNL     1      12.558  23.240  80.823  1.00  0.00     0.053 C 
BRANCH   9  10
ATOM     10  C   UNL     1      12.986  24.474  80.095  1.00  0.00     0.041 C 
ATOM     11  O   UNL     1      13.928  25.179  80.542  1.00  0.00    -0.550 OA
ATOM     12  O   UNL     1      12.323  24.866  78.939  1.00  0.00    -0.550 OA
ENDBRANCH   9  10
ENDBRANCH   8   9
ENDBRANCH   7   8
ENDBRANCH   6   7
ENDBRANCH   5   6
ENDBRANCH   4   5
ENDBRANCH   3   4
ENDBRANCH   1   3
BRANCH   2  13
ATOM     13  C   UNL     1      10.739  19.456  73.180  1.00  0.00     0.027 C 
BRANCH  13  14
ATOM     14  C   UNL     1      11.166  18.591  74.375  1.00  0.00     0.004 C 
BRANCH  14  15
ATOM     15  C   UNL     1      12.611  18.074  74.253  1.00  0.00     0.000 C 
BRANCH  15  16
ATOM     16  C   UNL     1      13.643  18.836  75.103  1.00  0.00     0.000 C 
BRANCH  16  17
ATOM     17  C   UNL     1      14.157  18.012  76.296  1.00  0.00    -0.000 C 
BRANCH  17  18
ATOM     18  C   UNL     1      13.211  18.072  77.506  1.00  0.00    -0.000 C 
BRANCH  18  19
ATOM     19  C   UNL     1      13.894  17.636  78.809  1.00  0.00    -0.003 C 
ATOM     20  C   UNL     1      13.396  16.264  79.255  1.00  0.00     0.004 C 
ENDBRANCH  18  19
ENDBRANCH  17  18
ENDBRANCH  16  17
ENDBRANCH  15  16
ENDBRANCH  14  15
ENDBRANCH  13  14
ENDBRANCH   2  13
TORSDOF 15
ENDMDL
