MODEL 1
REMARK VINA RESULT:    -5.053      0.000      0.000
REMARK INTER + INTRA:          -6.880
REMARK INTER:                  -6.382
REMARK INTRA:                  -0.498
REMARK UNBOUND:                -0.498
REMARK SMILES Oc1cc(O)cc(CCc2ccccc2O)c1
REMARK SMILES IDX 9 1 10 2 12 3 13 4 11 5 14 6 15 7 16 8 8 10 7 11 6 12 17 13
REMARK SMILES IDX 4 14 2 15 3 16 5 17 1 19
REMARK H PARENT 16 9 5 18 1 20
REMARK Flexibility Score: inf
ROOT
ATOM      1  C   UNL     1     -21.544  24.241  10.935  1.00  0.00     0.044 C 
ENDROOT
BRANCH   1   2
ATOM      2  C   UNL     1     -22.241  25.129   9.932  1.00  0.00    -0.006 A 
ATOM      3  C   UNL     1     -23.677  27.051   9.509  1.00  0.00     0.001 A 
ATOM      4  C   UNL     1     -23.545  26.854   8.135  1.00  0.00     0.004 A 
ATOM      5  C   UNL     1     -23.026  26.198  10.403  1.00  0.00     0.007 A 
ATOM      6  C   UNL     1     -22.757  25.809   7.650  1.00  0.00     0.046 A 
ATOM      7  C   UNL     1     -22.094  24.948   8.534  1.00  0.00     0.118 A 
BRANCH   7   8
ATOM      8  O   UNL     1     -21.302  23.934   7.989  1.00  0.00    -0.508 OA
ATOM      9  H   UNL     1     -21.213  23.013   8.397  1.00  0.00     0.293 HD
ENDBRANCH   7   8
ENDBRANCH   1   2
BRANCH   1  10
ATOM     10  C   UNL     1     -22.558  23.379  11.696  1.00  0.00     0.040 C 
BRANCH  10  11
ATOM     11  C   UNL     1     -22.250  23.376  13.169  1.00  0.00    -0.040 A 
ATOM     12  C   UNL     1     -23.279  23.192  14.105  1.00  0.00     0.050 A 
ATOM     13  C   UNL     1     -20.941  23.615  13.619  1.00  0.00     0.050 A 
ATOM     14  C   UNL     1     -22.999  23.222  15.479  1.00  0.00     0.119 A 
ATOM     15  C   UNL     1     -20.661  23.646  14.991  1.00  0.00     0.119 A 
ATOM     16  C   UNL     1     -21.690  23.446  15.917  1.00  0.00     0.092 A 
BRANCH  14  17
ATOM     17  O   UNL     1     -24.013  23.033  16.415  1.00  0.00    -0.508 OA
ATOM     18  H   UNL     1     -24.261  23.758  17.079  1.00  0.00     0.293 HD
ENDBRANCH  14  17
BRANCH  15  19
ATOM     19  O   UNL     1     -19.364  23.876  15.445  1.00  0.00    -0.508 OA
ATOM     20  H   UNL     1     -18.938  24.793  15.391  1.00  0.00     0.293 HD
ENDBRANCH  15  19
ENDBRANCH  10  11
ENDBRANCH   1  10
TORSDOF 6
ENDMDL
MODEL 2
REMARK VINA RESULT:    -4.969      1.900      6.676
REMARK INTER + INTRA:          -6.775
REMARK INTER:                  -6.378
REMARK INTRA:                  -0.397
REMARK UNBOUND:                -0.498
REMARK SMILES Oc1cc(O)cc(CCc2ccccc2O)c1
REMARK SMILES IDX 9 1 10 2 12 3 13 4 11 5 14 6 15 7 16 8 8 10 7 11 6 12 17 13
REMARK SMILES IDX 4 14 2 15 3 16 5 17 1 19
REMARK H PARENT 16 9 5 18 1 20
REMARK Flexibility Score: inf
ROOT
ATOM      1  C   UNL     1     -21.578  23.370  13.238  1.00  0.00     0.044 C 
ENDROOT
BRANCH   1   2
ATOM      2  C   UNL     1     -21.276  23.369  14.717  1.00  0.00    -0.006 A 
ATOM      3  C   UNL     1     -22.065  23.017  16.995  1.00  0.00     0.001 A 
ATOM      4  C   UNL     1     -20.793  23.308  17.487  1.00  0.00     0.004 A 
ATOM      5  C   UNL     1     -22.306  23.041  15.620  1.00  0.00     0.007 A 
ATOM      6  C   UNL     1     -19.756  23.619  16.605  1.00  0.00     0.046 A 
ATOM      7  C   UNL     1     -19.981  23.644  15.223  1.00  0.00     0.118 A 
BRANCH   7   8
ATOM      8  O   UNL     1     -18.899  23.940  14.390  1.00  0.00    -0.508 OA
ATOM      9  H   UNL     1     -18.040  24.361  14.716  1.00  0.00     0.293 HD
ENDBRANCH   7   8
ENDBRANCH   1   2
BRANCH   1  10
ATOM     10  C   UNL     1     -23.034  23.773  12.980  1.00  0.00     0.040 C 
BRANCH  10  11
ATOM     11  C   UNL     1     -23.184  24.359  11.602  1.00  0.00    -0.040 A 
ATOM     12  C   UNL     1     -22.992  25.734  11.394  1.00  0.00     0.050 A 
ATOM     13  C   UNL     1     -23.573  23.546  10.525  1.00  0.00     0.050 A 
ATOM     14  C   UNL     1     -23.163  26.288  10.118  1.00  0.00     0.119 A 
ATOM     15  C   UNL     1     -23.745  24.098   9.249  1.00  0.00     0.119 A 
ATOM     16  C   UNL     1     -23.537  25.467   9.048  1.00  0.00     0.092 A 
BRANCH  14  17
ATOM     17  O   UNL     1     -22.968  27.649   9.901  1.00  0.00    -0.508 OA
ATOM     18  H   UNL     1     -22.543  27.994   9.048  1.00  0.00     0.293 HD
ENDBRANCH  14  17
BRANCH  15  19
ATOM     19  O   UNL     1     -24.125  23.296   8.174  1.00  0.00    -0.508 OA
ATOM     20  H   UNL     1     -23.781  23.469   7.238  1.00  0.00     0.293 HD
ENDBRANCH  15  19
ENDBRANCH  10  11
ENDBRANCH   1  10
TORSDOF 6
ENDMDL
MODEL 3
REMARK VINA RESULT:    -4.864      1.909      6.615
REMARK INTER + INTRA:          -6.642
REMARK INTER:                  -6.216
REMARK INTRA:                  -0.426
REMARK UNBOUND:                -0.498
REMARK SMILES Oc1cc(O)cc(CCc2ccccc2O)c1
REMARK SMILES IDX 9 1 10 2 12 3 13 4 11 5 14 6 15 7 16 8 8 10 7 11 6 12 17 13
REMARK SMILES IDX 4 14 2 15 3 16 5 17 1 19
REMARK H PARENT 16 9 5 18 1 20
REMARK Flexibility Score: inf
ROOT
ATOM      1  C   UNL     1     -21.281  23.866  13.322  1.00  0.00     0.044 C 
ENDROOT
BRANCH   1   2
ATOM      2  C   UNL     1     -21.072  23.612  14.796  1.00  0.00    -0.006 A 
ATOM      3  C   UNL     1     -22.025  22.975  16.946  1.00  0.00     0.001 A 
ATOM      4  C   UNL     1     -20.769  23.085  17.542  1.00  0.00     0.004 A 
ATOM      5  C   UNL     1     -22.177  23.231  15.582  1.00  0.00     0.007 A 
ATOM      6  C   UNL     1     -19.660  23.445  16.774  1.00  0.00     0.046 A 
ATOM      7  C   UNL     1     -19.795  23.702  15.404  1.00  0.00     0.118 A 
BRANCH   7   8
ATOM      8  O   UNL     1     -18.645  24.036  14.685  1.00  0.00    -0.508 OA
ATOM      9  H   UNL     1     -18.168  24.923  14.772  1.00  0.00     0.293 HD
ENDBRANCH   7   8
ENDBRANCH   1   2
BRANCH   1  10
ATOM     10  C   UNL     1     -22.734  23.590  12.923  1.00  0.00     0.040 C 
BRANCH  10  11
ATOM     11  C   UNL     1     -23.045  24.220  11.592  1.00  0.00    -0.040 A 
ATOM     12  C   UNL     1     -23.454  23.423  10.511  1.00  0.00     0.050 A 
ATOM     13  C   UNL     1     -22.874  25.601  11.405  1.00  0.00     0.050 A 
ATOM     14  C   UNL     1     -23.713  24.004   9.261  1.00  0.00     0.119 A 
ATOM     15  C   UNL     1     -23.131  26.183  10.157  1.00  0.00     0.119 A 
ATOM     16  C   UNL     1     -23.552  25.383   9.089  1.00  0.00     0.092 A 
BRANCH  14  17
ATOM     17  O   UNL     1     -24.125  23.222   8.186  1.00  0.00    -0.508 OA
ATOM     18  H   UNL     1     -24.917  23.487   7.612  1.00  0.00     0.293 HD
ENDBRANCH  14  17
BRANCH  15  19
ATOM     19  O   UNL     1     -22.970  27.554   9.966  1.00  0.00    -0.508 OA
ATOM     20  H   UNL     1     -23.571  28.076   9.340  1.00  0.00     0.293 HD
ENDBRANCH  15  19
ENDBRANCH  10  11
ENDBRANCH   1  10
TORSDOF 6
ENDMDL
MODEL 4
REMARK VINA RESULT:    -4.580     11.101     13.265
REMARK INTER + INTRA:          -6.283
REMARK INTER:                  -5.835
REMARK INTRA:                  -0.448
REMARK UNBOUND:                -0.498
REMARK SMILES Oc1cc(O)cc(CCc2ccccc2O)c1
REMARK SMILES IDX 9 1 10 2 12 3 13 4 11 5 14 6 15 7 16 8 8 10 7 11 6 12 17 13
REMARK SMILES IDX 4 14 2 15 3 16 5 17 1 19
REMARK H PARENT 16 9 5 18 1 20
REMARK Flexibility Score: inf
ROOT
ATOM      1  C   UNL     1     -21.878  32.685  21.508  1.00  0.00     0.044 C 
ENDROOT
BRANCH   1   2
ATOM      2  C   UNL     1     -22.041  34.146  21.850  1.00  0.00    -0.006 A 
ATOM      3  C   UNL     1     -21.745  35.944  23.467  1.00  0.00     0.001 A 
ATOM      4  C   UNL     1     -22.276  36.858  22.558  1.00  0.00     0.004 A 
ATOM      5  C   UNL     1     -21.623  34.598  23.116  1.00  0.00     0.007 A 
ATOM      6  C   UNL     1     -22.681  36.430  21.292  1.00  0.00     0.046 A 
ATOM      7  C   UNL     1     -22.561  35.084  20.923  1.00  0.00     0.118 A 
BRANCH   7   8
ATOM      8  O   UNL     1     -22.962  34.721  19.635  1.00  0.00    -0.508 OA
ATOM      9  H   UNL     1     -23.601  35.266  19.073  1.00  0.00     0.293 HD
ENDBRANCH   7   8
ENDBRANCH   1   2
BRANCH   1  10
ATOM     10  C   UNL     1     -21.202  31.929  22.658  1.00  0.00     0.040 C 
BRANCH  10  11
ATOM     11  C   UNL     1     -20.403  30.768  22.130  1.00  0.00    -0.040 A 
ATOM     12  C   UNL     1     -19.303  30.280  22.853  1.00  0.00     0.050 A 
ATOM     13  C   UNL     1     -20.716  30.202  20.883  1.00  0.00     0.050 A 
ATOM     14  C   UNL     1     -18.538  29.219  22.347  1.00  0.00     0.119 A 
ATOM     15  C   UNL     1     -19.952  29.143  20.376  1.00  0.00     0.119 A 
ATOM     16  C   UNL     1     -18.867  28.653  21.111  1.00  0.00     0.092 A 
BRANCH  14  17
ATOM     17  O   UNL     1     -17.450  28.725  23.061  1.00  0.00    -0.508 OA
ATOM     18  H   UNL     1     -16.727  28.175  22.609  1.00  0.00     0.293 HD
ENDBRANCH  14  17
BRANCH  15  19
ATOM     19  O   UNL     1     -20.261  28.572  19.143  1.00  0.00    -0.508 OA
ATOM     20  H   UNL     1     -21.215  28.514  18.810  1.00  0.00     0.293 HD
ENDBRANCH  15  19
ENDBRANCH  10  11
ENDBRANCH   1  10
TORSDOF 6
ENDMDL
MODEL 5
REMARK VINA RESULT:    -4.572     11.105     13.207
REMARK INTER + INTRA:          -6.274
REMARK INTER:                  -5.827
REMARK INTRA:                  -0.447
REMARK UNBOUND:                -0.498
REMARK SMILES Oc1cc(O)cc(CCc2ccccc2O)c1
REMARK SMILES IDX 9 1 10 2 12 3 13 4 11 5 14 6 15 7 16 8 8 10 7 11 6 12 17 13
REMARK SMILES IDX 4 14 2 15 3 16 5 17 1 19
REMARK H PARENT 16 9 5 18 1 20
REMARK Flexibility Score: inf
ROOT
ATOM      1  C   UNL     1     -21.880  32.690  21.499  1.00  0.00     0.044 C 
ENDROOT
BRANCH   1   2
ATOM      2  C   UNL     1     -22.031  34.151  21.849  1.00  0.00    -0.006 A 
ATOM      3  C   UNL     1     -21.743  35.932  23.486  1.00  0.00     0.001 A 
ATOM      4  C   UNL     1     -22.244  36.860  22.574  1.00  0.00     0.004 A 
ATOM      5  C   UNL     1     -21.631  34.587  23.127  1.00  0.00     0.007 A 
ATOM      6  C   UNL     1     -22.630  36.447  21.297  1.00  0.00     0.046 A 
ATOM      7  C   UNL     1     -22.521  35.103  20.920  1.00  0.00     0.118 A 
BRANCH   7   8
ATOM      8  O   UNL     1     -22.901  34.755  19.622  1.00  0.00    -0.508 OA
ATOM      9  H   UNL     1     -22.721  35.332  18.812  1.00  0.00     0.293 HD
ENDBRANCH   7   8
ENDBRANCH   1   2
BRANCH   1  10
ATOM     10  C   UNL     1     -21.212  31.922  22.645  1.00  0.00     0.040 C 
BRANCH  10  11
ATOM     11  C   UNL     1     -20.376  30.792  22.107  1.00  0.00    -0.040 A 
ATOM     12  C   UNL     1     -20.710  30.186  20.886  1.00  0.00     0.050 A 
ATOM     13  C   UNL     1     -19.292  30.298  22.850  1.00  0.00     0.050 A 
ATOM     14  C   UNL     1     -19.952  29.112  20.399  1.00  0.00     0.119 A 
ATOM     15  C   UNL     1     -18.535  29.223  22.365  1.00  0.00     0.119 A 
ATOM     16  C   UNL     1     -18.865  28.635  21.140  1.00  0.00     0.092 A 
BRANCH  14  17
ATOM     17  O   UNL     1     -20.271  28.509  19.185  1.00  0.00    -0.508 OA
ATOM     18  H   UNL     1     -20.427  27.510  19.116  1.00  0.00     0.293 HD
ENDBRANCH  14  17
BRANCH  15  19
ATOM     19  O   UNL     1     -17.453  28.732  23.094  1.00  0.00    -0.508 OA
ATOM     20  H   UNL     1     -17.367  27.747  23.315  1.00  0.00     0.293 HD
ENDBRANCH  15  19
ENDBRANCH  10  11
ENDBRANCH   1  10
TORSDOF 6
ENDMDL
MODEL 6
REMARK VINA RESULT:    -4.525      3.947      8.674
REMARK INTER + INTRA:          -6.214
REMARK INTER:                  -5.691
REMARK INTRA:                  -0.523
REMARK UNBOUND:                -0.498
REMARK SMILES Oc1cc(O)cc(CCc2ccccc2O)c1
REMARK SMILES IDX 9 1 10 2 12 3 13 4 11 5 14 6 15 7 16 8 8 10 7 11 6 12 17 13
REMARK SMILES IDX 4 14 2 15 3 16 5 17 1 19
REMARK H PARENT 16 9 5 18 1 20
REMARK Flexibility Score: inf
ROOT
ATOM      1  C   UNL     1     -19.441  23.057  18.415  1.00  0.00     0.044 C 
ENDROOT
BRANCH   1   2
ATOM      2  C   UNL     1     -19.003  24.000  19.510  1.00  0.00    -0.006 A 
ATOM      3  C   UNL     1     -17.350  24.592  21.199  1.00  0.00     0.001 A 
ATOM      4  C   UNL     1     -18.093  25.722  21.539  1.00  0.00     0.004 A 
ATOM      5  C   UNL     1     -17.797  23.738  20.189  1.00  0.00     0.007 A 
ATOM      6  C   UNL     1     -19.282  26.006  20.865  1.00  0.00     0.046 A 
ATOM      7  C   UNL     1     -19.742  25.162  19.846  1.00  0.00     0.118 A 
BRANCH   7   8
ATOM      8  O   UNL     1     -20.927  25.510  19.193  1.00  0.00    -0.508 OA
ATOM      9  H   UNL     1     -21.518  24.845  18.713  1.00  0.00     0.293 HD
ENDBRANCH   7   8
ENDBRANCH   1   2
BRANCH   1  10
ATOM     10  C   UNL     1     -18.868  23.491  17.062  1.00  0.00     0.040 C 
BRANCH  10  11
ATOM     11  C   UNL     1     -19.947  23.509  16.012  1.00  0.00    -0.040 A 
ATOM     12  C   UNL     1     -19.652  23.919  14.703  1.00  0.00     0.050 A 
ATOM     13  C   UNL     1     -21.268  23.172  16.349  1.00  0.00     0.050 A 
ATOM     14  C   UNL     1     -20.662  23.967  13.732  1.00  0.00     0.119 A 
ATOM     15  C   UNL     1     -22.278  23.221  15.380  1.00  0.00     0.119 A 
ATOM     16  C   UNL     1     -21.972  23.616  14.073  1.00  0.00     0.092 A 
BRANCH  14  17
ATOM     17  O   UNL     1     -20.377  24.366  12.428  1.00  0.00    -0.508 OA
ATOM     18  H   UNL     1     -20.929  25.074  11.959  1.00  0.00     0.293 HD
ENDBRANCH  14  17
BRANCH  15  19
ATOM     19  O   UNL     1     -23.590  22.881  15.705  1.00  0.00    -0.508 OA
ATOM     20  H   UNL     1     -23.986  23.103  16.610  1.00  0.00     0.293 HD
ENDBRANCH  15  19
ENDBRANCH  10  11
ENDBRANCH   1  10
TORSDOF 6
ENDMDL
MODEL 7
REMARK VINA RESULT:    -4.517     15.897     17.137
REMARK INTER + INTRA:          -6.203
REMARK INTER:                  -5.651
REMARK INTRA:                  -0.553
REMARK UNBOUND:                -0.498
REMARK SMILES Oc1cc(O)cc(CCc2ccccc2O)c1
REMARK SMILES IDX 9 1 10 2 12 3 13 4 11 5 14 6 15 7 16 8 8 10 7 11 6 12 17 13
REMARK SMILES IDX 4 14 2 15 3 16 5 17 1 19
REMARK H PARENT 16 9 5 18 1 20
REMARK Flexibility Score: inf
ROOT
ATOM      1  C   UNL     1     -22.724  39.047  22.341  1.00  0.00     0.044 C 
ENDROOT
BRANCH   1   2
ATOM      2  C   UNL     1     -21.616  40.013  21.997  1.00  0.00    -0.006 A 
ATOM      3  C   UNL     1     -19.663  41.275  22.724  1.00  0.00     0.001 A 
ATOM      4  C   UNL     1     -19.502  41.780  21.435  1.00  0.00     0.004 A 
ATOM      5  C   UNL     1     -20.710  40.393  23.004  1.00  0.00     0.007 A 
ATOM      6  C   UNL     1     -20.382  41.401  20.419  1.00  0.00     0.046 A 
ATOM      7  C   UNL     1     -21.434  40.514  20.683  1.00  0.00     0.118 A 
BRANCH   7   8
ATOM      8  O   UNL     1     -22.268  40.155  19.622  1.00  0.00    -0.508 OA
ATOM      9  H   UNL     1     -22.180  39.287  19.110  1.00  0.00     0.293 HD
ENDBRANCH   7   8
ENDBRANCH   1   2
BRANCH   1  10
ATOM     10  C   UNL     1     -22.254  38.030  23.387  1.00  0.00     0.040 C 
BRANCH  10  11
ATOM     11  C   UNL     1     -22.107  36.666  22.768  1.00  0.00    -0.040 A 
ATOM     12  C   UNL     1     -22.611  36.416  21.482  1.00  0.00     0.050 A 
ATOM     13  C   UNL     1     -21.518  35.619  23.495  1.00  0.00     0.050 A 
ATOM     14  C   UNL     1     -22.505  35.137  20.917  1.00  0.00     0.119 A 
ATOM     15  C   UNL     1     -21.412  34.340  22.931  1.00  0.00     0.119 A 
ATOM     16  C   UNL     1     -21.904  34.104  21.643  1.00  0.00     0.092 A 
BRANCH  14  17
ATOM     17  O   UNL     1     -22.996  34.882  19.639  1.00  0.00    -0.508 OA
ATOM     18  H   UNL     1     -23.621  34.104  19.458  1.00  0.00     0.293 HD
ENDBRANCH  14  17
BRANCH  15  19
ATOM     19  O   UNL     1     -20.823  33.297  23.644  1.00  0.00    -0.508 OA
ATOM     20  H   UNL     1     -20.897  32.336  23.334  1.00  0.00     0.293 HD
ENDBRANCH  15  19
ENDBRANCH  10  11
ENDBRANCH   1  10
TORSDOF 6
ENDMDL
MODEL 8
REMARK VINA RESULT:    -4.516     15.907     17.173
REMARK INTER + INTRA:          -6.203
REMARK INTER:                  -5.645
REMARK INTRA:                  -0.558
REMARK UNBOUND:                -0.498
REMARK SMILES Oc1cc(O)cc(CCc2ccccc2O)c1
REMARK SMILES IDX 9 1 10 2 12 3 13 4 11 5 14 6 15 7 16 8 8 10 7 11 6 12 17 13
REMARK SMILES IDX 4 14 2 15 3 16 5 17 1 19
REMARK H PARENT 16 9 5 18 1 20
REMARK Flexibility Score: inf
ROOT
ATOM      1  C   UNL     1     -22.718  39.062  22.362  1.00  0.00     0.044 C 
ENDROOT
BRANCH   1   2
ATOM      2  C   UNL     1     -21.597  40.009  22.006  1.00  0.00    -0.006 A 
ATOM      3  C   UNL     1     -19.620  41.242  22.715  1.00  0.00     0.001 A 
ATOM      4  C   UNL     1     -19.459  41.740  21.423  1.00  0.00     0.004 A 
ATOM      5  C   UNL     1     -20.678  40.379  23.006  1.00  0.00     0.007 A 
ATOM      6  C   UNL     1     -20.352  41.371  20.415  1.00  0.00     0.046 A 
ATOM      7  C   UNL     1     -21.416  40.502  20.690  1.00  0.00     0.118 A 
BRANCH   7   8
ATOM      8  O   UNL     1     -22.263  40.151  19.635  1.00  0.00    -0.508 OA
ATOM      9  H   UNL     1     -22.910  39.376  19.672  1.00  0.00     0.293 HD
ENDBRANCH   7   8
ENDBRANCH   1   2
BRANCH   1  10
ATOM     10  C   UNL     1     -22.261  38.052  23.420  1.00  0.00     0.040 C 
BRANCH  10  11
ATOM     11  C   UNL     1     -22.152  36.674  22.823  1.00  0.00    -0.040 A 
ATOM     12  C   UNL     1     -21.568  35.630  23.557  1.00  0.00     0.050 A 
ATOM     13  C   UNL     1     -22.581  36.437  21.507  1.00  0.00     0.050 A 
ATOM     14  C   UNL     1     -21.436  34.355  22.991  1.00  0.00     0.119 A 
ATOM     15  C   UNL     1     -22.448  35.163  20.939  1.00  0.00     0.119 A 
ATOM     16  C   UNL     1     -21.878  34.125  21.684  1.00  0.00     0.092 A 
BRANCH  14  17
ATOM     17  O   UNL     1     -20.864  33.311  23.715  1.00  0.00    -0.508 OA
ATOM     18  H   UNL     1     -20.692  33.391  24.711  1.00  0.00     0.293 HD
ENDBRANCH  14  17
BRANCH  15  19
ATOM     19  O   UNL     1     -22.877  34.919  19.636  1.00  0.00    -0.508 OA
ATOM     20  H   UNL     1     -23.776  35.246  19.304  1.00  0.00     0.293 HD
ENDBRANCH  15  19
ENDBRANCH  10  11
ENDBRANCH   1  10
TORSDOF 6
ENDMDL
MODEL 9
REMARK VINA RESULT:    -4.482     11.440     13.136
REMARK INTER + INTRA:          -6.160
REMARK INTER:                  -5.649
REMARK INTRA:                  -0.511
REMARK UNBOUND:                -0.498
REMARK SMILES Oc1cc(O)cc(CCc2ccccc2O)c1
REMARK SMILES IDX 9 1 10 2 12 3 13 4 11 5 14 6 15 7 16 8 8 10 7 11 6 12 17 13
REMARK SMILES IDX 4 14 2 15 3 16 5 17 1 19
REMARK H PARENT 16 9 5 18 1 20
REMARK Flexibility Score: inf
ROOT
ATOM      1  C   UNL     1     -21.397  32.424  23.448  1.00  0.00     0.044 C 
ENDROOT
BRANCH   1   2
ATOM      2  C   UNL     1     -21.929  33.230  22.288  1.00  0.00    -0.006 A 
ATOM      3  C   UNL     1     -21.805  35.255  20.940  1.00  0.00     0.001 A 
ATOM      4  C   UNL     1     -22.834  34.784  20.125  1.00  0.00     0.004 A 
ATOM      5  C   UNL     1     -21.351  34.484  22.011  1.00  0.00     0.007 A 
ATOM      6  C   UNL     1     -23.408  33.536  20.375  1.00  0.00     0.046 A 
ATOM      7  C   UNL     1     -22.960  32.748  21.443  1.00  0.00     0.118 A 
BRANCH   7   8
ATOM      8  O   UNL     1     -23.558  31.499  21.630  1.00  0.00    -0.508 OA
ATOM      9  H   UNL     1     -24.229  31.302  22.360  1.00  0.00     0.293 HD
ENDBRANCH   7   8
ENDBRANCH   1   2
BRANCH   1  10
ATOM     10  C   UNL     1     -19.867  32.484  23.496  1.00  0.00     0.040 C 
BRANCH  10  11
ATOM     11  C   UNL     1     -19.273  31.159  23.099  1.00  0.00    -0.040 A 
ATOM     12  C   UNL     1     -18.166  30.645  23.793  1.00  0.00     0.050 A 
ATOM     13  C   UNL     1     -19.784  30.456  21.997  1.00  0.00     0.050 A 
ATOM     14  C   UNL     1     -17.591  29.427  23.404  1.00  0.00     0.119 A 
ATOM     15  C   UNL     1     -19.209  29.239  21.606  1.00  0.00     0.119 A 
ATOM     16  C   UNL     1     -18.116  28.727  22.313  1.00  0.00     0.092 A 
BRANCH  14  17
ATOM     17  O   UNL     1     -16.497  28.906  24.091  1.00  0.00    -0.508 OA
ATOM     18  H   UNL     1     -16.588  28.097  24.694  1.00  0.00     0.293 HD
ENDBRANCH  14  17
BRANCH  15  19
ATOM     19  O   UNL     1     -19.716  28.533  20.517  1.00  0.00    -0.508 OA
ATOM     20  H   UNL     1     -19.780  27.522  20.525  1.00  0.00     0.293 HD
ENDBRANCH  15  19
ENDBRANCH  10  11
ENDBRANCH   1  10
TORSDOF 6
ENDMDL
