MODEL 1
REMARK VINA RESULT:    -4.709      0.000      0.000
REMARK INTER + INTRA:         -11.799
REMARK INTER:                 -10.214
REMARK INTRA:                  -1.585
REMARK UNBOUND:                -1.585
REMARK SMILES CCCCCCCCCCCCCCCCCCCCCC(=O)[O-]
REMARK SMILES IDX 12 1 11 2 10 3 9 4 8 5 7 6 6 7 5 8 4 9 3 10 2 11 1 12 13 13
REMARK SMILES IDX 14 14 15 15 16 16 17 17 18 18 19 19 20 20 21 21 22 22 23 23
REMARK SMILES IDX 24 24
REMARK H PARENT
REMARK Flexibility Score: inf
ROOT
ATOM      1  C   UNL     1       9.285  49.933  98.249  1.00  0.00     0.000 C 
ENDROOT
BRANCH   1   2
ATOM      2  C   UNL     1      10.455  48.995  97.914  1.00  0.00     0.000 C 
BRANCH   2   3
ATOM      3  C   UNL     1      11.823  49.696  97.985  1.00  0.00     0.000 C 
BRANCH   3   4
ATOM      4  C   UNL     1      12.751  49.361  96.799  1.00  0.00    -0.000 C 
BRANCH   4   5
ATOM      5  C   UNL     1      14.067  50.156  96.848  1.00  0.00    -0.000 C 
BRANCH   5   6
ATOM      6  C   UNL     1      14.286  51.022  95.599  1.00  0.00    -0.000 C 
BRANCH   6   7
ATOM      7  C   UNL     1      15.603  50.699  94.878  1.00  0.00    -0.000 C 
BRANCH   7   8
ATOM      8  C   UNL     1      15.499  49.370  94.116  1.00  0.00    -0.000 C 
BRANCH   8   9
ATOM      9  C   UNL     1      16.461  48.296  94.652  1.00  0.00    -0.000 C 
BRANCH   9  10
ATOM     10  C   UNL     1      16.955  47.311  93.571  1.00  0.00    -0.000 C 
BRANCH  10  11
ATOM     11  C   UNL     1      17.812  46.181  94.161  1.00  0.00    -0.003 C 
ATOM     12  C   UNL     1      18.034  46.385  95.658  1.00  0.00     0.004 C 
ENDBRANCH  10  11
ENDBRANCH   9  10
ENDBRANCH   8   9
ENDBRANCH   7   8
ENDBRANCH   6   7
ENDBRANCH   5   6
ENDBRANCH   4   5
ENDBRANCH   3   4
ENDBRANCH   2   3
ENDBRANCH   1   2
BRANCH   1  13
ATOM     13  C   UNL     1       8.344  50.154  97.055  1.00  0.00     0.000 C 
BRANCH  13  14
ATOM     14  C   UNL     1       8.314  48.953  96.095  1.00  0.00     0.000 C 
BRANCH  14  15
ATOM     15  C   UNL     1       8.949  49.267  94.727  1.00  0.00     0.000 C 
BRANCH  15  16
ATOM     16  C   UNL     1       9.074  48.060  93.775  1.00  0.00     0.000 C 
BRANCH  16  17
ATOM     17  C   UNL     1      10.482  47.449  93.670  1.00  0.00     0.000 C 
BRANCH  17  18
ATOM     18  C   UNL     1      10.471  45.913  93.736  1.00  0.00     0.000 C 
BRANCH  18  19
ATOM     19  C   UNL     1       9.705  45.368  94.956  1.00  0.00     0.000 C 
BRANCH  19  20
ATOM     20  C   UNL     1      10.218  44.023  95.506  1.00  0.00     0.006 C 
BRANCH  20  21
ATOM     21  C   UNL     1      11.465  43.510  94.774  1.00  0.00     0.053 C 
BRANCH  21  22
ATOM     22  C   UNL     1      12.106  42.401  95.547  1.00  0.00     0.041 C 
ATOM     23  O   UNL     1      11.423  41.714  96.352  1.00  0.00    -0.550 OA
ATOM     24  O   UNL     1      13.449  42.103  95.355  1.00  0.00    -0.550 OA
ENDBRANCH  21  22
ENDBRANCH  20  21
ENDBRANCH  19  20
ENDBRANCH  18  19
ENDBRANCH  17  18
ENDBRANCH  16  17
ENDBRANCH  15  16
ENDBRANCH  14  15
ENDBRANCH  13  14
ENDBRANCH   1  13
TORSDOF 20
ENDMDL
MODEL 2
REMARK VINA RESULT:    -4.603      3.525      7.083
REMARK INTER + INTRA:         -11.569
REMARK INTER:                 -10.002
REMARK INTRA:                  -1.567
REMARK UNBOUND:                -1.585
REMARK SMILES CCCCCCCCCCCCCCCCCCCCCC(=O)[O-]
REMARK SMILES IDX 12 1 11 2 10 3 9 4 8 5 7 6 6 7 5 8 4 9 3 10 2 11 1 12 13 13
REMARK SMILES IDX 14 14 15 15 16 16 17 17 18 18 19 19 20 20 21 21 22 22 23 23
REMARK SMILES IDX 24 24
REMARK H PARENT
REMARK Flexibility Score: inf
ROOT
ATOM      1  C   UNL     1      12.385  48.983  96.656  1.00  0.00     0.000 C 
ENDROOT
BRANCH   1   2
ATOM      2  C   UNL     1      11.229  49.189  97.647  1.00  0.00     0.000 C 
BRANCH   2   3
ATOM      3  C   UNL     1      10.252  48.001  97.683  1.00  0.00     0.000 C 
BRANCH   3   4
ATOM      4  C   UNL     1       8.869  48.319  97.077  1.00  0.00    -0.000 C 
BRANCH   4   5
ATOM      5  C   UNL     1       8.677  47.669  95.695  1.00  0.00    -0.000 C 
BRANCH   5   6
ATOM      6  C   UNL     1       9.731  46.594  95.392  1.00  0.00    -0.000 C 
BRANCH   6   7
ATOM      7  C   UNL     1      10.447  46.828  94.054  1.00  0.00    -0.000 C 
BRANCH   7   8
ATOM      8  C   UNL     1      10.872  45.496  93.419  1.00  0.00    -0.000 C 
BRANCH   8   9
ATOM      9  C   UNL     1      10.943  44.344  94.435  1.00  0.00    -0.000 C 
BRANCH   9  10
ATOM     10  C   UNL     1      11.982  43.261  94.074  1.00  0.00    -0.000 C 
BRANCH  10  11
ATOM     11  C   UNL     1      12.456  42.476  95.306  1.00  0.00    -0.003 C 
ATOM     12  C   UNL     1      11.271  41.930  96.099  1.00  0.00     0.004 C 
ENDBRANCH  10  11
ENDBRANCH   9  10
ENDBRANCH   8   9
ENDBRANCH   7   8
ENDBRANCH   6   7
ENDBRANCH   5   6
ENDBRANCH   4   5
ENDBRANCH   3   4
ENDBRANCH   2   3
ENDBRANCH   1   2
BRANCH   1  13
ATOM     13  C   UNL     1      13.739  49.430  97.226  1.00  0.00     0.000 C 
BRANCH  13  14
ATOM     14  C   UNL     1      14.049  50.907  96.926  1.00  0.00     0.000 C 
BRANCH  14  15
ATOM     15  C   UNL     1      14.420  51.149  95.451  1.00  0.00     0.000 C 
BRANCH  15  16
ATOM     16  C   UNL     1      15.711  50.448  94.980  1.00  0.00     0.000 C 
BRANCH  16  17
ATOM     17  C   UNL     1      15.541  49.495  93.784  1.00  0.00     0.000 C 
BRANCH  17  18
ATOM     18  C   UNL     1      16.313  48.177  93.959  1.00  0.00     0.000 C 
BRANCH  18  19
ATOM     19  C   UNL     1      16.378  47.340  92.668  1.00  0.00     0.000 C 
BRANCH  19  20
ATOM     20  C   UNL     1      16.577  48.147  91.371  1.00  0.00     0.006 C 
BRANCH  20  21
ATOM     21  C   UNL     1      17.953  47.922  90.729  1.00  0.00     0.053 C 
BRANCH  21  22
ATOM     22  C   UNL     1      18.211  48.951  89.673  1.00  0.00     0.041 C 
ATOM     23  O   UNL     1      17.424  49.066  88.697  1.00  0.00    -0.550 OA
ATOM     24  O   UNL     1      19.301  49.805  89.783  1.00  0.00    -0.550 OA
ENDBRANCH  21  22
ENDBRANCH  20  21
ENDBRANCH  19  20
ENDBRANCH  18  19
ENDBRANCH  17  18
ENDBRANCH  16  17
ENDBRANCH  15  16
ENDBRANCH  14  15
ENDBRANCH  13  14
ENDBRANCH   1  13
TORSDOF 20
ENDMDL
MODEL 3
REMARK VINA RESULT:    -4.544      3.108      7.047
REMARK INTER + INTRA:         -11.442
REMARK INTER:                  -8.925
REMARK INTRA:                  -2.517
REMARK UNBOUND:                -1.585
REMARK SMILES CCCCCCCCCCCCCCCCCCCCCC(=O)[O-]
REMARK SMILES IDX 12 1 11 2 10 3 9 4 8 5 7 6 6 7 5 8 4 9 3 10 2 11 1 12 13 13
REMARK SMILES IDX 14 14 15 15 16 16 17 17 18 18 19 19 20 20 21 21 22 22 23 23
REMARK SMILES IDX 24 24
REMARK H PARENT
REMARK Flexibility Score: inf
ROOT
ATOM      1  C   UNL     1      13.539  49.315  97.067  1.00  0.00     0.000 C 
ENDROOT
BRANCH   1   2
ATOM      2  C   UNL     1      12.037  49.268  97.390  1.00  0.00     0.000 C 
BRANCH   2   3
ATOM      3  C   UNL     1      11.205  48.619  96.272  1.00  0.00     0.000 C 
BRANCH   3   4
ATOM      4  C   UNL     1      11.972  48.461  94.942  1.00  0.00    -0.000 C 
BRANCH   4   5
ATOM      5  C   UNL     1      11.482  49.446  93.867  1.00  0.00    -0.000 C 
BRANCH   5   6
ATOM      6  C   UNL     1      10.445  48.824  92.920  1.00  0.00    -0.000 C 
BRANCH   6   7
ATOM      7  C   UNL     1       9.013  49.292  93.219  1.00  0.00    -0.000 C 
BRANCH   7   8
ATOM      8  C   UNL     1       8.254  48.243  94.044  1.00  0.00    -0.000 C 
BRANCH   8   9
ATOM      9  C   UNL     1       8.856  46.833  93.920  1.00  0.00    -0.000 C 
BRANCH   9  10
ATOM     10  C   UNL     1       8.381  45.857  95.017  1.00  0.00    -0.000 C 
BRANCH  10  11
ATOM     11  C   UNL     1       9.532  45.394  95.922  1.00  0.00    -0.003 C 
ATOM     12  C   UNL     1      10.185  44.127  95.376  1.00  0.00     0.004 C 
ENDBRANCH  10  11
ENDBRANCH   9  10
ENDBRANCH   8   9
ENDBRANCH   7   8
ENDBRANCH   6   7
ENDBRANCH   5   6
ENDBRANCH   4   5
ENDBRANCH   3   4
ENDBRANCH   2   3
ENDBRANCH   1   2
BRANCH   1  13
ATOM     13  C   UNL     1      14.074  50.750  96.947  1.00  0.00     0.000 C 
BRANCH  13  14
ATOM     14  C   UNL     1      14.499  51.106  95.513  1.00  0.00     0.000 C 
BRANCH  14  15
ATOM     15  C   UNL     1      15.640  50.214  94.991  1.00  0.00     0.000 C 
BRANCH  15  16
ATOM     16  C   UNL     1      15.308  49.411  93.716  1.00  0.00     0.000 C 
BRANCH  16  17
ATOM     17  C   UNL     1      16.064  48.079  93.564  1.00  0.00     0.000 C 
BRANCH  17  18
ATOM     18  C   UNL     1      16.943  47.751  94.781  1.00  0.00     0.000 C 
BRANCH  18  19
ATOM     19  C   UNL     1      17.547  46.335  94.725  1.00  0.00     0.000 C 
BRANCH  19  20
ATOM     20  C   UNL     1      18.976  46.252  94.156  1.00  0.00     0.006 C 
BRANCH  20  21
ATOM     21  C   UNL     1      19.036  45.595  92.771  1.00  0.00     0.053 C 
BRANCH  21  22
ATOM     22  C   UNL     1      19.420  46.600  91.731  1.00  0.00     0.041 C 
ATOM     23  O   UNL     1      18.565  47.415  91.293  1.00  0.00    -0.550 OA
ATOM     24  O   UNL     1      20.728  46.660  91.269  1.00  0.00    -0.550 OA
ENDBRANCH  21  22
ENDBRANCH  20  21
ENDBRANCH  19  20
ENDBRANCH  18  19
ENDBRANCH  17  18
ENDBRANCH  16  17
ENDBRANCH  15  16
ENDBRANCH  14  15
ENDBRANCH  13  14
ENDBRANCH   1  13
TORSDOF 20
ENDMDL
MODEL 4
REMARK VINA RESULT:    -4.520      1.492      2.517
REMARK INTER + INTRA:         -11.389
REMARK INTER:                  -9.861
REMARK INTRA:                  -1.528
REMARK UNBOUND:                -1.585
REMARK SMILES CCCCCCCCCCCCCCCCCCCCCC(=O)[O-]
REMARK SMILES IDX 12 1 11 2 10 3 9 4 8 5 7 6 6 7 5 8 4 9 3 10 2 11 1 12 13 13
REMARK SMILES IDX 14 14 15 15 16 16 17 17 18 18 19 19 20 20 21 21 22 22 23 23
REMARK SMILES IDX 24 24
REMARK H PARENT
REMARK Flexibility Score: inf
ROOT
ATOM      1  C   UNL     1      10.155  48.875  95.697  1.00  0.00     0.000 C 
ENDROOT
BRANCH   1   2
ATOM      2  C   UNL     1      11.615  48.515  96.012  1.00  0.00     0.000 C 
BRANCH   2   3
ATOM      3  C   UNL     1      12.158  49.250  97.249  1.00  0.00     0.000 C 
BRANCH   3   4
ATOM      4  C   UNL     1      13.694  49.401  97.254  1.00  0.00    -0.000 C 
BRANCH   4   5
ATOM      5  C   UNL     1      14.140  50.824  96.878  1.00  0.00    -0.000 C 
BRANCH   5   6
ATOM      6  C   UNL     1      14.246  51.033  95.360  1.00  0.00    -0.000 C 
BRANCH   6   7
ATOM      7  C   UNL     1      15.644  50.710  94.813  1.00  0.00    -0.000 C 
BRANCH   7   8
ATOM      8  C   UNL     1      15.659  49.340  94.120  1.00  0.00    -0.000 C 
BRANCH   8   9
ATOM      9  C   UNL     1      16.394  48.263  94.936  1.00  0.00    -0.000 C 
BRANCH   9  10
ATOM     10  C   UNL     1      17.129  47.221  94.067  1.00  0.00    -0.000 C 
BRANCH  10  11
ATOM     11  C   UNL     1      16.521  47.103  92.661  1.00  0.00    -0.003 C 
ATOM     12  C   UNL     1      17.576  47.344  91.584  1.00  0.00     0.004 C 
ENDBRANCH  10  11
ENDBRANCH   9  10
ENDBRANCH   8   9
ENDBRANCH   7   8
ENDBRANCH   6   7
ENDBRANCH   5   6
ENDBRANCH   4   5
ENDBRANCH   3   4
ENDBRANCH   2   3
ENDBRANCH   1   2
BRANCH   1  13
ATOM     13  C   UNL     1       9.186  48.439  96.806  1.00  0.00     0.000 C 
BRANCH  13  14
ATOM     14  C   UNL     1       9.632  47.145  97.508  1.00  0.00     0.000 C 
BRANCH  14  15
ATOM     15  C   UNL     1       8.851  45.907  97.028  1.00  0.00     0.000 C 
BRANCH  15  16
ATOM     16  C   UNL     1       8.875  45.672  95.504  1.00  0.00     0.000 C 
BRANCH  16  17
ATOM     17  C   UNL     1      10.117  44.935  94.973  1.00  0.00     0.000 C 
BRANCH  17  18
ATOM     18  C   UNL     1      10.398  43.623  95.723  1.00  0.00     0.000 C 
BRANCH  18  19
ATOM     19  C   UNL     1      11.592  42.841  95.145  1.00  0.00     0.000 C 
BRANCH  19  20
ATOM     20  C   UNL     1      12.077  43.313  93.761  1.00  0.00     0.006 C 
BRANCH  20  21
ATOM     21  C   UNL     1      13.140  42.389  93.150  1.00  0.00     0.053 C 
BRANCH  21  22
ATOM     22  C   UNL     1      14.439  42.534  93.877  1.00  0.00     0.041 C 
ATOM     23  O   UNL     1      15.313  43.338  93.457  1.00  0.00    -0.550 OA
ATOM     24  O   UNL     1      14.674  41.807  95.038  1.00  0.00    -0.550 OA
ENDBRANCH  21  22
ENDBRANCH  20  21
ENDBRANCH  19  20
ENDBRANCH  18  19
ENDBRANCH  17  18
ENDBRANCH  16  17
ENDBRANCH  15  16
ENDBRANCH  14  15
ENDBRANCH  13  14
ENDBRANCH   1  13
TORSDOF 20
ENDMDL
MODEL 5
REMARK VINA RESULT:    -4.513      1.980      6.235
REMARK INTER + INTRA:         -11.375
REMARK INTER:                  -9.816
REMARK INTRA:                  -1.559
REMARK UNBOUND:                -1.585
REMARK SMILES CCCCCCCCCCCCCCCCCCCCCC(=O)[O-]
REMARK SMILES IDX 12 1 11 2 10 3 9 4 8 5 7 6 6 7 5 8 4 9 3 10 2 11 1 12 13 13
REMARK SMILES IDX 14 14 15 15 16 16 17 17 18 18 19 19 20 20 21 21 22 22 23 23
REMARK SMILES IDX 24 24
REMARK H PARENT
REMARK Flexibility Score: inf
ROOT
ATOM      1  C   UNL     1      12.229  49.147  96.904  1.00  0.00     0.000 C 
ENDROOT
BRANCH   1   2
ATOM      2  C   UNL     1      11.284  49.572  98.039  1.00  0.00     0.000 C 
BRANCH   2   3
ATOM      3  C   UNL     1       9.863  49.004  97.878  1.00  0.00     0.000 C 
BRANCH   3   4
ATOM      4  C   UNL     1       9.835  47.523  97.445  1.00  0.00    -0.000 C 
BRANCH   4   5
ATOM      5  C   UNL     1       9.338  47.349  95.999  1.00  0.00    -0.000 C 
BRANCH   5   6
ATOM      6  C   UNL     1      10.431  46.826  95.054  1.00  0.00    -0.000 C 
BRANCH   6   7
ATOM      7  C   UNL     1       9.865  46.305  93.725  1.00  0.00    -0.000 C 
BRANCH   7   8
ATOM      8  C   UNL     1      10.348  44.875  93.446  1.00  0.00    -0.000 C 
BRANCH   8   9
ATOM      9  C   UNL     1      11.254  44.321  94.557  1.00  0.00    -0.000 C 
BRANCH   9  10
ATOM     10  C   UNL     1      10.528  43.372  95.534  1.00  0.00    -0.000 C 
BRANCH  10  11
ATOM     11  C   UNL     1      11.453  42.268  96.068  1.00  0.00    -0.003 C 
ATOM     12  C   UNL     1      12.846  42.373  95.454  1.00  0.00     0.004 C 
ENDBRANCH  10  11
ENDBRANCH   9  10
ENDBRANCH   8   9
ENDBRANCH   7   8
ENDBRANCH   6   7
ENDBRANCH   5   6
ENDBRANCH   4   5
ENDBRANCH   3   4
ENDBRANCH   2   3
ENDBRANCH   1   2
BRANCH   1  13
ATOM     13  C   UNL     1      13.707  49.385  97.246  1.00  0.00     0.000 C 
BRANCH  13  14
ATOM     14  C   UNL     1      14.154  50.831  96.972  1.00  0.00     0.000 C 
BRANCH  14  15
ATOM     15  C   UNL     1      14.397  51.106  95.476  1.00  0.00     0.000 C 
BRANCH  15  16
ATOM     16  C   UNL     1      15.577  50.331  94.855  1.00  0.00     0.000 C 
BRANCH  16  17
ATOM     17  C   UNL     1      15.183  49.178  93.915  1.00  0.00     0.000 C 
BRANCH  17  18
ATOM     18  C   UNL     1      16.353  48.225  93.619  1.00  0.00     0.000 C 
BRANCH  18  19
ATOM     19  C   UNL     1      16.894  47.525  94.880  1.00  0.00     0.000 C 
BRANCH  19  20
ATOM     20  C   UNL     1      18.021  46.505  94.632  1.00  0.00     0.006 C 
BRANCH  20  21
ATOM     21  C   UNL     1      18.267  46.230  93.142  1.00  0.00     0.053 C 
BRANCH  21  22
ATOM     22  C   UNL     1      17.737  44.883  92.765  1.00  0.00     0.041 C 
ATOM     23  O   UNL     1      18.489  44.042  92.204  1.00  0.00    -0.550 OA
ATOM     24  O   UNL     1      16.424  44.542  93.062  1.00  0.00    -0.550 OA
ENDBRANCH  21  22
ENDBRANCH  20  21
ENDBRANCH  19  20
ENDBRANCH  18  19
ENDBRANCH  17  18
ENDBRANCH  16  17
ENDBRANCH  15  16
ENDBRANCH  14  15
ENDBRANCH  13  14
ENDBRANCH   1  13
TORSDOF 20
ENDMDL
MODEL 6
REMARK VINA RESULT:    -4.374      2.845      6.454
REMARK INTER + INTRA:         -11.074
REMARK INTER:                  -8.753
REMARK INTRA:                  -2.321
REMARK UNBOUND:                -1.585
REMARK SMILES CCCCCCCCCCCCCCCCCCCCCC(=O)[O-]
REMARK SMILES IDX 12 1 11 2 10 3 9 4 8 5 7 6 6 7 5 8 4 9 3 10 2 11 1 12 13 13
REMARK SMILES IDX 14 14 15 15 16 16 17 17 18 18 19 19 20 20 21 21 22 22 23 23
REMARK SMILES IDX 24 24
REMARK H PARENT
REMARK Flexibility Score: inf
ROOT
ATOM      1  C   UNL     1      10.384  49.685  98.392  1.00  0.00     0.000 C 
ENDROOT
BRANCH   1   2
ATOM      2  C   UNL     1       8.936  49.397  97.965  1.00  0.00     0.000 C 
BRANCH   2   3
ATOM      3  C   UNL     1       8.133  50.676  97.671  1.00  0.00     0.000 C 
BRANCH   3   4
ATOM      4  C   UNL     1       7.602  50.753  96.224  1.00  0.00    -0.000 C 
BRANCH   4   5
ATOM      5  C   UNL     1       7.863  49.456  95.438  1.00  0.00    -0.000 C 
BRANCH   5   6
ATOM      6  C   UNL     1       8.672  49.692  94.154  1.00  0.00    -0.000 C 
BRANCH   6   7
ATOM      7  C   UNL     1      10.080  49.084  94.220  1.00  0.00    -0.000 C 
BRANCH   7   8
ATOM      8  C   UNL     1      10.362  48.216  92.986  1.00  0.00    -0.000 C 
BRANCH   8   9
ATOM      9  C   UNL     1      10.017  46.733  93.204  1.00  0.00    -0.000 C 
BRANCH   9  10
ATOM     10  C   UNL     1      10.688  46.118  94.451  1.00  0.00    -0.000 C 
BRANCH  10  11
ATOM     11  C   UNL     1       9.700  45.309  95.304  1.00  0.00    -0.003 C 
ATOM     12  C   UNL     1       9.247  46.106  96.525  1.00  0.00     0.004 C 
ENDBRANCH  10  11
ENDBRANCH   9  10
ENDBRANCH   8   9
ENDBRANCH   7   8
ENDBRANCH   6   7
ENDBRANCH   5   6
ENDBRANCH   4   5
ENDBRANCH   3   4
ENDBRANCH   2   3
ENDBRANCH   1   2
BRANCH   1  13
ATOM     13  C   UNL     1      11.409  48.862  97.599  1.00  0.00     0.000 C 
BRANCH  13  14
ATOM     14  C   UNL     1      12.714  49.634  97.337  1.00  0.00     0.000 C 
BRANCH  14  15
ATOM     15  C   UNL     1      13.304  49.351  95.943  1.00  0.00     0.000 C 
BRANCH  15  16
ATOM     16  C   UNL     1      14.003  50.553  95.275  1.00  0.00     0.000 C 
BRANCH  16  17
ATOM     17  C   UNL     1      15.538  50.464  95.203  1.00  0.00     0.000 C 
BRANCH  17  18
ATOM     18  C   UNL     1      16.031  49.107  94.673  1.00  0.00     0.000 C 
BRANCH  18  19
ATOM     19  C   UNL     1      15.560  48.814  93.236  1.00  0.00     0.000 C 
BRANCH  19  20
ATOM     20  C   UNL     1      16.106  47.513  92.619  1.00  0.00     0.006 C 
BRANCH  20  21
ATOM     21  C   UNL     1      16.968  47.754  91.372  1.00  0.00     0.053 C 
BRANCH  21  22
ATOM     22  C   UNL     1      18.333  47.169  91.559  1.00  0.00     0.041 C 
ATOM     23  O   UNL     1      18.473  46.068  92.155  1.00  0.00    -0.550 OA
ATOM     24  O   UNL     1      19.447  47.821  91.046  1.00  0.00    -0.550 OA
ENDBRANCH  21  22
ENDBRANCH  20  21
ENDBRANCH  19  20
ENDBRANCH  18  19
ENDBRANCH  17  18
ENDBRANCH  16  17
ENDBRANCH  15  16
ENDBRANCH  14  15
ENDBRANCH  13  14
ENDBRANCH   1  13
TORSDOF 20
ENDMDL
MODEL 7
REMARK VINA RESULT:    -4.374      3.442      4.536
REMARK INTER + INTRA:         -11.072
REMARK INTER:                  -8.676
REMARK INTRA:                  -2.396
REMARK UNBOUND:                -1.585
REMARK SMILES CCCCCCCCCCCCCCCCCCCCCC(=O)[O-]
REMARK SMILES IDX 12 1 11 2 10 3 9 4 8 5 7 6 6 7 5 8 4 9 3 10 2 11 1 12 13 13
REMARK SMILES IDX 14 14 15 15 16 16 17 17 18 18 19 19 20 20 21 21 22 22 23 23
REMARK SMILES IDX 24 24
REMARK H PARENT
REMARK Flexibility Score: inf
ROOT
ATOM      1  C   UNL     1       8.866  49.982  97.531  1.00  0.00     0.000 C 
ENDROOT
BRANCH   1   2
ATOM      2  C   UNL     1       9.950  49.014  98.029  1.00  0.00     0.000 C 
BRANCH   2   3
ATOM      3  C   UNL     1      11.363  49.621  97.977  1.00  0.00     0.000 C 
BRANCH   3   4
ATOM      4  C   UNL     1      12.295  48.931  96.958  1.00  0.00    -0.000 C 
BRANCH   4   5
ATOM      5  C   UNL     1      13.763  49.354  97.133  1.00  0.00    -0.000 C 
BRANCH   5   6
ATOM      6  C   UNL     1      13.992  50.844  96.834  1.00  0.00    -0.000 C 
BRANCH   6   7
ATOM      7  C   UNL     1      14.275  51.113  95.349  1.00  0.00    -0.000 C 
BRANCH   7   8
ATOM      8  C   UNL     1      15.695  50.669  94.972  1.00  0.00    -0.000 C 
BRANCH   8   9
ATOM      9  C   UNL     1      15.719  49.367  94.154  1.00  0.00    -0.000 C 
BRANCH   9  10
ATOM     10  C   UNL     1      16.386  48.184  94.888  1.00  0.00    -0.000 C 
BRANCH  10  11
ATOM     11  C   UNL     1      17.100  47.227  93.922  1.00  0.00    -0.003 C 
ATOM     12  C   UNL     1      18.174  46.417  94.644  1.00  0.00     0.004 C 
ENDBRANCH  10  11
ENDBRANCH   9  10
ENDBRANCH   8   9
ENDBRANCH   7   8
ENDBRANCH   6   7
ENDBRANCH   5   6
ENDBRANCH   4   5
ENDBRANCH   3   4
ENDBRANCH   2   3
ENDBRANCH   1   2
BRANCH   1  13
ATOM     13  C   UNL     1       7.563  49.263  97.149  1.00  0.00     0.000 C 
BRANCH  13  14
ATOM     14  C   UNL     1       7.647  47.740  97.346  1.00  0.00     0.000 C 
BRANCH  14  15
ATOM     15  C   UNL     1       7.020  46.953  96.181  1.00  0.00     0.000 C 
BRANCH  15  16
ATOM     16  C   UNL     1       8.013  46.112  95.353  1.00  0.00     0.000 C 
BRANCH  16  17
ATOM     17  C   UNL     1       9.491  46.252  95.760  1.00  0.00     0.000 C 
BRANCH  17  18
ATOM     18  C   UNL     1      10.305  47.097  94.766  1.00  0.00     0.000 C 
BRANCH  18  19
ATOM     19  C   UNL     1       9.442  47.703  93.643  1.00  0.00     0.000 C 
BRANCH  19  20
ATOM     20  C   UNL     1       9.163  49.213  93.771  1.00  0.00     0.006 C 
BRANCH  20  21
ATOM     21  C   UNL     1       9.051  49.921  92.414  1.00  0.00     0.053 C 
BRANCH  21  22
ATOM     22  C   UNL     1       9.266  51.393  92.573  1.00  0.00     0.041 C 
ATOM     23  O   UNL     1      10.425  51.876  92.484  1.00  0.00    -0.550 OA
ATOM     24  O   UNL     1       8.183  52.237  92.786  1.00  0.00    -0.550 OA
ENDBRANCH  21  22
ENDBRANCH  20  21
ENDBRANCH  19  20
ENDBRANCH  18  19
ENDBRANCH  17  18
ENDBRANCH  16  17
ENDBRANCH  15  16
ENDBRANCH  14  15
ENDBRANCH  13  14
ENDBRANCH   1  13
TORSDOF 20
ENDMDL
MODEL 8
REMARK VINA RESULT:    -4.347      1.847      4.420
REMARK INTER + INTRA:         -11.015
REMARK INTER:                  -8.664
REMARK INTRA:                  -2.351
REMARK UNBOUND:                -1.585
REMARK SMILES CCCCCCCCCCCCCCCCCCCCCC(=O)[O-]
REMARK SMILES IDX 12 1 11 2 10 3 9 4 8 5 7 6 6 7 5 8 4 9 3 10 2 11 1 12 13 13
REMARK SMILES IDX 14 14 15 15 16 16 17 17 18 18 19 19 20 20 21 21 22 22 23 23
REMARK SMILES IDX 24 24
REMARK H PARENT
REMARK Flexibility Score: inf
ROOT
ATOM      1  C   UNL     1      14.379  50.915  95.397  1.00  0.00     0.000 C 
ENDROOT
BRANCH   1   2
ATOM      2  C   UNL     1      15.561  50.055  94.922  1.00  0.00     0.000 C 
BRANCH   2   3
ATOM      3  C   UNL     1      15.138  48.941  93.950  1.00  0.00     0.000 C 
BRANCH   3   4
ATOM      4  C   UNL     1      16.325  48.145  93.367  1.00  0.00    -0.000 C 
BRANCH   4   5
ATOM      5  C   UNL     1      17.125  47.413  94.458  1.00  0.00    -0.000 C 
BRANCH   5   6
ATOM      6  C   UNL     1      17.501  45.978  94.056  1.00  0.00    -0.000 C 
BRANCH   6   7
ATOM      7  C   UNL     1      18.795  45.914  93.231  1.00  0.00    -0.000 C 
BRANCH   7   8
ATOM      8  C   UNL     1      18.775  44.713  92.274  1.00  0.00    -0.000 C 
BRANCH   8   9
ATOM      9  C   UNL     1      17.396  44.038  92.188  1.00  0.00    -0.000 C 
BRANCH   9  10
ATOM     10  C   UNL     1      16.715  44.191  90.811  1.00  0.00    -0.000 C 
BRANCH  10  11
ATOM     11  C   UNL     1      15.831  45.445  90.736  1.00  0.00    -0.003 C 
ATOM     12  C   UNL     1      14.632  45.329  91.674  1.00  0.00     0.004 C 
ENDBRANCH  10  11
ENDBRANCH   9  10
ENDBRANCH   8   9
ENDBRANCH   7   8
ENDBRANCH   6   7
ENDBRANCH   5   6
ENDBRANCH   4   5
ENDBRANCH   3   4
ENDBRANCH   2   3
ENDBRANCH   1   2
BRANCH   1  13
ATOM     13  C   UNL     1      14.115  50.777  96.904  1.00  0.00     0.000 C 
BRANCH  13  14
ATOM     14  C   UNL     1      13.543  49.400  97.280  1.00  0.00     0.000 C 
BRANCH  14  15
ATOM     15  C   UNL     1      12.034  49.444  97.583  1.00  0.00     0.000 C 
BRANCH  15  16
ATOM     16  C   UNL     1      11.160  48.562  96.667  1.00  0.00     0.000 C 
BRANCH  16  17
ATOM     17  C   UNL     1      11.475  48.662  95.164  1.00  0.00     0.000 C 
BRANCH  17  18
ATOM     18  C   UNL     1      11.031  47.417  94.378  1.00  0.00     0.000 C 
BRANCH  18  19
ATOM     19  C   UNL     1       9.738  46.786  94.928  1.00  0.00     0.000 C 
BRANCH  19  20
ATOM     20  C   UNL     1       9.574  45.279  94.654  1.00  0.00     0.006 C 
BRANCH  20  21
ATOM     21  C   UNL     1      10.144  44.398  95.774  1.00  0.00     0.053 C 
BRANCH  21  22
ATOM     22  C   UNL     1      11.149  43.436  95.222  1.00  0.00     0.041 C 
ATOM     23  O   UNL     1      11.641  43.623  94.078  1.00  0.00    -0.550 OA
ATOM     24  O   UNL     1      11.567  42.352  95.983  1.00  0.00    -0.550 OA
ENDBRANCH  21  22
ENDBRANCH  20  21
ENDBRANCH  19  20
ENDBRANCH  18  19
ENDBRANCH  17  18
ENDBRANCH  16  17
ENDBRANCH  15  16
ENDBRANCH  14  15
ENDBRANCH  13  14
ENDBRANCH   1  13
TORSDOF 20
ENDMDL
MODEL 9
REMARK VINA RESULT:    -4.319      3.622      7.725
REMARK INTER + INTRA:         -10.954
REMARK INTER:                  -8.739
REMARK INTRA:                  -2.215
REMARK UNBOUND:                -1.585
REMARK SMILES CCCCCCCCCCCCCCCCCCCCCC(=O)[O-]
REMARK SMILES IDX 12 1 11 2 10 3 9 4 8 5 7 6 6 7 5 8 4 9 3 10 2 11 1 12 13 13
REMARK SMILES IDX 14 14 15 15 16 16 17 17 18 18 19 19 20 20 21 21 22 22 23 23
REMARK SMILES IDX 24 24
REMARK H PARENT
REMARK Flexibility Score: inf
ROOT
ATOM      1  C   UNL     1      14.516  50.752  95.302  1.00  0.00     0.000 C 
ENDROOT
BRANCH   1   2
ATOM      2  C   UNL     1      14.090  50.581  96.768  1.00  0.00     0.000 C 
BRANCH   2   3
ATOM      3  C   UNL     1      13.216  49.336  96.996  1.00  0.00     0.000 C 
BRANCH   3   4
ATOM      4  C   UNL     1      11.876  49.641  97.697  1.00  0.00    -0.000 C 
BRANCH   4   5
ATOM      5  C   UNL     1      10.854  48.504  97.519  1.00  0.00    -0.000 C 
BRANCH   5   6
ATOM      6  C   UNL     1       9.401  48.984  97.656  1.00  0.00    -0.000 C 
BRANCH   6   7
ATOM      7  C   UNL     1       8.830  49.527  96.338  1.00  0.00    -0.000 C 
BRANCH   7   8
ATOM      8  C   UNL     1       8.888  48.461  95.235  1.00  0.00    -0.000 C 
BRANCH   8   9
ATOM      9  C   UNL     1       9.348  49.025  93.880  1.00  0.00    -0.000 C 
BRANCH   9  10
ATOM     10  C   UNL     1      10.866  49.293  93.802  1.00  0.00    -0.000 C 
BRANCH  10  11
ATOM     11  C   UNL     1      11.692  48.008  93.958  1.00  0.00    -0.003 C 
ATOM     12  C   UNL     1      11.240  46.939  92.966  1.00  0.00     0.004 C 
ENDBRANCH  10  11
ENDBRANCH   9  10
ENDBRANCH   8   9
ENDBRANCH   7   8
ENDBRANCH   6   7
ENDBRANCH   5   6
ENDBRANCH   4   5
ENDBRANCH   3   4
ENDBRANCH   2   3
ENDBRANCH   1   2
BRANCH   1  13
ATOM     13  C   UNL     1      15.645  49.792  94.898  1.00  0.00     0.000 C 
BRANCH  13  14
ATOM     14  C   UNL     1      15.310  48.981  93.635  1.00  0.00     0.000 C 
BRANCH  14  15
ATOM     15  C   UNL     1      16.355  47.893  93.330  1.00  0.00     0.000 C 
BRANCH  15  16
ATOM     16  C   UNL     1      17.162  47.405  94.551  1.00  0.00     0.000 C 
BRANCH  16  17
ATOM     17  C   UNL     1      18.002  46.136  94.318  1.00  0.00     0.000 C 
BRANCH  17  18
ATOM     18  C   UNL     1      17.555  45.345  93.078  1.00  0.00     0.000 C 
BRANCH  18  19
ATOM     19  C   UNL     1      18.609  45.340  91.955  1.00  0.00     0.000 C 
BRANCH  19  20
ATOM     20  C   UNL     1      19.860  46.198  92.224  1.00  0.00     0.006 C 
BRANCH  20  21
ATOM     21  C   UNL     1      20.527  46.709  90.939  1.00  0.00     0.053 C 
BRANCH  21  22
ATOM     22  C   UNL     1      20.164  48.139  90.695  1.00  0.00     0.041 C 
ATOM     23  O   UNL     1      21.045  49.036  90.765  1.00  0.00    -0.550 OA
ATOM     24  O   UNL     1      18.860  48.480  90.357  1.00  0.00    -0.550 OA
ENDBRANCH  21  22
ENDBRANCH  20  21
ENDBRANCH  19  20
ENDBRANCH  18  19
ENDBRANCH  17  18
ENDBRANCH  16  17
ENDBRANCH  15  16
ENDBRANCH  14  15
ENDBRANCH  13  14
ENDBRANCH   1  13
TORSDOF 20
ENDMDL
