MODEL 1
REMARK VINA RESULT:     2.081      0.000      0.000
REMARK INTER + INTRA:           2.992
REMARK INTER:                   3.784
REMARK INTRA:                  -0.792
REMARK UNBOUND:                -0.792
REMARK SMILES CCCCCCCCCCCCCCCC(=O)[O-]
REMARK SMILES IDX 9 1 10 2 11 3 12 4 13 5 14 6 15 7 16 8 17 9 18 10 8 11 7 12
REMARK SMILES IDX 6 13 5 14 4 15 3 16 2 17 1 18
REMARK H PARENT
REMARK Flexibility Score: inf
ROOT
ATOM      1  C   UNL     1      58.939  -3.024  -6.545  1.00  0.00     0.000 C 
ENDROOT
BRANCH   1   2
ATOM      2  C   UNL     1      57.933  -1.904  -6.838  1.00  0.00     0.000 C 
BRANCH   2   3
ATOM      3  C   UNL     1      57.629  -1.093  -5.570  1.00  0.00     0.000 C 
BRANCH   3   4
ATOM      4  C   UNL     1      56.155  -0.669  -5.475  1.00  0.00     0.000 C 
BRANCH   4   5
ATOM      5  C   UNL     1      55.256  -1.784  -4.913  1.00  0.00     0.000 C 
BRANCH   5   6
ATOM      6  C   UNL     1      53.825  -1.300  -4.623  1.00  0.00     0.006 C 
BRANCH   6   7
ATOM      7  C   UNL     1      52.783  -1.940  -5.550  1.00  0.00     0.053 C 
BRANCH   7   8
ATOM      8  C   UNL     1      51.425  -1.882  -4.924  1.00  0.00     0.041 C 
ATOM      9  O   UNL     1      50.402  -1.732  -5.642  1.00  0.00    -0.550 OA
ATOM     10  O   UNL     1      51.284  -2.047  -3.552  1.00  0.00    -0.550 OA
ENDBRANCH   7   8
ENDBRANCH   6   7
ENDBRANCH   5   6
ENDBRANCH   4   5
ENDBRANCH   3   4
ENDBRANCH   2   3
ENDBRANCH   1   2
BRANCH   1  11
ATOM     11  C   UNL     1      59.125  -3.216  -5.034  1.00  0.00     0.000 C 
BRANCH  11  12
ATOM     12  C   UNL     1      58.538  -4.559  -4.575  1.00  0.00    -0.000 C 
BRANCH  12  13
ATOM     13  C   UNL     1      58.780  -4.834  -3.081  1.00  0.00    -0.000 C 
BRANCH  13  14
ATOM     14  C   UNL     1      58.927  -6.334  -2.774  1.00  0.00    -0.000 C 
BRANCH  14  15
ATOM     15  C   UNL     1      59.124  -6.615  -1.275  1.00  0.00    -0.000 C 
BRANCH  15  16
ATOM     16  C   UNL     1      58.826  -5.385  -0.399  1.00  0.00    -0.000 C 
BRANCH  16  17
ATOM     17  C   UNL     1      58.895  -5.704   1.104  1.00  0.00    -0.003 C 
ATOM     18  C   UNL     1      57.565  -6.207   1.666  1.00  0.00     0.004 C 
ENDBRANCH  16  17
ENDBRANCH  15  16
ENDBRANCH  14  15
ENDBRANCH  13  14
ENDBRANCH  12  13
ENDBRANCH  11  12
ENDBRANCH   1  11
TORSDOF 14
ENDMDL
