MODEL 1
REMARK VINA RESULT:    -4.923      0.000      0.000
REMARK INTER + INTRA:          -4.923
REMARK INTER:                  -4.923
REMARK INTRA:                   0.000
REMARK UNBOUND:                 0.000
REMARK SMILES O=c1ccc2ccccc2o1
REMARK SMILES IDX 7 1 8 2 9 3 10 4 5 5 6 6 4 7 3 8 2 9 1 10 11 11
REMARK H PARENT
REMARK Flexibility Score: inf
ROOT
ATOM      1  C   UNL     1       4.049  26.329  27.670  1.00  0.00     0.001 A 
ATOM      2  C   UNL     1       4.066  25.018  28.158  1.00  0.00     0.004 A 
ATOM      3  C   UNL     1       2.971  24.174  27.945  1.00  0.00     0.048 A 
ATOM      4  C   UNL     1       1.854  24.639  27.242  1.00  0.00     0.138 A 
ATOM      5  C   UNL     1       1.837  25.963  26.748  1.00  0.00     0.018 A 
ATOM      6  C   UNL     1       2.939  26.804  26.965  1.00  0.00     0.012 A 
ATOM      7  C   UNL     1       0.708  26.398  26.049  1.00  0.00     0.019 A 
ATOM      8  C   UNL     1      -0.361  25.521  25.860  1.00  0.00     0.094 A 
ATOM      9  C   UNL     1      -0.273  24.224  26.378  1.00  0.00     0.336 A 
ATOM     10  O   UNL     1      -1.228  23.419  26.219  1.00  0.00    -0.246 OA
ATOM     11  O   UNL     1       0.813  23.834  27.040  1.00  0.00    -0.423 OA
ENDROOT
TORSDOF 0
ENDMDL
MODEL 2
REMARK VINA RESULT:    -4.886      1.002      2.171
REMARK INTER + INTRA:          -4.886
REMARK INTER:                  -4.886
REMARK INTRA:                   0.000
REMARK UNBOUND:                 0.000
REMARK SMILES O=c1ccc2ccccc2o1
REMARK SMILES IDX 7 1 8 2 9 3 10 4 5 5 6 6 4 7 3 8 2 9 1 10 11 11
REMARK H PARENT
REMARK Flexibility Score: inf
ROOT
ATOM      1  C   UNL     1       4.034  25.861  27.783  1.00  0.00     0.001 A 
ATOM      2  C   UNL     1       3.363  26.741  26.927  1.00  0.00     0.004 A 
ATOM      3  C   UNL     1       2.106  26.404  26.416  1.00  0.00     0.048 A 
ATOM      4  C   UNL     1       1.513  25.184  26.759  1.00  0.00     0.138 A 
ATOM      5  C   UNL     1       2.190  24.294  27.624  1.00  0.00     0.018 A 
ATOM      6  C   UNL     1       3.451  24.638  28.134  1.00  0.00     0.012 A 
ATOM      7  C   UNL     1       1.573  23.083  27.950  1.00  0.00     0.019 A 
ATOM      8  C   UNL     1       0.318  22.789  27.417  1.00  0.00     0.094 A 
ATOM      9  C   UNL     1      -0.293  23.718  26.567  1.00  0.00     0.336 A 
ATOM     10  O   UNL     1      -1.425  23.471  26.076  1.00  0.00    -0.246 OA
ATOM     11  O   UNL     1       0.316  24.864  26.273  1.00  0.00    -0.423 OA
ENDROOT
TORSDOF 0
ENDMDL
MODEL 3
REMARK VINA RESULT:    -4.777      2.020      3.685
REMARK INTER + INTRA:          -4.777
REMARK INTER:                  -4.777
REMARK INTRA:                   0.000
REMARK UNBOUND:                 0.000
REMARK SMILES O=c1ccc2ccccc2o1
REMARK SMILES IDX 7 1 8 2 9 3 10 4 5 5 6 6 4 7 3 8 2 9 1 10 11 11
REMARK H PARENT
REMARK Flexibility Score: inf
ROOT
ATOM      1  C   UNL     1       0.531  22.952  28.109  1.00  0.00     0.001 A 
ATOM      2  C   UNL     1      -0.497  23.150  27.180  1.00  0.00     0.004 A 
ATOM      3  C   UNL     1      -0.423  24.201  26.261  1.00  0.00     0.048 A 
ATOM      4  C   UNL     1       0.681  25.061  26.266  1.00  0.00     0.138 A 
ATOM      5  C   UNL     1       1.720  24.862  27.204  1.00  0.00     0.018 A 
ATOM      6  C   UNL     1       1.640  23.805  28.123  1.00  0.00     0.012 A 
ATOM      7  C   UNL     1       2.810  25.736  27.184  1.00  0.00     0.019 A 
ATOM      8  C   UNL     1       2.842  26.770  26.249  1.00  0.00     0.094 A 
ATOM      9  C   UNL     1       1.777  26.906  25.352  1.00  0.00     0.336 A 
ATOM     10  O   UNL     1       1.786  27.834  24.501  1.00  0.00    -0.246 OA
ATOM     11  O   UNL     1       0.750  26.061  25.391  1.00  0.00    -0.423 OA
ENDROOT
TORSDOF 0
ENDMDL
MODEL 4
REMARK VINA RESULT:    -4.730      1.645      2.154
REMARK INTER + INTRA:          -4.730
REMARK INTER:                  -4.730
REMARK INTRA:                   0.000
REMARK UNBOUND:                 0.000
REMARK SMILES O=c1ccc2ccccc2o1
REMARK SMILES IDX 7 1 8 2 9 3 10 4 5 5 6 6 4 7 3 8 2 9 1 10 11 11
REMARK H PARENT
REMARK Flexibility Score: inf
ROOT
ATOM      1  C   UNL     1       2.523  25.418  26.494  1.00  0.00     0.001 A 
ATOM      2  C   UNL     1       2.947  24.432  27.391  1.00  0.00     0.004 A 
ATOM      3  C   UNL     1       2.013  23.594  28.008  1.00  0.00     0.048 A 
ATOM      4  C   UNL     1       0.649  23.738  27.730  1.00  0.00     0.138 A 
ATOM      5  C   UNL     1       0.220  24.734  26.823  1.00  0.00     0.018 A 
ATOM      6  C   UNL     1       1.163  25.572  26.207  1.00  0.00     0.012 A 
ATOM      7  C   UNL     1      -1.148  24.854  26.564  1.00  0.00     0.019 A 
ATOM      8  C   UNL     1      -2.043  23.996  27.202  1.00  0.00     0.094 A 
ATOM      9  C   UNL     1      -1.546  23.034  28.088  1.00  0.00     0.336 A 
ATOM     10  O   UNL     1      -2.338  22.250  28.674  1.00  0.00    -0.246 OA
ATOM     11  O   UNL     1      -0.239  22.940  28.317  1.00  0.00    -0.423 OA
ENDROOT
TORSDOF 0
ENDMDL
MODEL 5
REMARK VINA RESULT:    -4.718      1.877      3.758
REMARK INTER + INTRA:          -4.718
REMARK INTER:                  -4.718
REMARK INTRA:                   0.000
REMARK UNBOUND:                 0.000
REMARK SMILES O=c1ccc2ccccc2o1
REMARK SMILES IDX 7 1 8 2 9 3 10 4 5 5 6 6 4 7 3 8 2 9 1 10 11 11
REMARK H PARENT
REMARK Flexibility Score: inf
ROOT
ATOM      1  C   UNL     1      -0.766  23.507  26.589  1.00  0.00     0.001 A 
ATOM      2  C   UNL     1      -0.017  22.958  27.635  1.00  0.00     0.004 A 
ATOM      3  C   UNL     1       1.180  23.560  28.035  1.00  0.00     0.048 A 
ATOM      4  C   UNL     1       1.635  24.715  27.389  1.00  0.00     0.138 A 
ATOM      5  C   UNL     1       0.879  25.270  26.332  1.00  0.00     0.018 A 
ATOM      6  C   UNL     1      -0.322  24.662  25.936  1.00  0.00     0.012 A 
ATOM      7  C   UNL     1       1.357  26.425  25.706  1.00  0.00     0.019 A 
ATOM      8  C   UNL     1       2.556  26.991  26.138  1.00  0.00     0.094 A 
ATOM      9  C   UNL     1       3.251  26.386  27.191  1.00  0.00     0.336 A 
ATOM     10  O   UNL     1       4.335  26.882  27.595  1.00  0.00    -0.246 OA
ATOM     11  O   UNL     1       2.774  25.287  27.770  1.00  0.00    -0.423 OA
ENDROOT
TORSDOF 0
ENDMDL
MODEL 6
REMARK VINA RESULT:    -4.711      2.477      4.412
REMARK INTER + INTRA:          -4.711
REMARK INTER:                  -4.711
REMARK INTRA:                   0.000
REMARK UNBOUND:                 0.000
REMARK SMILES O=c1ccc2ccccc2o1
REMARK SMILES IDX 7 1 8 2 9 3 10 4 5 5 6 6 4 7 3 8 2 9 1 10 11 11
REMARK H PARENT
REMARK Flexibility Score: inf
ROOT
ATOM      1  C   UNL     1      -0.037  23.000  27.899  1.00  0.00     0.001 A 
ATOM      2  C   UNL     1      -0.661  24.134  28.431  1.00  0.00     0.004 A 
ATOM      3  C   UNL     1       0.089  25.276  28.729  1.00  0.00     0.048 A 
ATOM      4  C   UNL     1       1.469  25.289  28.496  1.00  0.00     0.138 A 
ATOM      5  C   UNL     1       2.100  24.144  27.958  1.00  0.00     0.018 A 
ATOM      6  C   UNL     1       1.341  23.002  27.661  1.00  0.00     0.012 A 
ATOM      7  C   UNL     1       3.479  24.187  27.735  1.00  0.00     0.019 A 
ATOM      8  C   UNL     1       4.187  25.347  28.048  1.00  0.00     0.094 A 
ATOM      9  C   UNL     1       3.495  26.442  28.577  1.00  0.00     0.336 A 
ATOM     10  O   UNL     1       4.117  27.498  28.866  1.00  0.00    -0.246 OA
ATOM     11  O   UNL     1       2.182  26.376  28.780  1.00  0.00    -0.423 OA
ENDROOT
TORSDOF 0
ENDMDL
MODEL 7
REMARK VINA RESULT:    -4.554      1.565      2.293
REMARK INTER + INTRA:          -4.554
REMARK INTER:                  -4.554
REMARK INTRA:                   0.000
REMARK UNBOUND:                 0.000
REMARK SMILES O=c1ccc2ccccc2o1
REMARK SMILES IDX 7 1 8 2 9 3 10 4 5 5 6 6 4 7 3 8 2 9 1 10 11 11
REMARK H PARENT
REMARK Flexibility Score: inf
ROOT
ATOM      1  C   UNL     1       3.981  24.883  28.055  1.00  0.00     0.001 A 
ATOM      2  C   UNL     1       4.052  26.274  27.919  1.00  0.00     0.004 A 
ATOM      3  C   UNL     1       2.966  26.986  27.401  1.00  0.00     0.048 A 
ATOM      4  C   UNL     1       1.803  26.309  27.014  1.00  0.00     0.138 A 
ATOM      5  C   UNL     1       1.732  24.904  27.151  1.00  0.00     0.018 A 
ATOM      6  C   UNL     1       2.825  24.196  27.673  1.00  0.00     0.012 A 
ATOM      7  C   UNL     1       0.557  24.256  26.758  1.00  0.00     0.019 A 
ATOM      8  C   UNL     1      -0.501  25.007  26.246  1.00  0.00     0.094 A 
ATOM      9  C   UNL     1      -0.358  26.395  26.140  1.00  0.00     0.336 A 
ATOM     10  O   UNL     1      -1.302  27.090  25.680  1.00  0.00    -0.246 OA
ATOM     11  O   UNL     1       0.770  26.988  26.521  1.00  0.00    -0.423 OA
ENDROOT
TORSDOF 0
ENDMDL
MODEL 8
REMARK VINA RESULT:    -4.551      1.378      2.824
REMARK INTER + INTRA:          -4.551
REMARK INTER:                  -4.551
REMARK INTRA:                   0.000
REMARK UNBOUND:                 0.000
REMARK SMILES O=c1ccc2ccccc2o1
REMARK SMILES IDX 7 1 8 2 9 3 10 4 5 5 6 6 4 7 3 8 2 9 1 10 11 11
REMARK H PARENT
REMARK Flexibility Score: inf
ROOT
ATOM      1  C   UNL     1       2.243  26.884  25.868  1.00  0.00     0.001 A 
ATOM      2  C   UNL     1       0.920  27.189  25.528  1.00  0.00     0.004 A 
ATOM      3  C   UNL     1      -0.123  26.355  25.940  1.00  0.00     0.048 A 
ATOM      4  C   UNL     1       0.152  25.208  26.694  1.00  0.00     0.138 A 
ATOM      5  C   UNL     1       1.488  24.899  27.038  1.00  0.00     0.018 A 
ATOM      6  C   UNL     1       2.530  25.742  26.623  1.00  0.00     0.012 A 
ATOM      7  C   UNL     1       1.731  23.749  27.794  1.00  0.00     0.019 A 
ATOM      8  C   UNL     1       0.660  22.945  28.182  1.00  0.00     0.094 A 
ATOM      9  C   UNL     1      -0.636  23.314  27.805  1.00  0.00     0.336 A 
ATOM     10  O   UNL     1      -1.616  22.601  28.145  1.00  0.00    -0.246 OA
ATOM     11  O   UNL     1      -0.842  24.414  27.086  1.00  0.00    -0.423 OA
ENDROOT
TORSDOF 0
ENDMDL
MODEL 9
REMARK VINA RESULT:    -4.478      2.117      3.429
REMARK INTER + INTRA:          -4.478
REMARK INTER:                  -4.478
REMARK INTRA:                   0.000
REMARK UNBOUND:                 0.000
REMARK SMILES O=c1ccc2ccccc2o1
REMARK SMILES IDX 7 1 8 2 9 3 10 4 5 5 6 6 4 7 3 8 2 9 1 10 11 11
REMARK H PARENT
REMARK Flexibility Score: inf
ROOT
ATOM      1  C   UNL     1       4.868  27.702  30.165  1.00  0.00     0.001 A 
ATOM      2  C   UNL     1       4.072  28.736  29.658  1.00  0.00     0.004 A 
ATOM      3  C   UNL     1       3.174  28.487  28.616  1.00  0.00     0.048 A 
ATOM      4  C   UNL     1       3.068  27.201  28.074  1.00  0.00     0.138 A 
ATOM      5  C   UNL     1       3.872  26.156  28.585  1.00  0.00     0.018 A 
ATOM      6  C   UNL     1       4.770  26.413  29.631  1.00  0.00     0.012 A 
ATOM      7  C   UNL     1       3.743  24.882  28.024  1.00  0.00     0.019 A 
ATOM      8  C   UNL     1       2.834  24.680  26.986  1.00  0.00     0.094 A 
ATOM      9  C   UNL     1       2.072  25.762  26.531  1.00  0.00     0.336 A 
ATOM     10  O   UNL     1       1.247  25.600  25.595  1.00  0.00    -0.246 OA
ATOM     11  O   UNL     1       2.213  26.965  27.082  1.00  0.00    -0.423 OA
ENDROOT
TORSDOF 0
ENDMDL
