MODEL 1
REMARK VINA RESULT:    -4.486      0.000      0.000
REMARK INTER + INTRA:          -6.530
REMARK INTER:                  -6.191
REMARK INTRA:                  -0.338
REMARK UNBOUND:                -0.338
REMARK SMILES OC[C@H](O)C(O)[C@@H](O)CO
REMARK SMILES IDX 5 1 7 2 9 3 10 4 8 6 3 8 2 9 1 10 4 12 6 14
REMARK H PARENT 10 5 8 7 1 11 4 13 6 15
REMARK Flexibility Score: inf
ROOT
ATOM      1  C   UNL     1      15.978   0.422 -25.014  1.00  0.00     0.176 C 
ENDROOT
BRANCH   1   2
ATOM      2  C   UNL     1      16.302   1.650 -25.907  1.00  0.00     0.171 C 
BRANCH   2   3
ATOM      3  C   UNL     1      17.451   2.514 -25.348  1.00  0.00     0.190 C 
BRANCH   3   4
ATOM      4  O   UNL     1      18.610   2.343 -26.119  1.00  0.00    -0.394 OA
ATOM      5  H   UNL     1      18.535   1.458 -26.560  1.00  0.00     0.210 HD
ENDBRANCH   3   4
ENDBRANCH   2   3
BRANCH   2   6
ATOM      6  O   UNL     1      15.147   2.435 -26.072  1.00  0.00    -0.388 OA
ATOM      7  H   UNL     1      14.370   1.819 -26.133  1.00  0.00     0.211 HD
ENDBRANCH   2   6
ENDBRANCH   1   2
BRANCH   1   8
ATOM      8  C   UNL     1      17.090   0.039 -23.993  1.00  0.00     0.171 C 
BRANCH   8   9
ATOM      9  C   UNL     1      17.875  -1.229 -24.384  1.00  0.00     0.190 C 
BRANCH   9  10
ATOM     10  O   UNL     1      17.121  -2.389 -24.153  1.00  0.00    -0.394 OA
ATOM     11  H   UNL     1      16.416  -2.147 -23.497  1.00  0.00     0.210 HD
ENDBRANCH   9  10
ENDBRANCH   8   9
BRANCH   8  12
ATOM     12  O   UNL     1      16.504  -0.179 -22.735  1.00  0.00    -0.388 OA
ATOM     13  H   UNL     1      16.068   0.672 -22.465  1.00  0.00     0.211 HD
ENDBRANCH   8  12
ENDBRANCH   1   8
BRANCH   1  14
ATOM     14  O   UNL     1      15.697  -0.677 -25.846  1.00  0.00    -0.388 OA
ATOM     15  H   UNL     1      15.020  -0.378 -26.509  1.00  0.00     0.211 HD
ENDBRANCH   1  14
TORSDOF 9
ENDMDL
MODEL 2
REMARK VINA RESULT:    -4.462      7.963      9.422
REMARK INTER + INTRA:          -6.495
REMARK INTER:                  -5.870
REMARK INTRA:                  -0.625
REMARK UNBOUND:                -0.338
REMARK SMILES OC[C@H](O)C(O)[C@@H](O)CO
REMARK SMILES IDX 5 1 7 2 9 3 10 4 8 6 3 8 2 9 1 10 4 12 6 14
REMARK H PARENT 10 5 8 7 1 11 4 13 6 15
REMARK Flexibility Score: inf
ROOT
ATOM      1  C   UNL     1      19.463   0.213 -16.867  1.00  0.00     0.176 C 
ENDROOT
BRANCH   1   2
ATOM      2  C   UNL     1      20.188  -1.151 -16.708  1.00  0.00     0.171 C 
BRANCH   2   3
ATOM      3  C   UNL     1      20.117  -2.023 -17.978  1.00  0.00     0.190 C 
BRANCH   3   4
ATOM      4  O   UNL     1      19.089  -2.971 -17.863  1.00  0.00    -0.394 OA
ATOM      5  H   UNL     1      19.519  -3.838 -17.647  1.00  0.00     0.210 HD
ENDBRANCH   3   4
ENDBRANCH   2   3
BRANCH   2   6
ATOM      6  O   UNL     1      19.647  -1.852 -15.614  1.00  0.00    -0.388 OA
ATOM      7  H   UNL     1      18.674  -1.964 -15.780  1.00  0.00     0.211 HD
ENDBRANCH   2   6
ENDBRANCH   1   2
BRANCH   1   8
ATOM      8  C   UNL     1      18.553   0.618 -15.670  1.00  0.00     0.171 C 
BRANCH   8   9
ATOM      9  C   UNL     1      17.895   2.002 -15.839  1.00  0.00     0.190 C 
BRANCH   9  10
ATOM     10  O   UNL     1      16.900   1.978 -16.827  1.00  0.00    -0.394 OA
ATOM     11  H   UNL     1      16.461   1.090 -16.771  1.00  0.00     0.210 HD
ENDBRANCH   9  10
ENDBRANCH   8   9
BRANCH   8  12
ATOM     12  O   UNL     1      19.322   0.639 -14.495  1.00  0.00    -0.388 OA
ATOM     13  H   UNL     1      20.259   0.438 -14.756  1.00  0.00     0.211 HD
ENDBRANCH   8  12
ENDBRANCH   1   8
BRANCH   1  14
ATOM     14  O   UNL     1      18.706   0.183 -18.053  1.00  0.00    -0.388 OA
ATOM     15  H   UNL     1      18.105  -0.606 -17.997  1.00  0.00     0.211 HD
ENDBRANCH   1  14
TORSDOF 9
ENDMDL
MODEL 3
REMARK VINA RESULT:    -4.451      0.971      4.029
REMARK INTER + INTRA:          -6.480
REMARK INTER:                  -6.018
REMARK INTRA:                  -0.462
REMARK UNBOUND:                -0.338
REMARK SMILES OC[C@H](O)C(O)[C@@H](O)CO
REMARK SMILES IDX 5 1 7 2 9 3 10 4 8 6 3 8 2 9 1 10 4 12 6 14
REMARK H PARENT 10 5 8 7 1 11 4 13 6 15
REMARK Flexibility Score: inf
ROOT
ATOM      1  C   UNL     1      17.202  -0.157 -25.540  1.00  0.00     0.176 C 
ENDROOT
BRANCH   1   2
ATOM      2  C   UNL     1      17.634  -0.602 -24.117  1.00  0.00     0.171 C 
BRANCH   2   3
ATOM      3  C   UNL     1      18.137  -2.060 -24.069  1.00  0.00     0.190 C 
BRANCH   3   4
ATOM      4  O   UNL     1      17.067  -2.951 -24.238  1.00  0.00    -0.394 OA
ATOM      5  H   UNL     1      16.258  -2.501 -23.879  1.00  0.00     0.210 HD
ENDBRANCH   3   4
ENDBRANCH   2   3
BRANCH   2   6
ATOM      6  O   UNL     1      16.564  -0.434 -23.220  1.00  0.00    -0.388 OA
ATOM      7  H   UNL     1      16.543   0.523 -22.953  1.00  0.00     0.211 HD
ENDBRANCH   2   6
ENDBRANCH   1   2
BRANCH   1   8
ATOM      8  C   UNL     1      17.349   1.367 -25.825  1.00  0.00     0.171 C 
BRANCH   8   9
ATOM      9  C   UNL     1      16.156   2.205 -25.322  1.00  0.00     0.190 C 
BRANCH   9  10
ATOM     10  O   UNL     1      15.124   2.248 -26.271  1.00  0.00    -0.394 OA
ATOM     11  H   UNL     1      15.024   1.326 -26.627  1.00  0.00     0.210 HD
ENDBRANCH   9  10
ENDBRANCH   8   9
BRANCH   8  12
ATOM     12  O   UNL     1      17.471   1.566 -27.210  1.00  0.00    -0.388 OA
ATOM     13  H   UNL     1      16.659   2.056 -27.507  1.00  0.00     0.211 HD
ENDBRANCH   8  12
ENDBRANCH   1   8
BRANCH   1  14
ATOM     14  O   UNL     1      15.868  -0.555 -25.749  1.00  0.00    -0.388 OA
ATOM     15  H   UNL     1      15.791  -1.495 -25.439  1.00  0.00     0.211 HD
ENDBRANCH   1  14
TORSDOF 9
ENDMDL
MODEL 4
REMARK VINA RESULT:    -4.298      1.225      2.456
REMARK INTER + INTRA:          -6.269
REMARK INTER:                  -5.955
REMARK INTRA:                  -0.314
REMARK UNBOUND:                -0.338
REMARK SMILES OC[C@H](O)C(O)[C@@H](O)CO
REMARK SMILES IDX 5 1 7 2 9 3 10 4 8 6 3 8 2 9 1 10 4 12 6 14
REMARK H PARENT 10 5 8 7 1 11 4 13 6 15
REMARK Flexibility Score: inf
ROOT
ATOM      1  C   UNL     1      17.461  -0.235 -23.838  1.00  0.00     0.176 C 
ENDROOT
BRANCH   1   2
ATOM      2  C   UNL     1      16.800   0.223 -25.166  1.00  0.00     0.171 C 
BRANCH   2   3
ATOM      3  C   UNL     1      16.349   1.697 -25.137  1.00  0.00     0.190 C 
BRANCH   3   4
ATOM      4  O   UNL     1      15.395   1.936 -26.138  1.00  0.00    -0.394 OA
ATOM      5  H   UNL     1      15.878   1.918 -27.005  1.00  0.00     0.210 HD
ENDBRANCH   3   4
ENDBRANCH   2   3
BRANCH   2   6
ATOM      6  O   UNL     1      15.705  -0.609 -25.463  1.00  0.00    -0.388 OA
ATOM      7  H   UNL     1      16.018  -1.301 -26.103  1.00  0.00     0.211 HD
ENDBRANCH   2   6
ENDBRANCH   1   2
BRANCH   1   8
ATOM      8  C   UNL     1      18.118  -1.646 -23.882  1.00  0.00     0.171 C 
BRANCH   8   9
ATOM      9  C   UNL     1      19.218  -1.779 -24.954  1.00  0.00     0.190 C 
BRANCH   9  10
ATOM     10  O   UNL     1      18.986  -2.879 -25.793  1.00  0.00    -0.394 OA
ATOM     11  H   UNL     1      19.061  -2.548 -26.726  1.00  0.00     0.210 HD
ENDBRANCH   9  10
ENDBRANCH   8   9
BRANCH   8  12
ATOM     12  O   UNL     1      17.128  -2.607 -24.150  1.00  0.00    -0.388 OA
ATOM     13  H   UNL     1      17.377  -3.429 -23.651  1.00  0.00     0.211 HD
ENDBRANCH   8  12
ENDBRANCH   1   8
BRANCH   1  14
ATOM     14  O   UNL     1      16.494  -0.192 -22.817  1.00  0.00    -0.388 OA
ATOM     15  H   UNL     1      16.860   0.379 -22.091  1.00  0.00     0.211 HD
ENDBRANCH   1  14
TORSDOF 9
ENDMDL
MODEL 5
REMARK VINA RESULT:    -4.249      8.143      9.131
REMARK INTER + INTRA:          -6.202
REMARK INTER:                  -5.762
REMARK INTRA:                  -0.440
REMARK UNBOUND:                -0.338
REMARK SMILES OC[C@H](O)C(O)[C@@H](O)CO
REMARK SMILES IDX 5 1 7 2 9 3 10 4 8 6 3 8 2 9 1 10 4 12 6 14
REMARK H PARENT 10 5 8 7 1 11 4 13 6 15
REMARK Flexibility Score: inf
ROOT
ATOM      1  C   UNL     1      19.288   0.133 -16.922  1.00  0.00     0.176 C 
ENDROOT
BRANCH   1   2
ATOM      2  C   UNL     1      18.572   0.522 -15.600  1.00  0.00     0.171 C 
BRANCH   2   3
ATOM      3  C   UNL     1      17.779   1.841 -15.710  1.00  0.00     0.190 C 
BRANCH   3   4
ATOM      4  O   UNL     1      17.132   1.919 -16.952  1.00  0.00    -0.394 OA
ATOM      5  H   UNL     1      16.300   1.384 -16.878  1.00  0.00     0.210 HD
ENDBRANCH   3   4
ENDBRANCH   2   3
BRANCH   2   6
ATOM      6  O   UNL     1      19.513   0.613 -14.558  1.00  0.00    -0.388 OA
ATOM      7  H   UNL     1      19.444  -0.218 -14.018  1.00  0.00     0.211 HD
ENDBRANCH   2   6
ENDBRANCH   1   2
BRANCH   1   8
ATOM      8  C   UNL     1      20.048  -1.225 -16.882  1.00  0.00     0.171 C 
BRANCH   8   9
ATOM      9  C   UNL     1      19.765  -2.124 -18.102  1.00  0.00     0.190 C 
BRANCH   9  10
ATOM     10  O   UNL     1      19.070  -3.285 -17.732  1.00  0.00    -0.394 OA
ATOM     11  H   UNL     1      19.653  -4.054 -17.964  1.00  0.00     0.210 HD
ENDBRANCH   9  10
ENDBRANCH   8   9
BRANCH   8  12
ATOM     12  O   UNL     1      19.676  -1.927 -15.724  1.00  0.00    -0.388 OA
ATOM     13  H   UNL     1      19.188  -2.741 -16.021  1.00  0.00     0.211 HD
ENDBRANCH   8  12
ENDBRANCH   1   8
BRANCH   1  14
ATOM     14  O   UNL     1      20.176   1.167 -17.272  1.00  0.00    -0.388 OA
ATOM     15  H   UNL     1      19.883   1.519 -18.153  1.00  0.00     0.211 HD
ENDBRANCH   1  14
TORSDOF 9
ENDMDL
MODEL 6
REMARK VINA RESULT:    -4.241      2.123      3.566
REMARK INTER + INTRA:          -6.191
REMARK INTER:                  -5.705
REMARK INTRA:                  -0.486
REMARK UNBOUND:                -0.338
REMARK SMILES OC[C@H](O)C(O)[C@@H](O)CO
REMARK SMILES IDX 5 1 7 2 9 3 10 4 8 6 3 8 2 9 1 10 4 12 6 14
REMARK H PARENT 10 5 8 7 1 11 4 13 6 15
REMARK Flexibility Score: inf
ROOT
ATOM      1  C   UNL     1      17.974  -1.553 -24.336  1.00  0.00     0.176 C 
ENDROOT
BRANCH   1   2
ATOM      2  C   UNL     1      17.113  -0.360 -24.833  1.00  0.00     0.171 C 
BRANCH   2   3
ATOM      3  C   UNL     1      16.577   0.516 -23.682  1.00  0.00     0.190 C 
BRANCH   3   4
ATOM      4  O   UNL     1      16.632  -0.186 -22.468  1.00  0.00    -0.394 OA
ATOM      5  H   UNL     1      15.701  -0.438 -22.239  1.00  0.00     0.210 HD
ENDBRANCH   3   4
ENDBRANCH   2   3
BRANCH   2   6
ATOM      6  O   UNL     1      16.043  -0.837 -25.611  1.00  0.00    -0.388 OA
ATOM      7  H   UNL     1      15.390  -1.263 -24.995  1.00  0.00     0.211 HD
ENDBRANCH   2   6
ENDBRANCH   1   2
BRANCH   1   8
ATOM      8  C   UNL     1      19.155  -1.946 -25.272  1.00  0.00     0.171 C 
BRANCH   8   9
ATOM      9  C   UNL     1      20.406  -1.065 -25.087  1.00  0.00     0.190 C 
BRANCH   9  10
ATOM     10  O   UNL     1      21.582  -1.788 -25.333  1.00  0.00    -0.394 OA
ATOM     11  H   UNL     1      22.298  -1.121 -25.503  1.00  0.00     0.210 HD
ENDBRANCH   9  10
ENDBRANCH   8   9
BRANCH   8  12
ATOM     12  O   UNL     1      18.737  -1.838 -26.609  1.00  0.00    -0.388 OA
ATOM     13  H   UNL     1      18.866  -0.891 -26.879  1.00  0.00     0.211 HD
ENDBRANCH   8  12
ENDBRANCH   1   8
BRANCH   1  14
ATOM     14  O   UNL     1      17.132  -2.663 -24.139  1.00  0.00    -0.388 OA
ATOM     15  H   UNL     1      16.711  -2.871 -25.013  1.00  0.00     0.211 HD
ENDBRANCH   1  14
TORSDOF 9
ENDMDL
MODEL 7
REMARK VINA RESULT:    -4.232     16.939     17.965
REMARK INTER + INTRA:          -6.178
REMARK INTER:                  -5.500
REMARK INTRA:                  -0.678
REMARK UNBOUND:                -0.338
REMARK SMILES OC[C@H](O)C(O)[C@@H](O)CO
REMARK SMILES IDX 5 1 7 2 9 3 10 4 8 6 3 8 2 9 1 10 4 12 6 14
REMARK H PARENT 10 5 8 7 1 11 4 13 6 15
REMARK Flexibility Score: inf
ROOT
ATOM      1  C   UNL     1      14.195  -9.801 -11.087  1.00  0.00     0.176 C 
ENDROOT
BRANCH   1   2
ATOM      2  C   UNL     1      12.696  -9.912 -10.698  1.00  0.00     0.171 C 
BRANCH   2   3
ATOM      3  C   UNL     1      11.875  -8.672 -11.109  1.00  0.00     0.190 C 
BRANCH   3   4
ATOM      4  O   UNL     1      12.134  -7.604 -10.237  1.00  0.00    -0.394 OA
ATOM      5  H   UNL     1      12.547  -6.883 -10.779  1.00  0.00     0.210 HD
ENDBRANCH   3   4
ENDBRANCH   2   3
BRANCH   2   6
ATOM      6  O   UNL     1      12.579 -10.128  -9.313  1.00  0.00    -0.388 OA
ATOM      7  H   UNL     1      13.480 -10.006  -8.913  1.00  0.00     0.211 HD
ENDBRANCH   2   6
ENDBRANCH   1   2
BRANCH   1   8
ATOM      8  C   UNL     1      15.198 -10.074  -9.927  1.00  0.00     0.171 C 
BRANCH   8   9
ATOM      9  C   UNL     1      16.637  -9.617 -10.237  1.00  0.00     0.190 C 
BRANCH   9  10
ATOM     10  O   UNL     1      16.891  -9.625 -11.616  1.00  0.00    -0.394 OA
ATOM     11  H   UNL     1      17.314 -10.498 -11.824  1.00  0.00     0.210 HD
ENDBRANCH   9  10
ENDBRANCH   8   9
BRANCH   8  12
ATOM     12  O   UNL     1      15.225 -11.453  -9.658  1.00  0.00    -0.388 OA
ATOM     13  H   UNL     1      14.402 -11.665  -9.144  1.00  0.00     0.211 HD
ENDBRANCH   8  12
ENDBRANCH   1   8
BRANCH   1  14
ATOM     14  O   UNL     1      14.426  -8.522 -11.626  1.00  0.00    -0.388 OA
ATOM     15  H   UNL     1      15.357  -8.513 -11.972  1.00  0.00     0.211 HD
ENDBRANCH   1  14
TORSDOF 9
ENDMDL
MODEL 8
REMARK VINA RESULT:    -4.222      1.144      2.217
REMARK INTER + INTRA:          -6.164
REMARK INTER:                  -5.641
REMARK INTRA:                  -0.523
REMARK UNBOUND:                -0.338
REMARK SMILES OC[C@H](O)C(O)[C@@H](O)CO
REMARK SMILES IDX 5 1 7 2 9 3 10 4 8 6 3 8 2 9 1 10 4 12 6 14
REMARK H PARENT 10 5 8 7 1 11 4 13 6 15
REMARK Flexibility Score: inf
ROOT
ATOM      1  C   UNL     1      16.470  -0.037 -25.315  1.00  0.00     0.176 C 
ENDROOT
BRANCH   1   2
ATOM      2  C   UNL     1      17.337   1.123 -25.875  1.00  0.00     0.171 C 
BRANCH   2   3
ATOM      3  C   UNL     1      16.601   2.478 -25.876  1.00  0.00     0.190 C 
BRANCH   3   4
ATOM      4  O   UNL     1      15.249   2.300 -26.205  1.00  0.00    -0.394 OA
ATOM      5  H   UNL     1      15.225   1.857 -27.092  1.00  0.00     0.210 HD
ENDBRANCH   3   4
ENDBRANCH   2   3
BRANCH   2   6
ATOM      6  O   UNL     1      17.767   0.809 -27.177  1.00  0.00    -0.388 OA
ATOM      7  H   UNL     1      17.088   1.163 -27.811  1.00  0.00     0.211 HD
ENDBRANCH   2   6
ENDBRANCH   1   2
BRANCH   1   8
ATOM      8  C   UNL     1      17.261  -1.141 -24.554  1.00  0.00     0.171 C 
BRANCH   8   9
ATOM      9  C   UNL     1      17.824  -0.671 -23.198  1.00  0.00     0.190 C 
BRANCH   9  10
ATOM     10  O   UNL     1      16.819  -0.115 -22.392  1.00  0.00    -0.394 OA
ATOM     11  H   UNL     1      16.509  -0.835 -21.784  1.00  0.00     0.210 HD
ENDBRANCH   9  10
ENDBRANCH   8   9
BRANCH   8  12
ATOM     12  O   UNL     1      18.337  -1.567 -25.350  1.00  0.00    -0.388 OA
ATOM     13  H   UNL     1      18.912  -0.773 -25.513  1.00  0.00     0.211 HD
ENDBRANCH   8  12
ENDBRANCH   1   8
BRANCH   1  14
ATOM     14  O   UNL     1      15.750  -0.613 -26.378  1.00  0.00    -0.388 OA
ATOM     15  H   UNL     1      14.985  -0.011 -26.574  1.00  0.00     0.211 HD
ENDBRANCH   1  14
TORSDOF 9
ENDMDL
MODEL 9
REMARK VINA RESULT:    -4.197      8.018      9.353
REMARK INTER + INTRA:          -6.130
REMARK INTER:                  -5.441
REMARK INTRA:                  -0.688
REMARK UNBOUND:                -0.338
REMARK SMILES OC[C@H](O)C(O)[C@@H](O)CO
REMARK SMILES IDX 5 1 7 2 9 3 10 4 8 6 3 8 2 9 1 10 4 12 6 14
REMARK H PARENT 10 5 8 7 1 11 4 13 6 15
REMARK Flexibility Score: inf
ROOT
ATOM      1  C   UNL     1      19.436  -0.644 -16.226  1.00  0.00     0.176 C 
ENDROOT
BRANCH   1   2
ATOM      2  C   UNL     1      20.165  -1.581 -17.226  1.00  0.00     0.171 C 
BRANCH   2   3
ATOM      3  C   UNL     1      21.349  -0.897 -17.938  1.00  0.00     0.190 C 
BRANCH   3   4
ATOM      4  O   UNL     1      22.430  -0.751 -17.056  1.00  0.00    -0.394 OA
ATOM      5  H   UNL     1      23.236  -1.084 -17.529  1.00  0.00     0.210 HD
ENDBRANCH   3   4
ENDBRANCH   2   3
BRANCH   2   6
ATOM      6  O   UNL     1      19.248  -2.067 -18.177  1.00  0.00    -0.388 OA
ATOM      7  H   UNL     1      19.766  -2.353 -18.975  1.00  0.00     0.211 HD
ENDBRANCH   2   6
ENDBRANCH   1   2
BRANCH   1   8
ATOM      8  C   UNL     1      19.074   0.763 -16.787  1.00  0.00     0.171 C 
BRANCH   8   9
ATOM      9  C   UNL     1      18.202   1.601 -15.831  1.00  0.00     0.190 C 
BRANCH   9  10
ATOM     10  O   UNL     1      17.504   0.787 -14.928  1.00  0.00    -0.394 OA
ATOM     11  H   UNL     1      17.406  -0.102 -15.360  1.00  0.00     0.210 HD
ENDBRANCH   9  10
ENDBRANCH   8   9
BRANCH   8  12
ATOM     12  O   UNL     1      18.376   0.610 -17.996  1.00  0.00    -0.388 OA
ATOM     13  H   UNL     1      18.328  -0.364 -18.183  1.00  0.00     0.211 HD
ENDBRANCH   8  12
ENDBRANCH   1   8
BRANCH   1  14
ATOM     14  O   UNL     1      20.233  -0.508 -15.075  1.00  0.00    -0.388 OA
ATOM     15  H   UNL     1      21.145  -0.259 -15.378  1.00  0.00     0.211 HD
ENDBRANCH   1  14
TORSDOF 9
ENDMDL
