MODEL 1
REMARK VINA RESULT:    -3.883      0.000      0.000
REMARK INTER + INTRA:          -4.624
REMARK INTER:                  -4.451
REMARK INTRA:                  -0.173
REMARK UNBOUND:                -0.173
REMARK SMILES CC=Cc1ccc(O)c(OC)c1
REMARK SMILES IDX 4 1 12 2 9 3 7 4 6 5 5 6 3 7 1 8 2 9 10 10 11 11 8 12
REMARK H PARENT 8 13
REMARK Flexibility Score: inf
ROOT
ATOM      1  C   UNL     1       7.310 -34.816  16.029  1.00  0.00    -0.022 A 
ATOM      2  C   UNL     1       7.965 -34.222  14.937  1.00  0.00     0.058 A 
ATOM      3  C   UNL     1       8.733 -33.051  15.102  1.00  0.00     0.161 A 
ATOM      4  C   UNL     1       8.831 -32.469  16.379  1.00  0.00     0.157 A 
ATOM      5  C   UNL     1       8.168 -33.050  17.464  1.00  0.00     0.051 A 
ATOM      6  C   UNL     1       7.411 -34.209  17.295  1.00  0.00     0.012 A 
ENDROOT
BRANCH   1   7
ATOM      7  C   UNL     1       6.510 -36.044  15.795  1.00  0.00     0.003 C 
ATOM      8  C   UNL     1       5.890 -38.125  14.630  1.00  0.00     0.035 C 
ATOM      9  C   UNL     1       6.752 -36.916  14.808  1.00  0.00    -0.030 C 
ENDBRANCH   1   7
BRANCH   3  10
ATOM     10  O   UNL     1       9.404 -32.444  14.028  1.00  0.00    -0.493 OA
ATOM     11  C   UNL     1      10.650 -32.886  13.499  1.00  0.00     0.278 C 
ENDBRANCH   3  10
BRANCH   4  12
ATOM     12  O   UNL     1       9.579 -31.311  16.588  1.00  0.00    -0.504 OA
ATOM     13  H   UNL     1       9.145 -30.412  16.760  1.00  0.00     0.293 HD
ENDBRANCH   4  12
TORSDOF 3
ENDMDL
MODEL 2
REMARK VINA RESULT:    -3.820     15.938     17.284
REMARK INTER + INTRA:          -4.551
REMARK INTER:                  -4.492
REMARK INTRA:                  -0.059
REMARK UNBOUND:                -0.173
REMARK SMILES CC=Cc1ccc(O)c(OC)c1
REMARK SMILES IDX 4 1 12 2 9 3 7 4 6 5 5 6 3 7 1 8 2 9 10 10 11 11 8 12
REMARK H PARENT 8 13
REMARK Flexibility Score: inf
ROOT
ATOM      1  C   UNL     1      14.693 -36.879  31.762  1.00  0.00    -0.022 A 
ATOM      2  C   UNL     1      15.356 -37.743  30.874  1.00  0.00     0.058 A 
ATOM      3  C   UNL     1      16.396 -37.273  30.047  1.00  0.00     0.161 A 
ATOM      4  C   UNL     1      16.762 -35.916  30.109  1.00  0.00     0.157 A 
ATOM      5  C   UNL     1      16.094 -35.051  30.980  1.00  0.00     0.051 A 
ATOM      6  C   UNL     1      15.066 -35.523  31.797  1.00  0.00     0.012 A 
ENDROOT
BRANCH   1   7
ATOM      7  C   UNL     1      13.601 -37.429  32.603  1.00  0.00     0.003 C 
ATOM      8  C   UNL     1      11.290 -38.125  33.099  1.00  0.00     0.035 C 
ATOM      9  C   UNL     1      12.337 -37.575  32.185  1.00  0.00    -0.030 C 
ENDBRANCH   1   7
BRANCH   3  10
ATOM     10  O   UNL     1      17.081 -38.118  29.158  1.00  0.00    -0.493 OA
ATOM     11  C   UNL     1      16.898 -38.125  27.746  1.00  0.00     0.278 C 
ENDBRANCH   3  10
BRANCH   4  12
ATOM     12  O   UNL     1      17.785 -35.408  29.309  1.00  0.00    -0.504 OA
ATOM     13  H   UNL     1      18.143 -34.467  29.423  1.00  0.00     0.293 HD
ENDBRANCH   4  12
TORSDOF 3
ENDMDL
MODEL 3
REMARK VINA RESULT:    -3.704      2.089      4.226
REMARK INTER + INTRA:          -4.418
REMARK INTER:                  -4.257
REMARK INTRA:                  -0.161
REMARK UNBOUND:                -0.173
REMARK SMILES CC=Cc1ccc(O)c(OC)c1
REMARK SMILES IDX 4 1 12 2 9 3 7 4 6 5 5 6 3 7 1 8 2 9 10 10 11 11 8 12
REMARK H PARENT 8 13
REMARK Flexibility Score: inf
ROOT
ATOM      1  C   UNL     1       7.711 -32.940  16.711  1.00  0.00    -0.022 A 
ATOM      2  C   UNL     1       8.430 -32.546  15.571  1.00  0.00     0.058 A 
ATOM      3  C   UNL     1       8.012 -32.933  14.281  1.00  0.00     0.161 A 
ATOM      4  C   UNL     1       6.865 -33.734  14.143  1.00  0.00     0.157 A 
ATOM      5  C   UNL     1       6.156 -34.141  15.278  1.00  0.00     0.051 A 
ATOM      6  C   UNL     1       6.574 -33.754  16.551  1.00  0.00     0.012 A 
ENDROOT
BRANCH   1   7
ATOM      7  C   UNL     1       8.203 -32.509  18.044  1.00  0.00     0.003 C 
ATOM      8  C   UNL     1       9.747 -31.399  19.610  1.00  0.00     0.035 C 
ATOM      9  C   UNL     1       9.311 -31.782  18.232  1.00  0.00    -0.030 C 
ENDBRANCH   1   7
BRANCH   3  10
ATOM     10  O   UNL     1       8.708 -32.544  13.125  1.00  0.00    -0.493 OA
ATOM     11  C   UNL     1      10.117 -32.651  12.955  1.00  0.00     0.278 C 
ENDBRANCH   3  10
BRANCH   4  12
ATOM     12  O   UNL     1       6.415 -34.141  12.887  1.00  0.00    -0.504 OA
ATOM     13  H   UNL     1       6.930 -34.801  12.317  1.00  0.00     0.293 HD
ENDBRANCH   4  12
TORSDOF 3
ENDMDL
MODEL 4
REMARK VINA RESULT:    -3.644      2.601      4.651
REMARK INTER + INTRA:          -4.350
REMARK INTER:                  -4.191
REMARK INTRA:                  -0.159
REMARK UNBOUND:                -0.173
REMARK SMILES CC=Cc1ccc(O)c(OC)c1
REMARK SMILES IDX 4 1 12 2 9 3 7 4 6 5 5 6 3 7 1 8 2 9 10 10 11 11 8 12
REMARK H PARENT 8 13
REMARK Flexibility Score: inf
ROOT
ATOM      1  C   UNL     1       7.312 -33.675  17.302  1.00  0.00    -0.022 A 
ATOM      2  C   UNL     1       6.875 -33.314  16.016  1.00  0.00     0.058 A 
ATOM      3  C   UNL     1       6.396 -34.286  15.115  1.00  0.00     0.161 A 
ATOM      4  C   UNL     1       6.369 -35.635  15.511  1.00  0.00     0.157 A 
ATOM      5  C   UNL     1       6.817 -35.999  16.784  1.00  0.00     0.051 A 
ATOM      6  C   UNL     1       7.289 -35.033  17.672  1.00  0.00     0.012 A 
ENDROOT
BRANCH   1   7
ATOM      7  C   UNL     1       7.814 -32.610  18.206  1.00  0.00     0.003 C 
ATOM      8  C   UNL     1       9.502 -31.080  19.145  1.00  0.00     0.035 C 
ATOM      9  C   UNL     1       9.070 -32.147  18.191  1.00  0.00    -0.030 C 
ENDBRANCH   1   7
BRANCH   3  10
ATOM     10  O   UNL     1       5.945 -33.950  13.828  1.00  0.00    -0.493 OA
ATOM     11  C   UNL     1       6.699 -33.207  12.875  1.00  0.00     0.278 C 
ENDBRANCH   3  10
BRANCH   4  12
ATOM     12  O   UNL     1       5.903 -36.630  14.652  1.00  0.00    -0.504 OA
ATOM     13  H   UNL     1       5.156 -37.263  14.912  1.00  0.00     0.293 HD
ENDBRANCH   4  12
TORSDOF 3
ENDMDL
MODEL 5
REMARK VINA RESULT:    -3.519      2.288      3.633
REMARK INTER + INTRA:          -4.206
REMARK INTER:                  -4.048
REMARK INTRA:                  -0.158
REMARK UNBOUND:                -0.173
REMARK SMILES CC=Cc1ccc(O)c(OC)c1
REMARK SMILES IDX 4 1 12 2 9 3 7 4 6 5 5 6 3 7 1 8 2 9 10 10 11 11 8 12
REMARK H PARENT 8 13
REMARK Flexibility Score: inf
ROOT
ATOM      1  C   UNL     1       8.269 -34.638  16.075  1.00  0.00    -0.022 A 
ATOM      2  C   UNL     1       8.547 -33.367  16.607  1.00  0.00     0.058 A 
ATOM      3  C   UNL     1       8.146 -33.028  17.916  1.00  0.00     0.161 A 
ATOM      4  C   UNL     1       7.450 -33.975  18.688  1.00  0.00     0.157 A 
ATOM      5  C   UNL     1       7.160 -35.234  18.156  1.00  0.00     0.051 A 
ATOM      6  C   UNL     1       7.560 -35.565  16.861  1.00  0.00     0.012 A 
ENDROOT
BRANCH   1   7
ATOM      7  C   UNL     1       8.708 -34.937  14.689  1.00  0.00     0.003 C 
ATOM      8  C   UNL     1      10.351 -35.293  12.887  1.00  0.00     0.035 C 
ATOM      9  C   UNL     1       9.990 -34.999  14.308  1.00  0.00    -0.030 C 
ENDBRANCH   1   7
BRANCH   3  10
ATOM     10  O   UNL     1       8.419 -31.768  18.474  1.00  0.00    -0.493 OA
ATOM     11  C   UNL     1       9.724 -31.223  18.639  1.00  0.00     0.278 C 
ENDBRANCH   3  10
BRANCH   4  12
ATOM     12  O   UNL     1       7.035 -33.681  19.987  1.00  0.00    -0.504 OA
ATOM     13  H   UNL     1       6.056 -33.616  20.239  1.00  0.00     0.293 HD
ENDBRANCH   4  12
TORSDOF 3
ENDMDL
MODEL 6
REMARK VINA RESULT:    -3.389      1.484      2.848
REMARK INTER + INTRA:          -4.058
REMARK INTER:                  -3.889
REMARK INTRA:                  -0.168
REMARK UNBOUND:                -0.173
REMARK SMILES CC=Cc1ccc(O)c(OC)c1
REMARK SMILES IDX 4 1 12 2 9 3 7 4 6 5 5 6 3 7 1 8 2 9 10 10 11 11 8 12
REMARK H PARENT 8 13
REMARK Flexibility Score: inf
ROOT
ATOM      1  C   UNL     1       7.479 -34.430  14.081  1.00  0.00    -0.022 A 
ATOM      2  C   UNL     1       6.975 -33.984  15.314  1.00  0.00     0.058 A 
ATOM      3  C   UNL     1       7.661 -33.008  16.066  1.00  0.00     0.161 A 
ATOM      4  C   UNL     1       8.870 -32.486  15.574  1.00  0.00     0.157 A 
ATOM      5  C   UNL     1       9.381 -32.939  14.354  1.00  0.00     0.051 A 
ATOM      6  C   UNL     1       8.699 -33.904  13.614  1.00  0.00     0.012 A 
ENDROOT
BRANCH   1   7
ATOM      7  C   UNL     1       6.720 -35.465  13.337  1.00  0.00     0.003 C 
ATOM      8  C   UNL     1       5.897 -37.742  12.875  1.00  0.00     0.035 C 
ATOM      9  C   UNL     1       6.676 -36.757  13.686  1.00  0.00    -0.030 C 
ENDBRANCH   1   7
BRANCH   3  10
ATOM     10  O   UNL     1       7.173 -32.539  17.297  1.00  0.00    -0.493 OA
ATOM     11  C   UNL     1       7.389 -33.180  18.550  1.00  0.00     0.278 C 
ENDBRANCH   3  10
BRANCH   4  12
ATOM     12  O   UNL     1       9.581 -31.519  16.284  1.00  0.00    -0.504 OA
ATOM     13  H   UNL     1       9.133 -30.897  16.946  1.00  0.00     0.293 HD
ENDBRANCH   4  12
TORSDOF 3
ENDMDL
MODEL 7
REMARK VINA RESULT:    -3.314      2.078      3.645
REMARK INTER + INTRA:          -3.971
REMARK INTER:                  -3.841
REMARK INTRA:                  -0.131
REMARK UNBOUND:                -0.173
REMARK SMILES CC=Cc1ccc(O)c(OC)c1
REMARK SMILES IDX 4 1 12 2 9 3 7 4 6 5 5 6 3 7 1 8 2 9 10 10 11 11 8 12
REMARK H PARENT 8 13
REMARK Flexibility Score: inf
ROOT
ATOM      1  C   UNL     1       8.710 -34.586  14.386  1.00  0.00    -0.022 A 
ATOM      2  C   UNL     1       9.234 -33.652  15.296  1.00  0.00     0.058 A 
ATOM      3  C   UNL     1       8.382 -32.818  16.050  1.00  0.00     0.161 A 
ATOM      4  C   UNL     1       6.991 -32.922  15.875  1.00  0.00     0.157 A 
ATOM      5  C   UNL     1       6.467 -33.840  14.961  1.00  0.00     0.051 A 
ATOM      6  C   UNL     1       7.315 -34.662  14.218  1.00  0.00     0.012 A 
ENDROOT
BRANCH   1   7
ATOM      7  C   UNL     1       9.655 -35.431  13.615  1.00  0.00     0.003 C 
ATOM      8  C   UNL     1      11.872 -36.211  12.875  1.00  0.00     0.035 C 
ATOM      9  C   UNL     1      10.987 -35.330  13.697  1.00  0.00    -0.030 C 
ENDBRANCH   1   7
BRANCH   3  10
ATOM     10  O   UNL     1       8.881 -31.884  16.972  1.00  0.00    -0.493 OA
ATOM     11  C   UNL     1       8.992 -32.110  18.373  1.00  0.00     0.278 C 
ENDBRANCH   3  10
BRANCH   4  12
ATOM     12  O   UNL     1       6.112 -32.118  16.600  1.00  0.00    -0.504 OA
ATOM     13  H   UNL     1       5.166 -32.410  16.817  1.00  0.00     0.293 HD
ENDBRANCH   4  12
TORSDOF 3
ENDMDL
