MODEL 1
REMARK VINA RESULT:    -5.097      0.000      0.000
REMARK INTER + INTRA:          -5.246
REMARK INTER:                  -5.246
REMARK INTRA:                   0.000
REMARK UNBOUND:                 0.000
REMARK SMILES Nc1ncnc2nc[nH]c12
REMARK SMILES IDX 8 1 7 2 6 3 5 4 4 5 3 6 2 7 10 8 9 9 1 11
REMARK H PARENT 9 10 1 12 1 13
REMARK Flexibility Score: inf
ROOT
ATOM      1  C   UNL     1     -22.463 -17.809  -5.188  1.00  0.00     0.199 A 
ATOM      2  N   UNL     1     -23.522 -17.409  -5.944  1.00  0.00    -0.217 NA
ATOM      3  C   UNL     1     -22.956 -16.523  -6.781  1.00  0.00     0.182 A 
ATOM      4  N   UNL     1     -23.581 -15.819  -7.755  1.00  0.00    -0.215 NA
ATOM      5  C   UNL     1     -22.833 -14.959  -8.510  1.00  0.00     0.226 A 
ATOM      6  N   UNL     1     -21.487 -14.821  -8.280  1.00  0.00    -0.217 NA
ATOM      7  C   UNL     1     -20.855 -15.530  -7.298  1.00  0.00     0.152 A 
ATOM      8  C   UNL     1     -21.631 -16.402  -6.538  1.00  0.00     0.127 A 
ATOM      9  N   UNL     1     -21.292 -17.211  -5.527  1.00  0.00    -0.340 N 
ATOM     10  H   UNL     1     -20.354 -17.358  -5.093  1.00  0.00     0.168 HD
ENDROOT
BRANCH   7  11
ATOM     11  N   UNL     1     -19.453 -15.370  -7.078  1.00  0.00    -0.382 N 
ATOM     12  H   UNL     1     -19.114 -14.765  -6.298  1.00  0.00     0.158 HD
ATOM     13  H   UNL     1     -18.750 -15.847  -7.683  1.00  0.00     0.158 HD
ENDBRANCH   7  11
TORSDOF 1
ENDMDL
MODEL 2
REMARK VINA RESULT:    -4.652      1.083      2.976
REMARK INTER + INTRA:          -4.788
REMARK INTER:                  -4.788
REMARK INTRA:                   0.000
REMARK UNBOUND:                 0.000
REMARK SMILES Nc1ncnc2nc[nH]c12
REMARK SMILES IDX 8 1 7 2 6 3 5 4 4 5 3 6 2 7 10 8 9 9 1 11
REMARK H PARENT 9 10 1 12 1 13
REMARK Flexibility Score: inf
ROOT
ATOM      1  C   UNL     1     -20.165 -14.075  -7.032  1.00  0.00     0.199 A 
ATOM      2  N   UNL     1     -21.209 -13.875  -7.881  1.00  0.00    -0.217 NA
ATOM      3  C   UNL     1     -22.025 -14.897  -7.575  1.00  0.00     0.182 A 
ATOM      4  N   UNL     1     -23.226 -15.169  -8.138  1.00  0.00    -0.215 NA
ATOM      5  C   UNL     1     -23.916 -16.262  -7.692  1.00  0.00     0.226 A 
ATOM      6  N   UNL     1     -23.397 -17.055  -6.699  1.00  0.00    -0.217 NA
ATOM      7  C   UNL     1     -22.186 -16.782  -6.129  1.00  0.00     0.152 A 
ATOM      8  C   UNL     1     -21.496 -15.666  -6.595  1.00  0.00     0.127 A 
ATOM      9  N   UNL     1     -20.310 -15.162  -6.232  1.00  0.00    -0.340 N 
ATOM     10  H   UNL     1     -19.645 -15.512  -5.508  1.00  0.00     0.168 HD
ENDROOT
BRANCH   7  11
ATOM     11  N   UNL     1     -21.667 -17.621  -5.097  1.00  0.00    -0.382 N 
ATOM     12  H   UNL     1     -22.317 -18.173  -4.497  1.00  0.00     0.158 HD
ATOM     13  H   UNL     1     -20.640 -17.699  -4.925  1.00  0.00     0.158 HD
ENDBRANCH   7  11
TORSDOF 1
ENDMDL
MODEL 3
REMARK VINA RESULT:    -4.585      5.248      7.238
REMARK INTER + INTRA:          -4.719
REMARK INTER:                  -4.719
REMARK INTRA:                   0.000
REMARK UNBOUND:                 0.000
REMARK SMILES Nc1ncnc2nc[nH]c12
REMARK SMILES IDX 8 1 7 2 6 3 5 4 4 5 3 6 2 7 10 8 9 9 1 11
REMARK H PARENT 9 10 1 12 1 13
REMARK Flexibility Score: inf
ROOT
ATOM      1  C   UNL     1     -21.010 -14.003 -14.452  1.00  0.00     0.199 A 
ATOM      2  N   UNL     1     -20.912 -13.886 -13.099  1.00  0.00    -0.217 NA
ATOM      3  C   UNL     1     -21.539 -14.995 -12.671  1.00  0.00     0.182 A 
ATOM      4  N   UNL     1     -21.725 -15.371 -11.384  1.00  0.00    -0.215 NA
ATOM      5  C   UNL     1     -22.392 -16.541 -11.143  1.00  0.00     0.226 A 
ATOM      6  N   UNL     1     -22.853 -17.305 -12.185  1.00  0.00    -0.217 NA
ATOM      7  C   UNL     1     -22.667 -16.927 -13.485  1.00  0.00     0.152 A 
ATOM      8  C   UNL     1     -21.986 -15.733 -13.712  1.00  0.00     0.127 A 
ATOM      9  N   UNL     1     -21.662 -15.122 -14.858  1.00  0.00    -0.340 N 
ATOM     10  H   UNL     1     -21.857 -15.424 -15.838  1.00  0.00     0.168 HD
ENDROOT
BRANCH   7  11
ATOM     11  N   UNL     1     -23.156 -17.739 -14.552  1.00  0.00    -0.382 N 
ATOM     12  H   UNL     1     -23.626 -18.647 -14.343  1.00  0.00     0.158 HD
ATOM     13  H   UNL     1     -23.056 -17.445 -15.548  1.00  0.00     0.158 HD
ENDBRANCH   7  11
TORSDOF 1
ENDMDL
MODEL 4
REMARK VINA RESULT:    -4.501      4.445      5.840
REMARK INTER + INTRA:          -4.633
REMARK INTER:                  -4.633
REMARK INTRA:                   0.000
REMARK UNBOUND:                 0.000
REMARK SMILES Nc1ncnc2nc[nH]c12
REMARK SMILES IDX 8 1 7 2 6 3 5 4 4 5 3 6 2 7 10 8 9 9 1 11
REMARK H PARENT 9 10 1 12 1 13
REMARK Flexibility Score: inf
ROOT
ATOM      1  C   UNL     1     -22.372 -16.274  -9.994  1.00  0.00     0.199 A 
ATOM      2  N   UNL     1     -21.802 -15.052 -10.179  1.00  0.00    -0.217 NA
ATOM      3  C   UNL     1     -21.663 -15.003 -11.515  1.00  0.00     0.182 A 
ATOM      4  N   UNL     1     -21.138 -13.983 -12.235  1.00  0.00    -0.215 NA
ATOM      5  C   UNL     1     -21.079 -14.118 -13.595  1.00  0.00     0.226 A 
ATOM      6  N   UNL     1     -21.542 -15.257 -14.202  1.00  0.00    -0.217 NA
ATOM      7  C   UNL     1     -22.072 -16.287 -13.477  1.00  0.00     0.152 A 
ATOM      8  C   UNL     1     -22.125 -16.135 -12.094  1.00  0.00     0.127 A 
ATOM      9  N   UNL     1     -22.582 -16.961 -11.145  1.00  0.00    -0.340 N 
ATOM     10  H   UNL     1     -23.003 -17.910 -11.252  1.00  0.00     0.168 HD
ENDROOT
BRANCH   7  11
ATOM     11  N   UNL     1     -22.547 -17.463 -14.132  1.00  0.00    -0.382 N 
ATOM     12  H   UNL     1     -22.275 -18.405 -13.776  1.00  0.00     0.158 HD
ATOM     13  H   UNL     1     -23.168 -17.406 -14.969  1.00  0.00     0.158 HD
ENDBRANCH   7  11
TORSDOF 1
ENDMDL
MODEL 5
REMARK VINA RESULT:    -4.454      6.370      8.118
REMARK INTER + INTRA:          -4.584
REMARK INTER:                  -4.584
REMARK INTRA:                   0.000
REMARK UNBOUND:                 0.000
REMARK SMILES Nc1ncnc2nc[nH]c12
REMARK SMILES IDX 8 1 7 2 6 3 5 4 4 5 3 6 2 7 10 8 9 9 1 11
REMARK H PARENT 9 10 1 12 1 13
REMARK Flexibility Score: inf
ROOT
ATOM      1  C   UNL     1     -23.844 -14.465 -16.375  1.00  0.00     0.199 A 
ATOM      2  N   UNL     1     -24.573 -15.421 -15.737  1.00  0.00    -0.217 NA
ATOM      3  C   UNL     1     -23.772 -15.752 -14.709  1.00  0.00     0.182 A 
ATOM      4  N   UNL     1     -24.027 -16.673 -13.751  1.00  0.00    -0.215 NA
ATOM      5  C   UNL     1     -23.084 -16.873 -12.780  1.00  0.00     0.226 A 
ATOM      6  N   UNL     1     -21.917 -16.152 -12.786  1.00  0.00    -0.217 NA
ATOM      7  C   UNL     1     -21.658 -15.221 -13.752  1.00  0.00     0.152 A 
ATOM      8  C   UNL     1     -22.628 -15.031 -14.733  1.00  0.00     0.127 A 
ATOM      9  N   UNL     1     -22.650 -14.203 -15.786  1.00  0.00    -0.340 N 
ATOM     10  H   UNL     1     -21.927 -13.516 -16.091  1.00  0.00     0.168 HD
ENDROOT
BRANCH   7  11
ATOM     11  N   UNL     1     -20.436 -14.483 -13.737  1.00  0.00    -0.382 N 
ATOM     12  H   UNL     1     -19.560 -14.917 -14.102  1.00  0.00     0.158 HD
ATOM     13  H   UNL     1     -20.394 -13.509 -13.366  1.00  0.00     0.158 HD
ENDBRANCH   7  11
TORSDOF 1
ENDMDL
MODEL 6
REMARK VINA RESULT:    -4.417      5.842      7.067
REMARK INTER + INTRA:          -4.546
REMARK INTER:                  -4.546
REMARK INTRA:                   0.000
REMARK UNBOUND:                 0.000
REMARK SMILES Nc1ncnc2nc[nH]c12
REMARK SMILES IDX 8 1 7 2 6 3 5 4 4 5 3 6 2 7 10 8 9 9 1 11
REMARK H PARENT 9 10 1 12 1 13
REMARK Flexibility Score: inf
ROOT
ATOM      1  C   UNL     1     -22.387 -16.834 -11.772  1.00  0.00     0.199 A 
ATOM      2  N   UNL     1     -23.501 -17.168 -12.479  1.00  0.00    -0.217 NA
ATOM      3  C   UNL     1     -23.402 -16.374 -13.559  1.00  0.00     0.182 A 
ATOM      4  N   UNL     1     -24.270 -16.308 -14.596  1.00  0.00    -0.215 NA
ATOM      5  C   UNL     1     -23.999 -15.432 -15.610  1.00  0.00     0.226 A 
ATOM      6  N   UNL     1     -22.875 -14.646 -15.569  1.00  0.00    -0.217 NA
ATOM      7  C   UNL     1     -21.997 -14.711 -14.523  1.00  0.00     0.152 A 
ATOM      8  C   UNL     1     -22.289 -15.608 -13.498  1.00  0.00     0.127 A 
ATOM      9  N   UNL     1     -21.625 -15.883 -12.369  1.00  0.00    -0.340 N 
ATOM     10  H   UNL     1     -20.732 -15.471 -12.019  1.00  0.00     0.168 HD
ENDROOT
BRANCH   7  11
ATOM     11  N   UNL     1     -20.834 -13.883 -14.502  1.00  0.00    -0.382 N 
ATOM     12  H   UNL     1     -20.740 -13.099 -15.184  1.00  0.00     0.158 HD
ATOM     13  H   UNL     1     -20.066 -14.043 -13.814  1.00  0.00     0.158 HD
ENDBRANCH   7  11
TORSDOF 1
ENDMDL
MODEL 7
REMARK VINA RESULT:    -4.395      4.884      6.424
REMARK INTER + INTRA:          -4.523
REMARK INTER:                  -4.523
REMARK INTRA:                   0.000
REMARK UNBOUND:                 0.000
REMARK SMILES Nc1ncnc2nc[nH]c12
REMARK SMILES IDX 8 1 7 2 6 3 5 4 4 5 3 6 2 7 10 8 9 9 1 11
REMARK H PARENT 9 10 1 12 1 13
REMARK Flexibility Score: inf
ROOT
ATOM      1  C   UNL     1     -23.259 -17.129 -14.146  1.00  0.00     0.199 A 
ATOM      2  N   UNL     1     -23.470 -17.165 -12.802  1.00  0.00    -0.217 NA
ATOM      3  C   UNL     1     -22.673 -16.176 -12.362  1.00  0.00     0.182 A 
ATOM      4  N   UNL     1     -22.506 -15.785 -11.077  1.00  0.00    -0.215 NA
ATOM      5  C   UNL     1     -21.645 -14.753 -10.823  1.00  0.00     0.226 A 
ATOM      6  N   UNL     1     -20.975 -14.138 -11.849  1.00  0.00    -0.217 NA
ATOM      7  C   UNL     1     -21.142 -14.531 -13.147  1.00  0.00     0.152 A 
ATOM      8  C   UNL     1     -22.022 -15.583 -13.389  1.00  0.00     0.127 A 
ATOM      9  N   UNL     1     -22.379 -16.173 -14.537  1.00  0.00    -0.340 N 
ATOM     10  H   UNL     1     -22.063 -15.957 -15.508  1.00  0.00     0.168 HD
ENDROOT
BRANCH   7  11
ATOM     11  N   UNL     1     -20.433 -13.875 -14.199  1.00  0.00    -0.382 N 
ATOM     12  H   UNL     1     -20.769 -12.955 -14.559  1.00  0.00     0.158 HD
ATOM     13  H   UNL     1     -19.578 -14.296 -14.623  1.00  0.00     0.158 HD
ENDBRANCH   7  11
TORSDOF 1
ENDMDL
MODEL 8
REMARK VINA RESULT:    -4.354      6.611      8.686
REMARK INTER + INTRA:          -4.481
REMARK INTER:                  -4.481
REMARK INTRA:                   0.000
REMARK UNBOUND:                 0.000
REMARK SMILES Nc1ncnc2nc[nH]c12
REMARK SMILES IDX 8 1 7 2 6 3 5 4 4 5 3 6 2 7 10 8 9 9 1 11
REMARK H PARENT 9 10 1 12 1 13
REMARK Flexibility Score: inf
ROOT
ATOM      1  C   UNL     1     -23.477 -14.280 -16.299  1.00  0.00     0.199 A 
ATOM      2  N   UNL     1     -22.420 -14.280 -15.442  1.00  0.00    -0.217 NA
ATOM      3  C   UNL     1     -22.732 -15.284 -14.605  1.00  0.00     0.182 A 
ATOM      4  N   UNL     1     -22.000 -15.711 -13.549  1.00  0.00    -0.215 NA
ATOM      5  C   UNL     1     -22.485 -16.755 -12.808  1.00  0.00     0.226 A 
ATOM      6  N   UNL     1     -23.679 -17.345 -13.136  1.00  0.00    -0.217 NA
ATOM      7  C   UNL     1     -24.418 -16.915 -14.202  1.00  0.00     0.152 A 
ATOM      8  C   UNL     1     -23.911 -15.852 -14.945  1.00  0.00     0.127 A 
ATOM      9  N   UNL     1     -24.406 -15.230 -16.022  1.00  0.00    -0.340 N 
ATOM     10  H   UNL     1     -25.294 -15.420 -16.536  1.00  0.00     0.168 HD
ENDROOT
BRANCH   7  11
ATOM     11  N   UNL     1     -25.658 -17.546 -14.523  1.00  0.00    -0.382 N 
ATOM     12  H   UNL     1     -26.316 -17.821 -13.762  1.00  0.00     0.158 HD
ATOM     13  H   UNL     1     -25.928 -17.742 -15.513  1.00  0.00     0.158 HD
ENDBRANCH   7  11
TORSDOF 1
ENDMDL
MODEL 9
REMARK VINA RESULT:    -4.170      4.715      6.172
REMARK INTER + INTRA:          -4.292
REMARK INTER:                  -4.292
REMARK INTRA:                   0.000
REMARK UNBOUND:                 0.000
REMARK SMILES Nc1ncnc2nc[nH]c12
REMARK SMILES IDX 8 1 7 2 6 3 5 4 4 5 3 6 2 7 10 8 9 9 1 11
REMARK H PARENT 9 10 1 12 1 13
REMARK Flexibility Score: inf
ROOT
ATOM      1  C   UNL     1     -21.961 -14.017 -10.163  1.00  0.00     0.199 A 
ATOM      2  N   UNL     1     -23.088 -14.036 -10.925  1.00  0.00    -0.217 NA
ATOM      3  C   UNL     1     -22.589 -14.000 -12.173  1.00  0.00     0.182 A 
ATOM      4  N   UNL     1     -23.298 -14.000 -13.326  1.00  0.00    -0.215 NA
ATOM      5  C   UNL     1     -22.609 -13.958 -14.507  1.00  0.00     0.226 A 
ATOM      6  N   UNL     1     -21.237 -13.918 -14.511  1.00  0.00    -0.217 NA
ATOM      7  C   UNL     1     -20.520 -13.918 -13.348  1.00  0.00     0.152 A 
ATOM      8  C   UNL     1     -21.237 -13.960 -12.155  1.00  0.00     0.127 A 
ATOM      9  N   UNL     1     -20.812 -13.971 -10.885  1.00  0.00    -0.340 N 
ATOM     10  H   UNL     1     -19.834 -13.949 -10.523  1.00  0.00     0.168 HD
ENDROOT
BRANCH   7  11
ATOM     11  N   UNL     1     -19.093 -13.876 -13.378  1.00  0.00    -0.382 N 
ATOM     12  H   UNL     1     -18.551 -13.922 -12.487  1.00  0.00     0.158 HD
ATOM     13  H   UNL     1     -18.571 -13.800 -14.278  1.00  0.00     0.158 HD
ENDBRANCH   7  11
TORSDOF 1
ENDMDL
