MODEL 1
REMARK VINA RESULT:    -4.460      0.000      0.000
REMARK INTER + INTRA:          -7.002
REMARK INTER:                  -6.545
REMARK INTRA:                  -0.457
REMARK UNBOUND:                -0.457
REMARK SMILES O=C([O-])CCCCCCCC(=O)[O-]
REMARK SMILES IDX 7 1 6 2 5 3 4 4 2 5 1 6 3 7 8 8 9 9 10 10 11 11 12 12 13 13
REMARK H PARENT
REMARK Flexibility Score: inf
ROOT
ATOM      1  C   UNL     1      -9.601 -33.955  44.859  1.00  0.00     0.000 C 
ENDROOT
BRANCH   1   2
ATOM      2  C   UNL     1      -8.755 -32.797  45.426  1.00  0.00     0.000 C 
BRANCH   2   3
ATOM      3  C   UNL     1      -7.586 -32.342  44.529  1.00  0.00     0.006 C 
BRANCH   3   4
ATOM      4  C   UNL     1      -6.433 -31.665  45.286  1.00  0.00     0.053 C 
BRANCH   4   5
ATOM      5  C   UNL     1      -5.958 -30.426  44.591  1.00  0.00     0.041 C 
ATOM      6  O   UNL     1      -4.747 -30.086  44.657  1.00  0.00    -0.550 OA
ATOM      7  O   UNL     1      -6.860 -29.629  43.898  1.00  0.00    -0.550 OA
ENDBRANCH   4   5
ENDBRANCH   3   4
ENDBRANCH   2   3
ENDBRANCH   1   2
BRANCH   1   8
ATOM      8  C   UNL     1     -10.396 -33.625  43.581  1.00  0.00     0.000 C 
BRANCH   8   9
ATOM      9  C   UNL     1      -9.892 -34.312  42.297  1.00  0.00     0.006 C 
BRANCH   9  10
ATOM     10  C   UNL     1      -9.712 -33.354  41.105  1.00  0.00     0.053 C 
BRANCH  10  11
ATOM     11  C   UNL     1      -8.393 -32.646  41.126  1.00  0.00     0.041 C 
ATOM     12  O   UNL     1      -8.347 -31.391  41.223  1.00  0.00    -0.550 OA
ATOM     13  O   UNL     1      -7.210 -33.373  41.075  1.00  0.00    -0.550 OA
ENDBRANCH  10  11
ENDBRANCH   9  10
ENDBRANCH   8   9
ENDBRANCH   1   8
TORSDOF 8
ENDMDL
MODEL 2
REMARK VINA RESULT:    -4.386      3.371      4.815
REMARK INTER + INTRA:          -6.893
REMARK INTER:                  -6.490
REMARK INTRA:                  -0.403
REMARK UNBOUND:                -0.457
REMARK SMILES O=C([O-])CCCCCCCC(=O)[O-]
REMARK SMILES IDX 7 1 6 2 5 3 4 4 2 5 1 6 3 7 8 8 9 9 10 10 11 11 12 12 13 13
REMARK H PARENT
REMARK Flexibility Score: inf
ROOT
ATOM      1  C   UNL     1      -9.863 -34.739  43.314  1.00  0.00     0.000 C 
ENDROOT
BRANCH   1   2
ATOM      2  C   UNL     1     -10.323 -33.614  42.365  1.00  0.00     0.000 C 
BRANCH   2   3
ATOM      3  C   UNL     1      -9.571 -33.545  41.020  1.00  0.00     0.006 C 
BRANCH   3   4
ATOM      4  C   UNL     1      -8.061 -33.298  41.149  1.00  0.00     0.053 C 
BRANCH   4   5
ATOM      5  C   UNL     1      -7.763 -32.018  41.870  1.00  0.00     0.041 C 
ATOM      6  O   UNL     1      -7.309 -32.043  43.045  1.00  0.00    -0.550 OA
ATOM      7  O   UNL     1      -8.021 -30.799  41.258  1.00  0.00    -0.550 OA
ENDBRANCH   4   5
ENDBRANCH   3   4
ENDBRANCH   2   3
ENDBRANCH   1   2
BRANCH   1   8
ATOM      8  C   UNL     1     -10.585 -34.787  44.675  1.00  0.00     0.000 C 
BRANCH   8   9
ATOM      9  C   UNL     1     -10.672 -36.181  45.325  1.00  0.00     0.006 C 
BRANCH   9  10
ATOM     10  C   UNL     1     -10.740 -37.340  44.313  1.00  0.00     0.053 C 
BRANCH  10  11
ATOM     11  C   UNL     1      -9.740 -38.417  44.597  1.00  0.00     0.041 C 
ATOM     12  O   UNL     1     -10.125 -39.585  44.867  1.00  0.00    -0.550 OA
ATOM     13  O   UNL     1      -8.380 -38.142  44.529  1.00  0.00    -0.550 OA
ENDBRANCH  10  11
ENDBRANCH   9  10
ENDBRANCH   8   9
ENDBRANCH   1   8
TORSDOF 8
ENDMDL
MODEL 3
REMARK VINA RESULT:    -4.370      8.520     10.210
REMARK INTER + INTRA:          -6.871
REMARK INTER:                  -6.385
REMARK INTRA:                  -0.486
REMARK UNBOUND:                -0.457
REMARK SMILES O=C([O-])CCCCCCCC(=O)[O-]
REMARK SMILES IDX 7 1 6 2 5 3 4 4 2 5 1 6 3 7 8 8 9 9 10 10 11 11 12 12 13 13
REMARK H PARENT
REMARK Flexibility Score: inf
ROOT
ATOM      1  C   UNL     1      -5.086 -34.540  52.035  1.00  0.00     0.000 C 
ENDROOT
BRANCH   1   2
ATOM      2  C   UNL     1      -5.094 -35.495  53.245  1.00  0.00     0.000 C 
BRANCH   2   3
ATOM      3  C   UNL     1      -4.555 -34.892  54.558  1.00  0.00     0.006 C 
BRANCH   3   4
ATOM      4  C   UNL     1      -3.485 -35.746  55.256  1.00  0.00     0.053 C 
BRANCH   4   5
ATOM      5  C   UNL     1      -2.100 -35.365  54.830  1.00  0.00     0.041 C 
ATOM      6  O   UNL     1      -1.107 -36.017  55.247  1.00  0.00    -0.550 OA
ATOM      7  O   UNL     1      -1.905 -34.270  53.998  1.00  0.00    -0.550 OA
ENDBRANCH   4   5
ENDBRANCH   3   4
ENDBRANCH   2   3
ENDBRANCH   1   2
BRANCH   1   8
ATOM      8  C   UNL     1      -4.790 -33.064  52.364  1.00  0.00     0.000 C 
BRANCH   8   9
ATOM      9  C   UNL     1      -5.423 -32.036  51.406  1.00  0.00     0.006 C 
BRANCH   9  10
ATOM     10  C   UNL     1      -6.607 -32.588  50.591  1.00  0.00     0.053 C 
BRANCH  10  11
ATOM     11  C   UNL     1      -6.326 -32.633  49.120  1.00  0.00     0.041 C 
ATOM     12  O   UNL     1      -5.741 -33.627  48.616  1.00  0.00    -0.550 OA
ATOM     13  O   UNL     1      -6.744 -31.593  48.299  1.00  0.00    -0.550 OA
ENDBRANCH  10  11
ENDBRANCH   9  10
ENDBRANCH   8   9
ENDBRANCH   1   8
TORSDOF 8
ENDMDL
MODEL 4
REMARK VINA RESULT:    -4.355      0.902      4.564
REMARK INTER + INTRA:          -6.849
REMARK INTER:                  -6.275
REMARK INTRA:                  -0.573
REMARK UNBOUND:                -0.457
REMARK SMILES O=C([O-])CCCCCCCC(=O)[O-]
REMARK SMILES IDX 7 1 6 2 5 3 4 4 2 5 1 6 3 7 8 8 9 9 10 10 11 11 12 12 13 13
REMARK H PARENT
REMARK Flexibility Score: inf
ROOT
ATOM      1  C   UNL     1      -9.380 -33.479  45.133  1.00  0.00     0.000 C 
ENDROOT
BRANCH   1   2
ATOM      2  C   UNL     1      -9.179 -34.029  43.707  1.00  0.00     0.000 C 
BRANCH   2   3
ATOM      3  C   UNL     1     -10.180 -33.504  42.656  1.00  0.00     0.006 C 
BRANCH   3   4
ATOM      4  C   UNL     1      -9.626 -33.455  41.224  1.00  0.00     0.053 C 
BRANCH   4   5
ATOM      5  C   UNL     1      -8.333 -32.703  41.150  1.00  0.00     0.041 C 
ATOM      6  O   UNL     1      -8.323 -31.448  41.245  1.00  0.00    -0.550 OA
ATOM      7  O   UNL     1      -7.142 -33.387  40.941  1.00  0.00    -0.550 OA
ENDBRANCH   4   5
ENDBRANCH   3   4
ENDBRANCH   2   3
ENDBRANCH   1   2
BRANCH   1   8
ATOM      8  C   UNL     1      -8.310 -32.477  45.608  1.00  0.00     0.000 C 
BRANCH   8   9
ATOM      9  C   UNL     1      -7.231 -32.123  44.566  1.00  0.00     0.006 C 
BRANCH   9  10
ATOM     10  C   UNL     1      -6.809 -30.643  44.582  1.00  0.00     0.053 C 
BRANCH  10  11
ATOM     11  C   UNL     1      -5.465 -30.431  45.209  1.00  0.00     0.041 C 
ATOM     12  O   UNL     1      -4.566 -29.805  44.589  1.00  0.00    -0.550 OA
ATOM     13  O   UNL     1      -5.216 -30.894  46.496  1.00  0.00    -0.550 OA
ENDBRANCH  10  11
ENDBRANCH   9  10
ENDBRANCH   8   9
ENDBRANCH   1   8
TORSDOF 8
ENDMDL
MODEL 5
REMARK VINA RESULT:    -4.274      2.463      5.227
REMARK INTER + INTRA:          -6.729
REMARK INTER:                  -6.248
REMARK INTRA:                  -0.481
REMARK UNBOUND:                -0.457
REMARK SMILES O=C([O-])CCCCCCCC(=O)[O-]
REMARK SMILES IDX 7 1 6 2 5 3 4 4 2 5 1 6 3 7 8 8 9 9 10 10 11 11 12 12 13 13
REMARK H PARENT
REMARK Flexibility Score: inf
ROOT
ATOM      1  C   UNL     1      -7.909 -33.039  41.326  1.00  0.00     0.000 C 
ENDROOT
BRANCH   1   2
ATOM      2  C   UNL     1      -9.399 -33.308  41.037  1.00  0.00     0.000 C 
BRANCH   2   3
ATOM      3  C   UNL     1     -10.263 -33.605  42.280  1.00  0.00     0.006 C 
BRANCH   3   4
ATOM      4  C   UNL     1      -9.771 -34.790  43.125  1.00  0.00     0.053 C 
BRANCH   4   5
ATOM      5  C   UNL     1     -10.085 -34.609  44.579  1.00  0.00     0.041 C 
ATOM      6  O   UNL     1     -10.886 -35.390  45.157  1.00  0.00    -0.550 OA
ATOM      7  O   UNL     1      -9.519 -33.556  45.286  1.00  0.00    -0.550 OA
ENDBRANCH   4   5
ENDBRANCH   3   4
ENDBRANCH   2   3
ENDBRANCH   1   2
BRANCH   1   8
ATOM      8  C   UNL     1      -7.625 -31.839  42.251  1.00  0.00     0.000 C 
BRANCH   8   9
ATOM      9  C   UNL     1      -6.953 -32.188  43.593  1.00  0.00     0.006 C 
BRANCH   9  10
ATOM     10  C   UNL     1      -6.470 -30.962  44.388  1.00  0.00     0.053 C 
BRANCH  10  11
ATOM     11  C   UNL     1      -6.016 -31.311  45.772  1.00  0.00     0.041 C 
ATOM     12  O   UNL     1      -6.582 -32.236  46.412  1.00  0.00    -0.550 OA
ATOM     13  O   UNL     1      -4.942 -30.640  46.344  1.00  0.00    -0.550 OA
ENDBRANCH  10  11
ENDBRANCH   9  10
ENDBRANCH   8   9
ENDBRANCH   1   8
TORSDOF 8
ENDMDL
MODEL 6
REMARK VINA RESULT:    -4.262      3.367      5.190
REMARK INTER + INTRA:          -6.711
REMARK INTER:                  -6.248
REMARK INTRA:                  -0.463
REMARK UNBOUND:                -0.457
REMARK SMILES O=C([O-])CCCCCCCC(=O)[O-]
REMARK SMILES IDX 7 1 6 2 5 3 4 4 2 5 1 6 3 7 8 8 9 9 10 10 11 11 12 12 13 13
REMARK H PARENT
REMARK Flexibility Score: inf
ROOT
ATOM      1  C   UNL     1      -9.508 -34.935  43.268  1.00  0.00     0.000 C 
ENDROOT
BRANCH   1   2
ATOM      2  C   UNL     1      -9.916 -34.858  44.753  1.00  0.00     0.000 C 
BRANCH   2   3
ATOM      3  C   UNL     1     -10.790 -36.027  45.252  1.00  0.00     0.006 C 
BRANCH   3   4
ATOM      4  C   UNL     1     -10.486 -37.377  44.583  1.00  0.00     0.053 C 
BRANCH   4   5
ATOM      5  C   UNL     1      -9.372 -38.103  45.273  1.00  0.00     0.041 C 
ATOM      6  O   UNL     1      -8.262 -38.255  44.696  1.00  0.00    -0.550 OA
ATOM      7  O   UNL     1      -9.570 -38.641  46.537  1.00  0.00    -0.550 OA
ENDBRANCH   4   5
ENDBRANCH   3   4
ENDBRANCH   2   3
ENDBRANCH   1   2
BRANCH   1   8
ATOM      8  C   UNL     1     -10.202 -33.916  42.343  1.00  0.00     0.000 C 
BRANCH   8   9
ATOM      9  C   UNL     1      -9.446 -33.589  41.040  1.00  0.00     0.006 C 
BRANCH   9  10
ATOM     10  C   UNL     1      -7.956 -33.259  41.247  1.00  0.00     0.053 C 
BRANCH  10  11
ATOM     11  C   UNL     1      -7.744 -31.940  41.923  1.00  0.00     0.041 C 
ATOM     12  O   UNL     1      -7.292 -31.894  43.098  1.00  0.00    -0.550 OA
ATOM     13  O   UNL     1      -8.010 -30.757  41.244  1.00  0.00    -0.550 OA
ENDBRANCH  10  11
ENDBRANCH   9  10
ENDBRANCH   8   9
ENDBRANCH   1   8
TORSDOF 8
ENDMDL
MODEL 7
REMARK VINA RESULT:    -4.252      8.651     10.913
REMARK INTER + INTRA:          -6.697
REMARK INTER:                  -6.346
REMARK INTRA:                  -0.352
REMARK UNBOUND:                -0.457
REMARK SMILES O=C([O-])CCCCCCCC(=O)[O-]
REMARK SMILES IDX 7 1 6 2 5 3 4 4 2 5 1 6 3 7 8 8 9 9 10 10 11 11 12 12 13 13
REMARK H PARENT
REMARK Flexibility Score: inf
ROOT
ATOM      1  C   UNL     1      -4.886 -34.699  51.834  1.00  0.00     0.000 C 
ENDROOT
BRANCH   1   2
ATOM      2  C   UNL     1      -5.719 -33.534  51.264  1.00  0.00     0.000 C 
BRANCH   2   3
ATOM      3  C   UNL     1      -5.266 -32.127  51.707  1.00  0.00     0.006 C 
BRANCH   3   4
ATOM      4  C   UNL     1      -5.571 -31.014  50.693  1.00  0.00     0.053 C 
BRANCH   4   5
ATOM      5  C   UNL     1      -6.633 -30.081  51.190  1.00  0.00     0.041 C 
ATOM      6  O   UNL     1      -7.804 -30.500  51.387  1.00  0.00    -0.550 OA
ATOM      7  O   UNL     1      -6.336 -28.741  51.404  1.00  0.00    -0.550 OA
ENDBRANCH   4   5
ENDBRANCH   3   4
ENDBRANCH   2   3
ENDBRANCH   1   2
BRANCH   1   8
ATOM      8  C   UNL     1      -5.403 -35.290  53.159  1.00  0.00     0.000 C 
BRANCH   8   9
ATOM      9  C   UNL     1      -4.356 -36.052  53.994  1.00  0.00     0.006 C 
BRANCH   9  10
ATOM     10  C   UNL     1      -3.522 -35.152  54.924  1.00  0.00     0.053 C 
BRANCH  10  11
ATOM     11  C   UNL     1      -2.098 -35.022  54.480  1.00  0.00     0.041 C 
ATOM     12  O   UNL     1      -1.794 -34.236  53.545  1.00  0.00    -0.550 OA
ATOM     13  O   UNL     1      -1.098 -35.740  55.124  1.00  0.00    -0.550 OA
ENDBRANCH  10  11
ENDBRANCH   9  10
ENDBRANCH   8   9
ENDBRANCH   1   8
TORSDOF 8
ENDMDL
MODEL 8
REMARK VINA RESULT:    -4.208      4.056      6.035
REMARK INTER + INTRA:          -6.632
REMARK INTER:                  -6.319
REMARK INTRA:                  -0.313
REMARK UNBOUND:                -0.457
REMARK SMILES O=C([O-])CCCCCCCC(=O)[O-]
REMARK SMILES IDX 7 1 6 2 5 3 4 4 2 5 1 6 3 7 8 8 9 9 10 10 11 11 12 12 13 13
REMARK H PARENT
REMARK Flexibility Score: inf
ROOT
ATOM      1  C   UNL     1     -10.214 -34.600  44.493  1.00  0.00     0.000 C 
ENDROOT
BRANCH   1   2
ATOM      2  C   UNL     1     -10.323 -36.081  44.075  1.00  0.00     0.000 C 
BRANCH   2   3
ATOM      3  C   UNL     1     -10.804 -37.040  45.184  1.00  0.00     0.006 C 
BRANCH   3   4
ATOM      4  C   UNL     1     -11.117 -38.463  44.698  1.00  0.00     0.053 C 
BRANCH   4   5
ATOM      5  C   UNL     1     -10.216 -39.480  45.330  1.00  0.00     0.041 C 
ATOM      6  O   UNL     1     -10.686 -40.337  46.124  1.00  0.00    -0.550 OA
ATOM      7  O   UNL     1      -8.852 -39.459  45.069  1.00  0.00    -0.550 OA
ENDBRANCH   4   5
ENDBRANCH   3   4
ENDBRANCH   2   3
ENDBRANCH   1   2
BRANCH   1   8
ATOM      8  C   UNL     1     -10.229 -33.587  43.333  1.00  0.00     0.000 C 
BRANCH   8   9
ATOM      9  C   UNL     1     -10.011 -34.189  41.931  1.00  0.00     0.006 C 
BRANCH   9  10
ATOM     10  C   UNL     1      -9.518 -33.173  40.884  1.00  0.00     0.053 C 
BRANCH  10  11
ATOM     11  C   UNL     1      -8.146 -32.654  41.183  1.00  0.00     0.041 C 
ATOM     12  O   UNL     1      -7.159 -33.436  41.190  1.00  0.00    -0.550 OA
ATOM     13  O   UNL     1      -7.948 -31.299  41.418  1.00  0.00    -0.550 OA
ENDBRANCH  10  11
ENDBRANCH   9  10
ENDBRANCH   8   9
ENDBRANCH   1   8
TORSDOF 8
ENDMDL
MODEL 9
REMARK VINA RESULT:    -4.161      4.032      5.665
REMARK INTER + INTRA:          -6.563
REMARK INTER:                  -6.271
REMARK INTRA:                  -0.292
REMARK UNBOUND:                -0.457
REMARK SMILES O=C([O-])CCCCCCCC(=O)[O-]
REMARK SMILES IDX 7 1 6 2 5 3 4 4 2 5 1 6 3 7 8 8 9 9 10 10 11 11 12 12 13 13
REMARK H PARENT
REMARK Flexibility Score: inf
ROOT
ATOM      1  C   UNL     1     -10.618 -34.918  44.670  1.00  0.00     0.000 C 
ENDROOT
BRANCH   1   2
ATOM      2  C   UNL     1     -10.253 -33.831  43.639  1.00  0.00     0.000 C 
BRANCH   2   3
ATOM      3  C   UNL     1      -9.891 -34.357  42.234  1.00  0.00     0.006 C 
BRANCH   3   4
ATOM      4  C   UNL     1      -9.741 -33.261  41.167  1.00  0.00     0.053 C 
BRANCH   4   5
ATOM      5  C   UNL     1      -8.376 -32.644  41.188  1.00  0.00     0.041 C 
ATOM      6  O   UNL     1      -7.350 -33.375  41.210  1.00  0.00    -0.550 OA
ATOM      7  O   UNL     1      -8.238 -31.263  41.217  1.00  0.00    -0.550 OA
ENDBRANCH   4   5
ENDBRANCH   3   4
ENDBRANCH   2   3
ENDBRANCH   1   2
BRANCH   1   8
ATOM      8  C   UNL     1     -10.592 -36.364  44.137  1.00  0.00     0.000 C 
BRANCH   8   9
ATOM      9  C   UNL     1     -10.424 -37.457  45.210  1.00  0.00     0.006 C 
BRANCH   9  10
ATOM     10  C   UNL     1      -8.960 -37.859  45.469  1.00  0.00     0.053 C 
BRANCH  10  11
ATOM     11  C   UNL     1      -8.775 -38.557  46.781  1.00  0.00     0.041 C 
ATOM     12  O   UNL     1      -8.213 -37.967  47.741  1.00  0.00    -0.550 OA
ATOM     13  O   UNL     1      -9.256 -39.849  46.958  1.00  0.00    -0.550 OA
ENDBRANCH  10  11
ENDBRANCH   9  10
ENDBRANCH   8   9
ENDBRANCH   1   8
TORSDOF 8
ENDMDL
