MODEL 1
REMARK VINA RESULT:    -5.098      0.000      0.000
REMARK INTER + INTRA:          -5.098
REMARK INTER:                  -5.098
REMARK INTRA:                   0.000
REMARK UNBOUND:                 0.000
REMARK SMILES O=c1ccc2ccccc2o1
REMARK SMILES IDX 7 1 8 2 9 3 10 4 5 5 6 6 4 7 3 8 2 9 1 10 11 11
REMARK H PARENT
REMARK Flexibility Score: inf
ROOT
ATOM      1  C   UNL     1      14.066   4.211  -1.213  1.00  0.00     0.001 A 
ATOM      2  C   UNL     1      13.645   4.935  -0.092  1.00  0.00     0.004 A 
ATOM      3  C   UNL     1      12.818   4.335   0.863  1.00  0.00     0.048 A 
ATOM      4  C   UNL     1      12.409   3.007   0.701  1.00  0.00     0.138 A 
ATOM      5  C   UNL     1      12.833   2.275  -0.431  1.00  0.00     0.018 A 
ATOM      6  C   UNL     1      13.661   2.883  -1.386  1.00  0.00     0.012 A 
ATOM      7  C   UNL     1      12.408   0.951  -0.566  1.00  0.00     0.019 A 
ATOM      8  C   UNL     1      11.583   0.394   0.411  1.00  0.00     0.094 A 
ATOM      9  C   UNL     1      11.203   1.177   1.506  1.00  0.00     0.336 A 
ATOM     10  O   UNL     1      10.459   0.692   2.398  1.00  0.00    -0.246 OA
ATOM     11  O   UNL     1      11.622   2.436   1.611  1.00  0.00    -0.423 OA
ENDROOT
TORSDOF 0
ENDMDL
MODEL 2
REMARK VINA RESULT:    -4.844      1.776      2.739
REMARK INTER + INTRA:          -4.844
REMARK INTER:                  -4.844
REMARK INTRA:                   0.000
REMARK UNBOUND:                 0.000
REMARK SMILES O=c1ccc2ccccc2o1
REMARK SMILES IDX 7 1 8 2 9 3 10 4 5 5 6 6 4 7 3 8 2 9 1 10 11 11
REMARK H PARENT
REMARK Flexibility Score: inf
ROOT
ATOM      1  C   UNL     1      13.731   2.983   0.482  1.00  0.00     0.001 A 
ATOM      2  C   UNL     1      13.808   2.346  -0.761  1.00  0.00     0.004 A 
ATOM      3  C   UNL     1      12.921   1.311  -1.077  1.00  0.00     0.048 A 
ATOM      4  C   UNL     1      11.953   0.910  -0.150  1.00  0.00     0.138 A 
ATOM      5  C   UNL     1      11.876   1.553   1.106  1.00  0.00     0.018 A 
ATOM      6  C   UNL     1      12.768   2.590   1.417  1.00  0.00     0.012 A 
ATOM      7  C   UNL     1      10.899   1.131   2.012  1.00  0.00     0.019 A 
ATOM      8  C   UNL     1      10.036   0.094   1.654  1.00  0.00     0.094 A 
ATOM      9  C   UNL     1      10.171  -0.496   0.393  1.00  0.00     0.336 A 
ATOM     10  O   UNL     1       9.402  -1.432   0.052  1.00  0.00    -0.246 OA
ATOM     11  O   UNL     1      11.110  -0.075  -0.451  1.00  0.00    -0.423 OA
ENDROOT
TORSDOF 0
ENDMDL
MODEL 3
REMARK VINA RESULT:    -4.571      9.311     10.330
REMARK INTER + INTRA:          -4.571
REMARK INTER:                  -4.571
REMARK INTRA:                   0.000
REMARK UNBOUND:                 0.000
REMARK SMILES O=c1ccc2ccccc2o1
REMARK SMILES IDX 7 1 8 2 9 3 10 4 5 5 6 6 4 7 3 8 2 9 1 10 11 11
REMARK H PARENT
REMARK Flexibility Score: inf
ROOT
ATOM      1  C   UNL     1       7.084   8.450   0.736  1.00  0.00     0.001 A 
ATOM      2  C   UNL     1       6.177   7.386   0.686  1.00  0.00     0.004 A 
ATOM      3  C   UNL     1       5.110   7.328   1.588  1.00  0.00     0.048 A 
ATOM      4  C   UNL     1       4.945   8.336   2.544  1.00  0.00     0.138 A 
ATOM      5  C   UNL     1       5.861   9.411   2.595  1.00  0.00     0.018 A 
ATOM      6  C   UNL     1       6.930   9.463   1.688  1.00  0.00     0.012 A 
ATOM      7  C   UNL     1       5.671  10.403   3.561  1.00  0.00     0.019 A 
ATOM      8  C   UNL     1       4.592  10.304   4.441  1.00  0.00     0.094 A 
ATOM      9  C   UNL     1       3.726   9.211   4.332  1.00  0.00     0.336 A 
ATOM     10  O   UNL     1       2.747   9.105   5.116  1.00  0.00    -0.246 OA
ATOM     11  O   UNL     1       3.929   8.280   3.403  1.00  0.00    -0.423 OA
ENDROOT
TORSDOF 0
ENDMDL
MODEL 4
REMARK VINA RESULT:    -4.566     18.542     19.509
REMARK INTER + INTRA:          -4.566
REMARK INTER:                  -4.566
REMARK INTRA:                   0.000
REMARK UNBOUND:                 0.000
REMARK SMILES O=c1ccc2ccccc2o1
REMARK SMILES IDX 7 1 8 2 9 3 10 4 5 5 6 6 4 7 3 8 2 9 1 10 11 11
REMARK H PARENT
REMARK Flexibility Score: inf
ROOT
ATOM      1  C   UNL     1      -1.072   5.345  12.417  1.00  0.00     0.001 A 
ATOM      2  C   UNL     1      -1.639   6.446  13.068  1.00  0.00     0.004 A 
ATOM      3  C   UNL     1      -2.779   7.063  12.544  1.00  0.00     0.048 A 
ATOM      4  C   UNL     1      -3.358   6.580  11.366  1.00  0.00     0.138 A 
ATOM      5  C   UNL     1      -2.786   5.468  10.707  1.00  0.00     0.018 A 
ATOM      6  C   UNL     1      -1.642   4.854  11.238  1.00  0.00     0.012 A 
ATOM      7  C   UNL     1      -3.387   5.008   9.532  1.00  0.00     0.019 A 
ATOM      8  C   UNL     1      -4.523   5.655   9.045  1.00  0.00     0.094 A 
ATOM      9  C   UNL     1      -5.034   6.750   9.749  1.00  0.00     0.336 A 
ATOM     10  O   UNL     1      -6.059   7.346   9.326  1.00  0.00    -0.246 OA
ATOM     11  O   UNL     1      -4.443   7.168  10.867  1.00  0.00    -0.423 OA
ENDROOT
TORSDOF 0
ENDMDL
MODEL 5
REMARK VINA RESULT:    -4.511     17.944     19.371
REMARK INTER + INTRA:          -4.511
REMARK INTER:                  -4.511
REMARK INTRA:                   0.000
REMARK UNBOUND:                 0.000
REMARK SMILES O=c1ccc2ccccc2o1
REMARK SMILES IDX 7 1 8 2 9 3 10 4 5 5 6 6 4 7 3 8 2 9 1 10 11 11
REMARK H PARENT
REMARK Flexibility Score: inf
ROOT
ATOM      1  C   UNL     1       0.129   3.525  12.508  1.00  0.00     0.001 A 
ATOM      2  C   UNL     1      -0.925   2.735  12.036  1.00  0.00     0.004 A 
ATOM      3  C   UNL     1      -2.193   3.294  11.846  1.00  0.00     0.048 A 
ATOM      4  C   UNL     1      -2.411   4.647  12.127  1.00  0.00     0.138 A 
ATOM      5  C   UNL     1      -1.347   5.445  12.604  1.00  0.00     0.018 A 
ATOM      6  C   UNL     1      -0.078   4.879  12.793  1.00  0.00     0.012 A 
ATOM      7  C   UNL     1      -1.596   6.794  12.875  1.00  0.00     0.019 A 
ATOM      8  C   UNL     1      -2.876   7.308  12.672  1.00  0.00     0.094 A 
ATOM      9  C   UNL     1      -3.882   6.459  12.197  1.00  0.00     0.336 A 
ATOM     10  O   UNL     1      -5.043   6.905  12.007  1.00  0.00    -0.246 OA
ATOM     11  O   UNL     1      -3.618   5.179  11.946  1.00  0.00    -0.423 OA
ENDROOT
TORSDOF 0
ENDMDL
MODEL 6
REMARK VINA RESULT:    -4.467      8.100      9.273
REMARK INTER + INTRA:          -4.467
REMARK INTER:                  -4.467
REMARK INTRA:                   0.000
REMARK UNBOUND:                 0.000
REMARK SMILES O=c1ccc2ccccc2o1
REMARK SMILES IDX 7 1 8 2 9 3 10 4 5 5 6 6 4 7 3 8 2 9 1 10 11 11
REMARK H PARENT
REMARK Flexibility Score: inf
ROOT
ATOM      1  C   UNL     1       2.336   3.261  -0.982  1.00  0.00     0.001 A 
ATOM      2  C   UNL     1       3.123   2.403  -0.206  1.00  0.00     0.004 A 
ATOM      3  C   UNL     1       4.188   2.910   0.545  1.00  0.00     0.048 A 
ATOM      4  C   UNL     1       4.470   4.280   0.524  1.00  0.00     0.138 A 
ATOM      5  C   UNL     1       3.676   5.148  -0.259  1.00  0.00     0.018 A 
ATOM      6  C   UNL     1       2.610   4.633  -1.011  1.00  0.00     0.012 A 
ATOM      7  C   UNL     1       3.982   6.512  -0.260  1.00  0.00     0.019 A 
ATOM      8  C   UNL     1       5.053   6.974   0.504  1.00  0.00     0.094 A 
ATOM      9  C   UNL     1       5.796   6.057   1.255  1.00  0.00     0.336 A 
ATOM     10  O   UNL     1       6.766   6.455   1.952  1.00  0.00    -0.246 OA
ATOM     11  O   UNL     1       5.483   4.763   1.239  1.00  0.00    -0.423 OA
ENDROOT
TORSDOF 0
ENDMDL
MODEL 7
REMARK VINA RESULT:    -4.435     11.470     12.785
REMARK INTER + INTRA:          -4.435
REMARK INTER:                  -4.435
REMARK INTRA:                   0.000
REMARK UNBOUND:                 0.000
REMARK SMILES O=c1ccc2ccccc2o1
REMARK SMILES IDX 7 1 8 2 9 3 10 4 5 5 6 6 4 7 3 8 2 9 1 10 11 11
REMARK H PARENT
REMARK Flexibility Score: inf
ROOT
ATOM      1  C   UNL     1       2.679  11.780   6.558  1.00  0.00     0.001 A 
ATOM      2  C   UNL     1       2.069  10.534   6.370  1.00  0.00     0.004 A 
ATOM      3  C   UNL     1       2.553   9.654   5.397  1.00  0.00     0.048 A 
ATOM      4  C   UNL     1       3.650  10.016   4.608  1.00  0.00     0.138 A 
ATOM      5  C   UNL     1       4.266  11.274   4.797  1.00  0.00     0.018 A 
ATOM      6  C   UNL     1       3.776  12.153   5.774  1.00  0.00     0.012 A 
ATOM      7  C   UNL     1       5.359  11.608   3.993  1.00  0.00     0.019 A 
ATOM      8  C   UNL     1       5.808  10.699   3.034  1.00  0.00     0.094 A 
ATOM      9  C   UNL     1       5.149   9.472   2.903  1.00  0.00     0.336 A 
ATOM     10  O   UNL     1       5.539   8.638   2.044  1.00  0.00    -0.246 OA
ATOM     11  O   UNL     1       4.110   9.178   3.681  1.00  0.00    -0.423 OA
ENDROOT
TORSDOF 0
ENDMDL
MODEL 8
REMARK VINA RESULT:    -4.426     11.195     12.353
REMARK INTER + INTRA:          -4.426
REMARK INTER:                  -4.426
REMARK INTRA:                   0.000
REMARK UNBOUND:                 0.000
REMARK SMILES O=c1ccc2ccccc2o1
REMARK SMILES IDX 7 1 8 2 9 3 10 4 5 5 6 6 4 7 3 8 2 9 1 10 11 11
REMARK H PARENT
REMARK Flexibility Score: inf
ROOT
ATOM      1  C   UNL     1       2.125  10.678   6.079  1.00  0.00     0.001 A 
ATOM      2  C   UNL     1       2.814  11.872   5.839  1.00  0.00     0.004 A 
ATOM      3  C   UNL     1       3.891  11.895   4.947  1.00  0.00     0.048 A 
ATOM      4  C   UNL     1       4.282  10.724   4.289  1.00  0.00     0.138 A 
ATOM      5  C   UNL     1       3.586   9.518   4.531  1.00  0.00     0.018 A 
ATOM      6  C   UNL     1       2.508   9.500   5.428  1.00  0.00     0.012 A 
ATOM      7  C   UNL     1       4.000   8.364   3.860  1.00  0.00     0.019 A 
ATOM      8  C   UNL     1       5.079   8.434   2.979  1.00  0.00     0.094 A 
ATOM      9  C   UNL     1       5.721   9.663   2.788  1.00  0.00     0.336 A 
ATOM     10  O   UNL     1       6.696   9.746   1.997  1.00  0.00    -0.246 OA
ATOM     11  O   UNL     1       5.306  10.747   3.440  1.00  0.00    -0.423 OA
ENDROOT
TORSDOF 0
ENDMDL
MODEL 9
REMARK VINA RESULT:    -4.331     16.523     18.227
REMARK INTER + INTRA:          -4.331
REMARK INTER:                  -4.331
REMARK INTRA:                   0.000
REMARK UNBOUND:                 0.000
REMARK SMILES O=c1ccc2ccccc2o1
REMARK SMILES IDX 7 1 8 2 9 3 10 4 5 5 6 6 4 7 3 8 2 9 1 10 11 11
REMARK H PARENT
REMARK Flexibility Score: inf
ROOT
ATOM      1  C   UNL     1      -2.792   7.238  12.570  1.00  0.00     0.001 A 
ATOM      2  C   UNL     1      -3.579   6.810  11.496  1.00  0.00     0.004 A 
ATOM      3  C   UNL     1      -3.183   5.710  10.728  1.00  0.00     0.048 A 
ATOM      4  C   UNL     1      -1.998   5.032  11.034  1.00  0.00     0.138 A 
ATOM      5  C   UNL     1      -1.202   5.464  12.119  1.00  0.00     0.018 A 
ATOM      6  C   UNL     1      -1.604   6.569  12.885  1.00  0.00     0.012 A 
ATOM      7  C   UNL     1      -0.024   4.767  12.401  1.00  0.00     0.019 A 
ATOM      8  C   UNL     1       0.332   3.675  11.608  1.00  0.00     0.094 A 
ATOM      9  C   UNL     1      -0.504   3.304  10.550  1.00  0.00     0.336 A 
ATOM     10  O   UNL     1      -0.201   2.322   9.824  1.00  0.00    -0.246 OA
ATOM     11  O   UNL     1      -1.622   3.985  10.303  1.00  0.00    -0.423 OA
ENDROOT
TORSDOF 0
ENDMDL
