MODEL 1
REMARK VINA RESULT:    -4.765      0.000      0.000
REMARK INTER + INTRA:          -4.765
REMARK INTER:                  -4.765
REMARK INTRA:                   0.000
REMARK UNBOUND:                 0.000
REMARK SMILES CC1=CC(=O)[C@H]2C[C@@H]1C2(C)C
REMARK SMILES IDX 1 1 2 2 3 3 4 4 5 5 6 6 7 7 8 8 9 9 10 10 11 11
REMARK H PARENT
REMARK Flexibility Score: inf
ROOT
ATOM      1  C   UNL     1      29.339  12.912  21.905  1.00  0.00     0.040 C 
ATOM      2  C   UNL     1      28.708  12.439  23.176  1.00  0.00    -0.066 C 
ATOM      3  C   UNL     1      27.682  13.122  23.755  1.00  0.00     0.047 C 
ATOM      4  C   UNL     1      27.156  12.563  25.042  1.00  0.00     0.159 C 
ATOM      5  O   UNL     1      26.236  13.125  25.692  1.00  0.00    -0.295 OA
ATOM      6  C   UNL     1      27.815  11.266  25.510  1.00  0.00     0.067 C 
ATOM      7  C   UNL     1      27.875  10.392  24.239  1.00  0.00     0.021 C 
ATOM      8  C   UNL     1      29.174  11.149  23.884  1.00  0.00     0.022 C 
ATOM      9  C   UNL     1      29.359  11.430  25.404  1.00  0.00    -0.019 C 
ATOM     10  C   UNL     1      30.124  10.290  26.125  1.00  0.00     0.012 C 
ATOM     11  C   UNL     1      29.989  12.785  25.829  1.00  0.00     0.012 C 
ENDROOT
TORSDOF 0
ENDMDL
MODEL 2
REMARK VINA RESULT:    -4.697      1.563      2.994
REMARK INTER + INTRA:          -4.697
REMARK INTER:                  -4.697
REMARK INTRA:                   0.000
REMARK UNBOUND:                 0.000
REMARK SMILES CC1=CC(=O)[C@H]2C[C@@H]1C2(C)C
REMARK SMILES IDX 1 1 2 2 3 3 4 4 5 5 6 6 7 7 8 8 9 9 10 10 11 11
REMARK H PARENT
REMARK Flexibility Score: inf
ROOT
ATOM      1  C   UNL     1      26.001  13.107  26.085  1.00  0.00     0.040 C 
ATOM      2  C   UNL     1      27.278  12.750  25.393  1.00  0.00    -0.066 C 
ATOM      3  C   UNL     1      27.494  13.080  24.090  1.00  0.00     0.047 C 
ATOM      4  C   UNL     1      28.802  12.639  23.503  1.00  0.00     0.159 C 
ATOM      5  O   UNL     1      29.101  12.849  22.298  1.00  0.00    -0.295 OA
ATOM      6  C   UNL     1      29.742  11.917  24.467  1.00  0.00     0.067 C 
ATOM      7  C   UNL     1      29.705  12.779  25.748  1.00  0.00     0.021 C 
ATOM      8  C   UNL     1      28.419  12.010  26.125  1.00  0.00     0.022 C 
ATOM      9  C   UNL     1      28.927  10.837  25.236  1.00  0.00    -0.019 C 
ATOM     10  C   UNL     1      29.839   9.858  26.019  1.00  0.00     0.012 C 
ATOM     11  C   UNL     1      27.879  10.003  24.449  1.00  0.00     0.012 C 
ENDROOT
TORSDOF 0
ENDMDL
MODEL 3
REMARK VINA RESULT:    -4.644      1.717      3.173
REMARK INTER + INTRA:          -4.644
REMARK INTER:                  -4.644
REMARK INTRA:                   0.000
REMARK UNBOUND:                 0.000
REMARK SMILES CC1=CC(=O)[C@H]2C[C@@H]1C2(C)C
REMARK SMILES IDX 1 1 2 2 3 3 4 4 5 5 6 6 7 7 8 8 9 9 10 10 11 11
REMARK H PARENT
REMARK Flexibility Score: inf
ROOT
ATOM      1  C   UNL     1      26.034  13.119  26.125  1.00  0.00     0.040 C 
ATOM      2  C   UNL     1      27.108  12.372  25.399  1.00  0.00    -0.066 C 
ATOM      3  C   UNL     1      27.603  11.198  25.879  1.00  0.00     0.047 C 
ATOM      4  C   UNL     1      28.698  10.562  25.076  1.00  0.00     0.159 C 
ATOM      5  O   UNL     1      29.263   9.497  25.437  1.00  0.00    -0.295 OA
ATOM      6  C   UNL     1      29.079  11.298  23.792  1.00  0.00     0.067 C 
ATOM      7  C   UNL     1      27.724  11.646  23.139  1.00  0.00     0.021 C 
ATOM      8  C   UNL     1      27.693  12.883  24.065  1.00  0.00     0.022 C 
ATOM      9  C   UNL     1      29.247  12.810  24.120  1.00  0.00    -0.019 C 
ATOM     10  C   UNL     1      29.915  13.594  22.962  1.00  0.00     0.012 C 
ATOM     11  C   UNL     1      29.955  13.204  25.447  1.00  0.00     0.012 C 
ENDROOT
TORSDOF 0
ENDMDL
MODEL 4
REMARK VINA RESULT:    -4.521      1.207      3.115
REMARK INTER + INTRA:          -4.521
REMARK INTER:                  -4.521
REMARK INTRA:                   0.000
REMARK UNBOUND:                 0.000
REMARK SMILES CC1=CC(=O)[C@H]2C[C@@H]1C2(C)C
REMARK SMILES IDX 1 1 2 2 3 3 4 4 5 5 6 6 7 7 8 8 9 9 10 10 11 11
REMARK H PARENT
REMARK Flexibility Score: inf
ROOT
ATOM      1  C   UNL     1      28.669   8.634  26.025  1.00  0.00     0.040 C 
ATOM      2  C   UNL     1      28.594  10.087  25.678  1.00  0.00    -0.066 C 
ATOM      3  C   UNL     1      27.542  10.856  26.071  1.00  0.00     0.047 C 
ATOM      4  C   UNL     1      27.569  12.290  25.634  1.00  0.00     0.159 C 
ATOM      5  O   UNL     1      26.634  13.091  25.901  1.00  0.00    -0.295 OA
ATOM      6  C   UNL     1      28.807  12.710  24.843  1.00  0.00     0.067 C 
ATOM      7  C   UNL     1      29.986  12.107  25.638  1.00  0.00     0.021 C 
ATOM      8  C   UNL     1      29.711  10.790  24.877  1.00  0.00     0.022 C 
ATOM      9  C   UNL     1      29.075  11.644  23.742  1.00  0.00    -0.019 C 
ATOM     10  C   UNL     1      30.124  12.120  22.704  1.00  0.00     0.012 C 
ATOM     11  C   UNL     1      27.860  11.055  22.972  1.00  0.00     0.012 C 
ENDROOT
TORSDOF 0
ENDMDL
MODEL 5
REMARK VINA RESULT:    -4.435      1.484      2.100
REMARK INTER + INTRA:          -4.435
REMARK INTER:                  -4.435
REMARK INTRA:                   0.000
REMARK UNBOUND:                 0.000
REMARK SMILES CC1=CC(=O)[C@H]2C[C@@H]1C2(C)C
REMARK SMILES IDX 1 1 2 2 3 3 4 4 5 5 6 6 7 7 8 8 9 9 10 10 11 11
REMARK H PARENT
REMARK Flexibility Score: inf
ROOT
ATOM      1  C   UNL     1      30.115  11.674  21.521  1.00  0.00     0.040 C 
ATOM      2  C   UNL     1      29.397  11.661  22.832  1.00  0.00    -0.066 C 
ATOM      3  C   UNL     1      29.706  12.547  23.819  1.00  0.00     0.047 C 
ATOM      4  C   UNL     1      28.934  12.412  25.097  1.00  0.00     0.159 C 
ATOM      5  O   UNL     1      29.156  13.146  26.096  1.00  0.00    -0.295 OA
ATOM      6  C   UNL     1      27.863  11.321  25.103  1.00  0.00     0.067 C 
ATOM      7  C   UNL     1      27.130  11.505  23.756  1.00  0.00     0.021 C 
ATOM      8  C   UNL     1      28.259  10.659  23.125  1.00  0.00     0.022 C 
ATOM      9  C   UNL     1      28.483  10.016  24.525  1.00  0.00    -0.019 C 
ATOM     10  C   UNL     1      27.577   8.780  24.758  1.00  0.00     0.012 C 
ATOM     11  C   UNL     1      29.934   9.642  24.938  1.00  0.00     0.012 C 
ENDROOT
TORSDOF 0
ENDMDL
MODEL 6
REMARK VINA RESULT:    -4.294      1.819      3.172
REMARK INTER + INTRA:          -4.294
REMARK INTER:                  -4.294
REMARK INTRA:                   0.000
REMARK UNBOUND:                 0.000
REMARK SMILES CC1=CC(=O)[C@H]2C[C@@H]1C2(C)C
REMARK SMILES IDX 1 1 2 2 3 3 4 4 5 5 6 6 7 7 8 8 9 9 10 10 11 11
REMARK H PARENT
REMARK Flexibility Score: inf
ROOT
ATOM      1  C   UNL     1      29.840   9.175  25.179  1.00  0.00     0.040 C 
ATOM      2  C   UNL     1      29.322  10.419  24.531  1.00  0.00    -0.066 C 
ATOM      3  C   UNL     1      30.110  11.177  23.719  1.00  0.00     0.047 C 
ATOM      4  C   UNL     1      29.483  12.416  23.154  1.00  0.00     0.159 C 
ATOM      5  O   UNL     1      30.121  13.218  22.423  1.00  0.00    -0.295 OA
ATOM      6  C   UNL     1      28.018  12.637  23.530  1.00  0.00     0.067 C 
ATOM      7  C   UNL     1      27.361  11.256  23.319  1.00  0.00     0.021 C 
ATOM      8  C   UNL     1      27.867  10.895  24.733  1.00  0.00     0.022 C 
ATOM      9  C   UNL     1      27.861  12.416  25.062  1.00  0.00    -0.019 C 
ATOM     10  C   UNL     1      26.486  12.900  25.590  1.00  0.00     0.012 C 
ATOM     11  C   UNL     1      28.966  12.969  26.005  1.00  0.00     0.012 C 
ENDROOT
TORSDOF 0
ENDMDL
MODEL 7
REMARK VINA RESULT:    -4.125      1.593      2.998
REMARK INTER + INTRA:          -4.125
REMARK INTER:                  -4.125
REMARK INTRA:                   0.000
REMARK UNBOUND:                 0.000
REMARK SMILES CC1=CC(=O)[C@H]2C[C@@H]1C2(C)C
REMARK SMILES IDX 1 1 2 2 3 3 4 4 5 5 6 6 7 7 8 8 9 9 10 10 11 11
REMARK H PARENT
REMARK Flexibility Score: inf
ROOT
ATOM      1  C   UNL     1      28.690   8.307  25.609  1.00  0.00     0.040 C 
ATOM      2  C   UNL     1      28.279   9.681  25.187  1.00  0.00    -0.066 C 
ATOM      3  C   UNL     1      27.507   9.882  24.083  1.00  0.00     0.047 C 
ATOM      4  C   UNL     1      27.187  11.308  23.747  1.00  0.00     0.159 C 
ATOM      5  O   UNL     1      26.516  11.624  22.730  1.00  0.00    -0.295 OA
ATOM      6  C   UNL     1      27.734  12.348  24.725  1.00  0.00     0.067 C 
ATOM      7  C   UNL     1      27.397  11.773  26.117  1.00  0.00     0.021 C 
ATOM      8  C   UNL     1      28.689  10.936  25.988  1.00  0.00     0.022 C 
ATOM      9  C   UNL     1      29.228  12.021  25.011  1.00  0.00    -0.019 C 
ATOM     10  C   UNL     1      29.952  13.174  25.752  1.00  0.00     0.012 C 
ATOM     11  C   UNL     1      30.124  11.564  23.827  1.00  0.00     0.012 C 
ENDROOT
TORSDOF 0
ENDMDL
MODEL 8
REMARK VINA RESULT:    -4.107      1.837      3.077
REMARK INTER + INTRA:          -4.107
REMARK INTER:                  -4.107
REMARK INTRA:                   0.000
REMARK UNBOUND:                 0.000
REMARK SMILES CC1=CC(=O)[C@H]2C[C@@H]1C2(C)C
REMARK SMILES IDX 1 1 2 2 3 3 4 4 5 5 6 6 7 7 8 8 9 9 10 10 11 11
REMARK H PARENT
REMARK Flexibility Score: inf
ROOT
ATOM      1  C   UNL     1      30.124  13.175  22.126  1.00  0.00     0.040 C 
ATOM      2  C   UNL     1      29.698  12.485  23.383  1.00  0.00    -0.066 C 
ATOM      3  C   UNL     1      30.125  11.227  23.680  1.00  0.00     0.047 C 
ATOM      4  C   UNL     1      29.604  10.633  24.954  1.00  0.00     0.159 C 
ATOM      5  O   UNL     1      29.894   9.463  25.318  1.00  0.00    -0.295 OA
ATOM      6  C   UNL     1      28.695  11.546  25.777  1.00  0.00     0.067 C 
ATOM      7  C   UNL     1      29.430  12.904  25.785  1.00  0.00     0.021 C 
ATOM      8  C   UNL     1      28.773  13.169  24.412  1.00  0.00     0.022 C 
ATOM      9  C   UNL     1      27.642  12.184  24.826  1.00  0.00    -0.019 C 
ATOM     10  C   UNL     1      26.499  12.889  25.601  1.00  0.00     0.012 C 
ATOM     11  C   UNL     1      27.004  11.291  23.725  1.00  0.00     0.012 C 
ENDROOT
TORSDOF 0
ENDMDL
MODEL 9
REMARK VINA RESULT:    -3.935      1.713      2.323
REMARK INTER + INTRA:          -3.935
REMARK INTER:                  -3.935
REMARK INTRA:                   0.000
REMARK UNBOUND:                 0.000
REMARK SMILES CC1=CC(=O)[C@H]2C[C@@H]1C2(C)C
REMARK SMILES IDX 1 1 2 2 3 3 4 4 5 5 6 6 7 7 8 8 9 9 10 10 11 11
REMARK H PARENT
REMARK Flexibility Score: inf
ROOT
ATOM      1  C   UNL     1      27.518  12.823  21.794  1.00  0.00     0.040 C 
ATOM      2  C   UNL     1      28.030  11.970  22.911  1.00  0.00    -0.066 C 
ATOM      3  C   UNL     1      27.410  10.808  23.257  1.00  0.00     0.047 C 
ATOM      4  C   UNL     1      28.002  10.059  24.413  1.00  0.00     0.159 C 
ATOM      5  O   UNL     1      27.496   8.993  24.853  1.00  0.00    -0.295 OA
ATOM      6  C   UNL     1      29.259  10.681  25.021  1.00  0.00     0.067 C 
ATOM      7  C   UNL     1      30.125  11.053  23.798  1.00  0.00     0.021 C 
ATOM      8  C   UNL     1      29.293  12.352  23.713  1.00  0.00     0.022 C 
ATOM      9  C   UNL     1      29.005  12.201  25.235  1.00  0.00    -0.019 C 
ATOM     10  C   UNL     1      30.100  12.863  26.111  1.00  0.00     0.012 C 
ATOM     11  C   UNL     1      27.617  12.650  25.769  1.00  0.00     0.012 C 
ENDROOT
TORSDOF 0
ENDMDL
