MODEL 1
REMARK VINA RESULT:    -4.775      0.000      0.000
REMARK INTER + INTRA:         -15.193
REMARK INTER:                 -10.916
REMARK INTRA:                  -4.277
REMARK UNBOUND:                -4.277
REMARK SMILES CCCCCCCCCCCCCCCCCCCCCCCC(=O)[O-]
REMARK SMILES IDX 13 1 14 2 15 3 16 4 17 5 18 6 19 7 20 8 21 9 22 10 23 11
REMARK SMILES IDX 24 12 25 13 26 14 12 15 11 16 10 17 9 18 8 19 7 20 6 21 5 22
REMARK SMILES IDX 4 23 3 24 2 25 1 26
REMARK H PARENT
REMARK Flexibility Score: inf
ROOT
ATOM      1  C   UNL     1     -20.537  60.428  30.634  1.00  0.00     0.000 C 
ENDROOT
BRANCH   1   2
ATOM      2  C   UNL     1     -20.148  61.621  29.740  1.00  0.00     0.000 C 
BRANCH   2   3
ATOM      3  C   UNL     1     -20.836  61.658  28.361  1.00  0.00     0.000 C 
BRANCH   3   4
ATOM      4  C   UNL     1     -22.085  60.766  28.289  1.00  0.00     0.000 C 
BRANCH   4   5
ATOM      5  C   UNL     1     -23.360  61.616  28.180  1.00  0.00     0.000 C 
BRANCH   5   6
ATOM      6  C   UNL     1     -23.673  62.379  29.476  1.00  0.00     0.000 C 
BRANCH   6   7
ATOM      7  C   UNL     1     -24.664  61.630  30.380  1.00  0.00     0.000 C 
BRANCH   7   8
ATOM      8  C   UNL     1     -25.546  60.682  29.555  1.00  0.00     0.000 C 
BRANCH   8   9
ATOM      9  C   UNL     1     -25.344  59.200  29.921  1.00  0.00     0.000 C 
BRANCH   9  10
ATOM     10  C   UNL     1     -24.106  58.906  30.792  1.00  0.00     0.006 C 
BRANCH  10  11
ATOM     11  C   UNL     1     -23.620  57.449  30.741  1.00  0.00     0.053 C 
BRANCH  11  12
ATOM     12  C   UNL     1     -23.230  56.938  32.095  1.00  0.00     0.041 C 
ATOM     13  O   UNL     1     -22.820  57.734  32.979  1.00  0.00    -0.550 OA
ATOM     14  O   UNL     1     -23.292  55.577  32.369  1.00  0.00    -0.550 OA
ENDBRANCH  11  12
ENDBRANCH  10  11
ENDBRANCH   9  10
ENDBRANCH   8   9
ENDBRANCH   7   8
ENDBRANCH   6   7
ENDBRANCH   5   6
ENDBRANCH   4   5
ENDBRANCH   3   4
ENDBRANCH   2   3
ENDBRANCH   1   2
BRANCH   1  15
ATOM     15  C   UNL     1     -21.315  60.791  31.913  1.00  0.00     0.000 C 
BRANCH  15  16
ATOM     16  C   UNL     1     -21.066  62.228  32.416  1.00  0.00     0.000 C 
BRANCH  16  17
ATOM     17  C   UNL     1     -21.025  62.326  33.949  1.00  0.00     0.000 C 
BRANCH  17  18
ATOM     18  C   UNL     1     -21.750  61.137  34.593  1.00  0.00    -0.000 C 
BRANCH  18  19
ATOM     19  C   UNL     1     -22.796  61.608  35.611  1.00  0.00    -0.000 C 
BRANCH  19  20
ATOM     20  C   UNL     1     -24.107  60.827  35.448  1.00  0.00    -0.000 C 
BRANCH  20  21
ATOM     21  C   UNL     1     -24.560  60.807  33.980  1.00  0.00    -0.000 C 
BRANCH  21  22
ATOM     22  C   UNL     1     -25.667  59.770  33.723  1.00  0.00    -0.000 C 
BRANCH  22  23
ATOM     23  C   UNL     1     -27.004  60.393  33.257  1.00  0.00    -0.000 C 
BRANCH  23  24
ATOM     24  C   UNL     1     -26.978  61.932  33.203  1.00  0.00    -0.000 C 
BRANCH  24  25
ATOM     25  C   UNL     1     -27.906  62.617  34.221  1.00  0.00    -0.003 C 
ATOM     26  C   UNL     1     -27.611  62.206  35.664  1.00  0.00     0.004 C 
ENDBRANCH  24  25
ENDBRANCH  23  24
ENDBRANCH  22  23
ENDBRANCH  21  22
ENDBRANCH  20  21
ENDBRANCH  19  20
ENDBRANCH  18  19
ENDBRANCH  17  18
ENDBRANCH  16  17
ENDBRANCH  15  16
ENDBRANCH   1  15
TORSDOF 22
ENDMDL
MODEL 2
REMARK VINA RESULT:    -4.737      1.528      4.490
REMARK INTER + INTRA:         -15.106
REMARK INTER:                 -10.084
REMARK INTRA:                  -5.022
REMARK UNBOUND:                -4.277
REMARK SMILES CCCCCCCCCCCCCCCCCCCCCCCC(=O)[O-]
REMARK SMILES IDX 13 1 14 2 15 3 16 4 17 5 18 6 19 7 20 8 21 9 22 10 23 11
REMARK SMILES IDX 24 12 25 13 26 14 12 15 11 16 10 17 9 18 8 19 7 20 6 21 5 22
REMARK SMILES IDX 4 23 3 24 2 25 1 26
REMARK H PARENT
REMARK Flexibility Score: inf
ROOT
ATOM      1  C   UNL     1     -24.095  58.416  29.959  1.00  0.00     0.000 C 
ENDROOT
BRANCH   1   2
ATOM      2  C   UNL     1     -23.264  59.116  28.867  1.00  0.00     0.000 C 
BRANCH   2   3
ATOM      3  C   UNL     1     -23.971  60.286  28.156  1.00  0.00     0.000 C 
BRANCH   3   4
ATOM      4  C   UNL     1     -23.408  61.659  28.552  1.00  0.00     0.000 C 
BRANCH   4   5
ATOM      5  C   UNL     1     -24.401  62.424  29.440  1.00  0.00     0.000 C 
BRANCH   5   6
ATOM      6  C   UNL     1     -23.937  62.512  30.902  1.00  0.00     0.000 C 
BRANCH   6   7
ATOM      7  C   UNL     1     -22.480  62.066  31.091  1.00  0.00     0.000 C 
BRANCH   7   8
ATOM      8  C   UNL     1     -22.386  60.934  32.126  1.00  0.00     0.000 C 
BRANCH   8   9
ATOM      9  C   UNL     1     -21.178  60.007  31.897  1.00  0.00     0.000 C 
BRANCH   9  10
ATOM     10  C   UNL     1     -21.343  58.574  32.442  1.00  0.00     0.006 C 
BRANCH  10  11
ATOM     11  C   UNL     1     -22.605  58.354  33.292  1.00  0.00     0.053 C 
BRANCH  11  12
ATOM     12  C   UNL     1     -22.845  56.903  33.577  1.00  0.00     0.041 C 
ATOM     13  O   UNL     1     -22.288  56.349  34.559  1.00  0.00    -0.550 OA
ATOM     14  O   UNL     1     -23.662  56.155  32.737  1.00  0.00    -0.550 OA
ENDBRANCH  11  12
ENDBRANCH  10  11
ENDBRANCH   9  10
ENDBRANCH   8   9
ENDBRANCH   7   8
ENDBRANCH   6   7
ENDBRANCH   5   6
ENDBRANCH   4   5
ENDBRANCH   3   4
ENDBRANCH   2   3
ENDBRANCH   1   2
BRANCH   1  15
ATOM     15  C   UNL     1     -25.494  59.013  30.206  1.00  0.00     0.000 C 
BRANCH  15  16
ATOM     16  C   UNL     1     -25.795  59.320  31.689  1.00  0.00     0.000 C 
BRANCH  16  17
ATOM     17  C   UNL     1     -26.775  60.490  31.870  1.00  0.00     0.000 C 
BRANCH  17  18
ATOM     18  C   UNL     1     -26.579  61.161  33.235  1.00  0.00    -0.000 C 
BRANCH  18  19
ATOM     19  C   UNL     1     -25.653  60.333  34.135  1.00  0.00    -0.000 C 
BRANCH  19  20
ATOM     20  C   UNL     1     -25.067  61.197  35.259  1.00  0.00    -0.000 C 
BRANCH  20  21
ATOM     21  C   UNL     1     -23.680  60.687  35.682  1.00  0.00    -0.000 C 
BRANCH  21  22
ATOM     22  C   UNL     1     -22.614  61.796  35.650  1.00  0.00    -0.000 C 
BRANCH  22  23
ATOM     23  C   UNL     1     -21.324  61.437  36.425  1.00  0.00    -0.000 C 
BRANCH  23  24
ATOM     24  C   UNL     1     -20.749  60.057  36.053  1.00  0.00    -0.000 C 
BRANCH  24  25
ATOM     25  C   UNL     1     -19.449  60.112  35.233  1.00  0.00    -0.003 C 
ATOM     26  C   UNL     1     -19.192  61.489  34.619  1.00  0.00     0.004 C 
ENDBRANCH  24  25
ENDBRANCH  23  24
ENDBRANCH  22  23
ENDBRANCH  21  22
ENDBRANCH  20  21
ENDBRANCH  19  20
ENDBRANCH  18  19
ENDBRANCH  17  18
ENDBRANCH  16  17
ENDBRANCH  15  16
ENDBRANCH   1  15
TORSDOF 22
ENDMDL
MODEL 3
REMARK VINA RESULT:    -4.728      2.402      5.215
REMARK INTER + INTRA:         -15.086
REMARK INTER:                 -10.362
REMARK INTRA:                  -4.724
REMARK UNBOUND:                -4.277
REMARK SMILES CCCCCCCCCCCCCCCCCCCCCCCC(=O)[O-]
REMARK SMILES IDX 13 1 14 2 15 3 16 4 17 5 18 6 19 7 20 8 21 9 22 10 23 11
REMARK SMILES IDX 24 12 25 13 26 14 12 15 11 16 10 17 9 18 8 19 7 20 6 21 5 22
REMARK SMILES IDX 4 23 3 24 2 25 1 26
REMARK H PARENT
REMARK Flexibility Score: inf
ROOT
ATOM      1  C   UNL     1     -24.705  58.716  32.989  1.00  0.00     0.000 C 
ENDROOT
BRANCH   1   2
ATOM      2  C   UNL     1     -24.583  58.344  31.499  1.00  0.00     0.000 C 
BRANCH   2   3
ATOM      3  C   UNL     1     -25.638  58.984  30.576  1.00  0.00     0.000 C 
BRANCH   3   4
ATOM      4  C   UNL     1     -25.019  59.739  29.390  1.00  0.00     0.000 C 
BRANCH   4   5
ATOM      5  C   UNL     1     -25.530  61.187  29.334  1.00  0.00     0.000 C 
BRANCH   5   6
ATOM      6  C   UNL     1     -24.425  62.214  29.628  1.00  0.00     0.000 C 
BRANCH   6   7
ATOM      7  C   UNL     1     -24.064  62.288  31.118  1.00  0.00     0.000 C 
BRANCH   7   8
ATOM      8  C   UNL     1     -22.706  61.621  31.385  1.00  0.00     0.000 C 
BRANCH   8   9
ATOM      9  C   UNL     1     -21.517  62.438  30.847  1.00  0.00     0.000 C 
BRANCH   9  10
ATOM     10  C   UNL     1     -20.505  61.639  30.001  1.00  0.00     0.006 C 
BRANCH  10  11
ATOM     11  C   UNL     1     -21.110  60.457  29.228  1.00  0.00     0.053 C 
BRANCH  11  12
ATOM     12  C   UNL     1     -21.650  60.875  27.894  1.00  0.00     0.041 C 
ATOM     13  O   UNL     1     -22.368  60.087  27.226  1.00  0.00    -0.550 OA
ATOM     14  O   UNL     1     -21.333  62.124  27.376  1.00  0.00    -0.550 OA
ENDBRANCH  11  12
ENDBRANCH  10  11
ENDBRANCH   9  10
ENDBRANCH   8   9
ENDBRANCH   7   8
ENDBRANCH   6   7
ENDBRANCH   5   6
ENDBRANCH   4   5
ENDBRANCH   3   4
ENDBRANCH   2   3
ENDBRANCH   1   2
BRANCH   1  15
ATOM     15  C   UNL     1     -25.869  59.664  33.338  1.00  0.00     0.000 C 
BRANCH  15  16
ATOM     16  C   UNL     1     -25.551  60.663  34.470  1.00  0.00     0.000 C 
BRANCH  16  17
ATOM     17  C   UNL     1     -24.049  60.970  34.591  1.00  0.00     0.000 C 
BRANCH  17  18
ATOM     18  C   UNL     1     -23.521  60.574  35.976  1.00  0.00    -0.000 C 
BRANCH  18  19
ATOM     19  C   UNL     1     -22.121  61.150  36.223  1.00  0.00    -0.000 C 
BRANCH  19  20
ATOM     20  C   UNL     1     -21.753  62.175  35.143  1.00  0.00    -0.000 C 
BRANCH  20  21
ATOM     21  C   UNL     1     -20.228  62.291  34.988  1.00  0.00    -0.000 C 
BRANCH  21  22
ATOM     22  C   UNL     1     -19.549  60.919  34.840  1.00  0.00    -0.000 C 
BRANCH  22  23
ATOM     23  C   UNL     1     -19.685  60.311  33.424  1.00  0.00    -0.000 C 
BRANCH  23  24
ATOM     24  C   UNL     1     -20.706  59.160  33.345  1.00  0.00    -0.000 C 
BRANCH  24  25
ATOM     25  C   UNL     1     -20.517  58.072  34.416  1.00  0.00    -0.003 C 
ATOM     26  C   UNL     1     -21.840  57.469  34.889  1.00  0.00     0.004 C 
ENDBRANCH  24  25
ENDBRANCH  23  24
ENDBRANCH  22  23
ENDBRANCH  21  22
ENDBRANCH  20  21
ENDBRANCH  19  20
ENDBRANCH  18  19
ENDBRANCH  17  18
ENDBRANCH  16  17
ENDBRANCH  15  16
ENDBRANCH   1  15
TORSDOF 22
ENDMDL
MODEL 4
REMARK VINA RESULT:    -4.666      2.030      4.845
REMARK INTER + INTRA:         -14.945
REMARK INTER:                 -10.560
REMARK INTRA:                  -4.385
REMARK UNBOUND:                -4.277
REMARK SMILES CCCCCCCCCCCCCCCCCCCCCCCC(=O)[O-]
REMARK SMILES IDX 13 1 14 2 15 3 16 4 17 5 18 6 19 7 20 8 21 9 22 10 23 11
REMARK SMILES IDX 24 12 25 13 26 14 12 15 11 16 10 17 9 18 8 19 7 20 6 21 5 22
REMARK SMILES IDX 4 23 3 24 2 25 1 26
REMARK H PARENT
REMARK Flexibility Score: inf
ROOT
ATOM      1  C   UNL     1     -23.203  57.758  30.424  1.00  0.00     0.000 C 
ENDROOT
BRANCH   1   2
ATOM      2  C   UNL     1     -23.530  58.005  28.939  1.00  0.00     0.000 C 
BRANCH   2   3
ATOM      3  C   UNL     1     -22.731  59.141  28.272  1.00  0.00     0.000 C 
BRANCH   3   4
ATOM      4  C   UNL     1     -23.621  60.294  27.783  1.00  0.00     0.000 C 
BRANCH   4   5
ATOM      5  C   UNL     1     -23.259  61.606  28.495  1.00  0.00     0.000 C 
BRANCH   5   6
ATOM      6  C   UNL     1     -24.424  62.165  29.329  1.00  0.00     0.000 C 
BRANCH   6   7
ATOM      7  C   UNL     1     -23.961  62.776  30.659  1.00  0.00     0.000 C 
BRANCH   7   8
ATOM      8  C   UNL     1     -23.065  61.793  31.429  1.00  0.00     0.000 C 
BRANCH   8   9
ATOM      9  C   UNL     1     -21.649  62.340  31.682  1.00  0.00     0.000 C 
BRANCH   9  10
ATOM     10  C   UNL     1     -20.544  61.725  30.798  1.00  0.00     0.006 C 
BRANCH  10  11
ATOM     11  C   UNL     1     -20.446  60.193  30.872  1.00  0.00     0.053 C 
BRANCH  11  12
ATOM     12  C   UNL     1     -19.024  59.720  30.858  1.00  0.00     0.041 C 
ATOM     13  O   UNL     1     -18.740  58.578  30.413  1.00  0.00    -0.550 OA
ATOM     14  O   UNL     1     -18.016  60.531  31.365  1.00  0.00    -0.550 OA
ENDBRANCH  11  12
ENDBRANCH  10  11
ENDBRANCH   9  10
ENDBRANCH   8   9
ENDBRANCH   7   8
ENDBRANCH   6   7
ENDBRANCH   5   6
ENDBRANCH   4   5
ENDBRANCH   3   4
ENDBRANCH   2   3
ENDBRANCH   1   2
BRANCH   1  15
ATOM     15  C   UNL     1     -24.274  58.240  31.422  1.00  0.00     0.000 C 
BRANCH  15  16
ATOM     16  C   UNL     1     -25.474  58.953  30.764  1.00  0.00     0.000 C 
BRANCH  16  17
ATOM     17  C   UNL     1     -26.324  59.744  31.771  1.00  0.00     0.000 C 
BRANCH  17  18
ATOM     18  C   UNL     1     -25.763  59.601  33.192  1.00  0.00    -0.000 C 
BRANCH  18  19
ATOM     19  C   UNL     1     -25.915  60.904  33.985  1.00  0.00    -0.000 C 
BRANCH  19  20
ATOM     20  C   UNL     1     -24.955  60.932  35.181  1.00  0.00    -0.000 C 
BRANCH  20  21
ATOM     21  C   UNL     1     -23.551  60.458  34.774  1.00  0.00    -0.000 C 
BRANCH  21  22
ATOM     22  C   UNL     1     -22.462  60.957  35.739  1.00  0.00    -0.000 C 
BRANCH  22  23
ATOM     23  C   UNL     1     -21.736  62.232  35.247  1.00  0.00    -0.000 C 
BRANCH  23  24
ATOM     24  C   UNL     1     -20.209  62.067  35.142  1.00  0.00    -0.000 C 
BRANCH  24  25
ATOM     25  C   UNL     1     -19.757  60.751  34.486  1.00  0.00    -0.003 C 
ATOM     26  C   UNL     1     -18.905  59.886  35.416  1.00  0.00     0.004 C 
ENDBRANCH  24  25
ENDBRANCH  23  24
ENDBRANCH  22  23
ENDBRANCH  21  22
ENDBRANCH  20  21
ENDBRANCH  19  20
ENDBRANCH  18  19
ENDBRANCH  17  18
ENDBRANCH  16  17
ENDBRANCH  15  16
ENDBRANCH   1  15
TORSDOF 22
ENDMDL
MODEL 5
REMARK VINA RESULT:    -4.648      2.481      3.801
REMARK INTER + INTRA:         -14.903
REMARK INTER:                 -10.603
REMARK INTRA:                  -4.300
REMARK UNBOUND:                -4.277
REMARK SMILES CCCCCCCCCCCCCCCCCCCCCCCC(=O)[O-]
REMARK SMILES IDX 13 1 14 2 15 3 16 4 17 5 18 6 19 7 20 8 21 9 22 10 23 11
REMARK SMILES IDX 24 12 25 13 26 14 12 15 11 16 10 17 9 18 8 19 7 20 6 21 5 22
REMARK SMILES IDX 4 23 3 24 2 25 1 26
REMARK H PARENT
REMARK Flexibility Score: inf
ROOT
ATOM      1  C   UNL     1     -21.882  61.350  28.517  1.00  0.00     0.000 C 
ENDROOT
BRANCH   1   2
ATOM      2  C   UNL     1     -23.393  61.633  28.617  1.00  0.00     0.000 C 
BRANCH   2   3
ATOM      3  C   UNL     1     -23.841  62.347  29.906  1.00  0.00     0.000 C 
BRANCH   3   4
ATOM      4  C   UNL     1     -24.919  61.572  30.679  1.00  0.00     0.000 C 
BRANCH   4   5
ATOM      5  C   UNL     1     -25.521  60.457  29.811  1.00  0.00     0.000 C 
BRANCH   5   6
ATOM      6  C   UNL     1     -25.611  59.115  30.555  1.00  0.00     0.000 C 
BRANCH   6   7
ATOM      7  C   UNL     1     -24.312  58.756  31.291  1.00  0.00     0.000 C 
BRANCH   7   8
ATOM      8  C   UNL     1     -23.655  57.517  30.665  1.00  0.00     0.000 C 
BRANCH   8   9
ATOM      9  C   UNL     1     -22.649  57.865  29.553  1.00  0.00     0.000 C 
BRANCH   9  10
ATOM     10  C   UNL     1     -22.914  57.180  28.196  1.00  0.00     0.006 C 
BRANCH  10  11
ATOM     11  C   UNL     1     -23.199  58.147  27.036  1.00  0.00     0.053 C 
BRANCH  11  12
ATOM     12  C   UNL     1     -22.626  57.656  25.742  1.00  0.00     0.041 C 
ATOM     13  O   UNL     1     -22.569  56.423  25.500  1.00  0.00    -0.550 OA
ATOM     14  O   UNL     1     -22.127  58.563  24.814  1.00  0.00    -0.550 OA
ENDBRANCH  11  12
ENDBRANCH  10  11
ENDBRANCH   9  10
ENDBRANCH   8   9
ENDBRANCH   7   8
ENDBRANCH   6   7
ENDBRANCH   5   6
ENDBRANCH   4   5
ENDBRANCH   3   4
ENDBRANCH   2   3
ENDBRANCH   1   2
BRANCH   1  15
ATOM     15  C   UNL     1     -21.056  61.735  29.759  1.00  0.00     0.000 C 
BRANCH  15  16
ATOM     16  C   UNL     1     -20.612  60.533  30.619  1.00  0.00     0.000 C 
BRANCH  16  17
ATOM     17  C   UNL     1     -21.153  60.593  32.056  1.00  0.00     0.000 C 
BRANCH  17  18
ATOM     18  C   UNL     1     -21.102  62.027  32.599  1.00  0.00    -0.000 C 
BRANCH  18  19
ATOM     19  C   UNL     1     -20.640  62.053  34.061  1.00  0.00    -0.000 C 
BRANCH  19  20
ATOM     20  C   UNL     1     -21.832  62.233  35.009  1.00  0.00    -0.000 C 
BRANCH  20  21
ATOM     21  C   UNL     1     -22.150  60.926  35.753  1.00  0.00    -0.000 C 
BRANCH  21  22
ATOM     22  C   UNL     1     -23.643  60.562  35.684  1.00  0.00    -0.000 C 
BRANCH  22  23
ATOM     23  C   UNL     1     -24.299  60.892  34.323  1.00  0.00    -0.000 C 
BRANCH  23  24
ATOM     24  C   UNL     1     -25.738  60.359  34.189  1.00  0.00    -0.000 C 
BRANCH  24  25
ATOM     25  C   UNL     1     -26.795  61.446  33.930  1.00  0.00    -0.003 C 
ATOM     26  C   UNL     1     -27.875  61.001  32.943  1.00  0.00     0.004 C 
ENDBRANCH  24  25
ENDBRANCH  23  24
ENDBRANCH  22  23
ENDBRANCH  21  22
ENDBRANCH  20  21
ENDBRANCH  19  20
ENDBRANCH  18  19
ENDBRANCH  17  18
ENDBRANCH  16  17
ENDBRANCH  15  16
ENDBRANCH   1  15
TORSDOF 22
ENDMDL
MODEL 6
REMARK VINA RESULT:    -4.616      2.292      6.035
REMARK INTER + INTRA:         -14.828
REMARK INTER:                 -10.445
REMARK INTRA:                  -4.384
REMARK UNBOUND:                -4.277
REMARK SMILES CCCCCCCCCCCCCCCCCCCCCCCC(=O)[O-]
REMARK SMILES IDX 13 1 14 2 15 3 16 4 17 5 18 6 19 7 20 8 21 9 22 10 23 11
REMARK SMILES IDX 24 12 25 13 26 14 12 15 11 16 10 17 9 18 8 19 7 20 6 21 5 22
REMARK SMILES IDX 4 23 3 24 2 25 1 26
REMARK H PARENT
REMARK Flexibility Score: inf
ROOT
ATOM      1  C   UNL     1     -20.838  60.799  28.603  1.00  0.00     0.000 C 
ENDROOT
BRANCH   1   2
ATOM      2  C   UNL     1     -20.131  61.677  29.654  1.00  0.00     0.000 C 
BRANCH   2   3
ATOM      3  C   UNL     1     -20.424  61.306  31.120  1.00  0.00     0.000 C 
BRANCH   3   4
ATOM      4  C   UNL     1     -21.302  62.342  31.838  1.00  0.00     0.000 C 
BRANCH   4   5
ATOM      5  C   UNL     1     -21.367  62.055  33.346  1.00  0.00     0.000 C 
BRANCH   5   6
ATOM      6  C   UNL     1     -21.257  60.556  33.666  1.00  0.00     0.000 C 
BRANCH   6   7
ATOM      7  C   UNL     1     -22.194  60.121  34.803  1.00  0.00     0.000 C 
BRANCH   7   8
ATOM      8  C   UNL     1     -22.955  61.328  35.374  1.00  0.00     0.000 C 
BRANCH   8   9
ATOM      9  C   UNL     1     -24.484  61.166  35.300  1.00  0.00     0.000 C 
BRANCH   9  10
ATOM     10  C   UNL     1     -25.000  60.405  34.062  1.00  0.00     0.006 C 
BRANCH  10  11
ATOM     11  C   UNL     1     -26.520  60.178  34.039  1.00  0.00     0.053 C 
BRANCH  11  12
ATOM     12  C   UNL     1     -27.231  61.213  33.222  1.00  0.00     0.041 C 
ATOM     13  O   UNL     1     -27.578  60.960  32.040  1.00  0.00    -0.550 OA
ATOM     14  O   UNL     1     -27.484  62.470  33.759  1.00  0.00    -0.550 OA
ENDBRANCH  11  12
ENDBRANCH  10  11
ENDBRANCH   9  10
ENDBRANCH   8   9
ENDBRANCH   7   8
ENDBRANCH   6   7
ENDBRANCH   5   6
ENDBRANCH   4   5
ENDBRANCH   3   4
ENDBRANCH   2   3
ENDBRANCH   1   2
BRANCH   1  15
ATOM     15  C   UNL     1     -21.916  61.514  27.765  1.00  0.00     0.000 C 
BRANCH  15  16
ATOM     16  C   UNL     1     -23.362  61.110  28.123  1.00  0.00     0.000 C 
BRANCH  16  17
ATOM     17  C   UNL     1     -24.002  62.041  29.166  1.00  0.00     0.000 C 
BRANCH  17  18
ATOM     18  C   UNL     1     -24.499  61.244  30.378  1.00  0.00    -0.000 C 
BRANCH  18  19
ATOM     19  C   UNL     1     -24.330  59.735  30.160  1.00  0.00    -0.000 C 
BRANCH  19  20
ATOM     20  C   UNL     1     -23.425  59.124  31.238  1.00  0.00    -0.000 C 
BRANCH  20  21
ATOM     21  C   UNL     1     -22.420  58.137  30.622  1.00  0.00    -0.000 C 
BRANCH  21  22
ATOM     22  C   UNL     1     -23.056  56.770  30.317  1.00  0.00    -0.000 C 
BRANCH  22  23
ATOM     23  C   UNL     1     -22.879  56.319  28.848  1.00  0.00    -0.000 C 
BRANCH  23  24
ATOM     24  C   UNL     1     -22.416  57.449  27.910  1.00  0.00    -0.000 C 
BRANCH  24  25
ATOM     25  C   UNL     1     -23.184  57.523  26.579  1.00  0.00    -0.003 C 
ATOM     26  C   UNL     1     -22.407  58.257  25.485  1.00  0.00     0.004 C 
ENDBRANCH  24  25
ENDBRANCH  23  24
ENDBRANCH  22  23
ENDBRANCH  21  22
ENDBRANCH  20  21
ENDBRANCH  19  20
ENDBRANCH  18  19
ENDBRANCH  17  18
ENDBRANCH  16  17
ENDBRANCH  15  16
ENDBRANCH   1  15
TORSDOF 22
ENDMDL
MODEL 7
REMARK VINA RESULT:    -4.606      2.029      5.330
REMARK INTER + INTRA:         -14.806
REMARK INTER:                 -10.978
REMARK INTRA:                  -3.828
REMARK UNBOUND:                -4.277
REMARK SMILES CCCCCCCCCCCCCCCCCCCCCCCC(=O)[O-]
REMARK SMILES IDX 13 1 14 2 15 3 16 4 17 5 18 6 19 7 20 8 21 9 22 10 23 11
REMARK SMILES IDX 24 12 25 13 26 14 12 15 11 16 10 17 9 18 8 19 7 20 6 21 5 22
REMARK SMILES IDX 4 23 3 24 2 25 1 26
REMARK H PARENT
REMARK Flexibility Score: inf
ROOT
ATOM      1  C   UNL     1     -26.123  61.173  30.723  1.00  0.00     0.000 C 
ENDROOT
BRANCH   1   2
ATOM      2  C   UNL     1     -25.361  62.507  30.845  1.00  0.00     0.000 C 
BRANCH   2   3
ATOM      3  C   UNL     1     -24.080  62.609  29.996  1.00  0.00     0.000 C 
BRANCH   3   4
ATOM      4  C   UNL     1     -23.780  61.327  29.204  1.00  0.00     0.000 C 
BRANCH   4   5
ATOM      5  C   UNL     1     -23.233  61.660  27.808  1.00  0.00     0.000 C 
BRANCH   5   6
ATOM      6  C   UNL     1     -21.697  61.646  27.757  1.00  0.00     0.000 C 
BRANCH   6   7
ATOM      7  C   UNL     1     -21.073  60.852  28.913  1.00  0.00     0.000 C 
BRANCH   7   8
ATOM      8  C   UNL     1     -20.071  61.718  29.692  1.00  0.00     0.000 C 
BRANCH   8   9
ATOM      9  C   UNL     1     -20.671  62.336  30.967  1.00  0.00     0.000 C 
BRANCH   9  10
ATOM     10  C   UNL     1     -20.607  61.438  32.220  1.00  0.00     0.006 C 
BRANCH  10  11
ATOM     11  C   UNL     1     -20.694  62.195  33.554  1.00  0.00     0.053 C 
BRANCH  11  12
ATOM     12  C   UNL     1     -19.947  61.494  34.648  1.00  0.00     0.041 C 
ATOM     13  O   UNL     1     -19.135  60.574  34.373  1.00  0.00    -0.550 OA
ATOM     14  O   UNL     1     -20.174  61.837  35.975  1.00  0.00    -0.550 OA
ENDBRANCH  11  12
ENDBRANCH  10  11
ENDBRANCH   9  10
ENDBRANCH   8   9
ENDBRANCH   7   8
ENDBRANCH   6   7
ENDBRANCH   5   6
ENDBRANCH   4   5
ENDBRANCH   3   4
ENDBRANCH   2   3
ENDBRANCH   1   2
BRANCH   1  15
ATOM     15  C   UNL     1     -26.998  60.801  31.936  1.00  0.00     0.000 C 
BRANCH  15  16
ATOM     16  C   UNL     1     -27.376  62.000  32.831  1.00  0.00     0.000 C 
BRANCH  16  17
ATOM     17  C   UNL     1     -27.094  61.746  34.320  1.00  0.00     0.000 C 
BRANCH  17  18
ATOM     18  C   UNL     1     -26.108  60.584  34.500  1.00  0.00    -0.000 C 
BRANCH  18  19
ATOM     19  C   UNL     1     -24.852  61.032  35.257  1.00  0.00    -0.000 C 
BRANCH  19  20
ATOM     20  C   UNL     1     -23.591  60.418  34.635  1.00  0.00    -0.000 C 
BRANCH  20  21
ATOM     21  C   UNL     1     -23.813  60.084  33.152  1.00  0.00    -0.000 C 
BRANCH  21  22
ATOM     22  C   UNL     1     -23.381  58.648  32.805  1.00  0.00    -0.000 C 
BRANCH  22  23
ATOM     23  C   UNL     1     -22.731  58.518  31.407  1.00  0.00    -0.000 C 
BRANCH  23  24
ATOM     24  C   UNL     1     -23.634  57.819  30.373  1.00  0.00    -0.000 C 
BRANCH  24  25
ATOM     25  C   UNL     1     -23.036  57.745  28.958  1.00  0.00    -0.003 C 
ATOM     26  C   UNL     1     -22.897  56.310  28.446  1.00  0.00     0.004 C 
ENDBRANCH  24  25
ENDBRANCH  23  24
ENDBRANCH  22  23
ENDBRANCH  21  22
ENDBRANCH  20  21
ENDBRANCH  19  20
ENDBRANCH  18  19
ENDBRANCH  17  18
ENDBRANCH  16  17
ENDBRANCH  15  16
ENDBRANCH   1  15
TORSDOF 22
ENDMDL
MODEL 8
REMARK VINA RESULT:    -4.605      2.046      6.390
REMARK INTER + INTRA:         -14.804
REMARK INTER:                 -10.531
REMARK INTRA:                  -4.273
REMARK UNBOUND:                -4.277
REMARK SMILES CCCCCCCCCCCCCCCCCCCCCCCC(=O)[O-]
REMARK SMILES IDX 13 1 14 2 15 3 16 4 17 5 18 6 19 7 20 8 21 9 22 10 23 11
REMARK SMILES IDX 24 12 25 13 26 14 12 15 11 16 10 17 9 18 8 19 7 20 6 21 5 22
REMARK SMILES IDX 4 23 3 24 2 25 1 26
REMARK H PARENT
REMARK Flexibility Score: inf
ROOT
ATOM      1  C   UNL     1     -25.842  60.871  30.765  1.00  0.00     0.000 C 
ENDROOT
BRANCH   1   2
ATOM      2  C   UNL     1     -26.049  59.926  31.964  1.00  0.00     0.000 C 
BRANCH   2   3
ATOM      3  C   UNL     1     -26.969  60.469  33.074  1.00  0.00     0.000 C 
BRANCH   3   4
ATOM      4  C   UNL     1     -26.234  60.704  34.402  1.00  0.00     0.000 C 
BRANCH   4   5
ATOM      5  C   UNL     1     -24.733  60.412  34.258  1.00  0.00     0.000 C 
BRANCH   5   6
ATOM      6  C   UNL     1     -23.923  60.870  35.481  1.00  0.00     0.000 C 
BRANCH   6   7
ATOM      7  C   UNL     1     -22.591  61.531  35.097  1.00  0.00     0.000 C 
BRANCH   7   8
ATOM      8  C   UNL     1     -22.314  61.368  33.595  1.00  0.00     0.000 C 
BRANCH   8   9
ATOM      9  C   UNL     1     -20.992  62.022  33.151  1.00  0.00     0.000 C 
BRANCH   9  10
ATOM     10  C   UNL     1     -19.778  61.716  34.052  1.00  0.00     0.006 C 
BRANCH  10  11
ATOM     11  C   UNL     1     -19.300  60.256  34.007  1.00  0.00     0.053 C 
BRANCH  11  12
ATOM     12  C   UNL     1     -18.980  59.726  35.371  1.00  0.00     0.041 C 
ATOM     13  O   UNL     1     -19.885  59.623  36.239  1.00  0.00    -0.550 OA
ATOM     14  O   UNL     1     -17.675  59.375  35.692  1.00  0.00    -0.550 OA
ENDBRANCH  11  12
ENDBRANCH  10  11
ENDBRANCH   9  10
ENDBRANCH   8   9
ENDBRANCH   7   8
ENDBRANCH   6   7
ENDBRANCH   5   6
ENDBRANCH   4   5
ENDBRANCH   3   4
ENDBRANCH   2   3
ENDBRANCH   1   2
BRANCH   1  15
ATOM     15  C   UNL     1     -25.428  62.311  31.126  1.00  0.00     0.000 C 
BRANCH  15  16
ATOM     16  C   UNL     1     -24.391  62.928  30.164  1.00  0.00     0.000 C 
BRANCH  16  17
ATOM     17  C   UNL     1     -23.143  62.048  29.986  1.00  0.00     0.000 C 
BRANCH  17  18
ATOM     18  C   UNL     1     -22.887  61.756  28.502  1.00  0.00    -0.000 C 
BRANCH  18  19
ATOM     19  C   UNL     1     -21.434  61.330  28.261  1.00  0.00    -0.000 C 
BRANCH  19  20
ATOM     20  C   UNL     1     -20.537  61.759  29.429  1.00  0.00    -0.000 C 
BRANCH  20  21
ATOM     21  C   UNL     1     -19.775  60.557  30.011  1.00  0.00    -0.000 C 
BRANCH  21  22
ATOM     22  C   UNL     1     -20.544  59.236  29.836  1.00  0.00    -0.000 C 
BRANCH  22  23
ATOM     23  C   UNL     1     -21.458  58.890  31.035  1.00  0.00    -0.000 C 
BRANCH  23  24
ATOM     24  C   UNL     1     -22.883  58.478  30.622  1.00  0.00    -0.000 C 
BRANCH  24  25
ATOM     25  C   UNL     1     -22.953  57.643  29.331  1.00  0.00    -0.003 C 
ATOM     26  C   UNL     1     -23.694  58.357  28.201  1.00  0.00     0.004 C 
ENDBRANCH  24  25
ENDBRANCH  23  24
ENDBRANCH  22  23
ENDBRANCH  21  22
ENDBRANCH  20  21
ENDBRANCH  19  20
ENDBRANCH  18  19
ENDBRANCH  17  18
ENDBRANCH  16  17
ENDBRANCH  15  16
ENDBRANCH   1  15
TORSDOF 22
ENDMDL
MODEL 9
REMARK VINA RESULT:    -4.603      2.199      6.111
REMARK INTER + INTRA:         -14.800
REMARK INTER:                 -10.359
REMARK INTRA:                  -4.441
REMARK UNBOUND:                -4.277
REMARK SMILES CCCCCCCCCCCCCCCCCCCCCCCC(=O)[O-]
REMARK SMILES IDX 13 1 14 2 15 3 16 4 17 5 18 6 19 7 20 8 21 9 22 10 23 11
REMARK SMILES IDX 24 12 25 13 26 14 12 15 11 16 10 17 9 18 8 19 7 20 6 21 5 22
REMARK SMILES IDX 4 23 3 24 2 25 1 26
REMARK H PARENT
REMARK Flexibility Score: inf
ROOT
ATOM      1  C   UNL     1     -26.216  60.124  33.610  1.00  0.00     0.000 C 
ENDROOT
BRANCH   1   2
ATOM      2  C   UNL     1     -25.960  61.038  34.823  1.00  0.00     0.000 C 
BRANCH   2   3
ATOM      3  C   UNL     1     -24.490  61.131  35.274  1.00  0.00     0.000 C 
BRANCH   3   4
ATOM      4  C   UNL     1     -23.530  60.354  34.360  1.00  0.00     0.000 C 
BRANCH   4   5
ATOM      5  C   UNL     1     -22.425  61.272  33.818  1.00  0.00     0.000 C 
BRANCH   5   6
ATOM      6  C   UNL     1     -22.384  61.302  32.282  1.00  0.00     0.000 C 
BRANCH   6   7
ATOM      7  C   UNL     1     -21.468  62.406  31.734  1.00  0.00     0.000 C 
BRANCH   7   8
ATOM      8  C   UNL     1     -20.700  61.915  30.497  1.00  0.00     0.000 C 
BRANCH   8   9
ATOM      9  C   UNL     1     -20.526  60.386  30.464  1.00  0.00     0.000 C 
BRANCH   9  10
ATOM     10  C   UNL     1     -19.120  59.881  30.848  1.00  0.00     0.006 C 
BRANCH  10  11
ATOM     11  C   UNL     1     -18.933  59.585  32.344  1.00  0.00     0.053 C 
BRANCH  11  12
ATOM     12  C   UNL     1     -17.701  58.774  32.607  1.00  0.00     0.041 C 
ATOM     13  O   UNL     1     -17.636  58.028  33.618  1.00  0.00    -0.550 OA
ATOM     14  O   UNL     1     -16.611  58.868  31.750  1.00  0.00    -0.550 OA
ENDBRANCH  11  12
ENDBRANCH  10  11
ENDBRANCH   9  10
ENDBRANCH   8   9
ENDBRANCH   7   8
ENDBRANCH   6   7
ENDBRANCH   5   6
ENDBRANCH   4   5
ENDBRANCH   3   4
ENDBRANCH   2   3
ENDBRANCH   1   2
BRANCH   1  15
ATOM     15  C   UNL     1     -26.952  60.788  32.430  1.00  0.00     0.000 C 
BRANCH  15  16
ATOM     16  C   UNL     1     -26.047  61.098  31.218  1.00  0.00     0.000 C 
BRANCH  16  17
ATOM     17  C   UNL     1     -25.517  62.540  31.222  1.00  0.00     0.000 C 
BRANCH  17  18
ATOM     18  C   UNL     1     -24.759  62.847  29.924  1.00  0.00    -0.000 C 
BRANCH  18  19
ATOM     19  C   UNL     1     -24.549  61.579  29.088  1.00  0.00    -0.000 C 
BRANCH  19  20
ATOM     20  C   UNL     1     -23.375  61.752  28.116  1.00  0.00    -0.000 C 
BRANCH  20  21
ATOM     21  C   UNL     1     -22.818  60.389  27.674  1.00  0.00    -0.000 C 
BRANCH  21  22
ATOM     22  C   UNL     1     -23.725  59.221  28.097  1.00  0.00    -0.000 C 
BRANCH  22  23
ATOM     23  C   UNL     1     -22.959  57.901  28.350  1.00  0.00    -0.000 C 
BRANCH  23  24
ATOM     24  C   UNL     1     -22.818  57.549  29.842  1.00  0.00    -0.000 C 
BRANCH  24  25
ATOM     25  C   UNL     1     -23.847  58.236  30.756  1.00  0.00    -0.003 C 
ATOM     26  C   UNL     1     -23.972  57.562  32.123  1.00  0.00     0.004 C 
ENDBRANCH  24  25
ENDBRANCH  23  24
ENDBRANCH  22  23
ENDBRANCH  21  22
ENDBRANCH  20  21
ENDBRANCH  19  20
ENDBRANCH  18  19
ENDBRANCH  17  18
ENDBRANCH  16  17
ENDBRANCH  15  16
ENDBRANCH   1  15
TORSDOF 22
ENDMDL
