MODEL 1
REMARK VINA RESULT:    -3.254      0.000      0.000
REMARK INTER + INTRA:          -3.540
REMARK INTER:                  -3.540
REMARK INTRA:                   0.000
REMARK UNBOUND:                 0.000
REMARK SMILES [NH3+]CC(=O)[O-]
REMARK SMILES IDX 2 1 1 2 3 6 4 7 5 8
REMARK H PARENT 1 3 1 4 1 5
REMARK Flexibility Score: inf
ROOT
ATOM      1  C   UNL     1      21.714   3.278  34.559  1.00  0.00     0.312 C 
ENDROOT
BRANCH   1   2
ATOM      2  N   UNL     1      22.886   4.109  34.285  1.00  0.00    -0.353 N 
ATOM      3  H   UNL     1      22.596   5.112  34.266  1.00  0.00     0.344 HD
ATOM      4  H   UNL     1      23.295   3.857  33.356  1.00  0.00     0.344 HD
ATOM      5  H   UNL     1      23.603   3.975  35.035  1.00  0.00     0.344 HD
ENDBRANCH   1   2
BRANCH   1   6
ATOM      6  C   UNL     1      20.639   3.531  33.547  1.00  0.00     0.096 C 
ATOM      7  O   UNL     1      19.430   3.548  33.900  1.00  0.00    -0.544 OA
ATOM      8  O   UNL     1      20.968   3.695  32.209  1.00  0.00    -0.544 OA
ENDBRANCH   1   6
TORSDOF 2
ENDMDL
MODEL 2
REMARK VINA RESULT:    -3.239      2.358      2.850
REMARK INTER + INTRA:          -3.523
REMARK INTER:                  -3.523
REMARK INTRA:                   0.000
REMARK UNBOUND:                 0.000
REMARK SMILES [NH3+]CC(=O)[O-]
REMARK SMILES IDX 2 1 1 2 3 6 4 7 5 8
REMARK H PARENT 1 3 1 4 1 5
REMARK Flexibility Score: inf
ROOT
ATOM      1  C   UNL     1      20.815   3.642  32.982  1.00  0.00     0.312 C 
ENDROOT
BRANCH   1   2
ATOM      2  N   UNL     1      19.489   3.302  33.493  1.00  0.00    -0.353 N 
ATOM      3  H   UNL     1      19.131   2.462  32.985  1.00  0.00     0.344 HD
ATOM      4  H   UNL     1      18.829   4.099  33.336  1.00  0.00     0.344 HD
ATOM      5  H   UNL     1      19.543   3.085  34.515  1.00  0.00     0.344 HD
ENDBRANCH   1   2
BRANCH   1   6
ATOM      6  C   UNL     1      21.829   3.619  34.084  1.00  0.00     0.096 C 
ATOM      7  O   UNL     1      22.885   4.299  33.987  1.00  0.00    -0.544 OA
ATOM      8  O   UNL     1      21.632   2.808  35.193  1.00  0.00    -0.544 OA
ENDBRANCH   1   6
TORSDOF 2
ENDMDL
MODEL 3
REMARK VINA RESULT:    -3.175      2.212      2.399
REMARK INTER + INTRA:          -3.453
REMARK INTER:                  -3.453
REMARK INTRA:                   0.000
REMARK UNBOUND:                 0.000
REMARK SMILES [NH3+]CC(=O)[O-]
REMARK SMILES IDX 2 1 1 2 3 6 4 7 5 8
REMARK H PARENT 1 3 1 4 1 5
REMARK Flexibility Score: inf
ROOT
ATOM      1  C   UNL     1      20.437   3.680  33.677  1.00  0.00     0.312 C 
ENDROOT
BRANCH   1   2
ATOM      2  N   UNL     1      20.619   4.014  32.265  1.00  0.00    -0.353 N 
ATOM      3  H   UNL     1      19.988   4.809  32.018  1.00  0.00     0.344 HD
ATOM      4  H   UNL     1      20.375   3.190  31.667  1.00  0.00     0.344 HD
ATOM      5  H   UNL     1      21.610   4.297  32.088  1.00  0.00     0.344 HD
ENDBRANCH   1   2
BRANCH   1   6
ATOM      6  C   UNL     1      21.762   3.506  34.354  1.00  0.00     0.096 C 
ATOM      7  O   UNL     1      21.836   2.890  35.450  1.00  0.00    -0.544 OA
ATOM      8  O   UNL     1      22.904   4.068  33.801  1.00  0.00    -0.544 OA
ENDBRANCH   1   6
TORSDOF 2
ENDMDL
MODEL 4
REMARK VINA RESULT:    -2.697     12.737     12.927
REMARK INTER + INTRA:          -2.934
REMARK INTER:                  -2.934
REMARK INTRA:                   0.000
REMARK UNBOUND:                 0.000
REMARK SMILES [NH3+]CC(=O)[O-]
REMARK SMILES IDX 2 1 1 2 3 6 4 7 5 8
REMARK H PARENT 1 3 1 4 1 5
REMARK Flexibility Score: inf
ROOT
ATOM      1  C   UNL     1      30.990   4.828  41.405  1.00  0.00     0.312 C 
ENDROOT
BRANCH   1   2
ATOM      2  N   UNL     1      30.221   5.173  40.211  1.00  0.00    -0.353 N 
ATOM      3  H   UNL     1      29.220   5.309  40.476  1.00  0.00     0.344 HD
ATOM      4  H   UNL     1      30.283   4.400  39.508  1.00  0.00     0.344 HD
ATOM      5  H   UNL     1      30.586   6.060  39.793  1.00  0.00     0.344 HD
ENDBRANCH   1   2
BRANCH   1   6
ATOM      6  C   UNL     1      30.511   5.613  42.588  1.00  0.00     0.096 C 
ATOM      7  O   UNL     1      30.760   6.845  42.672  1.00  0.00    -0.544 OA
ATOM      8  O   UNL     1      29.836   4.974  43.619  1.00  0.00    -0.544 OA
ENDBRANCH   1   6
TORSDOF 2
ENDMDL
MODEL 5
REMARK VINA RESULT:    -2.481      8.424      8.702
REMARK INTER + INTRA:          -2.699
REMARK INTER:                  -2.699
REMARK INTRA:                   0.000
REMARK UNBOUND:                 0.000
REMARK SMILES [NH3+]CC(=O)[O-]
REMARK SMILES IDX 2 1 1 2 3 6 4 7 5 8
REMARK H PARENT 1 3 1 4 1 5
REMARK Flexibility Score: inf
ROOT
ATOM      1  C   UNL     1      14.348   9.519  32.979  1.00  0.00     0.312 C 
ENDROOT
BRANCH   1   2
ATOM      2  N   UNL     1      14.662   8.255  32.314  1.00  0.00    -0.353 N 
ATOM      3  H   UNL     1      15.356   7.729  32.890  1.00  0.00     0.344 HD
ATOM      4  H   UNL     1      15.075   8.440  31.370  1.00  0.00     0.344 HD
ATOM      5  H   UNL     1      13.795   7.678  32.213  1.00  0.00     0.344 HD
ENDBRANCH   1   2
BRANCH   1   6
ATOM      6  C   UNL     1      15.442   9.903  33.928  1.00  0.00     0.096 C 
ATOM      7  O   UNL     1      15.633   9.233  34.977  1.00  0.00    -0.544 OA
ATOM      8  O   UNL     1      16.213  11.030  33.679  1.00  0.00    -0.544 OA
ENDBRANCH   1   6
TORSDOF 2
ENDMDL
MODEL 6
REMARK VINA RESULT:    -2.344     12.414     12.610
REMARK INTER + INTRA:          -2.550
REMARK INTER:                  -2.550
REMARK INTRA:                   0.000
REMARK UNBOUND:                 0.000
REMARK SMILES [NH3+]CC(=O)[O-]
REMARK SMILES IDX 2 1 1 2 3 6 4 7 5 8
REMARK H PARENT 1 3 1 4 1 5
REMARK Flexibility Score: inf
ROOT
ATOM      1  C   UNL     1      11.262  -2.002  28.642  1.00  0.00     0.312 C 
ENDROOT
BRANCH   1   2
ATOM      2  N   UNL     1      12.195  -0.957  29.063  1.00  0.00    -0.353 N 
ATOM      3  H   UNL     1      12.510  -1.154  30.039  1.00  0.00     0.344 HD
ATOM      4  H   UNL     1      11.722  -0.024  29.040  1.00  0.00     0.344 HD
ATOM      5  H   UNL     1      13.029  -0.946  28.431  1.00  0.00     0.344 HD
ENDBRANCH   1   2
BRANCH   1   6
ATOM      6  C   UNL     1      11.866  -2.847  27.563  1.00  0.00     0.096 C 
ATOM      7  O   UNL     1      11.701  -2.541  26.353  1.00  0.00    -0.544 OA
ATOM      8  O   UNL     1      12.566  -4.000  27.893  1.00  0.00    -0.544 OA
ENDBRANCH   1   6
TORSDOF 2
ENDMDL
MODEL 7
REMARK VINA RESULT:    -2.343      8.576      8.942
REMARK INTER + INTRA:          -2.549
REMARK INTER:                  -2.549
REMARK INTRA:                   0.000
REMARK UNBOUND:                 0.000
REMARK SMILES [NH3+]CC(=O)[O-]
REMARK SMILES IDX 2 1 1 2 3 6 4 7 5 8
REMARK H PARENT 1 3 1 4 1 5
REMARK Flexibility Score: inf
ROOT
ATOM      1  C   UNL     1      15.274   9.665  34.116  1.00  0.00     0.312 C 
ENDROOT
BRANCH   1   2
ATOM      2  N   UNL     1      16.500  10.407  33.828  1.00  0.00    -0.353 N 
ATOM      3  H   UNL     1      17.309   9.746  33.834  1.00  0.00     0.344 HD
ATOM      4  H   UNL     1      16.656  11.140  34.559  1.00  0.00     0.344 HD
ATOM      5  H   UNL     1      16.434  10.857  32.886  1.00  0.00     0.344 HD
ENDBRANCH   1   2
BRANCH   1   6
ATOM      6  C   UNL     1      14.348   9.696  32.939  1.00  0.00     0.096 C 
ATOM      7  O   UNL     1      14.039  10.794  32.406  1.00  0.00    -0.544 OA
ATOM      8  O   UNL     1      13.788   8.518  32.464  1.00  0.00    -0.544 OA
ENDBRANCH   1   6
TORSDOF 2
ENDMDL
MODEL 8
REMARK VINA RESULT:    -2.270      8.357      8.713
REMARK INTER + INTRA:          -2.469
REMARK INTER:                  -2.469
REMARK INTRA:                   0.000
REMARK UNBOUND:                 0.000
REMARK SMILES [NH3+]CC(=O)[O-]
REMARK SMILES IDX 2 1 1 2 3 6 4 7 5 8
REMARK H PARENT 1 3 1 4 1 5
REMARK Flexibility Score: inf
ROOT
ATOM      1  C   UNL     1      27.181   8.527  28.235  1.00  0.00     0.312 C 
ENDROOT
BRANCH   1   2
ATOM      2  N   UNL     1      27.014   7.386  27.337  1.00  0.00    -0.353 N 
ATOM      3  H   UNL     1      26.637   7.723  26.423  1.00  0.00     0.344 HD
ATOM      4  H   UNL     1      26.340   6.700  27.749  1.00  0.00     0.344 HD
ATOM      5  H   UNL     1      27.936   6.920  27.174  1.00  0.00     0.344 HD
ENDBRANCH   1   2
BRANCH   1   6
ATOM      6  C   UNL     1      26.348   8.356  29.468  1.00  0.00     0.096 C 
ATOM      7  O   UNL     1      25.432   9.179  29.732  1.00  0.00    -0.544 OA
ATOM      8  O   UNL     1      26.617   7.318  30.350  1.00  0.00    -0.544 OA
ENDBRANCH   1   6
TORSDOF 2
ENDMDL
MODEL 9
REMARK VINA RESULT:    -2.170      8.395      8.640
REMARK INTER + INTRA:          -2.361
REMARK INTER:                  -2.361
REMARK INTRA:                   0.000
REMARK UNBOUND:                 0.000
REMARK SMILES [NH3+]CC(=O)[O-]
REMARK SMILES IDX 2 1 1 2 3 6 4 7 5 8
REMARK H PARENT 1 3 1 4 1 5
REMARK Flexibility Score: inf
ROOT
ATOM      1  C   UNL     1      26.676   7.466  30.136  1.00  0.00     0.312 C 
ENDROOT
BRANCH   1   2
ATOM      2  N   UNL     1      27.936   6.733  30.018  1.00  0.00    -0.353 N 
ATOM      3  H   UNL     1      28.575   7.254  29.377  1.00  0.00     0.344 HD
ATOM      4  H   UNL     1      27.761   5.781  29.621  1.00  0.00     0.344 HD
ATOM      5  H   UNL     1      28.389   6.646  30.957  1.00  0.00     0.344 HD
ENDBRANCH   1   2
BRANCH   1   6
ATOM      6  C   UNL     1      26.612   8.572  29.128  1.00  0.00     0.096 C 
ATOM      7  O   UNL     1      26.270   9.732  29.482  1.00  0.00    -0.544 OA
ATOM      8  O   UNL     1      26.877   8.310  27.791  1.00  0.00    -0.544 OA
ENDBRANCH   1   6
TORSDOF 2
ENDMDL
