MODEL 1
REMARK VINA RESULT:    -6.367      0.000      0.000
REMARK INTER + INTRA:          -7.472
REMARK INTER:                  -7.670
REMARK INTRA:                   0.198
REMARK UNBOUND:                 0.198
REMARK SMILES O=c1c(O)c(-c2ccc(O)c(O)c2)oc2cc(O)cc(O)c12
REMARK SMILES IDX 5 1 3 2 2 3 1 4 22 5 20 6 19 7 17 8 16 9 15 10 14 11 6 12
REMARK SMILES IDX 7 13 8 14 9 15 13 16 11 17 10 18 12 20 4 22 21 24 18 26
REMARK H PARENT 10 19 12 21 4 23 21 25 18 27
REMARK Flexibility Score: inf
ROOT
ATOM      1  C   UNL     1       9.882  -2.958  19.157  1.00  0.00     0.180 A 
ATOM      2  C   UNL     1      11.037  -2.360  18.618  1.00  0.00     0.208 A 
ATOM      3  C   UNL     1      11.032  -0.978  18.367  1.00  0.00     0.238 A 
ATOM      4  O   UNL     1      12.058  -0.434  17.874  1.00  0.00    -0.285 OA
ATOM      5  C   UNL     1       9.886  -0.218  18.676  1.00  0.00     0.111 A 
ATOM      6  C   UNL     1       9.801   1.178  18.458  1.00  0.00     0.134 A 
ATOM      7  C   UNL     1       8.628   1.866  18.801  1.00  0.00     0.093 A 
ATOM      8  C   UNL     1       7.540   1.184  19.358  1.00  0.00     0.123 A 
ATOM      9  C   UNL     1       7.619  -0.192  19.574  1.00  0.00     0.094 A 
ATOM     10  C   UNL     1       8.778  -0.896  19.237  1.00  0.00     0.146 A 
ATOM     11  O   UNL     1       8.824  -2.206  19.450  1.00  0.00    -0.452 OA
ENDROOT
BRANCH   1  12
ATOM     12  C   UNL     1       9.802  -4.411  19.431  1.00  0.00     0.025 A 
ATOM     13  C   UNL     1      10.917  -5.130  19.894  1.00  0.00     0.016 A 
ATOM     14  C   UNL     1      10.825  -6.505  20.124  1.00  0.00     0.051 A 
ATOM     15  C   UNL     1       9.627  -7.184  19.884  1.00  0.00     0.157 A 
ATOM     16  C   UNL     1       8.606  -5.099  19.171  1.00  0.00     0.062 A 
ATOM     17  C   UNL     1       8.511  -6.478  19.402  1.00  0.00     0.158 A 
BRANCH  15  18
ATOM     18  O   UNL     1       9.564  -8.556  20.125  1.00  0.00    -0.504 OA
ATOM     19  H   UNL     1       9.658  -8.944  21.056  1.00  0.00     0.293 HD
ENDBRANCH  15  18
BRANCH  17  20
ATOM     20  O   UNL     1       7.315  -7.150  19.153  1.00  0.00    -0.504 OA
ATOM     21  H   UNL     1       6.479  -6.964  19.696  1.00  0.00     0.293 HD
ENDBRANCH  17  20
ENDBRANCH   1  12
BRANCH   2  22
ATOM     22  O   UNL     1      12.177  -3.127  18.367  1.00  0.00    -0.502 OA
ATOM     23  H   UNL     1      12.989  -3.107  18.972  1.00  0.00     0.293 HD
ENDBRANCH   2  22
BRANCH   6  24
ATOM     24  O   UNL     1      10.871   1.885  17.905  1.00  0.00    -0.507 OA
ATOM     25  H   UNL     1      11.515   1.453  17.253  1.00  0.00     0.293 HD
ENDBRANCH   6  24
BRANCH   8  26
ATOM     26  O   UNL     1       6.375   1.867  19.699  1.00  0.00    -0.508 OA
ATOM     27  H   UNL     1       6.208   2.192  20.645  1.00  0.00     0.293 HD
ENDBRANCH   8  26
TORSDOF 6
ENDMDL
MODEL 2
REMARK VINA RESULT:    -6.333      1.499      6.616
REMARK INTER + INTRA:          -7.430
REMARK INTER:                  -7.375
REMARK INTRA:                  -0.056
REMARK UNBOUND:                 0.198
REMARK SMILES O=c1c(O)c(-c2ccc(O)c(O)c2)oc2cc(O)cc(O)c12
REMARK SMILES IDX 5 1 3 2 2 3 1 4 22 5 20 6 19 7 17 8 16 9 15 10 14 11 6 12
REMARK SMILES IDX 7 13 8 14 9 15 13 16 11 17 10 18 12 20 4 22 21 24 18 26
REMARK H PARENT 10 19 12 21 4 23 21 25 18 27
REMARK Flexibility Score: inf
ROOT
ATOM      1  C   UNL     1       9.523  -2.169  19.454  1.00  0.00     0.180 A 
ATOM      2  C   UNL     1      10.874  -2.558  19.526  1.00  0.00     0.208 A 
ATOM      3  C   UNL     1      11.180  -3.916  19.714  1.00  0.00     0.238 A 
ATOM      4  O   UNL     1      12.388  -4.274  19.791  1.00  0.00    -0.285 OA
ATOM      5  C   UNL     1      10.138  -4.859  19.807  1.00  0.00     0.111 A 
ATOM      6  C   UNL     1      10.361  -6.245  19.992  1.00  0.00     0.134 A 
ATOM      7  C   UNL     1       9.269  -7.122  20.066  1.00  0.00     0.093 A 
ATOM      8  C   UNL     1       7.960  -6.640  19.956  1.00  0.00     0.123 A 
ATOM      9  C   UNL     1       7.735  -5.275  19.774  1.00  0.00     0.094 A 
ATOM     10  C   UNL     1       8.809  -4.384  19.700  1.00  0.00     0.146 A 
ATOM     11  O   UNL     1       8.565  -3.090  19.530  1.00  0.00    -0.452 OA
ENDROOT
BRANCH   1  12
ATOM     12  C   UNL     1       9.119  -0.756  19.276  1.00  0.00     0.025 A 
ATOM     13  C   UNL     1       9.600   0.255  20.125  1.00  0.00     0.016 A 
ATOM     14  C   UNL     1       9.186   1.579  19.952  1.00  0.00     0.051 A 
ATOM     15  C   UNL     1       8.278   1.910  18.942  1.00  0.00     0.157 A 
ATOM     16  C   UNL     1       8.191  -0.424  18.275  1.00  0.00     0.062 A 
ATOM     17  C   UNL     1       7.776   0.904  18.100  1.00  0.00     0.158 A 
BRANCH  15  18
ATOM     18  O   UNL     1       7.885   3.240  18.793  1.00  0.00    -0.504 OA
ATOM     19  H   UNL     1       8.015   3.745  17.924  1.00  0.00     0.293 HD
ENDBRANCH  15  18
BRANCH  17  20
ATOM     20  O   UNL     1       6.864   1.226  17.095  1.00  0.00    -0.504 OA
ATOM     21  H   UNL     1       6.942   0.834  16.163  1.00  0.00     0.293 HD
ENDBRANCH  17  20
ENDBRANCH   1  12
BRANCH   2  22
ATOM     22  O   UNL     1      11.890  -1.610  19.381  1.00  0.00    -0.502 OA
ATOM     23  H   UNL     1      11.885  -0.918  18.642  1.00  0.00     0.293 HD
ENDBRANCH   2  22
BRANCH   6  24
ATOM     24  O   UNL     1      11.656  -6.755  20.104  1.00  0.00    -0.507 OA
ATOM     25  H   UNL     1      12.116  -6.849  21.002  1.00  0.00     0.293 HD
ENDBRANCH   6  24
BRANCH   8  26
ATOM     26  O   UNL     1       6.875  -7.511  20.028  1.00  0.00    -0.508 OA
ATOM     27  H   UNL     1       6.197  -7.577  19.277  1.00  0.00     0.293 HD
ENDBRANCH   8  26
TORSDOF 6
ENDMDL
MODEL 3
REMARK VINA RESULT:    -6.020      1.858      2.843
REMARK INTER + INTRA:          -7.054
REMARK INTER:                  -7.588
REMARK INTRA:                   0.534
REMARK UNBOUND:                 0.198
REMARK SMILES O=c1c(O)c(-c2ccc(O)c(O)c2)oc2cc(O)cc(O)c12
REMARK SMILES IDX 5 1 3 2 2 3 1 4 22 5 20 6 19 7 17 8 16 9 15 10 14 11 6 12
REMARK SMILES IDX 7 13 8 14 9 15 13 16 11 17 10 18 12 20 4 22 21 24 18 26
REMARK H PARENT 10 19 12 21 4 23 21 25 18 27
REMARK Flexibility Score: inf
ROOT
ATOM      1  C   UNL     1      10.234  -3.563  19.783  1.00  0.00     0.180 A 
ATOM      2  C   UNL     1      11.613  -3.847  19.758  1.00  0.00     0.208 A 
ATOM      3  C   UNL     1      12.524  -2.781  19.691  1.00  0.00     0.238 A 
ATOM      4  O   UNL     1      13.761  -3.024  19.657  1.00  0.00    -0.285 OA
ATOM      5  C   UNL     1      12.046  -1.455  19.671  1.00  0.00     0.111 A 
ATOM      6  C   UNL     1      12.897  -0.326  19.609  1.00  0.00     0.134 A 
ATOM      7  C   UNL     1      12.344   0.963  19.601  1.00  0.00     0.093 A 
ATOM      8  C   UNL     1      10.957   1.143  19.657  1.00  0.00     0.123 A 
ATOM      9  C   UNL     1      10.114   0.033  19.718  1.00  0.00     0.094 A 
ATOM     10  C   UNL     1      10.645  -1.260  19.724  1.00  0.00     0.146 A 
ATOM     11  O   UNL     1       9.820  -2.298  19.778  1.00  0.00    -0.452 OA
ENDROOT
BRANCH   1  12
ATOM     12  C   UNL     1       9.210  -4.632  19.834  1.00  0.00     0.025 A 
ATOM     13  C   UNL     1       7.849  -4.333  20.013  1.00  0.00     0.016 A 
ATOM     14  C   UNL     1       6.903  -5.360  20.082  1.00  0.00     0.051 A 
ATOM     15  C   UNL     1       7.302  -6.696  19.986  1.00  0.00     0.157 A 
ATOM     16  C   UNL     1       9.610  -5.976  19.758  1.00  0.00     0.062 A 
ATOM     17  C   UNL     1       8.663  -7.007  19.826  1.00  0.00     0.158 A 
BRANCH  15  18
ATOM     18  O   UNL     1       6.336  -7.699  20.056  1.00  0.00    -0.504 OA
ATOM     19  H   UNL     1       6.461  -8.600  19.608  1.00  0.00     0.293 HD
ENDBRANCH  15  18
BRANCH  17  20
ATOM     20  O   UNL     1       9.069  -8.339  19.736  1.00  0.00    -0.504 OA
ATOM     21  H   UNL     1       8.614  -8.990  19.107  1.00  0.00     0.293 HD
ENDBRANCH  17  20
ENDBRANCH   1  12
BRANCH   2  22
ATOM     22  O   UNL     1      12.062  -5.168  19.828  1.00  0.00    -0.502 OA
ATOM     23  H   UNL     1      11.496  -5.913  20.215  1.00  0.00     0.293 HD
ENDBRANCH   2  22
BRANCH   6  24
ATOM     24  O   UNL     1      14.284  -0.474  19.554  1.00  0.00    -0.507 OA
ATOM     25  H   UNL     1      14.855  -0.460  20.391  1.00  0.00     0.293 HD
ENDBRANCH   6  24
BRANCH   8  26
ATOM     26  O   UNL     1      10.407   2.422  19.651  1.00  0.00    -0.508 OA
ATOM     27  H   UNL     1      10.381   2.985  18.807  1.00  0.00     0.293 HD
ENDBRANCH   8  26
TORSDOF 6
ENDMDL
MODEL 4
REMARK VINA RESULT:    -5.887      2.843      5.075
REMARK INTER + INTRA:          -6.894
REMARK INTER:                  -7.370
REMARK INTRA:                   0.476
REMARK UNBOUND:                 0.198
REMARK SMILES O=c1c(O)c(-c2ccc(O)c(O)c2)oc2cc(O)cc(O)c12
REMARK SMILES IDX 5 1 3 2 2 3 1 4 22 5 20 6 19 7 17 8 16 9 15 10 14 11 6 12
REMARK SMILES IDX 7 13 8 14 9 15 13 16 11 17 10 18 12 20 4 22 21 24 18 26
REMARK H PARENT 10 19 12 21 4 23 21 25 18 27
REMARK Flexibility Score: inf
ROOT
ATOM      1  C   UNL     1      10.831  -4.376  19.630  1.00  0.00     0.180 A 
ATOM      2  C   UNL     1      10.739  -3.017  19.275  1.00  0.00     0.208 A 
ATOM      3  C   UNL     1      11.918  -2.261  19.175  1.00  0.00     0.238 A 
ATOM      4  O   UNL     1      11.848  -1.040  18.868  1.00  0.00    -0.285 OA
ATOM      5  C   UNL     1      13.164  -2.878  19.410  1.00  0.00     0.111 A 
ATOM      6  C   UNL     1      14.397  -2.189  19.326  1.00  0.00     0.134 A 
ATOM      7  C   UNL     1      15.596  -2.876  19.566  1.00  0.00     0.093 A 
ATOM      8  C   UNL     1      15.585  -4.238  19.887  1.00  0.00     0.123 A 
ATOM      9  C   UNL     1      14.371  -4.921  19.972  1.00  0.00     0.094 A 
ATOM     10  C   UNL     1      13.165  -4.254  19.738  1.00  0.00     0.146 A 
ATOM     11  O   UNL     1      12.025  -4.928  19.830  1.00  0.00    -0.452 OA
ENDROOT
BRANCH   1  12
ATOM     12  C   UNL     1       9.633  -5.235  19.775  1.00  0.00     0.025 A 
ATOM     13  C   UNL     1       9.733  -6.636  19.770  1.00  0.00     0.016 A 
ATOM     14  C   UNL     1       8.585  -7.427  19.884  1.00  0.00     0.051 A 
ATOM     15  C   UNL     1       7.325  -6.832  19.991  1.00  0.00     0.157 A 
ATOM     16  C   UNL     1       8.363  -4.640  19.862  1.00  0.00     0.062 A 
ATOM     17  C   UNL     1       7.212  -5.432  19.977  1.00  0.00     0.158 A 
BRANCH  15  18
ATOM     18  O   UNL     1       6.198  -7.647  20.106  1.00  0.00    -0.504 OA
ATOM     19  H   UNL     1       5.738  -8.045  19.296  1.00  0.00     0.293 HD
ENDBRANCH  15  18
BRANCH  17  20
ATOM     20  O   UNL     1       5.956  -4.832  20.076  1.00  0.00    -0.504 OA
ATOM     21  H   UNL     1       5.621  -4.445  20.950  1.00  0.00     0.293 HD
ENDBRANCH  17  20
ENDBRANCH   1  12
BRANCH   2  22
ATOM     22  O   UNL     1       9.497  -2.442  18.999  1.00  0.00    -0.502 OA
ATOM     23  H   UNL     1       8.808  -2.896  18.411  1.00  0.00     0.293 HD
ENDBRANCH   2  22
BRANCH   6  24
ATOM     24  O   UNL     1      14.441  -0.830  19.007  1.00  0.00    -0.507 OA
ATOM     25  H   UNL     1      13.596  -0.287  18.869  1.00  0.00     0.293 HD
ENDBRANCH   6  24
BRANCH   8  26
ATOM     26  O   UNL     1      16.775  -4.921  20.125  1.00  0.00    -0.508 OA
ATOM     27  H   UNL     1      17.506  -4.973  19.423  1.00  0.00     0.293 HD
ENDBRANCH   8  26
TORSDOF 6
ENDMDL
MODEL 5
REMARK VINA RESULT:    -5.679      2.485      3.981
REMARK INTER + INTRA:          -6.643
REMARK INTER:                  -6.551
REMARK INTRA:                  -0.092
REMARK UNBOUND:                 0.198
REMARK SMILES O=c1c(O)c(-c2ccc(O)c(O)c2)oc2cc(O)cc(O)c12
REMARK SMILES IDX 5 1 3 2 2 3 1 4 22 5 20 6 19 7 17 8 16 9 15 10 14 11 6 12
REMARK SMILES IDX 7 13 8 14 9 15 13 16 11 17 10 18 12 20 4 22 21 24 18 26
REMARK H PARENT 10 19 12 21 4 23 21 25 18 27
REMARK Flexibility Score: inf
ROOT
ATOM      1  C   UNL     1      10.371  -1.930  19.043  1.00  0.00     0.180 A 
ATOM      2  C   UNL     1       9.181  -2.427  18.478  1.00  0.00     0.208 A 
ATOM      3  C   UNL     1       8.075  -1.570  18.366  1.00  0.00     0.238 A 
ATOM      4  O   UNL     1       6.999  -2.007  17.872  1.00  0.00    -0.285 OA
ATOM      5  C   UNL     1       8.182  -0.232  18.798  1.00  0.00     0.111 A 
ATOM      6  C   UNL     1       7.116   0.696  18.715  1.00  0.00     0.134 A 
ATOM      7  C   UNL     1       7.305   2.013  19.159  1.00  0.00     0.093 A 
ATOM      8  C   UNL     1       8.538   2.419  19.681  1.00  0.00     0.123 A 
ATOM      9  C   UNL     1       9.591   1.507  19.765  1.00  0.00     0.094 A 
ATOM     10  C   UNL     1       9.423   0.190  19.330  1.00  0.00     0.146 A 
ATOM     11  O   UNL     1      10.440  -0.658  19.426  1.00  0.00    -0.452 OA
ENDROOT
BRANCH   1  12
ATOM     12  C   UNL     1      11.575  -2.776  19.213  1.00  0.00     0.025 A 
ATOM     13  C   UNL     1      11.524  -3.984  19.930  1.00  0.00     0.016 A 
ATOM     14  C   UNL     1      12.678  -4.754  20.098  1.00  0.00     0.051 A 
ATOM     15  C   UNL     1      13.898  -4.326  19.567  1.00  0.00     0.157 A 
ATOM     16  C   UNL     1      12.806  -2.338  18.699  1.00  0.00     0.062 A 
ATOM     17  C   UNL     1      13.964  -3.110  18.866  1.00  0.00     0.158 A 
BRANCH  15  18
ATOM     18  O   UNL     1      15.032  -5.117  19.750  1.00  0.00    -0.504 OA
ATOM     19  H   UNL     1      15.962  -4.719  19.809  1.00  0.00     0.293 HD
ENDBRANCH  15  18
BRANCH  17  20
ATOM     20  O   UNL     1      15.180  -2.673  18.341  1.00  0.00    -0.504 OA
ATOM     21  H   UNL     1      15.311  -2.543  17.344  1.00  0.00     0.293 HD
ENDBRANCH  17  20
ENDBRANCH   1  12
BRANCH   2  22
ATOM     22  O   UNL     1       9.116  -3.742  18.013  1.00  0.00    -0.502 OA
ATOM     23  H   UNL     1       9.562  -4.512  18.497  1.00  0.00     0.293 HD
ENDBRANCH   2  22
BRANCH   6  24
ATOM     24  O   UNL     1       5.875   0.321  18.198  1.00  0.00    -0.507 OA
ATOM     25  H   UNL     1       5.027   0.383  18.749  1.00  0.00     0.293 HD
ENDBRANCH   6  24
BRANCH   8  26
ATOM     26  O   UNL     1       8.726   3.727  20.121  1.00  0.00    -0.508 OA
ATOM     27  H   UNL     1       8.860   3.943  21.103  1.00  0.00     0.293 HD
ENDBRANCH   8  26
TORSDOF 6
ENDMDL
MODEL 6
REMARK VINA RESULT:    -5.529      3.056      6.246
REMARK INTER + INTRA:          -6.462
REMARK INTER:                  -6.986
REMARK INTRA:                   0.524
REMARK UNBOUND:                 0.198
REMARK SMILES O=c1c(O)c(-c2ccc(O)c(O)c2)oc2cc(O)cc(O)c12
REMARK SMILES IDX 5 1 3 2 2 3 1 4 22 5 20 6 19 7 17 8 16 9 15 10 14 11 6 12
REMARK SMILES IDX 7 13 8 14 9 15 13 16 11 17 10 18 12 20 4 22 21 24 18 26
REMARK H PARENT 10 19 12 21 4 23 21 25 18 27
REMARK Flexibility Score: inf
ROOT
ATOM      1  C   UNL     1      12.480  -3.518  19.249  1.00  0.00     0.180 A 
ATOM      2  C   UNL     1      11.705  -2.424  18.820  1.00  0.00     0.208 A 
ATOM      3  C   UNL     1      10.314  -2.581  18.709  1.00  0.00     0.238 A 
ATOM      4  O   UNL     1       9.610  -1.611  18.315  1.00  0.00    -0.285 OA
ATOM      5  C   UNL     1       9.722  -3.815  19.044  1.00  0.00     0.111 A 
ATOM      6  C   UNL     1       8.330  -4.054  18.963  1.00  0.00     0.134 A 
ATOM      7  C   UNL     1       7.816  -5.309  19.324  1.00  0.00     0.093 A 
ATOM      8  C   UNL     1       8.669  -6.327  19.765  1.00  0.00     0.123 A 
ATOM      9  C   UNL     1      10.043  -6.097  19.846  1.00  0.00     0.094 A 
ATOM     10  C   UNL     1      10.574  -4.854  19.489  1.00  0.00     0.146 A 
ATOM     11  O   UNL     1      11.885  -4.664  19.571  1.00  0.00    -0.452 OA
ENDROOT
BRANCH   1  12
ATOM     12  C   UNL     1      13.954  -3.438  19.374  1.00  0.00     0.025 A 
ATOM     13  C   UNL     1      14.693  -4.466  19.983  1.00  0.00     0.016 A 
ATOM     14  C   UNL     1      16.081  -4.357  20.112  1.00  0.00     0.051 A 
ATOM     15  C   UNL     1      16.747  -3.220  19.646  1.00  0.00     0.157 A 
ATOM     16  C   UNL     1      14.624  -2.288  18.926  1.00  0.00     0.062 A 
ATOM     17  C   UNL     1      16.016  -2.178  19.052  1.00  0.00     0.158 A 
BRANCH  15  18
ATOM     18  O   UNL     1      18.133  -3.142  19.786  1.00  0.00    -0.504 OA
ATOM     19  H   UNL     1      18.622  -2.255  19.808  1.00  0.00     0.293 HD
ENDBRANCH  15  18
BRANCH  17  20
ATOM     20  O   UNL     1      16.674  -1.038  18.593  1.00  0.00    -0.504 OA
ATOM     21  H   UNL     1      17.468  -0.648  19.088  1.00  0.00     0.293 HD
ENDBRANCH  17  20
ENDBRANCH   1  12
BRANCH   2  22
ATOM     22  O   UNL     1      12.310  -1.197  18.541  1.00  0.00    -0.502 OA
ATOM     23  H   UNL     1      11.784  -0.393  18.220  1.00  0.00     0.293 HD
ENDBRANCH   2  22
BRANCH   6  24
ATOM     24  O   UNL     1       7.454  -3.058  18.528  1.00  0.00    -0.507 OA
ATOM     25  H   UNL     1       6.725  -2.690  19.128  1.00  0.00     0.293 HD
ENDBRANCH   6  24
BRANCH   8  26
ATOM     26  O   UNL     1       8.160  -7.573  20.124  1.00  0.00    -0.508 OA
ATOM     27  H   UNL     1       7.973  -8.289  19.430  1.00  0.00     0.293 HD
ENDBRANCH   8  26
TORSDOF 6
ENDMDL
MODEL 7
REMARK VINA RESULT:    -5.522      1.653      6.661
REMARK INTER + INTRA:          -6.454
REMARK INTER:                  -6.362
REMARK INTRA:                  -0.093
REMARK UNBOUND:                 0.198
REMARK SMILES O=c1c(O)c(-c2ccc(O)c(O)c2)oc2cc(O)cc(O)c12
REMARK SMILES IDX 5 1 3 2 2 3 1 4 22 5 20 6 19 7 17 8 16 9 15 10 14 11 6 12
REMARK SMILES IDX 7 13 8 14 9 15 13 16 11 17 10 18 12 20 4 22 21 24 18 26
REMARK H PARENT 10 19 12 21 4 23 21 25 18 27
REMARK Flexibility Score: inf
ROOT
ATOM      1  C   UNL     1      10.592  -0.841  19.389  1.00  0.00     0.180 A 
ATOM      2  C   UNL     1      11.998  -0.771  19.339  1.00  0.00     0.208 A 
ATOM      3  C   UNL     1      12.742  -1.953  19.483  1.00  0.00     0.238 A 
ATOM      4  O   UNL     1      14.002  -1.900  19.451  1.00  0.00    -0.285 OA
ATOM      5  C   UNL     1      12.073  -3.181  19.654  1.00  0.00     0.111 A 
ATOM      6  C   UNL     1      12.748  -4.417  19.803  1.00  0.00     0.134 A 
ATOM      7  C   UNL     1      12.009  -5.599  19.960  1.00  0.00     0.093 A 
ATOM      8  C   UNL     1      10.610  -5.569  19.970  1.00  0.00     0.123 A 
ATOM      9  C   UNL     1       9.941  -4.353  19.824  1.00  0.00     0.094 A 
ATOM     10  C   UNL     1      10.658  -3.164  19.669  1.00  0.00     0.146 A 
ATOM     11  O   UNL     1       9.995  -2.021  19.537  1.00  0.00    -0.452 OA
ENDROOT
BRANCH   1  12
ATOM     12  C   UNL     1       9.739   0.362  19.265  1.00  0.00     0.025 A 
ATOM     13  C   UNL     1       9.901   1.466  20.119  1.00  0.00     0.016 A 
ATOM     14  C   UNL     1       9.067   2.581  19.998  1.00  0.00     0.051 A 
ATOM     15  C   UNL     1       8.055   2.607  19.034  1.00  0.00     0.157 A 
ATOM     16  C   UNL     1       8.707   0.382  18.311  1.00  0.00     0.062 A 
ATOM     17  C   UNL     1       7.871   1.500  18.188  1.00  0.00     0.158 A 
BRANCH  15  18
ATOM     18  O   UNL     1       7.240   3.734  18.936  1.00  0.00    -0.504 OA
ATOM     19  H   UNL     1       6.474   3.789  18.275  1.00  0.00     0.293 HD
ENDBRANCH  15  18
BRANCH  17  20
ATOM     20  O   UNL     1       6.858   1.516  17.229  1.00  0.00    -0.504 OA
ATOM     21  H   UNL     1       6.500   0.659  16.823  1.00  0.00     0.293 HD
ENDBRANCH  17  20
ENDBRANCH   1  12
BRANCH   2  22
ATOM     22  O   UNL     1      12.635   0.453  19.119  1.00  0.00    -0.502 OA
ATOM     23  H   UNL     1      13.445   0.542  18.517  1.00  0.00     0.293 HD
ENDBRANCH   2  22
BRANCH   6  24
ATOM     24  O   UNL     1      14.142  -4.478  19.795  1.00  0.00    -0.507 OA
ATOM     25  H   UNL     1      14.687  -4.341  20.639  1.00  0.00     0.293 HD
ENDBRANCH   6  24
BRANCH   8  26
ATOM     26  O   UNL     1       9.877  -6.742  20.125  1.00  0.00    -0.508 OA
ATOM     27  H   UNL     1      10.304  -7.593  20.476  1.00  0.00     0.293 HD
ENDBRANCH   8  26
TORSDOF 6
ENDMDL
MODEL 8
REMARK VINA RESULT:    -5.460      6.163      9.014
REMARK INTER + INTRA:          -6.380
REMARK INTER:                  -6.241
REMARK INTRA:                  -0.138
REMARK UNBOUND:                 0.198
REMARK SMILES O=c1c(O)c(-c2ccc(O)c(O)c2)oc2cc(O)cc(O)c12
REMARK SMILES IDX 5 1 3 2 2 3 1 4 22 5 20 6 19 7 17 8 16 9 15 10 14 11 6 12
REMARK SMILES IDX 7 13 8 14 9 15 13 16 11 17 10 18 12 20 4 22 21 24 18 26
REMARK H PARENT 10 19 12 21 4 23 21 25 18 27
REMARK Flexibility Score: inf
ROOT
ATOM      1  C   UNL     1      15.906  -2.951  19.400  1.00  0.00     0.180 A 
ATOM      2  C   UNL     1      16.057  -4.312  19.730  1.00  0.00     0.208 A 
ATOM      3  C   UNL     1      17.352  -4.843  19.841  1.00  0.00     0.238 A 
ATOM      4  O   UNL     1      17.499  -6.063  20.125  1.00  0.00    -0.285 OA
ATOM      5  C   UNL     1      18.468  -4.007  19.642  1.00  0.00     0.111 A 
ATOM      6  C   UNL     1      19.805  -4.462  19.739  1.00  0.00     0.134 A 
ATOM      7  C   UNL     1      20.863  -3.564  19.536  1.00  0.00     0.093 A 
ATOM      8  C   UNL     1      20.610  -2.220  19.239  1.00  0.00     0.123 A 
ATOM      9  C   UNL     1      19.294  -1.767  19.141  1.00  0.00     0.094 A 
ATOM     10  C   UNL     1      18.226  -2.646  19.338  1.00  0.00     0.146 A 
ATOM     11  O   UNL     1      16.984  -2.188  19.234  1.00  0.00    -0.452 OA
ENDROOT
BRANCH   1  12
ATOM     12  C   UNL     1      14.575  -2.321  19.246  1.00  0.00     0.025 A 
ATOM     13  C   UNL     1      14.142  -1.306  20.115  1.00  0.00     0.016 A 
ATOM     14  C   UNL     1      12.871  -0.742  19.964  1.00  0.00     0.051 A 
ATOM     15  C   UNL     1      12.013  -1.191  18.957  1.00  0.00     0.157 A 
ATOM     16  C   UNL     1      13.703  -2.785  18.247  1.00  0.00     0.062 A 
ATOM     17  C   UNL     1      12.429  -2.220  18.095  1.00  0.00     0.158 A 
BRANCH  15  18
ATOM     18  O   UNL     1      10.752  -0.608  18.830  1.00  0.00    -0.504 OA
ATOM     19  H   UNL     1      10.076  -0.931  18.147  1.00  0.00     0.293 HD
ENDBRANCH  15  18
BRANCH  17  20
ATOM     20  O   UNL     1      11.574  -2.678  17.092  1.00  0.00    -0.504 OA
ATOM     21  H   UNL     1      11.169  -3.606  17.124  1.00  0.00     0.293 HD
ENDBRANCH  17  20
ENDBRANCH   1  12
BRANCH   2  22
ATOM     22  O   UNL     1      14.935  -5.108  19.970  1.00  0.00    -0.502 OA
ATOM     23  H   UNL     1      14.746  -5.520  20.876  1.00  0.00     0.293 HD
ENDBRANCH   2  22
BRANCH   6  24
ATOM     24  O   UNL     1      20.089  -5.796  20.036  1.00  0.00    -0.507 OA
ATOM     25  H   UNL     1      20.212  -6.490  19.307  1.00  0.00     0.293 HD
ENDBRANCH   6  24
BRANCH   8  26
ATOM     26  O   UNL     1      21.660  -1.328  19.037  1.00  0.00    -0.508 OA
ATOM     27  H   UNL     1      21.498  -0.332  18.935  1.00  0.00     0.293 HD
ENDBRANCH   8  26
TORSDOF 6
ENDMDL
MODEL 9
REMARK VINA RESULT:    -5.397      2.438      6.991
REMARK INTER + INTRA:          -6.303
REMARK INTER:                  -6.149
REMARK INTRA:                  -0.154
REMARK UNBOUND:                 0.198
REMARK SMILES O=c1c(O)c(-c2ccc(O)c(O)c2)oc2cc(O)cc(O)c12
REMARK SMILES IDX 5 1 3 2 2 3 1 4 22 5 20 6 19 7 17 8 16 9 15 10 14 11 6 12
REMARK SMILES IDX 7 13 8 14 9 15 13 16 11 17 10 18 12 20 4 22 21 24 18 26
REMARK H PARENT 10 19 12 21 4 23 21 25 18 27
REMARK Flexibility Score: inf
ROOT
ATOM      1  C   UNL     1      10.347  -0.831  19.373  1.00  0.00     0.180 A 
ATOM      2  C   UNL     1       9.803  -2.081  19.725  1.00  0.00     0.208 A 
ATOM      3  C   UNL     1      10.656  -3.193  19.808  1.00  0.00     0.238 A 
ATOM      4  O   UNL     1      10.177  -4.320  20.112  1.00  0.00    -0.285 OA
ATOM      5  C   UNL     1      12.034  -3.035  19.560  1.00  0.00     0.111 A 
ATOM      6  C   UNL     1      12.961  -4.102  19.627  1.00  0.00     0.134 A 
ATOM      7  C   UNL     1      14.319  -3.861  19.375  1.00  0.00     0.093 A 
ATOM      8  C   UNL     1      14.768  -2.574  19.059  1.00  0.00     0.123 A 
ATOM      9  C   UNL     1      13.858  -1.518  18.991  1.00  0.00     0.094 A 
ATOM     10  C   UNL     1      12.500  -1.738  19.237  1.00  0.00     0.146 A 
ATOM     11  O   UNL     1      11.655  -0.716  19.161  1.00  0.00    -0.452 OA
ENDROOT
BRANCH   1  12
ATOM     12  C   UNL     1       9.510   0.384  19.246  1.00  0.00     0.025 A 
ATOM     13  C   UNL     1       9.661   1.471  20.124  1.00  0.00     0.016 A 
ATOM     14  C   UNL     1       8.844   2.598  19.999  1.00  0.00     0.051 A 
ATOM     15  C   UNL     1       7.859   2.652  19.009  1.00  0.00     0.157 A 
ATOM     16  C   UNL     1       8.507   0.433  18.265  1.00  0.00     0.062 A 
ATOM     17  C   UNL     1       7.687   1.563  18.138  1.00  0.00     0.158 A 
BRANCH  15  18
ATOM     18  O   UNL     1       7.060   3.791  18.908  1.00  0.00    -0.504 OA
ATOM     19  H   UNL     1       6.392   3.915  18.156  1.00  0.00     0.293 HD
ENDBRANCH  15  18
BRANCH  17  20
ATOM     20  O   UNL     1       6.701   1.607  17.152  1.00  0.00    -0.504 OA
ATOM     21  H   UNL     1       6.246   2.476  16.896  1.00  0.00     0.293 HD
ENDBRANCH  17  20
ENDBRANCH   1  12
BRANCH   2  22
ATOM     22  O   UNL     1       8.441  -2.202  20.014  1.00  0.00    -0.502 OA
ATOM     23  H   UNL     1       8.101  -2.409  20.946  1.00  0.00     0.293 HD
ENDBRANCH   2  22
BRANCH   6  24
ATOM     24  O   UNL     1      12.543  -5.397  19.942  1.00  0.00    -0.507 OA
ATOM     25  H   UNL     1      11.589  -5.701  19.789  1.00  0.00     0.293 HD
ENDBRANCH   6  24
BRANCH   8  26
ATOM     26  O   UNL     1      16.117  -2.334  18.809  1.00  0.00    -0.508 OA
ATOM     27  H   UNL     1      16.420  -1.793  18.007  1.00  0.00     0.293 HD
ENDBRANCH   8  26
TORSDOF 6
ENDMDL
