MODEL 1
REMARK VINA RESULT:    -3.321      0.000      0.000
REMARK INTER + INTRA:          -3.731
REMARK INTER:                  -3.710
REMARK INTRA:                  -0.021
REMARK UNBOUND:                -0.021
REMARK SMILES CCCC(=O)[O-]
REMARK SMILES IDX 3 1 4 2 5 3 6 4 2 5 1 6
REMARK H PARENT
REMARK Flexibility Score: inf
ROOT
ATOM      1  C   UNL     1     -10.679 -14.505   9.418  1.00  0.00     0.052 C 
ENDROOT
BRANCH   1   2
ATOM      2  C   UNL     1     -11.499 -13.836   8.361  1.00  0.00     0.041 C 
ATOM      3  O   UNL     1     -11.026 -12.867   7.712  1.00  0.00    -0.550 OA
ATOM      4  O   UNL     1     -12.767 -14.315   8.056  1.00  0.00    -0.550 OA
ENDBRANCH   1   2
BRANCH   1   5
ATOM      5  C   UNL     1     -10.093 -15.818   8.892  1.00  0.00     0.003 C 
ATOM      6  C   UNL     1     -10.965 -17.007   9.281  1.00  0.00     0.004 C 
ENDBRANCH   1   5
TORSDOF 2
ENDMDL
MODEL 2
REMARK VINA RESULT:    -3.213      1.995      2.172
REMARK INTER + INTRA:          -3.609
REMARK INTER:                  -3.597
REMARK INTRA:                  -0.013
REMARK UNBOUND:                -0.021
REMARK SMILES CCCC(=O)[O-]
REMARK SMILES IDX 3 1 4 2 5 3 6 4 2 5 1 6
REMARK H PARENT
REMARK Flexibility Score: inf
ROOT
ATOM      1  C   UNL     1     -10.380 -13.453   8.777  1.00  0.00     0.052 C 
ENDROOT
BRANCH   1   2
ATOM      2  C   UNL     1     -10.809 -12.555   9.893  1.00  0.00     0.041 C 
ATOM      3  O   UNL     1     -10.038 -11.654  10.313  1.00  0.00    -0.550 OA
ATOM      4  O   UNL     1     -12.082 -12.680  10.436  1.00  0.00    -0.550 OA
ENDBRANCH   1   2
BRANCH   1   5
ATOM      5  C   UNL     1     -10.952 -14.860   8.970  1.00  0.00     0.003 C 
ATOM      6  C   UNL     1      -9.851 -15.914   8.927  1.00  0.00     0.004 C 
ENDBRANCH   1   5
TORSDOF 2
ENDMDL
MODEL 3
REMARK VINA RESULT:    -3.196      4.180      5.254
REMARK INTER + INTRA:          -3.591
REMARK INTER:                  -3.522
REMARK INTRA:                  -0.069
REMARK UNBOUND:                -0.021
REMARK SMILES CCCC(=O)[O-]
REMARK SMILES IDX 3 1 4 2 5 3 6 4 2 5 1 6
REMARK H PARENT
REMARK Flexibility Score: inf
ROOT
ATOM      1  C   UNL     1     -12.225 -10.855  11.880  1.00  0.00     0.052 C 
ENDROOT
BRANCH   1   2
ATOM      2  C   UNL     1     -12.094 -11.913  10.830  1.00  0.00     0.041 C 
ATOM      3  O   UNL     1     -10.957 -12.263  10.422  1.00  0.00    -0.550 OA
ATOM      4  O   UNL     1     -13.228 -12.548  10.338  1.00  0.00    -0.550 OA
ENDBRANCH   1   2
BRANCH   1   5
ATOM      5  C   UNL     1     -11.769  -9.499  11.335  1.00  0.00     0.003 C 
ATOM      6  C   UNL     1     -12.745  -8.971  10.288  1.00  0.00     0.004 C 
ENDBRANCH   1   5
TORSDOF 2
ENDMDL
MODEL 4
REMARK VINA RESULT:    -3.191      4.139      5.358
REMARK INTER + INTRA:          -3.586
REMARK INTER:                  -3.526
REMARK INTRA:                  -0.060
REMARK UNBOUND:                -0.021
REMARK SMILES CCCC(=O)[O-]
REMARK SMILES IDX 3 1 4 2 5 3 6 4 2 5 1 6
REMARK H PARENT
REMARK Flexibility Score: inf
ROOT
ATOM      1  C   UNL     1     -12.446 -10.927  11.798  1.00  0.00     0.052 C 
ENDROOT
BRANCH   1   2
ATOM      2  C   UNL     1     -12.257 -12.019  10.793  1.00  0.00     0.041 C 
ATOM      3  O   UNL     1     -13.255 -12.600  10.293  1.00  0.00    -0.550 OA
ATOM      4  O   UNL     1     -10.978 -12.361  10.370  1.00  0.00    -0.550 OA
ENDBRANCH   1   2
BRANCH   1   5
ATOM      5  C   UNL     1     -11.733  -9.651  11.343  1.00  0.00     0.003 C 
ATOM      6  C   UNL     1     -12.586  -8.867  10.351  1.00  0.00     0.004 C 
ENDBRANCH   1   5
TORSDOF 2
ENDMDL
MODEL 5
REMARK VINA RESULT:    -3.139      3.579      4.661
REMARK INTER + INTRA:          -3.527
REMARK INTER:                  -3.488
REMARK INTRA:                  -0.039
REMARK UNBOUND:                -0.021
REMARK SMILES CCCC(=O)[O-]
REMARK SMILES IDX 3 1 4 2 5 3 6 4 2 5 1 6
REMARK H PARENT
REMARK Flexibility Score: inf
ROOT
ATOM      1  C   UNL     1     -13.015 -11.544  10.783  1.00  0.00     0.052 C 
ENDROOT
BRANCH   1   2
ATOM      2  C   UNL     1     -12.202 -12.544  10.024  1.00  0.00     0.041 C 
ATOM      3  O   UNL     1     -11.026 -12.811  10.387  1.00  0.00    -0.550 OA
ATOM      4  O   UNL     1     -12.759 -13.220   8.946  1.00  0.00    -0.550 OA
ENDBRANCH   1   2
BRANCH   1   5
ATOM      5  C   UNL     1     -12.135 -10.777  11.773  1.00  0.00     0.003 C 
ATOM      6  C   UNL     1     -11.762  -9.402  11.228  1.00  0.00     0.004 C 
ENDBRANCH   1   5
TORSDOF 2
ENDMDL
MODEL 6
REMARK VINA RESULT:    -3.136      5.139      6.290
REMARK INTER + INTRA:          -3.524
REMARK INTER:                  -3.517
REMARK INTRA:                  -0.007
REMARK UNBOUND:                -0.021
REMARK SMILES CCCC(=O)[O-]
REMARK SMILES IDX 3 1 4 2 5 3 6 4 2 5 1 6
REMARK H PARENT
REMARK Flexibility Score: inf
ROOT
ATOM      1  C   UNL     1     -11.251 -10.013  10.591  1.00  0.00     0.052 C 
ENDROOT
BRANCH   1   2
ATOM      2  C   UNL     1     -11.975 -10.980  11.472  1.00  0.00     0.041 C 
ATOM      3  O   UNL     1     -12.380 -12.078  11.009  1.00  0.00    -0.550 OA
ATOM      4  O   UNL     1     -12.160 -10.691  12.819  1.00  0.00    -0.550 OA
ENDBRANCH   1   2
BRANCH   1   5
ATOM      5  C   UNL     1     -11.811  -8.599  10.772  1.00  0.00     0.003 C 
ATOM      6  C   UNL     1     -11.003  -7.580   9.974  1.00  0.00     0.004 C 
ENDBRANCH   1   5
TORSDOF 2
ENDMDL
MODEL 7
REMARK VINA RESULT:    -3.098      3.176      4.076
REMARK INTER + INTRA:          -3.482
REMARK INTER:                  -3.453
REMARK INTRA:                  -0.028
REMARK UNBOUND:                -0.021
REMARK SMILES CCCC(=O)[O-]
REMARK SMILES IDX 3 1 4 2 5 3 6 4 2 5 1 6
REMARK H PARENT
REMARK Flexibility Score: inf
ROOT
ATOM      1  C   UNL     1     -10.572 -11.859   8.115  1.00  0.00     0.052 C 
ENDROOT
BRANCH   1   2
ATOM      2  C   UNL     1     -10.452 -12.234   9.558  1.00  0.00     0.041 C 
ATOM      3  O   UNL     1     -10.121 -11.370  10.411  1.00  0.00    -0.550 OA
ATOM      4  O   UNL     1     -10.755 -13.526   9.969  1.00  0.00    -0.550 OA
ENDBRANCH   1   2
BRANCH   1   5
ATOM      5  C   UNL     1      -9.222 -12.004   7.409  1.00  0.00     0.003 C 
ATOM      6  C   UNL     1      -8.450 -10.688   7.420  1.00  0.00     0.004 C 
ENDBRANCH   1   5
TORSDOF 2
ENDMDL
MODEL 8
REMARK VINA RESULT:    -3.075      3.320      4.346
REMARK INTER + INTRA:          -3.455
REMARK INTER:                  -3.450
REMARK INTRA:                  -0.005
REMARK UNBOUND:                -0.021
REMARK SMILES CCCC(=O)[O-]
REMARK SMILES IDX 3 1 4 2 5 3 6 4 2 5 1 6
REMARK H PARENT
REMARK Flexibility Score: inf
ROOT
ATOM      1  C   UNL     1     -10.259 -11.479  10.409  1.00  0.00     0.052 C 
ENDROOT
BRANCH   1   2
ATOM      2  C   UNL     1     -11.214 -12.618  10.238  1.00  0.00     0.041 C 
ATOM      3  O   UNL     1     -10.790 -13.756   9.905  1.00  0.00    -0.550 OA
ATOM      4  O   UNL     1     -12.567 -12.436  10.495  1.00  0.00    -0.550 OA
ENDBRANCH   1   2
BRANCH   1   5
ATOM      5  C   UNL     1      -9.841 -10.921   9.046  1.00  0.00     0.003 C 
ATOM      6  C   UNL     1      -9.162  -9.563   9.191  1.00  0.00     0.004 C 
ENDBRANCH   1   5
TORSDOF 2
ENDMDL
MODEL 9
REMARK VINA RESULT:    -3.050      5.472      6.069
REMARK INTER + INTRA:          -3.428
REMARK INTER:                  -3.406
REMARK INTRA:                  -0.023
REMARK UNBOUND:                -0.021
REMARK SMILES CCCC(=O)[O-]
REMARK SMILES IDX 3 1 4 2 5 3 6 4 2 5 1 6
REMARK H PARENT
REMARK Flexibility Score: inf
ROOT
ATOM      1  C   UNL     1     -11.654  -8.868  10.743  1.00  0.00     0.052 C 
ENDROOT
BRANCH   1   2
ATOM      2  C   UNL     1     -10.620  -8.653   9.683  1.00  0.00     0.041 C 
ATOM      3  O   UNL     1      -9.629  -9.424   9.600  1.00  0.00    -0.550 OA
ATOM      4  O   UNL     1     -10.777  -7.632   8.755  1.00  0.00    -0.550 OA
ENDBRANCH   1   2
BRANCH   1   5
ATOM      5  C   UNL     1     -11.789 -10.358  11.066  1.00  0.00     0.003 C 
ATOM      6  C   UNL     1     -12.069 -10.577  12.549  1.00  0.00     0.004 C 
ENDBRANCH   1   5
TORSDOF 2
ENDMDL
