MODEL 1
REMARK VINA RESULT:    -3.389      0.000      0.000
REMARK INTER + INTRA:          -4.252
REMARK INTER:                  -4.182
REMARK INTRA:                  -0.070
REMARK UNBOUND:                -0.070
REMARK SMILES CCCCCC(=O)[O-]
REMARK SMILES IDX 4 1 5 2 6 3 7 4 8 5 3 6 2 7 1 8
REMARK H PARENT
REMARK Flexibility Score: inf
ROOT
ATOM      1  C   UNL     1      -5.297  16.464  -6.830  1.00  0.00     0.006 C 
ENDROOT
BRANCH   1   2
ATOM      2  C   UNL     1      -6.579  16.959  -7.525  1.00  0.00     0.053 C 
BRANCH   2   3
ATOM      3  C   UNL     1      -6.612  16.614  -8.984  1.00  0.00     0.041 C 
ATOM      4  O   UNL     1      -5.597  16.119  -9.541  1.00  0.00    -0.550 OA
ATOM      5  O   UNL     1      -7.749  16.877  -9.738  1.00  0.00    -0.550 OA
ENDBRANCH   2   3
ENDBRANCH   1   2
BRANCH   1   6
ATOM      6  C   UNL     1      -4.552  17.556  -6.037  1.00  0.00     0.000 C 
BRANCH   6   7
ATOM      7  C   UNL     1      -4.217  17.192  -4.582  1.00  0.00    -0.003 C 
ATOM      8  C   UNL     1      -3.966  18.415  -3.701  1.00  0.00     0.004 C 
ENDBRANCH   6   7
ENDBRANCH   1   6
TORSDOF 4
ENDMDL
MODEL 2
REMARK VINA RESULT:    -3.286      1.064      1.492
REMARK INTER + INTRA:          -4.124
REMARK INTER:                  -4.075
REMARK INTRA:                  -0.049
REMARK UNBOUND:                -0.070
REMARK SMILES CCCCCC(=O)[O-]
REMARK SMILES IDX 4 1 5 2 6 3 7 4 8 5 3 6 2 7 1 8
REMARK H PARENT
REMARK Flexibility Score: inf
ROOT
ATOM      1  C   UNL     1      -6.429  17.268  -7.431  1.00  0.00     0.006 C 
ENDROOT
BRANCH   1   2
ATOM      2  C   UNL     1      -6.891  16.452  -8.653  1.00  0.00     0.053 C 
BRANCH   2   3
ATOM      3  C   UNL     1      -7.245  17.321  -9.823  1.00  0.00     0.041 C 
ATOM      4  O   UNL     1      -6.428  18.180 -10.245  1.00  0.00    -0.550 OA
ATOM      5  O   UNL     1      -8.495  17.210 -10.421  1.00  0.00    -0.550 OA
ENDBRANCH   2   3
ENDBRANCH   1   2
BRANCH   1   6
ATOM      6  C   UNL     1      -5.330  16.580  -6.598  1.00  0.00     0.000 C 
BRANCH   6   7
ATOM      7  C   UNL     1      -4.348  17.535  -5.898  1.00  0.00    -0.003 C 
ATOM      8  C   UNL     1      -4.160  17.219  -4.415  1.00  0.00     0.004 C 
ENDBRANCH   6   7
ENDBRANCH   1   6
TORSDOF 4
ENDMDL
MODEL 3
REMARK VINA RESULT:    -3.250      1.081      1.724
REMARK INTER + INTRA:          -4.080
REMARK INTER:                  -3.967
REMARK INTRA:                  -0.113
REMARK UNBOUND:                -0.070
REMARK SMILES CCCCCC(=O)[O-]
REMARK SMILES IDX 4 1 5 2 6 3 7 4 8 5 3 6 2 7 1 8
REMARK H PARENT
REMARK Flexibility Score: inf
ROOT
ATOM      1  C   UNL     1      -6.494  16.927  -7.223  1.00  0.00     0.006 C 
ENDROOT
BRANCH   1   2
ATOM      2  C   UNL     1      -6.805  16.460  -8.657  1.00  0.00     0.053 C 
BRANCH   2   3
ATOM      3  C   UNL     1      -5.703  16.788  -9.619  1.00  0.00     0.041 C 
ATOM      4  O   UNL     1      -5.561  17.965 -10.044  1.00  0.00    -0.550 OA
ATOM      5  O   UNL     1      -4.856  15.786 -10.079  1.00  0.00    -0.550 OA
ENDBRANCH   2   3
ENDBRANCH   1   2
BRANCH   1   6
ATOM      6  C   UNL     1      -5.100  16.510  -6.717  1.00  0.00     0.000 C 
BRANCH   6   7
ATOM      7  C   UNL     1      -4.339  17.592  -5.933  1.00  0.00    -0.003 C 
ATOM      8  C   UNL     1      -4.194  17.266  -4.447  1.00  0.00     0.004 C 
ENDBRANCH   6   7
ENDBRANCH   1   6
TORSDOF 4
ENDMDL
MODEL 4
REMARK VINA RESULT:    -3.196      1.672      2.373
REMARK INTER + INTRA:          -4.013
REMARK INTER:                  -3.866
REMARK INTRA:                  -0.147
REMARK UNBOUND:                -0.070
REMARK SMILES CCCCCC(=O)[O-]
REMARK SMILES IDX 4 1 5 2 6 3 7 4 8 5 3 6 2 7 1 8
REMARK H PARENT
REMARK Flexibility Score: inf
ROOT
ATOM      1  C   UNL     1      -5.466  16.344  -9.456  1.00  0.00     0.006 C 
ENDROOT
BRANCH   1   2
ATOM      2  C   UNL     1      -6.949  16.723  -9.296  1.00  0.00     0.053 C 
BRANCH   2   3
ATOM      3  C   UNL     1      -7.320  17.938 -10.092  1.00  0.00     0.041 C 
ATOM      4  O   UNL     1      -6.625  18.985 -10.012  1.00  0.00    -0.550 OA
ATOM      5  O   UNL     1      -8.456  17.929 -10.893  1.00  0.00    -0.550 OA
ENDBRANCH   2   3
ENDBRANCH   1   2
BRANCH   1   6
ATOM      6  C   UNL     1      -4.634  16.511  -8.169  1.00  0.00     0.000 C 
BRANCH   6   7
ATOM      7  C   UNL     1      -5.452  16.580  -6.868  1.00  0.00    -0.003 C 
ATOM      8  C   UNL     1      -4.649  17.115  -5.684  1.00  0.00     0.004 C 
ENDBRANCH   6   7
ENDBRANCH   1   6
TORSDOF 4
ENDMDL
MODEL 5
REMARK VINA RESULT:    -3.184      1.833      2.869
REMARK INTER + INTRA:          -3.999
REMARK INTER:                  -3.936
REMARK INTRA:                  -0.063
REMARK UNBOUND:                -0.070
REMARK SMILES CCCCCC(=O)[O-]
REMARK SMILES IDX 4 1 5 2 6 3 7 4 8 5 3 6 2 7 1 8
REMARK H PARENT
REMARK Flexibility Score: inf
ROOT
ATOM      1  C   UNL     1      -6.964  16.621  -8.996  1.00  0.00     0.006 C 
ENDROOT
BRANCH   1   2
ATOM      2  C   UNL     1      -6.859  17.734 -10.055  1.00  0.00     0.053 C 
BRANCH   2   3
ATOM      3  C   UNL     1      -8.169  18.009 -10.730  1.00  0.00     0.041 C 
ATOM      4  O   UNL     1      -8.392  19.136 -11.247  1.00  0.00    -0.550 OA
ATOM      5  O   UNL     1      -9.161  17.036 -10.753  1.00  0.00    -0.550 OA
ENDBRANCH   2   3
ENDBRANCH   1   2
BRANCH   1   6
ATOM      6  C   UNL     1      -6.556  17.066  -7.577  1.00  0.00     0.000 C 
BRANCH   6   7
ATOM      7  C   UNL     1      -5.265  16.427  -7.040  1.00  0.00    -0.003 C 
ATOM      8  C   UNL     1      -4.688  17.168  -5.834  1.00  0.00     0.004 C 
ENDBRANCH   6   7
ENDBRANCH   1   6
TORSDOF 4
ENDMDL
MODEL 6
REMARK VINA RESULT:    -3.082      2.472      5.036
REMARK INTER + INTRA:          -3.873
REMARK INTER:                  -3.748
REMARK INTRA:                  -0.125
REMARK UNBOUND:                -0.070
REMARK SMILES CCCCCC(=O)[O-]
REMARK SMILES IDX 4 1 5 2 6 3 7 4 8 5 3 6 2 7 1 8
REMARK H PARENT
REMARK Flexibility Score: inf
ROOT
ATOM      1  C   UNL     1      -7.078  16.703  -9.265  1.00  0.00     0.006 C 
ENDROOT
BRANCH   1   2
ATOM      2  C   UNL     1      -6.753  16.897  -7.772  1.00  0.00     0.053 C 
BRANCH   2   3
ATOM      3  C   UNL     1      -5.331  16.551  -7.445  1.00  0.00     0.041 C 
ATOM      4  O   UNL     1      -4.508  16.314  -8.367  1.00  0.00    -0.550 OA
ATOM      5  O   UNL     1      -4.925  16.450  -6.120  1.00  0.00    -0.550 OA
ENDBRANCH   2   3
ENDBRANCH   1   2
BRANCH   1   6
ATOM      6  C   UNL     1      -7.241  18.021 -10.047  1.00  0.00     0.000 C 
BRANCH   6   7
ATOM      7  C   UNL     1      -8.431  18.059 -11.020  1.00  0.00    -0.003 C 
ATOM      8  C   UNL     1      -9.437  16.933 -10.781  1.00  0.00     0.004 C 
ENDBRANCH   6   7
ENDBRANCH   1   6
TORSDOF 4
ENDMDL
MODEL 7
REMARK VINA RESULT:    -3.082      3.049      5.899
REMARK INTER + INTRA:          -3.873
REMARK INTER:                  -3.761
REMARK INTRA:                  -0.112
REMARK UNBOUND:                -0.070
REMARK SMILES CCCCCC(=O)[O-]
REMARK SMILES IDX 4 1 5 2 6 3 7 4 8 5 3 6 2 7 1 8
REMARK H PARENT
REMARK Flexibility Score: inf
ROOT
ATOM      1  C   UNL     1      -7.545  18.186 -10.411  1.00  0.00     0.006 C 
ENDROOT
BRANCH   1   2
ATOM      2  C   UNL     1      -7.255  16.936  -9.559  1.00  0.00     0.053 C 
BRANCH   2   3
ATOM      3  C   UNL     1      -6.555  17.267  -8.275  1.00  0.00     0.041 C 
ATOM      4  O   UNL     1      -6.573  18.444  -7.828  1.00  0.00    -0.550 OA
ATOM      5  O   UNL     1      -5.849  16.285  -7.591  1.00  0.00    -0.550 OA
ENDBRANCH   2   3
ENDBRANCH   1   2
BRANCH   1   6
ATOM      6  C   UNL     1      -8.880  18.124 -11.179  1.00  0.00     0.000 C 
BRANCH   6   7
ATOM      7  C   UNL     1      -9.742  16.884 -10.890  1.00  0.00    -0.003 C 
ATOM      8  C   UNL     1     -10.680  16.525 -12.042  1.00  0.00     0.004 C 
ENDBRANCH   6   7
ENDBRANCH   1   6
TORSDOF 4
ENDMDL
MODEL 8
REMARK VINA RESULT:    -3.076      2.620      4.582
REMARK INTER + INTRA:          -3.865
REMARK INTER:                  -3.735
REMARK INTRA:                  -0.130
REMARK UNBOUND:                -0.070
REMARK SMILES CCCCCC(=O)[O-]
REMARK SMILES IDX 4 1 5 2 6 3 7 4 8 5 3 6 2 7 1 8
REMARK H PARENT
REMARK Flexibility Score: inf
ROOT
ATOM      1  C   UNL     1      -6.538  17.017  -7.241  1.00  0.00     0.006 C 
ENDROOT
BRANCH   1   2
ATOM      2  C   UNL     1      -5.202  16.475  -6.702  1.00  0.00     0.053 C 
BRANCH   2   3
ATOM      3  C   UNL     1      -4.506  17.455  -5.803  1.00  0.00     0.041 C 
ATOM      4  O   UNL     1      -4.055  18.533  -6.270  1.00  0.00    -0.550 OA
ATOM      5  O   UNL     1      -4.321  17.158  -4.458  1.00  0.00    -0.550 OA
ENDBRANCH   2   3
ENDBRANCH   1   2
BRANCH   1   6
ATOM      6  C   UNL     1      -6.853  16.581  -8.686  1.00  0.00     0.000 C 
BRANCH   6   7
ATOM      7  C   UNL     1      -5.623  16.321  -9.572  1.00  0.00    -0.003 C 
ATOM      8  C   UNL     1      -5.272  17.505 -10.471  1.00  0.00     0.004 C 
ENDBRANCH   6   7
ENDBRANCH   1   6
TORSDOF 4
ENDMDL
MODEL 9
REMARK VINA RESULT:    -2.962      2.455      4.222
REMARK INTER + INTRA:          -3.724
REMARK INTER:                  -3.476
REMARK INTRA:                  -0.249
REMARK UNBOUND:                -0.070
REMARK SMILES CCCCCC(=O)[O-]
REMARK SMILES IDX 4 1 5 2 6 3 7 4 8 5 3 6 2 7 1 8
REMARK H PARENT
REMARK Flexibility Score: inf
ROOT
ATOM      1  C   UNL     1      -5.051  16.590  -6.921  1.00  0.00     0.006 C 
ENDROOT
BRANCH   1   2
ATOM      2  C   UNL     1      -4.520  17.713  -6.011  1.00  0.00     0.053 C 
BRANCH   2   3
ATOM      3  C   UNL     1      -4.545  19.055  -6.681  1.00  0.00     0.041 C 
ATOM      4  O   UNL     1      -4.085  19.191  -7.845  1.00  0.00    -0.550 OA
ATOM      5  O   UNL     1      -5.038  20.164  -6.004  1.00  0.00    -0.550 OA
ENDBRANCH   2   3
ENDBRANCH   1   2
BRANCH   1   6
ATOM      6  C   UNL     1      -6.542  16.732  -7.286  1.00  0.00     0.000 C 
BRANCH   6   7
ATOM      7  C   UNL     1      -6.846  16.742  -8.793  1.00  0.00    -0.003 C 
ATOM      8  C   UNL     1      -5.625  16.419  -9.653  1.00  0.00     0.004 C 
ENDBRANCH   6   7
ENDBRANCH   1   6
TORSDOF 4
ENDMDL
