MODEL 1
REMARK VINA RESULT:    -4.227      0.000      0.000
REMARK INTER + INTRA:          -5.191
REMARK INTER:                  -5.092
REMARK INTRA:                  -0.100
REMARK UNBOUND:                -0.100
REMARK SMILES [NH3+][C@H](Cc1cnc[nH]1)C(=O)[O-]
REMARK SMILES IDX 3 1 2 2 1 3 9 7 10 8 11 9 4 10 5 11 8 12 6 13 7 14
REMARK H PARENT 1 4 1 5 1 6 8 15
REMARK Flexibility Score: inf
ROOT
ATOM      1  C   UNL     1      16.553  -1.392  50.711  1.00  0.00     0.127 C 
ENDROOT
BRANCH   1   2
ATOM      2  C   UNL     1      15.385  -1.040  49.768  1.00  0.00     0.233 C 
BRANCH   2   3
ATOM      3  N   UNL     1      15.747  -1.319  48.374  1.00  0.00    -0.350 N 
ATOM      4  H   UNL     1      16.774  -1.185  48.224  1.00  0.00     0.345 HD
ATOM      5  H   UNL     1      15.490  -2.303  48.129  1.00  0.00     0.345 HD
ATOM      6  H   UNL     1      15.223  -0.677  47.736  1.00  0.00     0.345 HD
ENDBRANCH   2   3
BRANCH   2   7
ATOM      7  C   UNL     1      14.138  -1.797  50.144  1.00  0.00     0.099 C 
ATOM      8  O   UNL     1      13.124  -1.773  49.398  1.00  0.00    -0.544 OA
ATOM      9  O   UNL     1      14.109  -2.549  51.313  1.00  0.00    -0.544 OA
ENDBRANCH   2   7
ENDBRANCH   1   2
BRANCH   1  10
ATOM     10  C   UNL     1      17.783  -0.596  50.387  1.00  0.00     0.041 A 
ATOM     11  C   UNL     1      19.067  -1.081  50.281  1.00  0.00     0.134 A 
ATOM     12  N   UNL     1      17.788   0.707  50.066  1.00  0.00    -0.348 N 
ATOM     13  N   UNL     1      19.887  -0.078  49.907  1.00  0.00    -0.245 NA
ATOM     14  C   UNL     1      19.073   0.993  49.787  1.00  0.00     0.196 A 
ATOM     15  H   UNL     1      16.972   1.358  50.028  1.00  0.00     0.167 HD
ENDBRANCH   1  10
TORSDOF 4
ENDMDL
MODEL 2
REMARK VINA RESULT:    -4.095      2.824      5.169
REMARK INTER + INTRA:          -5.033
REMARK INTER:                  -4.728
REMARK INTRA:                  -0.304
REMARK UNBOUND:                -0.100
REMARK SMILES [NH3+][C@H](Cc1cnc[nH]1)C(=O)[O-]
REMARK SMILES IDX 3 1 2 2 1 3 9 7 10 8 11 9 4 10 5 11 8 12 6 13 7 14
REMARK H PARENT 1 4 1 5 1 6 8 15
REMARK Flexibility Score: inf
ROOT
ATOM      1  C   UNL     1      14.324  -1.194  50.092  1.00  0.00     0.127 C 
ENDROOT
BRANCH   1   2
ATOM      2  C   UNL     1      15.713  -1.669  49.617  1.00  0.00     0.233 C 
BRANCH   2   3
ATOM      3  N   UNL     1      15.966  -1.222  48.243  1.00  0.00    -0.350 N 
ATOM      4  H   UNL     1      15.303  -1.680  47.575  1.00  0.00     0.345 HD
ATOM      5  H   UNL     1      15.855  -0.183  48.179  1.00  0.00     0.345 HD
ATOM      6  H   UNL     1      16.947  -1.461  47.967  1.00  0.00     0.345 HD
ENDBRANCH   2   3
BRANCH   2   7
ATOM      7  C   UNL     1      16.799  -1.172  50.536  1.00  0.00     0.099 C 
ATOM      8  O   UNL     1      17.685  -0.383  50.112  1.00  0.00    -0.544 OA
ATOM      9  O   UNL     1      16.815  -1.566  51.868  1.00  0.00    -0.544 OA
ENDBRANCH   2   7
ENDBRANCH   1   2
BRANCH   1  10
ATOM     10  C   UNL     1      13.512  -2.329  50.643  1.00  0.00     0.041 A 
ATOM     11  C   UNL     1      12.277  -2.743  50.198  1.00  0.00     0.134 A 
ATOM     12  N   UNL     1      13.923  -3.164  51.609  1.00  0.00    -0.348 N 
ATOM     13  N   UNL     1      11.901  -3.835  50.895  1.00  0.00    -0.245 NA
ATOM     14  C   UNL     1      12.928  -4.060  51.743  1.00  0.00     0.196 A 
ATOM     15  H   UNL     1      14.824  -3.137  52.136  1.00  0.00     0.167 HD
ENDBRANCH   1  10
TORSDOF 4
ENDMDL
MODEL 3
REMARK VINA RESULT:    -3.969      2.750      5.077
REMARK INTER + INTRA:          -4.881
REMARK INTER:                  -4.886
REMARK INTRA:                   0.004
REMARK UNBOUND:                -0.100
REMARK SMILES [NH3+][C@H](Cc1cnc[nH]1)C(=O)[O-]
REMARK SMILES IDX 3 1 2 2 1 3 9 7 10 8 11 9 4 10 5 11 8 12 6 13 7 14
REMARK H PARENT 1 4 1 5 1 6 8 15
REMARK Flexibility Score: inf
ROOT
ATOM      1  C   UNL     1      14.977  -2.182  50.633  1.00  0.00     0.127 C 
ENDROOT
BRANCH   1   2
ATOM      2  C   UNL     1      16.015  -1.225  50.011  1.00  0.00     0.233 C 
BRANCH   2   3
ATOM      3  N   UNL     1      15.491   0.145  49.969  1.00  0.00    -0.350 N 
ATOM      4  H   UNL     1      15.402   0.479  48.981  1.00  0.00     0.345 HD
ATOM      5  H   UNL     1      14.552   0.182  50.429  1.00  0.00     0.345 HD
ATOM      6  H   UNL     1      16.133   0.786  50.489  1.00  0.00     0.345 HD
ENDBRANCH   2   3
BRANCH   2   7
ATOM      7  C   UNL     1      17.313  -1.263  50.775  1.00  0.00     0.099 C 
ATOM      8  O   UNL     1      18.410  -1.084  50.182  1.00  0.00    -0.544 OA
ATOM      9  O   UNL     1      17.304  -1.476  52.148  1.00  0.00    -0.544 OA
ENDBRANCH   2   7
ENDBRANCH   1   2
BRANCH   1  10
ATOM     10  C   UNL     1      13.596  -1.912  50.112  1.00  0.00     0.041 A 
ATOM     11  C   UNL     1      13.208  -1.898  48.792  1.00  0.00     0.134 A 
ATOM     12  N   UNL     1      12.512  -1.728  50.881  1.00  0.00    -0.348 N 
ATOM     13  N   UNL     1      11.877  -1.690  48.727  1.00  0.00    -0.245 NA
ATOM     14  C   UNL     1      11.490  -1.591  50.017  1.00  0.00     0.196 A 
ATOM     15  H   UNL     1      12.465  -1.708  51.924  1.00  0.00     0.167 HD
ENDBRANCH   1  10
TORSDOF 4
ENDMDL
MODEL 4
REMARK VINA RESULT:    -3.907      3.253      5.135
REMARK INTER + INTRA:          -4.806
REMARK INTER:                  -4.660
REMARK INTRA:                  -0.146
REMARK UNBOUND:                -0.100
REMARK SMILES [NH3+][C@H](Cc1cnc[nH]1)C(=O)[O-]
REMARK SMILES IDX 3 1 2 2 1 3 9 7 10 8 11 9 4 10 5 11 8 12 6 13 7 14
REMARK H PARENT 1 4 1 5 1 6 8 15
REMARK Flexibility Score: inf
ROOT
ATOM      1  C   UNL     1      13.026  -1.602  49.155  1.00  0.00     0.127 C 
ENDROOT
BRANCH   1   2
ATOM      2  C   UNL     1      14.412  -1.804  49.799  1.00  0.00     0.233 C 
BRANCH   2   3
ATOM      3  N   UNL     1      15.049  -0.509  50.067  1.00  0.00    -0.350 N 
ATOM      4  H   UNL     1      14.441   0.277  49.740  1.00  0.00     0.345 HD
ATOM      5  H   UNL     1      15.224  -0.404  51.093  1.00  0.00     0.345 HD
ATOM      6  H   UNL     1      15.969  -0.458  49.573  1.00  0.00     0.345 HD
ENDBRANCH   2   3
BRANCH   2   7
ATOM      7  C   UNL     1      14.307  -2.606  51.070  1.00  0.00     0.099 C 
ATOM      8  O   UNL     1      13.326  -3.371  51.266  1.00  0.00    -0.544 OA
ATOM      9  O   UNL     1      15.310  -2.522  52.029  1.00  0.00    -0.544 OA
ENDBRANCH   2   7
ENDBRANCH   1   2
BRANCH   1  10
ATOM     10  C   UNL     1      13.047  -1.917  47.688  1.00  0.00     0.041 A 
ATOM     11  C   UNL     1      11.982  -2.343  46.927  1.00  0.00     0.134 A 
ATOM     12  N   UNL     1      14.107  -1.741  46.885  1.00  0.00    -0.348 N 
ATOM     13  N   UNL     1      12.376  -2.450  45.642  1.00  0.00    -0.245 NA
ATOM     14  C   UNL     1      13.673  -2.077  45.656  1.00  0.00     0.196 A 
ATOM     15  H   UNL     1      15.060  -1.405  47.149  1.00  0.00     0.167 HD
ENDBRANCH   1  10
TORSDOF 4
ENDMDL
MODEL 5
REMARK VINA RESULT:    -3.828      2.485      4.435
REMARK INTER + INTRA:          -4.711
REMARK INTER:                  -4.602
REMARK INTRA:                  -0.109
REMARK UNBOUND:                -0.100
REMARK SMILES [NH3+][C@H](Cc1cnc[nH]1)C(=O)[O-]
REMARK SMILES IDX 3 1 2 2 1 3 9 7 10 8 11 9 4 10 5 11 8 12 6 13 7 14
REMARK H PARENT 1 4 1 5 1 6 8 15
REMARK Flexibility Score: inf
ROOT
ATOM      1  C   UNL     1      17.590  -0.424  50.353  1.00  0.00     0.127 C 
ENDROOT
BRANCH   1   2
ATOM      2  C   UNL     1      18.658  -1.497  50.646  1.00  0.00     0.233 C 
BRANCH   2   3
ATOM      3  N   UNL     1      19.971  -1.062  50.157  1.00  0.00    -0.350 N 
ATOM      4  H   UNL     1      20.594  -1.885  49.983  1.00  0.00     0.345 HD
ATOM      5  H   UNL     1      19.859  -0.522  49.268  1.00  0.00     0.345 HD
ATOM      6  H   UNL     1      20.423  -0.436  50.863  1.00  0.00     0.345 HD
ENDBRANCH   2   3
BRANCH   2   7
ATOM      7  C   UNL     1      18.726  -1.805  52.119  1.00  0.00     0.099 C 
ATOM      8  O   UNL     1      17.759  -1.529  52.877  1.00  0.00    -0.544 OA
ATOM      9  O   UNL     1      19.856  -2.419  52.648  1.00  0.00    -0.544 OA
ENDBRANCH   2   7
ENDBRANCH   1   2
BRANCH   1  10
ATOM     10  C   UNL     1      16.329  -1.034  49.813  1.00  0.00     0.041 A 
ATOM     11  C   UNL     1      15.266  -1.503  50.550  1.00  0.00     0.134 A 
ATOM     12  N   UNL     1      16.024  -1.128  48.510  1.00  0.00    -0.348 N 
ATOM     13  N   UNL     1      14.292  -1.908  49.710  1.00  0.00    -0.245 NA
ATOM     14  C   UNL     1      14.791  -1.666  48.478  1.00  0.00     0.196 A 
ATOM     15  H   UNL     1      16.608  -0.838  47.694  1.00  0.00     0.167 HD
ENDBRANCH   1  10
TORSDOF 4
ENDMDL
MODEL 6
REMARK VINA RESULT:    -3.759      3.940      5.440
REMARK INTER + INTRA:          -4.628
REMARK INTER:                  -4.493
REMARK INTRA:                  -0.135
REMARK UNBOUND:                -0.100
REMARK SMILES [NH3+][C@H](Cc1cnc[nH]1)C(=O)[O-]
REMARK SMILES IDX 3 1 2 2 1 3 9 7 10 8 11 9 4 10 5 11 8 12 6 13 7 14
REMARK H PARENT 1 4 1 5 1 6 8 15
REMARK Flexibility Score: inf
ROOT
ATOM      1  C   UNL     1      13.460  -1.875  46.331  1.00  0.00     0.127 C 
ENDROOT
BRANCH   1   2
ATOM      2  C   UNL     1      12.226  -1.010  46.003  1.00  0.00     0.233 C 
BRANCH   2   3
ATOM      3  N   UNL     1      12.623   0.187  45.251  1.00  0.00    -0.350 N 
ATOM      4  H   UNL     1      12.005   0.997  45.491  1.00  0.00     0.345 HD
ATOM      5  H   UNL     1      13.615   0.434  45.473  1.00  0.00     0.345 HD
ATOM      6  H   UNL     1      12.555  -0.002  44.225  1.00  0.00     0.345 HD
ENDBRANCH   2   3
BRANCH   2   7
ATOM      7  C   UNL     1      11.203  -1.797  45.227  1.00  0.00     0.099 C 
ATOM      8  O   UNL     1      10.117  -1.265  44.875  1.00  0.00    -0.544 OA
ATOM      9  O   UNL     1      11.463  -3.116  44.876  1.00  0.00    -0.544 OA
ENDBRANCH   2   7
ENDBRANCH   1   2
BRANCH   1  10
ATOM     10  C   UNL     1      13.876  -1.722  47.765  1.00  0.00     0.041 A 
ATOM     11  C   UNL     1      13.070  -1.871  48.870  1.00  0.00     0.134 A 
ATOM     12  N   UNL     1      15.134  -1.500  48.175  1.00  0.00    -0.348 N 
ATOM     13  N   UNL     1      13.819  -1.727  49.983  1.00  0.00    -0.245 NA
ATOM     14  C   UNL     1      15.067  -1.502  49.519  1.00  0.00     0.196 A 
ATOM     15  H   UNL     1      15.984  -1.367  47.585  1.00  0.00     0.167 HD
ENDBRANCH   1  10
TORSDOF 4
ENDMDL
MODEL 7
REMARK VINA RESULT:    -3.604     14.873     15.897
REMARK INTER + INTRA:          -4.441
REMARK INTER:                  -4.293
REMARK INTRA:                  -0.148
REMARK UNBOUND:                -0.100
REMARK SMILES [NH3+][C@H](Cc1cnc[nH]1)C(=O)[O-]
REMARK SMILES IDX 3 1 2 2 1 3 9 7 10 8 11 9 4 10 5 11 8 12 6 13 7 14
REMARK H PARENT 1 4 1 5 1 6 8 15
REMARK Flexibility Score: inf
ROOT
ATOM      1  C   UNL     1      15.111 -10.613  60.950  1.00  0.00     0.127 C 
ENDROOT
BRANCH   1   2
ATOM      2  C   UNL     1      15.709  -9.357  61.616  1.00  0.00     0.233 C 
BRANCH   2   3
ATOM      3  N   UNL     1      16.383  -9.712  62.871  1.00  0.00    -0.350 N 
ATOM      4  H   UNL     1      17.414  -9.812  62.722  1.00  0.00     0.345 HD
ATOM      5  H   UNL     1      16.210  -8.971  63.589  1.00  0.00     0.345 HD
ATOM      6  H   UNL     1      16.001 -10.615  63.235  1.00  0.00     0.345 HD
ENDBRANCH   2   3
BRANCH   2   7
ATOM      7  C   UNL     1      16.668  -8.656  60.689  1.00  0.00     0.099 C 
ATOM      8  O   UNL     1      17.868  -8.475  61.026  1.00  0.00    -0.544 OA
ATOM      9  O   UNL     1      16.235  -8.223  59.442  1.00  0.00    -0.544 OA
ENDBRANCH   2   7
ENDBRANCH   1   2
BRANCH   1  10
ATOM     10  C   UNL     1      14.064 -11.251  61.815  1.00  0.00     0.041 A 
ATOM     11  C   UNL     1      12.841 -10.715  62.149  1.00  0.00     0.134 A 
ATOM     12  N   UNL     1      14.143 -12.492  62.320  1.00  0.00    -0.348 N 
ATOM     13  N   UNL     1      12.152 -11.615  62.881  1.00  0.00    -0.245 NA
ATOM     14  C   UNL     1      12.977 -12.681  62.964  1.00  0.00     0.196 A 
ATOM     15  H   UNL     1      14.931 -13.170  62.227  1.00  0.00     0.167 HD
ENDBRANCH   1  10
TORSDOF 4
ENDMDL
MODEL 8
REMARK VINA RESULT:    -3.602     17.578     18.476
REMARK INTER + INTRA:          -4.439
REMARK INTER:                  -4.248
REMARK INTRA:                  -0.191
REMARK UNBOUND:                -0.100
REMARK SMILES [NH3+][C@H](Cc1cnc[nH]1)C(=O)[O-]
REMARK SMILES IDX 3 1 2 2 1 3 9 7 10 8 11 9 4 10 5 11 8 12 6 13 7 14
REMARK H PARENT 1 4 1 5 1 6 8 15
REMARK Flexibility Score: inf
ROOT
ATOM      1  C   UNL     1      11.103 -11.629  64.896  1.00  0.00     0.127 C 
ENDROOT
BRANCH   1   2
ATOM      2  C   UNL     1       9.893 -10.889  64.291  1.00  0.00     0.233 C 
BRANCH   2   3
ATOM      3  N   UNL     1       8.662 -11.244  65.006  1.00  0.00    -0.350 N 
ATOM      4  H   UNL     1       7.852 -10.682  64.654  1.00  0.00     0.345 HD
ATOM      5  H   UNL     1       8.456 -12.262  64.877  1.00  0.00     0.345 HD
ATOM      6  H   UNL     1       8.783 -11.064  66.030  1.00  0.00     0.345 HD
ENDBRANCH   2   3
BRANCH   2   7
ATOM      7  C   UNL     1      10.100  -9.397  64.320  1.00  0.00     0.099 C 
ATOM      8  O   UNL     1       9.454  -8.676  65.125  1.00  0.00    -0.544 OA
ATOM      9  O   UNL     1      11.027  -8.809  63.468  1.00  0.00    -0.544 OA
ENDBRANCH   2   7
ENDBRANCH   1   2
BRANCH   1  10
ATOM     10  C   UNL     1      11.878 -12.370  63.846  1.00  0.00     0.041 A 
ATOM     11  C   UNL     1      11.664 -12.325  62.487  1.00  0.00     0.134 A 
ATOM     12  N   UNL     1      12.960 -13.126  64.087  1.00  0.00    -0.348 N 
ATOM     13  N   UNL     1      12.606 -13.068  61.869  1.00  0.00    -0.245 NA
ATOM     14  C   UNL     1      13.374 -13.538  62.875  1.00  0.00     0.196 A 
ATOM     15  H   UNL     1      13.396 -13.340  65.011  1.00  0.00     0.167 HD
ENDBRANCH   1  10
TORSDOF 4
ENDMDL
MODEL 9
REMARK VINA RESULT:    -3.513      4.467      5.918
REMARK INTER + INTRA:          -4.332
REMARK INTER:                  -4.212
REMARK INTRA:                  -0.120
REMARK UNBOUND:                -0.100
REMARK SMILES [NH3+][C@H](Cc1cnc[nH]1)C(=O)[O-]
REMARK SMILES IDX 3 1 2 2 1 3 9 7 10 8 11 9 4 10 5 11 8 12 6 13 7 14
REMARK H PARENT 1 4 1 5 1 6 8 15
REMARK Flexibility Score: inf
ROOT
ATOM      1  C   UNL     1      12.125  -1.726  46.962  1.00  0.00     0.127 C 
ENDROOT
BRANCH   1   2
ATOM      2  C   UNL     1      11.430  -0.397  46.604  1.00  0.00     0.233 C 
BRANCH   2   3
ATOM      3  N   UNL     1      12.250   0.375  45.663  1.00  0.00    -0.350 N 
ATOM      4  H   UNL     1      11.878   1.348  45.559  1.00  0.00     0.345 HD
ATOM      5  H   UNL     1      13.238   0.420  46.005  1.00  0.00     0.345 HD
ATOM      6  H   UNL     1      12.250  -0.092  44.727  1.00  0.00     0.345 HD
ENDBRANCH   2   3
BRANCH   2   7
ATOM      7  C   UNL     1      10.061  -0.640  46.025  1.00  0.00     0.099 C 
ATOM      8  O   UNL     1       9.931  -1.136  44.875  1.00  0.00    -0.544 OA
ATOM      9  O   UNL     1       8.928  -0.336  46.771  1.00  0.00    -0.544 OA
ENDBRANCH   2   7
ENDBRANCH   1   2
BRANCH   1  10
ATOM     10  C   UNL     1      12.730  -1.682  48.334  1.00  0.00     0.041 A 
ATOM     11  C   UNL     1      12.075  -1.905  49.524  1.00  0.00     0.134 A 
ATOM     12  N   UNL     1      14.035  -1.499  48.589  1.00  0.00    -0.348 N 
ATOM     13  N   UNL     1      12.967  -1.848  50.534  1.00  0.00    -0.245 NA
ATOM     14  C   UNL     1      14.146  -1.599  49.926  1.00  0.00     0.196 A 
ATOM     15  H   UNL     1      14.801  -1.328  47.901  1.00  0.00     0.167 HD
ENDBRANCH   1  10
TORSDOF 4
ENDMDL
