MODEL 1
REMARK VINA RESULT:    -3.898      0.000      0.000
REMARK INTER + INTRA:          -4.687
REMARK INTER:                  -4.582
REMARK INTRA:                  -0.105
REMARK UNBOUND:                -0.105
REMARK SMILES O=C([O-])CCC(=O)[O-]
REMARK SMILES IDX 4 1 2 2 1 3 3 4 5 5 6 6 7 7 8 8
REMARK H PARENT
REMARK Flexibility Score: inf
ROOT
ATOM      1  C   UNL     1      16.456  85.598 109.225  1.00  0.00     0.059 C 
ENDROOT
BRANCH   1   2
ATOM      2  C   UNL     1      15.967  84.414 109.997  1.00  0.00     0.042 C 
ATOM      3  O   UNL     1      16.785  83.656 110.581  1.00  0.00    -0.550 OA
ATOM      4  O   UNL     1      14.603  84.175 110.114  1.00  0.00    -0.550 OA
ENDBRANCH   1   2
BRANCH   1   5
ATOM      5  C   UNL     1      17.406  85.156 108.111  1.00  0.00     0.059 C 
BRANCH   5   6
ATOM      6  C   UNL     1      18.796  85.635 108.388  1.00  0.00     0.042 C 
ATOM      7  O   UNL     1      19.686  84.823 108.752  1.00  0.00    -0.550 OA
ATOM      8  O   UNL     1      19.121  86.972 108.194  1.00  0.00    -0.550 OA
ENDBRANCH   5   6
ENDBRANCH   1   5
TORSDOF 3
ENDMDL
MODEL 2
REMARK VINA RESULT:    -3.857      0.121      3.919
REMARK INTER + INTRA:          -4.639
REMARK INTER:                  -4.541
REMARK INTRA:                  -0.099
REMARK UNBOUND:                -0.105
REMARK SMILES O=C([O-])CCC(=O)[O-]
REMARK SMILES IDX 4 1 2 2 1 3 3 4 5 5 6 6 7 7 8 8
REMARK H PARENT
REMARK Flexibility Score: inf
ROOT
ATOM      1  C   UNL     1      17.408  85.171 108.038  1.00  0.00     0.059 C 
ENDROOT
BRANCH   1   2
ATOM      2  C   UNL     1      18.772  85.700 108.347  1.00  0.00     0.042 C 
ATOM      3  O   UNL     1      19.005  86.935 108.272  1.00  0.00    -0.550 OA
ATOM      4  O   UNL     1      19.774  84.835 108.769  1.00  0.00    -0.550 OA
ENDBRANCH   1   2
BRANCH   1   5
ATOM      5  C   UNL     1      16.403  85.627 109.096  1.00  0.00     0.059 C 
BRANCH   5   6
ATOM      6  C   UNL     1      15.949  84.465 109.923  1.00  0.00     0.042 C 
ATOM      7  O   UNL     1      16.791  83.668 110.413  1.00  0.00    -0.550 OA
ATOM      8  O   UNL     1      14.597  84.290 110.193  1.00  0.00    -0.550 OA
ENDBRANCH   5   6
ENDBRANCH   1   5
TORSDOF 3
ENDMDL
MODEL 3
REMARK VINA RESULT:    -3.847      0.149      1.152
REMARK INTER + INTRA:          -4.627
REMARK INTER:                  -4.539
REMARK INTRA:                  -0.088
REMARK UNBOUND:                -0.105
REMARK SMILES O=C([O-])CCC(=O)[O-]
REMARK SMILES IDX 4 1 2 2 1 3 3 4 5 5 6 6 7 7 8 8
REMARK H PARENT
REMARK Flexibility Score: inf
ROOT
ATOM      1  C   UNL     1      16.402  85.608 109.176  1.00  0.00     0.059 C 
ENDROOT
BRANCH   1   2
ATOM      2  C   UNL     1      16.036  84.432 110.025  1.00  0.00     0.042 C 
ATOM      3  O   UNL     1      16.933  83.674 110.478  1.00  0.00    -0.550 OA
ATOM      4  O   UNL     1      14.707  84.202 110.359  1.00  0.00    -0.550 OA
ENDBRANCH   1   2
BRANCH   1   5
ATOM      5  C   UNL     1      17.395  85.196 108.090  1.00  0.00     0.059 C 
BRANCH   5   6
ATOM      6  C   UNL     1      18.764  85.708 108.410  1.00  0.00     0.042 C 
ATOM      7  O   UNL     1      19.005  86.943 108.364  1.00  0.00    -0.550 OA
ATOM      8  O   UNL     1      19.761  84.826 108.808  1.00  0.00    -0.550 OA
ENDBRANCH   5   6
ENDBRANCH   1   5
TORSDOF 3
ENDMDL
MODEL 4
REMARK VINA RESULT:    -3.743      0.756      3.991
REMARK INTER + INTRA:          -4.505
REMARK INTER:                  -4.461
REMARK INTRA:                  -0.044
REMARK UNBOUND:                -0.105
REMARK SMILES O=C([O-])CCC(=O)[O-]
REMARK SMILES IDX 4 1 2 2 1 3 3 4 5 5 6 6 7 7 8 8
REMARK H PARENT
REMARK Flexibility Score: inf
ROOT
ATOM      1  C   UNL     1      17.686  85.401 109.972  1.00  0.00     0.059 C 
ENDROOT
BRANCH   1   2
ATOM      2  C   UNL     1      18.757  85.599 108.946  1.00  0.00     0.042 C 
ATOM      3  O   UNL     1      19.547  84.661 108.664  1.00  0.00    -0.550 OA
ATOM      4  O   UNL     1      18.851  86.807 108.264  1.00  0.00    -0.550 OA
ENDBRANCH   1   2
BRANCH   1   5
ATOM      5  C   UNL     1      16.346  85.108 109.298  1.00  0.00     0.059 C 
BRANCH   5   6
ATOM      6  C   UNL     1      15.500  84.236 110.171  1.00  0.00     0.042 C 
ATOM      7  O   UNL     1      16.038  83.405 110.948  1.00  0.00    -0.550 OA
ATOM      8  O   UNL     1      14.117  84.375 110.162  1.00  0.00    -0.550 OA
ENDBRANCH   5   6
ENDBRANCH   1   5
TORSDOF 3
ENDMDL
MODEL 5
REMARK VINA RESULT:    -3.547      8.527     10.734
REMARK INTER + INTRA:          -4.275
REMARK INTER:                  -4.246
REMARK INTRA:                  -0.029
REMARK UNBOUND:                -0.105
REMARK SMILES O=C([O-])CCC(=O)[O-]
REMARK SMILES IDX 4 1 2 2 1 3 3 4 5 5 6 6 7 7 8 8
REMARK H PARENT
REMARK Flexibility Score: inf
ROOT
ATOM      1  C   UNL     1       8.029  86.146 110.167  1.00  0.00     0.059 C 
ENDROOT
BRANCH   1   2
ATOM      2  C   UNL     1       8.799  85.988 108.895  1.00  0.00     0.042 C 
ATOM      3  O   UNL     1       8.317  85.326 107.939  1.00  0.00    -0.550 OA
ATOM      4  O   UNL     1      10.030  86.615 108.746  1.00  0.00    -0.550 OA
ENDBRANCH   1   2
BRANCH   1   5
ATOM      5  C   UNL     1       6.600  86.606 109.874  1.00  0.00     0.059 C 
BRANCH   5   6
ATOM      6  C   UNL     1       6.103  87.496 110.970  1.00  0.00     0.042 C 
ATOM      7  O   UNL     1       6.005  87.059 112.146  1.00  0.00    -0.550 OA
ATOM      8  O   UNL     1       5.793  88.824 110.700  1.00  0.00    -0.550 OA
ENDBRANCH   5   6
ENDBRANCH   1   5
TORSDOF 3
ENDMDL
MODEL 6
REMARK VINA RESULT:    -3.415      8.561     10.354
REMARK INTER + INTRA:          -4.119
REMARK INTER:                  -4.087
REMARK INTRA:                  -0.032
REMARK UNBOUND:                -0.105
REMARK SMILES O=C([O-])CCC(=O)[O-]
REMARK SMILES IDX 4 1 2 2 1 3 3 4 5 5 6 6 7 7 8 8
REMARK H PARENT
REMARK Flexibility Score: inf
ROOT
ATOM      1  C   UNL     1       6.569  86.455 109.885  1.00  0.00     0.059 C 
ENDROOT
BRANCH   1   2
ATOM      2  C   UNL     1       6.061  87.402 110.925  1.00  0.00     0.042 C 
ATOM      3  O   UNL     1       5.647  88.544 110.595  1.00  0.00    -0.550 OA
ATOM      4  O   UNL     1       5.999  87.005 112.256  1.00  0.00    -0.550 OA
ENDBRANCH   1   2
BRANCH   1   5
ATOM      5  C   UNL     1       8.074  86.243 110.043  1.00  0.00     0.059 C 
BRANCH   5   6
ATOM      6  C   UNL     1       8.680  85.804 108.746  1.00  0.00     0.042 C 
ATOM      7  O   UNL     1       7.989  85.172 107.905  1.00  0.00    -0.550 OA
ATOM      8  O   UNL     1       9.995  86.138 108.446  1.00  0.00    -0.550 OA
ENDBRANCH   5   6
ENDBRANCH   1   5
TORSDOF 3
ENDMDL
MODEL 7
REMARK VINA RESULT:    -3.329      7.059      8.814
REMARK INTER + INTRA:          -4.018
REMARK INTER:                  -3.905
REMARK INTRA:                  -0.112
REMARK UNBOUND:                -0.105
REMARK SMILES O=C([O-])CCC(=O)[O-]
REMARK SMILES IDX 4 1 2 2 1 3 3 4 5 5 6 6 7 7 8 8
REMARK H PARENT
REMARK Flexibility Score: inf
ROOT
ATOM      1  C   UNL     1       8.830  85.891 109.916  1.00  0.00     0.059 C 
ENDROOT
BRANCH   1   2
ATOM      2  C   UNL     1       7.406  86.225 109.602  1.00  0.00     0.042 C 
ATOM      3  O   UNL     1       6.793  85.603 108.696  1.00  0.00    -0.550 OA
ATOM      4  O   UNL     1       6.738  87.191 110.346  1.00  0.00    -0.550 OA
ENDBRANCH   1   2
BRANCH   1   5
ATOM      5  C   UNL     1       9.753  86.379 108.800  1.00  0.00     0.059 C 
BRANCH   5   6
ATOM      6  C   UNL     1      10.191  85.233 107.943  1.00  0.00     0.042 C 
ATOM      7  O   UNL     1       9.566  84.957 106.886  1.00  0.00    -0.550 OA
ATOM      8  O   UNL     1      11.320  84.500 108.287  1.00  0.00    -0.550 OA
ENDBRANCH   5   6
ENDBRANCH   1   5
TORSDOF 3
ENDMDL
MODEL 8
REMARK VINA RESULT:    -3.303     10.498     11.837
REMARK INTER + INTRA:          -3.988
REMARK INTER:                  -3.801
REMARK INTRA:                  -0.187
REMARK UNBOUND:                -0.105
REMARK SMILES O=C([O-])CCC(=O)[O-]
REMARK SMILES IDX 4 1 2 2 1 3 3 4 5 5 6 6 7 7 8 8
REMARK H PARENT
REMARK Flexibility Score: inf
ROOT
ATOM      1  C   UNL     1      17.392  77.292 119.662  1.00  0.00     0.059 C 
ENDROOT
BRANCH   1   2
ATOM      2  C   UNL     1      16.320  76.810 118.737  1.00  0.00     0.042 C 
ATOM      3  O   UNL     1      16.574  75.925 117.878  1.00  0.00    -0.550 OA
ATOM      4  O   UNL     1      15.026  77.302 118.856  1.00  0.00    -0.550 OA
ENDBRANCH   1   2
BRANCH   1   5
ATOM      5  C   UNL     1      18.551  77.897 118.871  1.00  0.00     0.059 C 
BRANCH   5   6
ATOM      6  C   UNL     1      18.111  79.140 118.164  1.00  0.00     0.042 C 
ATOM      7  O   UNL     1      18.234  79.237 116.915  1.00  0.00    -0.550 OA
ATOM      8  O   UNL     1      17.518  80.173 118.880  1.00  0.00    -0.550 OA
ENDBRANCH   5   6
ENDBRANCH   1   5
TORSDOF 3
ENDMDL
MODEL 9
REMARK VINA RESULT:    -3.302     10.465     12.265
REMARK INTER + INTRA:          -3.987
REMARK INTER:                  -3.794
REMARK INTRA:                  -0.193
REMARK UNBOUND:                -0.105
REMARK SMILES O=C([O-])CCC(=O)[O-]
REMARK SMILES IDX 4 1 2 2 1 3 3 4 5 5 6 6 7 7 8 8
REMARK H PARENT
REMARK Flexibility Score: inf
ROOT
ATOM      1  C   UNL     1      18.650  77.922 118.834  1.00  0.00     0.059 C 
ENDROOT
BRANCH   1   2
ATOM      2  C   UNL     1      18.155  79.130 118.103  1.00  0.00     0.042 C 
ATOM      3  O   UNL     1      18.242  79.192 116.849  1.00  0.00    -0.550 OA
ATOM      4  O   UNL     1      17.552  80.167 118.803  1.00  0.00    -0.550 OA
ENDBRANCH   1   2
BRANCH   1   5
ATOM      5  C   UNL     1      17.526  77.297 119.659  1.00  0.00     0.059 C 
BRANCH   5   6
ATOM      6  C   UNL     1      16.442  76.784 118.764  1.00  0.00     0.042 C 
ATOM      7  O   UNL     1      15.264  77.211 118.886  1.00  0.00    -0.550 OA
ATOM      8  O   UNL     1      16.743  75.870 117.762  1.00  0.00    -0.550 OA
ENDBRANCH   5   6
ENDBRANCH   1   5
TORSDOF 3
ENDMDL
