MODEL 1
REMARK VINA RESULT:     0.074      0.000      0.000
REMARK INTER + INTRA:           0.081
REMARK INTER:                   0.081
REMARK INTRA:                   0.000
REMARK UNBOUND:                 0.000
REMARK SMILES Cc1cc(O)c2c(c1)C(=O)c1cc(O)cc(O)c1C2=O
REMARK SMILES IDX 1 1 2 2 8 3 7 4 6 5 4 6 3 7 19 8 20 9 18 10 11 11 9 12 10 13
REMARK SMILES IDX 12 14 13 15 15 16 16 17 5 18 17 20 14 22
REMARK H PARENT 5 19 17 21 14 23
REMARK Flexibility Score: inf
ROOT
ATOM      1  C   UNL     1      37.556  43.760   0.441  1.00  0.00     0.044 C 
ATOM      2  C   UNL     1      36.835  42.937   1.469  1.00  0.00    -0.047 A 
ATOM      3  C   UNL     1      36.509  41.603   1.201  1.00  0.00     0.016 A 
ATOM      4  C   UNL     1      35.872  40.812   2.173  1.00  0.00     0.038 A 
ATOM      5  C   UNL     1      35.582  41.358   3.443  1.00  0.00     0.076 A 
ATOM      6  C   UNL     1      35.873  42.724   3.694  1.00  0.00     0.127 A 
ATOM      7  C   UNL     1      36.524  43.485   2.718  1.00  0.00     0.050 A 
ATOM      8  C   UNL     1      35.044  40.449   4.490  1.00  0.00     0.201 C 
ATOM      9  O   UNL     1      35.296  40.674   5.705  1.00  0.00    -0.288 OA
ATOM     10  C   UNL     1      34.376  39.183   4.096  1.00  0.00     0.076 A 
ATOM     11  C   UNL     1      34.670  38.641   2.824  1.00  0.00     0.041 A 
ATOM     12  C   UNL     1      35.502  39.410   1.869  1.00  0.00     0.194 C 
ATOM     13  O   UNL     1      35.873  38.880   0.786  1.00  0.00    -0.289 OA
ATOM     14  C   UNL     1      34.167  37.377   2.470  1.00  0.00     0.059 A 
ATOM     15  C   UNL     1      33.365  36.658   3.360  1.00  0.00     0.120 A 
ATOM     16  C   UNL     1      33.041  37.207   4.599  1.00  0.00     0.093 A 
ATOM     17  C   UNL     1      33.511  38.471   4.968  1.00  0.00     0.131 A 
ENDROOT
BRANCH   6  18
ATOM     18  O   UNL     1      35.507  43.370   4.877  1.00  0.00    -0.507 OA
ATOM     19  H   UNL     1      35.892  43.139   5.783  1.00  0.00     0.293 HD
ENDBRANCH   6  18
BRANCH  17  20
ATOM     20  O   UNL     1      33.070  38.993   6.186  1.00  0.00    -0.507 OA
ATOM     21  H   UNL     1      32.396  39.744   6.262  1.00  0.00     0.293 HD
ENDBRANCH  17  20
BRANCH  15  22
ATOM     22  O   UNL     1      32.876  35.400   3.016  1.00  0.00    -0.508 OA
ATOM     23  H   UNL     1      33.339  34.820   2.326  1.00  0.00     0.293 HD
ENDBRANCH  15  22
TORSDOF 3
ENDMDL
MODEL 2
REMARK VINA RESULT:     3.068      2.027      6.089
REMARK INTER + INTRA:           3.337
REMARK INTER:                   3.337
REMARK INTRA:                   0.000
REMARK UNBOUND:                 0.000
REMARK SMILES Cc1cc(O)c2c(c1)C(=O)c1cc(O)cc(O)c1C2=O
REMARK SMILES IDX 1 1 2 2 8 3 7 4 6 5 4 6 3 7 19 8 20 9 18 10 11 11 9 12 10 13
REMARK SMILES IDX 12 14 13 15 15 16 16 17 5 18 17 20 14 22
REMARK H PARENT 5 19 17 21 14 23
REMARK Flexibility Score: inf
ROOT
ATOM      1  C   UNL     1      35.875  36.030   7.126  1.00  0.00     0.044 C 
ATOM      2  C   UNL     1      35.591  36.785   5.861  1.00  0.00    -0.047 A 
ATOM      3  C   UNL     1      36.264  37.981   5.589  1.00  0.00     0.016 A 
ATOM      4  C   UNL     1      36.037  38.673   4.387  1.00  0.00     0.038 A 
ATOM      5  C   UNL     1      35.144  38.145   3.429  1.00  0.00     0.076 A 
ATOM      6  C   UNL     1      34.431  36.956   3.729  1.00  0.00     0.127 A 
ATOM      7  C   UNL     1      34.687  36.275   4.923  1.00  0.00     0.050 A 
ATOM      8  C   UNL     1      35.044  38.827   2.112  1.00  0.00     0.201 C 
ATOM      9  O   UNL     1      34.763  38.160   1.080  1.00  0.00    -0.288 OA
ATOM     10  C   UNL     1      35.457  40.248   1.983  1.00  0.00     0.076 A 
ATOM     11  C   UNL     1      36.352  40.772   2.944  1.00  0.00     0.041 A 
ATOM     12  C   UNL     1      36.730  39.956   4.122  1.00  0.00     0.194 C 
ATOM     13  O   UNL     1      37.624  40.367   4.913  1.00  0.00    -0.289 OA
ATOM     14  C   UNL     1      36.874  42.066   2.780  1.00  0.00     0.059 A 
ATOM     15  C   UNL     1      36.503  42.846   1.681  1.00  0.00     0.120 A 
ATOM     16  C   UNL     1      35.591  42.347   0.753  1.00  0.00     0.093 A 
ATOM     17  C   UNL     1      35.041  41.071   0.904  1.00  0.00     0.131 A 
ENDROOT
BRANCH   6  18
ATOM     18  O   UNL     1      33.441  36.436   2.891  1.00  0.00    -0.507 OA
ATOM     19  H   UNL     1      32.787  37.009   2.375  1.00  0.00     0.293 HD
ENDBRANCH   6  18
BRANCH  17  20
ATOM     20  O   UNL     1      34.066  40.676  -0.015  1.00  0.00    -0.507 OA
ATOM     21  H   UNL     1      33.122  40.425   0.245  1.00  0.00     0.293 HD
ENDBRANCH  17  20
BRANCH  15  22
ATOM     22  O   UNL     1      37.029  44.125   1.508  1.00  0.00    -0.508 OA
ATOM     23  H   UNL     1      37.344  44.453   0.602  1.00  0.00     0.293 HD
ENDBRANCH  15  22
TORSDOF 3
ENDMDL
