MODEL 1
REMARK VINA RESULT:    19.184      0.000      0.000
REMARK INTER + INTRA:          29.617
REMARK INTER:                  27.034
REMARK INTRA:                   2.583
REMARK UNBOUND:                 2.583
REMARK SMILES COc1ccc(-c2cc(=O)c3c(OC)c(OC)c(OC)c(OC)c3o2)cc1OC
REMARK SMILES IDX 7 1 8 2 9 3 10 4 11 5 24 6 25 7 21 8 18 9 15 10 12 11 6 12
REMARK SMILES IDX 3 13 27 14 4 15 26 16 5 17 2 18 1 19 28 20 29 21 22 22 23 23
REMARK SMILES IDX 13 24 14 25 19 26 20 27 16 28 17 29
REMARK H PARENT
REMARK Flexibility Score: inf
ROOT
ATOM      1  C   UNL     1      -9.301  36.185  -0.666  1.00  0.00     0.138 A 
ATOM      2  C   UNL     1      -8.382  37.214  -0.444  1.00  0.00     0.100 A 
ATOM      3  C   UNL     1      -7.182  36.926   0.200  1.00  0.00     0.197 A 
ATOM      4  O   UNL     1      -6.367  37.868   0.398  1.00  0.00    -0.289 OA
ATOM      5  C   UNL     1      -6.902  35.601   0.612  1.00  0.00     0.115 A 
ATOM      6  C   UNL     1      -7.885  34.615   0.364  1.00  0.00     0.188 A 
ATOM      7  O   UNL     1      -9.014  34.953  -0.254  1.00  0.00    -0.452 OA
ATOM      8  C   UNL     1      -7.671  33.273   0.760  1.00  0.00     0.209 A 
ATOM      9  C   UNL     1      -6.446  32.912   1.376  1.00  0.00     0.211 A 
ATOM     10  C   UNL     1      -5.444  33.896   1.585  1.00  0.00     0.208 A 
ATOM     11  C   UNL     1      -5.697  35.247   1.256  1.00  0.00     0.179 A 
ENDROOT
BRANCH   1  12
ATOM     12  C   UNL     1     -10.599  36.438  -1.338  1.00  0.00     0.021 A 
ATOM     13  C   UNL     1     -13.085  36.939  -2.581  1.00  0.00     0.160 A 
ATOM     14  C   UNL     1     -11.990  36.528  -3.352  1.00  0.00     0.161 A 
ATOM     15  C   UNL     1     -12.937  37.088  -1.189  1.00  0.00     0.051 A 
ATOM     16  C   UNL     1     -10.750  36.277  -2.726  1.00  0.00     0.062 A 
ATOM     17  C   UNL     1     -11.708  36.834  -0.577  1.00  0.00     0.016 A 
BRANCH  13  18
ATOM     18  O   UNL     1     -14.306  37.183  -3.232  1.00  0.00    -0.493 OA
ATOM     19  C   UNL     1     -15.442  37.787  -2.618  1.00  0.00     0.278 C 
ENDBRANCH  13  18
BRANCH  14  20
ATOM     20  O   UNL     1     -12.173  36.376  -4.735  1.00  0.00    -0.493 OA
ATOM     21  C   UNL     1     -12.964  35.358  -5.340  1.00  0.00     0.278 C 
ENDBRANCH  14  20
ENDBRANCH   1  12
BRANCH   8  22
ATOM     22  O   UNL     1      -8.632  32.268   0.539  1.00  0.00    -0.490 OA
ATOM     23  C   UNL     1      -8.536  31.180  -0.381  1.00  0.00     0.278 C 
ENDBRANCH   8  22
BRANCH  11  24
ATOM     24  O   UNL     1      -4.760  36.261   1.532  1.00  0.00    -0.492 OA
ATOM     25  C   UNL     1      -3.880  36.863   0.584  1.00  0.00     0.278 C 
ENDBRANCH  11  24
BRANCH   9  26
ATOM     26  O   UNL     1      -6.180  31.600   1.815  1.00  0.00    -0.490 OA
ATOM     27  C   UNL     1      -6.859  30.403   1.451  1.00  0.00     0.279 C 
ENDBRANCH   9  26
BRANCH  10  28
ATOM     28  O   UNL     1      -4.173  33.581   2.104  1.00  0.00    -0.490 OA
ATOM     29  C   UNL     1      -3.880  32.840   3.284  1.00  0.00     0.278 C 
ENDBRANCH  10  28
TORSDOF 7
ENDMDL
MODEL 2
REMARK VINA RESULT:    21.584      1.054      1.796
REMARK INTER + INTRA:          32.999
REMARK INTER:                  30.098
REMARK INTRA:                   2.902
REMARK UNBOUND:                 2.583
REMARK SMILES COc1ccc(-c2cc(=O)c3c(OC)c(OC)c(OC)c(OC)c3o2)cc1OC
REMARK SMILES IDX 7 1 8 2 9 3 10 4 11 5 24 6 25 7 21 8 18 9 15 10 12 11 6 12
REMARK SMILES IDX 3 13 27 14 4 15 26 16 5 17 2 18 1 19 28 20 29 21 22 22 23 23
REMARK SMILES IDX 13 24 14 25 19 26 20 27 16 28 17 29
REMARK H PARENT
REMARK Flexibility Score: inf
ROOT
ATOM      1  C   UNL     1      -8.753  35.844  -0.549  1.00  0.00     0.138 A 
ATOM      2  C   UNL     1      -7.884  36.863  -0.151  1.00  0.00     0.100 A 
ATOM      3  C   UNL     1      -6.797  36.552   0.660  1.00  0.00     0.197 A 
ATOM      4  O   UNL     1      -6.027  37.486   1.015  1.00  0.00    -0.289 OA
ATOM      5  C   UNL     1      -6.580  35.213   1.065  1.00  0.00     0.115 A 
ATOM      6  C   UNL     1      -7.508  34.237   0.634  1.00  0.00     0.188 A 
ATOM      7  O   UNL     1      -8.529  34.599  -0.140  1.00  0.00    -0.452 OA
ATOM      8  C   UNL     1      -7.353  32.883   1.012  1.00  0.00     0.209 A 
ATOM      9  C   UNL     1      -6.237  32.499   1.798  1.00  0.00     0.211 A 
ATOM     10  C   UNL     1      -5.284  33.473   2.194  1.00  0.00     0.208 A 
ATOM     11  C   UNL     1      -5.487  34.835   1.877  1.00  0.00     0.179 A 
ENDROOT
BRANCH   1  12
ATOM     12  C   UNL     1      -9.932  36.122  -1.405  1.00  0.00     0.021 A 
ATOM     13  C   UNL     1     -12.152  36.651  -3.070  1.00  0.00     0.160 A 
ATOM     14  C   UNL     1     -12.353  36.300  -1.728  1.00  0.00     0.161 A 
ATOM     15  C   UNL     1     -10.841  36.747  -3.572  1.00  0.00     0.051 A 
ATOM     16  C   UNL     1     -11.241  36.038  -0.900  1.00  0.00     0.062 A 
ATOM     17  C   UNL     1      -9.745  36.491  -2.745  1.00  0.00     0.016 A 
BRANCH  13  18
ATOM     18  O   UNL     1     -13.279  36.903  -3.870  1.00  0.00    -0.493 OA
ATOM     19  C   UNL     1     -13.384  36.556  -5.248  1.00  0.00     0.278 C 
ENDBRANCH  13  18
BRANCH  14  20
ATOM     20  O   UNL     1     -13.672  36.224  -1.253  1.00  0.00    -0.493 OA
ATOM     21  C   UNL     1     -14.717  37.121  -1.619  1.00  0.00     0.278 C 
ENDBRANCH  14  20
ENDBRANCH   1  12
BRANCH   8  22
ATOM     22  O   UNL     1      -8.264  31.887   0.609  1.00  0.00    -0.490 OA
ATOM     23  C   UNL     1      -8.030  30.848  -0.341  1.00  0.00     0.278 C 
ENDBRANCH   8  22
BRANCH  11  24
ATOM     24  O   UNL     1      -4.609  35.838   2.330  1.00  0.00    -0.492 OA
ATOM     25  C   UNL     1      -4.967  36.950   3.150  1.00  0.00     0.278 C 
ENDBRANCH  11  24
BRANCH   9  26
ATOM     26  O   UNL     1      -6.037  31.171   2.228  1.00  0.00    -0.490 OA
ATOM     27  C   UNL     1      -7.024  30.226   2.627  1.00  0.00     0.279 C 
ENDBRANCH   9  26
BRANCH  10  28
ATOM     28  O   UNL     1      -4.107  33.139   2.893  1.00  0.00    -0.490 OA
ATOM     29  C   UNL     1      -3.875  31.984   3.692  1.00  0.00     0.278 C 
ENDBRANCH  10  28
TORSDOF 7
ENDMDL
