MODEL 1
REMARK VINA RESULT:   154.318      0.000      0.000
REMARK INTER + INTRA:         168.182
REMARK INTER:                 167.850
REMARK INTRA:                   0.332
REMARK UNBOUND:                 0.332
REMARK SMILES CC1(C)CC[C@]2(C(=O)[O-])CC[C@]3(C)C(=CC[C@@H]4[C@@]5(C)CC[C@@H](O)C(C)(C)[C@H]5CC[C@@]43C)[C@H]2C1
REMARK SMILES IDX 6 1 5 2 10 3 32 4 4 5 11 6 14 7 33 8 2 9 12 10 15 11 1 12
REMARK SMILES IDX 3 13 13 14 30 15 16 16 17 17 29 18 31 19 18 20 28 21 27 22
REMARK SMILES IDX 20 23 19 24 24 25 21 26 22 27 25 28 26 29 7 30 8 31 9 32
REMARK SMILES IDX 23 33
REMARK H PARENT 23 34
REMARK Flexibility Score: inf
ROOT
ATOM      1  C   UNL     1     -29.152  31.968 -16.191  1.00  0.00     0.017 C 
ATOM      2  C   UNL     1     -28.815  33.355 -16.806  1.00  0.00     0.014 C 
ATOM      3  C   UNL     1     -28.664  30.846 -17.158  1.00  0.00     0.014 C 
ATOM      4  C   UNL     1     -30.710  31.912 -16.033  1.00  0.00     0.028 C 
ATOM      5  C   UNL     1     -29.308  34.519 -15.921  1.00  0.00     0.007 C 
ATOM      6  C   UNL     1     -29.267  29.437 -16.883  1.00  0.00     0.013 C 
ATOM      7  C   UNL     1     -31.161  30.484 -15.713  1.00  0.00    -0.064 C 
ATOM      8  C   UNL     1     -31.231  33.037 -15.101  1.00  0.00     0.015 C 
ATOM      9  C   UNL     1     -30.830  34.457 -15.602  1.00  0.00    -0.035 C 
ATOM     10  C   UNL     1     -30.825  29.405 -16.750  1.00  0.00    -0.006 C 
ATOM     11  C   UNL     1     -31.392  30.129 -14.440  1.00  0.00    -0.027 C 
ATOM     12  C   UNL     1     -31.662  34.866 -16.841  1.00  0.00     0.011 C 
ATOM     13  C   UNL     1     -31.137  35.474 -14.479  1.00  0.00     0.011 C 
ATOM     14  C   UNL     1     -31.424  29.836 -18.139  1.00  0.00     0.017 C 
ATOM     15  C   UNL     1     -31.436  27.946 -16.323  1.00  0.00    -0.020 C 
ATOM     16  C   UNL     1     -30.897  28.817 -13.933  1.00  0.00     0.032 C 
ATOM     17  C   UNL     1     -31.415  27.618 -14.755  1.00  0.00     0.006 C 
ATOM     18  C   UNL     1     -30.750  26.802 -17.130  1.00  0.00     0.008 C 
ATOM     19  C   UNL     1     -32.951  27.908 -16.728  1.00  0.00     0.012 C 
ATOM     20  C   UNL     1     -30.760  26.224 -14.312  1.00  0.00    -0.025 C 
ATOM     21  C   UNL     1     -29.449  26.225 -16.550  1.00  0.00     0.005 C 
ATOM     22  C   UNL     1     -29.353  26.044 -14.997  1.00  0.00     0.003 C 
ATOM     23  C   UNL     1     -31.687  25.003 -14.662  1.00  0.00     0.010 C 
ATOM     24  C   UNL     1     -30.646  26.237 -12.752  1.00  0.00     0.012 C 
ATOM     25  C   UNL     1     -28.585  24.694 -14.581  1.00  0.00    -0.006 C 
ATOM     26  C   UNL     1     -30.937  23.716 -15.080  1.00  0.00     0.033 C 
ATOM     27  C   UNL     1     -29.605  23.513 -14.335  1.00  0.00     0.120 C 
ATOM     28  C   UNL     1     -27.750  24.925 -13.287  1.00  0.00     0.014 C 
ATOM     29  C   UNL     1     -27.515  24.281 -15.646  1.00  0.00     0.014 C 
ENDROOT
BRANCH   1  30
ATOM     30  C   UNL     1     -28.374  31.816 -14.882  1.00  0.00     0.048 C 
ATOM     31  O   UNL     1     -28.900  32.059 -13.764  1.00  0.00    -0.550 OA
ATOM     32  O   UNL     1     -27.067  31.332 -14.908  1.00  0.00    -0.550 OA
ENDBRANCH   1  30
BRANCH  27  33
ATOM     33  O   UNL     1     -29.069  22.270 -14.717  1.00  0.00    -0.393 OA
ATOM     34  H   UNL     1     -29.789  21.777 -15.193  1.00  0.00     0.210 HD
ENDBRANCH  27  33
TORSDOF 2
ENDMDL
MODEL 2
REMARK VINA RESULT:   154.321     10.040     12.221
REMARK INTER + INTRA:         168.186
REMARK INTER:                 167.464
REMARK INTRA:                   0.722
REMARK UNBOUND:                 0.332
REMARK SMILES CC1(C)CC[C@]2(C(=O)[O-])CC[C@]3(C)C(=CC[C@@H]4[C@@]5(C)CC[C@@H](O)C(C)(C)[C@H]5CC[C@@]43C)[C@H]2C1
REMARK SMILES IDX 6 1 5 2 10 3 32 4 4 5 11 6 14 7 33 8 2 9 12 10 15 11 1 12
REMARK SMILES IDX 3 13 13 14 30 15 16 16 17 17 29 18 31 19 18 20 28 21 27 22
REMARK SMILES IDX 20 23 19 24 24 25 21 26 22 27 25 28 26 29 7 30 8 31 9 32
REMARK SMILES IDX 23 33
REMARK H PARENT 23 34
REMARK Flexibility Score: inf
ROOT
ATOM      1  C   UNL     1     -41.472  30.195 -20.622  1.00  0.00     0.017 C 
ATOM      2  C   UNL     1     -41.884  31.662 -20.313  1.00  0.00     0.014 C 
ATOM      3  C   UNL     1     -40.194  29.839 -19.803  1.00  0.00     0.014 C 
ATOM      4  C   UNL     1     -41.173  30.125 -22.158  1.00  0.00     0.028 C 
ATOM      5  C   UNL     1     -43.122  32.101 -21.122  1.00  0.00     0.007 C 
ATOM      6  C   UNL     1     -39.439  28.567 -20.289  1.00  0.00     0.013 C 
ATOM      7  C   UNL     1     -40.480  28.804 -22.505  1.00  0.00    -0.064 C 
ATOM      8  C   UNL     1     -42.418  30.506 -23.001  1.00  0.00     0.015 C 
ATOM      9  C   UNL     1     -42.954  31.929 -22.661  1.00  0.00    -0.035 C 
ATOM     10  C   UNL     1     -39.134  28.531 -21.823  1.00  0.00    -0.006 C 
ATOM     11  C   UNL     1     -41.204  27.778 -22.977  1.00  0.00    -0.027 C 
ATOM     12  C   UNL     1     -42.022  33.026 -23.230  1.00  0.00     0.011 C 
ATOM     13  C   UNL     1     -44.337  32.101 -23.327  1.00  0.00     0.011 C 
ATOM     14  C   UNL     1     -38.158  29.723 -22.136  1.00  0.00     0.017 C 
ATOM     15  C   UNL     1     -38.466  27.129 -22.345  1.00  0.00    -0.020 C 
ATOM     16  C   UNL     1     -40.960  26.399 -22.465  1.00  0.00     0.032 C 
ATOM     17  C   UNL     1     -39.497  25.939 -22.643  1.00  0.00     0.006 C 
ATOM     18  C   UNL     1     -37.349  26.652 -21.369  1.00  0.00     0.008 C 
ATOM     19  C   UNL     1     -37.752  27.403 -23.715  1.00  0.00     0.012 C 
ATOM     20  C   UNL     1     -39.196  24.525 -21.953  1.00  0.00    -0.025 C 
ATOM     21  C   UNL     1     -37.788  25.787 -20.176  1.00  0.00     0.005 C 
ATOM     22  C   UNL     1     -38.912  24.722 -20.415  1.00  0.00     0.003 C 
ATOM     23  C   UNL     1     -37.985  23.787 -22.631  1.00  0.00     0.010 C 
ATOM     24  C   UNL     1     -40.441  23.611 -22.197  1.00  0.00     0.012 C 
ATOM     25  C   UNL     1     -38.643  23.355 -19.614  1.00  0.00    -0.006 C 
ATOM     26  C   UNL     1     -37.101  22.962 -21.665  1.00  0.00     0.033 C 
ATOM     27  C   UNL     1     -37.893  22.301 -20.523  1.00  0.00     0.120 C 
ATOM     28  C   UNL     1     -39.989  22.741 -19.127  1.00  0.00     0.014 C 
ATOM     29  C   UNL     1     -37.845  23.602 -18.290  1.00  0.00     0.014 C 
ENDROOT
BRANCH   1  30
ATOM     30  C   UNL     1     -42.593  29.267 -20.148  1.00  0.00     0.048 C 
ATOM     31  O   UNL     1     -42.355  28.124 -19.677  1.00  0.00    -0.550 OA
ATOM     32  O   UNL     1     -43.913  29.711 -20.171  1.00  0.00    -0.550 OA
ENDBRANCH   1  30
BRANCH  27  33
ATOM     33  O   UNL     1     -37.010  21.500 -19.777  1.00  0.00    -0.393 OA
ATOM     34  H   UNL     1     -36.179  21.407 -20.314  1.00  0.00     0.210 HD
ENDBRANCH  27  33
TORSDOF 2
ENDMDL
MODEL 3
REMARK VINA RESULT:   154.869     10.419     13.628
REMARK INTER + INTRA:         168.781
REMARK INTER:                 167.704
REMARK INTRA:                   1.077
REMARK UNBOUND:                 0.332
REMARK SMILES CC1(C)CC[C@]2(C(=O)[O-])CC[C@]3(C)C(=CC[C@@H]4[C@@]5(C)CC[C@@H](O)C(C)(C)[C@H]5CC[C@@]43C)[C@H]2C1
REMARK SMILES IDX 6 1 5 2 10 3 32 4 4 5 11 6 14 7 33 8 2 9 12 10 15 11 1 12
REMARK SMILES IDX 3 13 13 14 30 15 16 16 17 17 29 18 31 19 18 20 28 21 27 22
REMARK SMILES IDX 20 23 19 24 24 25 21 26 22 27 25 28 26 29 7 30 8 31 9 32
REMARK SMILES IDX 23 33
REMARK H PARENT 23 34
REMARK Flexibility Score: inf
ROOT
ATOM      1  C   UNL     1     -43.090  29.875 -21.295  1.00  0.00     0.017 C 
ATOM      2  C   UNL     1     -44.585  29.543 -21.034  1.00  0.00     0.014 C 
ATOM      3  C   UNL     1     -42.828  29.887 -22.833  1.00  0.00     0.014 C 
ATOM      4  C   UNL     1     -42.250  28.745 -20.609  1.00  0.00     0.028 C 
ATOM      5  C   UNL     1     -44.911  29.470 -19.528  1.00  0.00     0.007 C 
ATOM      6  C   UNL     1     -41.328  29.814 -23.242  1.00  0.00     0.013 C 
ATOM      7  C   UNL     1     -40.787  28.821 -21.057  1.00  0.00    -0.064 C 
ATOM      8  C   UNL     1     -42.513  28.685 -19.082  1.00  0.00     0.015 C 
ATOM      9  C   UNL     1     -44.018  28.463 -18.745  1.00  0.00    -0.035 C 
ATOM     10  C   UNL     1     -40.517  28.665 -22.559  1.00  0.00    -0.006 C 
ATOM     11  C   UNL     1     -39.887  29.446 -20.284  1.00  0.00    -0.027 C 
ATOM     12  C   UNL     1     -44.449  27.008 -19.047  1.00  0.00     0.011 C 
ATOM     13  C   UNL     1     -44.219  28.703 -17.232  1.00  0.00     0.011 C 
ATOM     14  C   UNL     1     -41.134  27.302 -23.044  1.00  0.00     0.017 C 
ATOM     15  C   UNL     1     -38.912  28.683 -22.888  1.00  0.00    -0.020 C 
ATOM     16  C   UNL     1     -38.885  30.361 -20.901  1.00  0.00     0.032 C 
ATOM     17  C   UNL     1     -38.032  29.676 -21.990  1.00  0.00     0.006 C 
ATOM     18  C   UNL     1     -38.661  28.950 -24.403  1.00  0.00     0.008 C 
ATOM     19  C   UNL     1     -38.333  27.253 -22.602  1.00  0.00     0.012 C 
ATOM     20  C   UNL     1     -37.066  30.694 -22.763  1.00  0.00    -0.025 C 
ATOM     21  C   UNL     1     -38.586  30.419 -24.848  1.00  0.00     0.005 C 
ATOM     22  C   UNL     1     -37.862  31.438 -23.902  1.00  0.00     0.003 C 
ATOM     23  C   UNL     1     -35.813  29.966 -23.373  1.00  0.00     0.010 C 
ATOM     24  C   UNL     1     -36.501  31.697 -21.705  1.00  0.00     0.012 C 
ATOM     25  C   UNL     1     -36.996  32.521 -24.713  1.00  0.00    -0.006 C 
ATOM     26  C   UNL     1     -35.323  30.536 -24.726  1.00  0.00     0.033 C 
ATOM     27  C   UNL     1     -35.489  32.062 -24.844  1.00  0.00     0.120 C 
ATOM     28  C   UNL     1     -37.047  33.901 -23.993  1.00  0.00     0.014 C 
ATOM     29  C   UNL     1     -37.604  32.815 -26.125  1.00  0.00     0.014 C 
ENDROOT
BRANCH   1  30
ATOM     30  C   UNL     1     -42.808  31.285 -20.771  1.00  0.00     0.048 C 
ATOM     31  O   UNL     1     -43.657  32.210 -20.863  1.00  0.00    -0.550 OA
ATOM     32  O   UNL     1     -41.609  31.550 -20.112  1.00  0.00    -0.550 OA
ENDBRANCH   1  30
BRANCH  27  33
ATOM     33  O   UNL     1     -34.920  32.476 -26.061  1.00  0.00    -0.393 OA
ATOM     34  H   UNL     1     -35.647  32.897 -26.593  1.00  0.00     0.210 HD
ENDBRANCH  27  33
TORSDOF 2
ENDMDL
MODEL 4
REMARK VINA RESULT:   155.392     12.022     14.511
REMARK INTER + INTRA:         169.350
REMARK INTER:                 168.174
REMARK INTRA:                   1.176
REMARK UNBOUND:                 0.332
REMARK SMILES CC1(C)CC[C@]2(C(=O)[O-])CC[C@]3(C)C(=CC[C@@H]4[C@@]5(C)CC[C@@H](O)C(C)(C)[C@H]5CC[C@@]43C)[C@H]2C1
REMARK SMILES IDX 6 1 5 2 10 3 32 4 4 5 11 6 14 7 33 8 2 9 12 10 15 11 1 12
REMARK SMILES IDX 3 13 13 14 30 15 16 16 17 17 29 18 31 19 18 20 28 21 27 22
REMARK SMILES IDX 20 23 19 24 24 25 21 26 22 27 25 28 26 29 7 30 8 31 9 32
REMARK SMILES IDX 23 33
REMARK H PARENT 23 34
REMARK Flexibility Score: inf
ROOT
ATOM      1  C   UNL     1     -44.813  30.302 -23.470  1.00  0.00     0.017 C 
ATOM      2  C   UNL     1     -46.346  30.422 -23.693  1.00  0.00     0.014 C 
ATOM      3  C   UNL     1     -44.530  29.145 -22.463  1.00  0.00     0.014 C 
ATOM      4  C   UNL     1     -44.335  31.670 -22.875  1.00  0.00     0.028 C 
ATOM      5  C   UNL     1     -46.707  31.578 -24.648  1.00  0.00     0.007 C 
ATOM      6  C   UNL     1     -43.103  29.152 -21.842  1.00  0.00     0.013 C 
ATOM      7  C   UNL     1     -42.901  31.550 -22.349  1.00  0.00    -0.064 C 
ATOM      8  C   UNL     1     -44.632  32.847 -23.839  1.00  0.00     0.015 C 
ATOM      9  C   UNL     1     -46.145  32.958 -24.196  1.00  0.00    -0.035 C 
ATOM     10  C   UNL     1     -42.658  30.524 -21.236  1.00  0.00    -0.006 C 
ATOM     11  C   UNL     1     -41.877  31.951 -23.117  1.00  0.00    -0.027 C 
ATOM     12  C   UNL     1     -46.959  33.510 -23.001  1.00  0.00     0.011 C 
ATOM     13  C   UNL     1     -46.299  33.957 -25.364  1.00  0.00     0.011 C 
ATOM     14  C   UNL     1     -43.622  30.842 -20.036  1.00  0.00     0.017 C 
ATOM     15  C   UNL     1     -41.106  30.558 -20.712  1.00  0.00    -0.020 C 
ATOM     16  C   UNL     1     -40.648  31.112 -23.212  1.00  0.00     0.032 C 
ATOM     17  C   UNL     1     -40.000  30.832 -21.839  1.00  0.00     0.006 C 
ATOM     18  C   UNL     1     -40.763  29.265 -19.913  1.00  0.00     0.008 C 
ATOM     19  C   UNL     1     -40.955  31.744 -19.695  1.00  0.00     0.012 C 
ATOM     20  C   UNL     1     -38.775  29.804 -21.921  1.00  0.00    -0.025 C 
ATOM     21  C   UNL     1     -40.272  28.055 -20.725  1.00  0.00     0.005 C 
ATOM     22  C   UNL     1     -39.310  28.322 -21.933  1.00  0.00     0.003 C 
ATOM     23  C   UNL     1     -37.764  29.999 -20.732  1.00  0.00     0.010 C 
ATOM     24  C   UNL     1     -37.971  30.137 -23.221  1.00  0.00     0.012 C 
ATOM     25  C   UNL     1     -38.161  27.206 -22.061  1.00  0.00    -0.006 C 
ATOM     26  C   UNL     1     -37.110  28.696 -20.214  1.00  0.00     0.033 C 
ATOM     27  C   UNL     1     -36.841  27.662 -21.322  1.00  0.00     0.120 C 
ATOM     28  C   UNL     1     -37.837  26.934 -23.560  1.00  0.00     0.014 C 
ATOM     29  C   UNL     1     -38.637  25.814 -21.525  1.00  0.00     0.014 C 
ENDROOT
BRANCH   1  30
ATOM     30  C   UNL     1     -44.158  29.922 -24.800  1.00  0.00     0.048 C 
ATOM     31  O   UNL     1     -44.818  29.856 -25.870  1.00  0.00    -0.550 OA
ATOM     32  O   UNL     1     -42.783  29.707 -24.856  1.00  0.00    -0.550 OA
ENDBRANCH   1  30
BRANCH  27  33
ATOM     33  O   UNL     1     -36.156  26.572 -20.754  1.00  0.00    -0.393 OA
ATOM     34  H   UNL     1     -35.193  26.689 -20.975  1.00  0.00     0.210 HD
ENDBRANCH  27  33
TORSDOF 2
ENDMDL
MODEL 5
REMARK VINA RESULT:   156.115      9.781     11.759
REMARK INTER + INTRA:         170.136
REMARK INTER:                 169.744
REMARK INTRA:                   0.392
REMARK UNBOUND:                 0.332
REMARK SMILES CC1(C)CC[C@]2(C(=O)[O-])CC[C@]3(C)C(=CC[C@@H]4[C@@]5(C)CC[C@@H](O)C(C)(C)[C@H]5CC[C@@]43C)[C@H]2C1
REMARK SMILES IDX 6 1 5 2 10 3 32 4 4 5 11 6 14 7 33 8 2 9 12 10 15 11 1 12
REMARK SMILES IDX 3 13 13 14 30 15 16 16 17 17 29 18 31 19 18 20 28 21 27 22
REMARK SMILES IDX 20 23 19 24 24 25 21 26 22 27 25 28 26 29 7 30 8 31 9 32
REMARK SMILES IDX 23 33
REMARK H PARENT 23 34
REMARK Flexibility Score: inf
ROOT
ATOM      1  C   UNL     1     -38.268  28.128 -22.399  1.00  0.00     0.017 C 
ATOM      2  C   UNL     1     -37.610  28.159 -23.807  1.00  0.00     0.014 C 
ATOM      3  C   UNL     1     -39.320  26.978 -22.350  1.00  0.00     0.014 C 
ATOM      4  C   UNL     1     -38.967  29.516 -22.197  1.00  0.00     0.028 C 
ATOM      5  C   UNL     1     -36.584  29.303 -23.945  1.00  0.00     0.007 C 
ATOM      6  C   UNL     1     -40.328  27.063 -21.167  1.00  0.00     0.013 C 
ATOM      7  C   UNL     1     -39.886  29.475 -20.972  1.00  0.00    -0.064 C 
ATOM      8  C   UNL     1     -37.951  30.684 -22.273  1.00  0.00     0.015 C 
ATOM      9  C   UNL     1     -37.171  30.709 -23.623  1.00  0.00    -0.035 C 
ATOM     10  C   UNL     1     -41.028  28.452 -21.000  1.00  0.00    -0.006 C 
ATOM     11  C   UNL     1     -39.445  29.945 -19.796  1.00  0.00    -0.027 C 
ATOM     12  C   UNL     1     -38.076  31.197 -24.779  1.00  0.00     0.011 C 
ATOM     13  C   UNL     1     -36.002  31.710 -23.492  1.00  0.00     0.011 C 
ATOM     14  C   UNL     1     -41.896  28.699 -22.287  1.00  0.00     0.017 C 
ATOM     15  C   UNL     1     -41.978  28.573 -19.671  1.00  0.00    -0.020 C 
ATOM     16  C   UNL     1     -39.715  29.182 -18.543  1.00  0.00     0.032 C 
ATOM     17  C   UNL     1     -41.218  28.926 -18.305  1.00  0.00     0.006 C 
ATOM     18  C   UNL     1     -42.850  27.293 -19.496  1.00  0.00     0.008 C 
ATOM     19  C   UNL     1     -42.988  29.754 -19.892  1.00  0.00     0.012 C 
ATOM     20  C   UNL     1     -41.500  27.973 -17.048  1.00  0.00    -0.025 C 
ATOM     21  C   UNL     1     -42.223  26.125 -18.719  1.00  0.00     0.005 C 
ATOM     22  C   UNL     1     -41.343  26.462 -17.467  1.00  0.00     0.003 C 
ATOM     23  C   UNL     1     -42.930  28.214 -16.438  1.00  0.00     0.010 C 
ATOM     24  C   UNL     1     -40.487  28.369 -15.925  1.00  0.00     0.012 C 
ATOM     25  C   UNL     1     -41.560  25.419 -16.264  1.00  0.00    -0.006 C 
ATOM     26  C   UNL     1     -43.623  26.947 -15.884  1.00  0.00     0.033 C 
ATOM     27  C   UNL     1     -42.647  25.944 -15.245  1.00  0.00     0.120 C 
ATOM     28  C   UNL     1     -40.220  25.184 -15.505  1.00  0.00     0.014 C 
ATOM     29  C   UNL     1     -41.944  23.995 -16.790  1.00  0.00     0.014 C 
ENDROOT
BRANCH   1  30
ATOM     30  C   UNL     1     -37.186  27.804 -21.366  1.00  0.00     0.048 C 
ATOM     31  O   UNL     1     -36.775  28.663 -20.542  1.00  0.00    -0.550 OA
ATOM     32  O   UNL     1     -36.681  26.509 -21.278  1.00  0.00    -0.550 OA
ENDBRANCH   1  30
BRANCH  27  33
ATOM     33  O   UNL     1     -43.395  24.890 -14.688  1.00  0.00    -0.393 OA
ATOM     34  H   UNL     1     -43.722  24.335 -15.445  1.00  0.00     0.210 HD
ENDBRANCH  27  33
TORSDOF 2
ENDMDL
MODEL 6
REMARK VINA RESULT:   157.057      6.055      8.952
REMARK INTER + INTRA:         171.161
REMARK INTER:                 170.580
REMARK INTRA:                   0.581
REMARK UNBOUND:                 0.332
REMARK SMILES CC1(C)CC[C@]2(C(=O)[O-])CC[C@]3(C)C(=CC[C@@H]4[C@@]5(C)CC[C@@H](O)C(C)(C)[C@H]5CC[C@@]43C)[C@H]2C1
REMARK SMILES IDX 6 1 5 2 10 3 32 4 4 5 11 6 14 7 33 8 2 9 12 10 15 11 1 12
REMARK SMILES IDX 3 13 13 14 30 15 16 16 17 17 29 18 31 19 18 20 28 21 27 22
REMARK SMILES IDX 20 23 19 24 24 25 21 26 22 27 25 28 26 29 7 30 8 31 9 32
REMARK SMILES IDX 23 33
REMARK H PARENT 23 34
REMARK Flexibility Score: inf
ROOT
ATOM      1  C   UNL     1     -38.025  28.743 -21.092  1.00  0.00     0.017 C 
ATOM      2  C   UNL     1     -39.286  28.032 -21.658  1.00  0.00     0.014 C 
ATOM      3  C   UNL     1     -37.043  27.672 -20.525  1.00  0.00     0.014 C 
ATOM      4  C   UNL     1     -38.518  29.690 -19.945  1.00  0.00     0.028 C 
ATOM      5  C   UNL     1     -40.325  29.035 -22.200  1.00  0.00     0.007 C 
ATOM      6  C   UNL     1     -35.936  28.230 -19.585  1.00  0.00     0.013 C 
ATOM      7  C   UNL     1     -37.327  30.209 -19.134  1.00  0.00    -0.064 C 
ATOM      8  C   UNL     1     -39.522  30.749 -20.471  1.00  0.00     0.015 C 
ATOM      9  C   UNL     1     -40.765  30.103 -21.155  1.00  0.00    -0.035 C 
ATOM     10  C   UNL     1     -36.457  29.156 -18.437  1.00  0.00    -0.006 C 
ATOM     11  C   UNL     1     -36.814  31.418 -19.406  1.00  0.00    -0.027 C 
ATOM     12  C   UNL     1     -41.714  29.475 -20.106  1.00  0.00     0.011 C 
ATOM     13  C   UNL     1     -41.550  31.213 -21.888  1.00  0.00     0.011 C 
ATOM     14  C   UNL     1     -37.372  28.280 -17.506  1.00  0.00     0.017 C 
ATOM     15  C   UNL     1     -35.274  29.849 -17.540  1.00  0.00    -0.020 C 
ATOM     16  C   UNL     1     -35.335  31.602 -19.460  1.00  0.00     0.032 C 
ATOM     17  C   UNL     1     -34.626  31.179 -18.157  1.00  0.00     0.006 C 
ATOM     18  C   UNL     1     -34.164  28.812 -17.192  1.00  0.00     0.008 C 
ATOM     19  C   UNL     1     -35.891  30.295 -16.168  1.00  0.00     0.012 C 
ATOM     20  C   UNL     1     -33.029  31.227 -18.268  1.00  0.00    -0.025 C 
ATOM     21  C   UNL     1     -33.032  28.632 -18.217  1.00  0.00     0.005 C 
ATOM     22  C   UNL     1     -32.493  29.909 -18.948  1.00  0.00     0.003 C 
ATOM     23  C   UNL     1     -32.347  31.420 -16.864  1.00  0.00     0.010 C 
ATOM     24  C   UNL     1     -32.656  32.498 -19.099  1.00  0.00     0.012 C 
ATOM     25  C   UNL     1     -30.899  29.874 -19.152  1.00  0.00    -0.006 C 
ATOM     26  C   UNL     1     -30.999  30.681 -16.687  1.00  0.00     0.033 C 
ATOM     27  C   UNL     1     -30.158  30.624 -17.975  1.00  0.00     0.120 C 
ATOM     28  C   UNL     1     -30.513  30.541 -20.505  1.00  0.00     0.014 C 
ATOM     29  C   UNL     1     -30.362  28.410 -19.292  1.00  0.00     0.014 C 
ENDROOT
BRANCH   1  30
ATOM     30  C   UNL     1     -37.311  29.455 -22.243  1.00  0.00     0.048 C 
ATOM     31  O   UNL     1     -37.026  30.680 -22.192  1.00  0.00    -0.550 OA
ATOM     32  O   UNL     1     -36.900  28.726 -23.357  1.00  0.00    -0.550 OA
ENDBRANCH   1  30
BRANCH  27  33
ATOM     33  O   UNL     1     -28.922  30.027 -17.670  1.00  0.00    -0.393 OA
ATOM     34  H   UNL     1     -28.563  30.496 -16.870  1.00  0.00     0.210 HD
ENDBRANCH  27  33
TORSDOF 2
ENDMDL
