MODEL 1
REMARK VINA RESULT:    -6.686      0.000      0.000
REMARK INTER + INTRA:         -11.156
REMARK INTER:                  -9.813
REMARK INTRA:                  -1.343
REMARK UNBOUND:                -1.343
REMARK SMILES Cc1cc2c(C(C)C)c(O)c(O)c(C=O)c2c(O)c1-c1c(C)cc2c(C(C)C)c(O)c(O)c(C=O)c2c1O
REMARK SMILES IDX 1 1 2 2 3 3 4 4 16 5 13 6 11 7 9 8 5 9 17 10 19 11 20 12
REMARK SMILES IDX 37 13 21 14 36 15 23 16 22 17 24 18 33 19 25 20 31 21 29 22
REMARK SMILES IDX 38 23 34 25 35 26 26 27 27 28 28 29 32 30 30 32 18 34 6 36
REMARK SMILES IDX 7 37 8 38 14 39 15 40 10 41 12 43
REMARK H PARENT 38 24 32 31 30 33 18 35 10 42 12 44
REMARK Flexibility Score: inf
ROOT
ATOM      1  C   UNL     1      13.034  -1.289   3.820  1.00  0.00     0.045 C 
ATOM      2  C   UNL     1      13.201  -0.025   3.011  1.00  0.00    -0.039 A 
ATOM      3  C   UNL     1      13.272  -0.104   1.621  1.00  0.00     0.013 A 
ATOM      4  C   UNL     1      13.460   1.041   0.814  1.00  0.00    -0.006 A 
ATOM      5  C   UNL     1      13.475   2.326   1.438  1.00  0.00     0.039 A 
ATOM      6  C   UNL     1      13.522   3.492   0.614  1.00  0.00     0.072 A 
ATOM      7  C   UNL     1      13.488   3.361  -0.790  1.00  0.00     0.169 A 
ATOM      8  C   UNL     1      13.487   2.098  -1.386  1.00  0.00     0.162 A 
ATOM      9  C   UNL     1      13.591   0.928  -0.605  1.00  0.00     0.008 A 
ATOM     10  C   UNL     1      13.402   2.402   2.864  1.00  0.00     0.132 A 
ATOM     11  C   UNL     1      13.281   1.228   3.638  1.00  0.00     0.031 A 
ENDROOT
BRANCH  11  12
ATOM     12  C   UNL     1      13.199   1.312   5.122  1.00  0.00     0.031 A 
ATOM     13  C   UNL     1      11.945   1.436   5.757  1.00  0.00     0.132 A 
ATOM     14  C   UNL     1      14.373   1.235   5.888  1.00  0.00    -0.039 A 
ATOM     15  C   UNL     1      11.860   1.543   7.180  1.00  0.00     0.039 A 
ATOM     16  C   UNL     1      14.292   1.308   7.278  1.00  0.00     0.013 A 
ATOM     17  C   UNL     1      15.717   1.018   5.235  1.00  0.00     0.045 C 
ATOM     18  C   UNL     1      13.066   1.523   7.946  1.00  0.00    -0.006 A 
ATOM     19  C   UNL     1      10.610   1.626   7.867  1.00  0.00     0.072 A 
ATOM     20  C   UNL     1      13.021   1.674   9.366  1.00  0.00     0.008 A 
ATOM     21  C   UNL     1      10.581   1.617   9.276  1.00  0.00     0.169 A 
ATOM     22  C   UNL     1      11.769   1.601  10.013  1.00  0.00     0.162 A 
BRANCH  13  23
ATOM     23  O   UNL     1      10.785   1.434   4.974  1.00  0.00    -0.507 OA
ATOM     24  H   UNL     1      10.592   2.107   4.243  1.00  0.00     0.293 HD
ENDBRANCH  13  23
BRANCH  19  25
ATOM     25  C   UNL     1       9.325   1.711   7.145  1.00  0.00     0.264 C 
ATOM     26  O   UNL     1       8.553   0.718   7.093  1.00  0.00    -0.298 OA
ENDBRANCH  19  25
BRANCH  20  27
ATOM     27  C   UNL     1      14.297   1.895  10.201  1.00  0.00     0.017 C 
ATOM     28  C   UNL     1      14.969   3.220   9.832  1.00  0.00     0.012 C 
ATOM     29  C   UNL     1      15.295   0.723  10.135  1.00  0.00     0.012 C 
ENDBRANCH  20  27
BRANCH  21  30
ATOM     30  O   UNL     1       9.373   1.659   9.986  1.00  0.00    -0.504 OA
ATOM     31  H   UNL     1       9.154   1.060  10.770  1.00  0.00     0.293 HD
ENDBRANCH  21  30
BRANCH  22  32
ATOM     32  O   UNL     1      11.708   1.516  11.405  1.00  0.00    -0.504 OA
ATOM     33  H   UNL     1      11.616   2.327  12.006  1.00  0.00     0.293 HD
ENDBRANCH  22  32
ENDBRANCH  11  12
BRANCH  10  34
ATOM     34  O   UNL     1      13.439   3.641   3.513  1.00  0.00    -0.507 OA
ATOM     35  H   UNL     1      14.264   4.025   3.956  1.00  0.00     0.293 HD
ENDBRANCH  10  34
BRANCH   9  36
ATOM     36  C   UNL     1      13.823  -0.430  -1.294  1.00  0.00     0.017 C 
ATOM     37  C   UNL     1      12.553  -0.903  -2.009  1.00  0.00     0.012 C 
ATOM     38  C   UNL     1      15.039  -0.448  -2.239  1.00  0.00     0.012 C 
ENDBRANCH   9  36
BRANCH   6  39
ATOM     39  C   UNL     1      13.584   4.852   1.182  1.00  0.00     0.264 C 
ATOM     40  O   UNL     1      12.533   5.528   1.341  1.00  0.00    -0.298 OA
ENDBRANCH   6  39
BRANCH   8  41
ATOM     41  O   UNL     1      13.381   1.999  -2.776  1.00  0.00    -0.504 OA
ATOM     42  H   UNL     1      13.198   1.127  -3.257  1.00  0.00     0.293 HD
ENDBRANCH   8  41
BRANCH   7  43
ATOM     43  O   UNL     1      13.487   4.481  -1.631  1.00  0.00    -0.504 OA
ATOM     44  H   UNL     1      13.970   4.525  -2.519  1.00  0.00     0.293 HD
ENDBRANCH   7  43
TORSDOF 11
ENDMDL
MODEL 2
REMARK VINA RESULT:    -6.647      3.623      5.725
REMARK INTER + INTRA:         -11.099
REMARK INTER:                  -9.836
REMARK INTRA:                  -1.263
REMARK UNBOUND:                -1.343
REMARK SMILES Cc1cc2c(C(C)C)c(O)c(O)c(C=O)c2c(O)c1-c1c(C)cc2c(C(C)C)c(O)c(O)c(C=O)c2c1O
REMARK SMILES IDX 1 1 2 2 3 3 4 4 16 5 13 6 11 7 9 8 5 9 17 10 19 11 20 12
REMARK SMILES IDX 37 13 21 14 36 15 23 16 22 17 24 18 33 19 25 20 31 21 29 22
REMARK SMILES IDX 38 23 34 25 35 26 26 27 27 28 28 29 32 30 30 32 18 34 6 36
REMARK SMILES IDX 7 37 8 38 14 39 15 40 10 41 12 43
REMARK H PARENT 38 24 32 31 30 33 18 35 10 42 12 44
REMARK Flexibility Score: inf
ROOT
ATOM      1  C   UNL     1      15.046   3.044   5.692  1.00  0.00     0.045 C 
ATOM      2  C   UNL     1      14.678   2.548   4.314  1.00  0.00    -0.039 A 
ATOM      3  C   UNL     1      14.398   3.470   3.305  1.00  0.00     0.013 A 
ATOM      4  C   UNL     1      14.017   3.065   2.006  1.00  0.00    -0.006 A 
ATOM      5  C   UNL     1      14.019   1.671   1.693  1.00  0.00     0.039 A 
ATOM      6  C   UNL     1      13.772   1.268   0.344  1.00  0.00     0.072 A 
ATOM      7  C   UNL     1      13.598   2.242  -0.659  1.00  0.00     0.169 A 
ATOM      8  C   UNL     1      13.586   3.602  -0.336  1.00  0.00     0.162 A 
ATOM      9  C   UNL     1      13.677   4.028   1.006  1.00  0.00     0.008 A 
ATOM     10  C   UNL     1      14.305   0.730   2.730  1.00  0.00     0.132 A 
ATOM     11  C   UNL     1      14.617   1.174   4.033  1.00  0.00     0.031 A 
ENDROOT
BRANCH  11  12
ATOM     12  C   UNL     1      14.921   0.192   5.109  1.00  0.00     0.031 A 
ATOM     13  C   UNL     1      16.247  -0.240   5.320  1.00  0.00     0.132 A 
ATOM     14  C   UNL     1      13.887  -0.277   5.933  1.00  0.00    -0.039 A 
ATOM     15  C   UNL     1      16.543  -1.203   6.335  1.00  0.00     0.039 A 
ATOM     16  C   UNL     1      14.175  -1.193   6.945  1.00  0.00     0.013 A 
ATOM     17  C   UNL     1      12.474   0.235   5.780  1.00  0.00     0.045 C 
ATOM     18  C   UNL     1      15.473  -1.719   7.130  1.00  0.00    -0.006 A 
ATOM     19  C   UNL     1      17.876  -1.636   6.613  1.00  0.00     0.072 A 
ATOM     20  C   UNL     1      15.727  -2.716   8.120  1.00  0.00     0.008 A 
ATOM     21  C   UNL     1      18.123  -2.502   7.697  1.00  0.00     0.169 A 
ATOM     22  C   UNL     1      17.066  -3.002   8.463  1.00  0.00     0.162 A 
BRANCH  13  23
ATOM     23  O   UNL     1      17.271   0.301   4.534  1.00  0.00    -0.507 OA
ATOM     24  H   UNL     1      17.789   1.136   4.773  1.00  0.00     0.293 HD
ENDBRANCH  13  23
BRANCH  19  25
ATOM     25  C   UNL     1      19.028  -1.194   5.799  1.00  0.00     0.264 C 
ATOM     26  O   UNL     1      19.849  -0.356   6.255  1.00  0.00    -0.298 OA
ENDBRANCH  19  25
BRANCH  20  27
ATOM     27  C   UNL     1      14.584  -3.466   8.829  1.00  0.00     0.017 C 
ATOM     28  C   UNL     1      14.564  -3.145  10.326  1.00  0.00     0.012 C 
ATOM     29  C   UNL     1      14.591  -4.987   8.583  1.00  0.00     0.012 C 
ENDBRANCH  20  27
BRANCH  21  30
ATOM     30  O   UNL     1      19.420  -2.918   8.024  1.00  0.00    -0.504 OA
ATOM     31  H   UNL     1      19.966  -2.533   8.783  1.00  0.00     0.293 HD
ENDBRANCH  21  30
BRANCH  22  32
ATOM     32  O   UNL     1      17.346  -3.796   9.576  1.00  0.00    -0.504 OA
ATOM     33  H   UNL     1      18.262  -3.845  10.006  1.00  0.00     0.293 HD
ENDBRANCH  22  32
ENDBRANCH  11  12
BRANCH  10  34
ATOM     34  O   UNL     1      14.291  -0.644   2.468  1.00  0.00    -0.507 OA
ATOM     35  H   UNL     1      15.085  -1.163   2.117  1.00  0.00     0.293 HD
ENDBRANCH  10  34
BRANCH   9  36
ATOM     36  C   UNL     1      13.427   5.507   1.353  1.00  0.00     0.017 C 
ATOM     37  C   UNL     1      12.137   5.667   2.163  1.00  0.00     0.012 C 
ATOM     38  C   UNL     1      14.617   6.191   2.054  1.00  0.00     0.012 C 
ENDBRANCH   9  36
BRANCH   6  39
ATOM     39  C   UNL     1      13.713  -0.153  -0.051  1.00  0.00     0.264 C 
ATOM     40  O   UNL     1      12.606  -0.706  -0.284  1.00  0.00    -0.298 OA
ENDBRANCH   6  39
BRANCH   8  41
ATOM     41  O   UNL     1      13.482   4.546  -1.361  1.00  0.00    -0.504 OA
ATOM     42  H   UNL     1      13.617   4.319  -2.339  1.00  0.00     0.293 HD
ENDBRANCH   8  41
BRANCH   7  43
ATOM     43  O   UNL     1      13.399   1.887  -2.000  1.00  0.00    -0.504 OA
ATOM     44  H   UNL     1      13.526   2.519  -2.779  1.00  0.00     0.293 HD
ENDBRANCH   7  43
TORSDOF 11
ENDMDL
MODEL 3
REMARK VINA RESULT:    -6.598      4.985      7.016
REMARK INTER + INTRA:         -11.027
REMARK INTER:                  -9.794
REMARK INTRA:                  -1.234
REMARK UNBOUND:                -1.343
REMARK SMILES Cc1cc2c(C(C)C)c(O)c(O)c(C=O)c2c(O)c1-c1c(C)cc2c(C(C)C)c(O)c(O)c(C=O)c2c1O
REMARK SMILES IDX 1 1 2 2 3 3 4 4 16 5 13 6 11 7 9 8 5 9 17 10 19 11 20 12
REMARK SMILES IDX 37 13 21 14 36 15 23 16 22 17 24 18 33 19 25 20 31 21 29 22
REMARK SMILES IDX 38 23 34 25 35 26 26 27 27 28 28 29 32 30 30 32 18 34 6 36
REMARK SMILES IDX 7 37 8 38 14 39 15 40 10 41 12 43
REMARK H PARENT 38 24 32 31 30 33 18 35 10 42 12 44
REMARK Flexibility Score: inf
ROOT
ATOM      1  C   UNL     1      16.884   0.982   3.745  1.00  0.00     0.045 C 
ATOM      2  C   UNL     1      16.741  -0.322   2.995  1.00  0.00    -0.039 A 
ATOM      3  C   UNL     1      16.653  -0.306   1.604  1.00  0.00     0.013 A 
ATOM      4  C   UNL     1      16.486  -1.491   0.851  1.00  0.00    -0.006 A 
ATOM      5  C   UNL     1      16.510  -2.746   1.532  1.00  0.00     0.039 A 
ATOM      6  C   UNL     1      16.484  -3.949   0.762  1.00  0.00     0.072 A 
ATOM      7  C   UNL     1      16.499  -3.881  -0.647  1.00  0.00     0.169 A 
ATOM      8  C   UNL     1      16.463  -2.646  -1.299  1.00  0.00     0.162 A 
ATOM      9  C   UNL     1      16.337  -1.445  -0.569  1.00  0.00     0.008 A 
ATOM     10  C   UNL     1      16.600  -2.757   2.959  1.00  0.00     0.132 A 
ATOM     11  C   UNL     1      16.700  -1.547   3.679  1.00  0.00     0.031 A 
ENDROOT
BRANCH  11  12
ATOM     12  C   UNL     1      16.800  -1.562   5.163  1.00  0.00     0.031 A 
ATOM     13  C   UNL     1      18.061  -1.653   5.789  1.00  0.00     0.132 A 
ATOM     14  C   UNL     1      15.635  -1.452   5.939  1.00  0.00    -0.039 A 
ATOM     15  C   UNL     1      18.163  -1.694   7.214  1.00  0.00     0.039 A 
ATOM     16  C   UNL     1      15.732  -1.460   7.331  1.00  0.00     0.013 A 
ATOM     17  C   UNL     1      14.282  -1.268   5.293  1.00  0.00     0.045 C 
ATOM     18  C   UNL     1      16.966  -1.641   7.993  1.00  0.00    -0.006 A 
ATOM     19  C   UNL     1      19.421  -1.743   7.889  1.00  0.00     0.072 A 
ATOM     20  C   UNL     1      17.029  -1.726   9.417  1.00  0.00     0.008 A 
ATOM     21  C   UNL     1      19.468  -1.668   9.296  1.00  0.00     0.169 A 
ATOM     22  C   UNL     1      18.288  -1.621  10.045  1.00  0.00     0.162 A 
BRANCH  13  23
ATOM     23  O   UNL     1      19.212  -1.685   4.992  1.00  0.00    -0.507 OA
ATOM     24  H   UNL     1      19.356  -2.332   4.228  1.00  0.00     0.293 HD
ENDBRANCH  13  23
BRANCH  19  25
ATOM     25  C   UNL     1      20.699  -1.858   7.156  1.00  0.00     0.264 C 
ATOM     26  O   UNL     1      21.450  -0.857   7.019  1.00  0.00    -0.298 OA
ENDBRANCH  19  25
BRANCH  20  27
ATOM     27  C   UNL     1      15.764  -1.911  10.277  1.00  0.00     0.017 C 
ATOM     28  C   UNL     1      15.082  -3.247   9.966  1.00  0.00     0.012 C 
ATOM     29  C   UNL     1      14.769  -0.739  10.181  1.00  0.00     0.012 C 
ENDBRANCH  20  27
BRANCH  21  30
ATOM     30  O   UNL     1      20.684  -1.674   9.992  1.00  0.00    -0.504 OA
ATOM     31  H   UNL     1      20.807  -1.300  10.923  1.00  0.00     0.293 HD
ENDBRANCH  21  30
BRANCH  22  32
ATOM     32  O   UNL     1      18.366  -1.472  11.431  1.00  0.00    -0.504 OA
ATOM     33  H   UNL     1      18.830  -2.140  12.035  1.00  0.00     0.293 HD
ENDBRANCH  22  32
ENDBRANCH  11  12
BRANCH  10  34
ATOM     34  O   UNL     1      16.601  -3.966   3.663  1.00  0.00    -0.507 OA
ATOM     35  H   UNL     1      17.370  -4.624   3.659  1.00  0.00     0.293 HD
ENDBRANCH  10  34
BRANCH   9  36
ATOM     36  C   UNL     1      16.063  -0.126  -1.316  1.00  0.00     0.017 C 
ATOM     37  C   UNL     1      17.314   0.349  -2.061  1.00  0.00     0.012 C 
ATOM     38  C   UNL     1      14.841  -0.183  -2.251  1.00  0.00     0.012 C 
ENDBRANCH   9  36
BRANCH   6  39
ATOM     39  C   UNL     1      16.462  -5.284   1.391  1.00  0.00     0.264 C 
ATOM     40  O   UNL     1      15.380  -5.777   1.807  1.00  0.00    -0.298 OA
ENDBRANCH   6  39
BRANCH   8  41
ATOM     41  O   UNL     1      16.550  -2.608  -2.693  1.00  0.00    -0.504 OA
ATOM     42  H   UNL     1      16.883  -3.386  -3.249  1.00  0.00     0.293 HD
ENDBRANCH   8  41
BRANCH   7  43
ATOM     43  O   UNL     1      16.520  -5.038  -1.437  1.00  0.00    -0.504 OA
ATOM     44  H   UNL     1      17.143  -5.820  -1.283  1.00  0.00     0.293 HD
ENDBRANCH   7  43
TORSDOF 11
ENDMDL
MODEL 4
REMARK VINA RESULT:    -6.595      3.882     10.637
REMARK INTER + INTRA:         -11.023
REMARK INTER:                  -9.732
REMARK INTRA:                  -1.291
REMARK UNBOUND:                -1.343
REMARK SMILES Cc1cc2c(C(C)C)c(O)c(O)c(C=O)c2c(O)c1-c1c(C)cc2c(C(C)C)c(O)c(O)c(C=O)c2c1O
REMARK SMILES IDX 1 1 2 2 3 3 4 4 16 5 13 6 11 7 9 8 5 9 17 10 19 11 20 12
REMARK SMILES IDX 37 13 21 14 36 15 23 16 22 17 24 18 33 19 25 20 31 21 29 22
REMARK SMILES IDX 38 23 34 25 35 26 26 27 27 28 28 29 32 30 30 32 18 34 6 36
REMARK SMILES IDX 7 37 8 38 14 39 15 40 10 41 12 43
REMARK H PARENT 38 24 32 31 30 33 18 35 10 42 12 44
REMARK Flexibility Score: inf
ROOT
ATOM      1  C   UNL     1      14.071   1.353   9.539  1.00  0.00     0.045 C 
ATOM      2  C   UNL     1      13.531   0.264  10.435  1.00  0.00    -0.039 A 
ATOM      3  C   UNL     1      13.565   0.435  11.819  1.00  0.00     0.013 A 
ATOM      4  C   UNL     1      13.104  -0.562  12.708  1.00  0.00    -0.006 A 
ATOM      5  C   UNL     1      12.494  -1.735  12.168  1.00  0.00     0.039 A 
ATOM      6  C   UNL     1      11.900  -2.677  13.063  1.00  0.00     0.072 A 
ATOM      7  C   UNL     1      11.869  -2.408  14.446  1.00  0.00     0.169 A 
ATOM      8  C   UNL     1      12.481  -1.263  14.962  1.00  0.00     0.162 A 
ATOM      9  C   UNL     1      13.204  -0.389  14.123  1.00  0.00     0.008 A 
ATOM     10  C   UNL     1      12.463  -1.906  10.749  1.00  0.00     0.132 A 
ATOM     11  C   UNL     1      12.993  -0.915   9.896  1.00  0.00     0.031 A 
ENDROOT
BRANCH  11  12
ATOM     12  C   UNL     1      12.953  -1.094   8.420  1.00  0.00     0.031 A 
ATOM     13  C   UNL     1      11.900  -0.534   7.666  1.00  0.00     0.132 A 
ATOM     14  C   UNL     1      13.985  -1.795   7.776  1.00  0.00    -0.039 A 
ATOM     15  C   UNL     1      11.841  -0.724   6.250  1.00  0.00     0.039 A 
ATOM     16  C   UNL     1      13.948  -1.956   6.391  1.00  0.00     0.013 A 
ATOM     17  C   UNL     1      15.165  -2.330   8.552  1.00  0.00     0.045 C 
ATOM     18  C   UNL     1      12.865  -1.489   5.613  1.00  0.00    -0.006 A 
ATOM     19  C   UNL     1      10.817  -0.139   5.442  1.00  0.00     0.072 A 
ATOM     20  C   UNL     1      12.812  -1.737   4.208  1.00  0.00     0.008 A 
ATOM     21  C   UNL     1      10.870  -0.266   4.040  1.00  0.00     0.169 A 
ATOM     22  C   UNL     1      11.876  -1.021   3.431  1.00  0.00     0.162 A 
BRANCH  13  23
ATOM     23  O   UNL     1      10.924   0.224   8.323  1.00  0.00    -0.507 OA
ATOM     24  H   UNL     1       9.931   0.151   8.142  1.00  0.00     0.293 HD
ENDBRANCH  13  23
BRANCH  19  25
ATOM     25  C   UNL     1       9.692   0.616   6.031  1.00  0.00     0.264 C 
ATOM     26  O   UNL     1       9.647   1.871   5.942  1.00  0.00    -0.298 OA
ENDBRANCH  19  25
BRANCH  20  27
ATOM     27  C   UNL     1      13.755  -2.745   3.524  1.00  0.00     0.017 C 
ATOM     28  C   UNL     1      13.533  -4.159   4.069  1.00  0.00     0.012 C 
ATOM     29  C   UNL     1      15.242  -2.347   3.585  1.00  0.00     0.012 C 
ENDBRANCH  20  27
BRANCH  21  30
ATOM     30  O   UNL     1       9.906   0.326   3.212  1.00  0.00    -0.504 OA
ATOM     31  H   UNL     1       9.368   1.144   3.462  1.00  0.00     0.293 HD
ENDBRANCH  21  30
BRANCH  22  32
ATOM     32  O   UNL     1      11.947  -1.067   2.037  1.00  0.00    -0.504 OA
ATOM     33  H   UNL     1      12.735  -1.458   1.535  1.00  0.00     0.293 HD
ENDBRANCH  22  32
ENDBRANCH  11  12
BRANCH  10  34
ATOM     34  O   UNL     1      11.896  -3.054  10.184  1.00  0.00    -0.507 OA
ATOM     35  H   UNL     1      11.218  -3.642  10.652  1.00  0.00     0.293 HD
ENDBRANCH  10  34
BRANCH   9  36
ATOM     36  C   UNL     1      14.061   0.729  14.747  1.00  0.00     0.017 C 
ATOM     37  C   UNL     1      13.175   1.842  15.316  1.00  0.00     0.012 C 
ATOM     38  C   UNL     1      15.073   0.227  15.794  1.00  0.00     0.012 C 
ENDBRANCH   9  36
BRANCH   6  39
ATOM     39  C   UNL     1      11.290  -3.934  12.587  1.00  0.00     0.264 C 
ATOM     40  O   UNL     1      10.049  -4.006  12.384  1.00  0.00    -0.298 OA
ENDBRANCH   6  39
BRANCH   8  41
ATOM     41  O   UNL     1      12.373  -0.987  16.328  1.00  0.00    -0.504 OA
ATOM     42  H   UNL     1      13.098  -1.212  16.997  1.00  0.00     0.293 HD
ENDBRANCH   8  41
BRANCH   7  43
ATOM     43  O   UNL     1      11.257  -3.286  15.351  1.00  0.00    -0.504 OA
ATOM     44  H   UNL     1      11.644  -4.180  15.625  1.00  0.00     0.293 HD
ENDBRANCH   7  43
TORSDOF 11
ENDMDL
MODEL 5
REMARK VINA RESULT:    -6.584      4.957     11.504
REMARK INTER + INTRA:         -11.007
REMARK INTER:                  -9.665
REMARK INTRA:                  -1.342
REMARK UNBOUND:                -1.343
REMARK SMILES Cc1cc2c(C(C)C)c(O)c(O)c(C=O)c2c(O)c1-c1c(C)cc2c(C(C)C)c(O)c(O)c(C=O)c2c1O
REMARK SMILES IDX 1 1 2 2 3 3 4 4 16 5 13 6 11 7 9 8 5 9 17 10 19 11 20 12
REMARK SMILES IDX 37 13 21 14 36 15 23 16 22 17 24 18 33 19 25 20 31 21 29 22
REMARK SMILES IDX 38 23 34 25 35 26 26 27 27 28 28 29 32 30 30 32 18 34 6 36
REMARK SMILES IDX 7 37 8 38 14 39 15 40 10 41 12 43
REMARK H PARENT 38 24 32 31 30 33 18 35 10 42 12 44
REMARK Flexibility Score: inf
ROOT
ATOM      1  C   UNL     1      16.181  -2.126  10.179  1.00  0.00     0.045 C 
ATOM      2  C   UNL     1      16.583  -0.882  10.935  1.00  0.00    -0.039 A 
ATOM      3  C   UNL     1      16.526  -0.878  12.328  1.00  0.00     0.013 A 
ATOM      4  C   UNL     1      16.859   0.266  13.088  1.00  0.00    -0.006 A 
ATOM      5  C   UNL     1      17.365   1.417  12.410  1.00  0.00     0.039 A 
ATOM      6  C   UNL     1      17.836   2.522  13.185  1.00  0.00     0.072 A 
ATOM      7  C   UNL     1      17.853   2.436  14.592  1.00  0.00     0.169 A 
ATOM      8  C   UNL     1      17.343   1.309  15.242  1.00  0.00     0.162 A 
ATOM      9  C   UNL     1      16.735   0.265  14.512  1.00  0.00     0.008 A 
ATOM     10  C   UNL     1      17.421   1.408  10.982  1.00  0.00     0.132 A 
ATOM     11  C   UNL     1      17.017   0.267  10.256  1.00  0.00     0.031 A 
ENDROOT
BRANCH  11  12
ATOM     12  C   UNL     1      17.082   0.260   8.770  1.00  0.00     0.031 A 
ATOM     13  C   UNL     1      18.253  -0.175   8.114  1.00  0.00     0.132 A 
ATOM     14  C   UNL     1      15.962   0.657   8.023  1.00  0.00    -0.039 A 
ATOM     15  C   UNL     1      18.332  -0.162   6.686  1.00  0.00     0.039 A 
ATOM     16  C   UNL     1      16.024   0.644   6.630  1.00  0.00     0.013 A 
ATOM     17  C   UNL     1      14.671   1.047   8.702  1.00  0.00     0.045 C 
ATOM     18  C   UNL     1      17.207   0.302   5.937  1.00  0.00    -0.006 A 
ATOM     19  C   UNL     1      19.481  -0.633   5.980  1.00  0.00     0.072 A 
ATOM     20  C   UNL     1      17.269   0.373   4.512  1.00  0.00     0.008 A 
ATOM     21  C   UNL     1      19.462  -0.701   4.572  1.00  0.00     0.169 A 
ATOM     22  C   UNL     1      18.355  -0.240   3.853  1.00  0.00     0.162 A 
BRANCH  13  23
ATOM     23  O   UNL     1      19.328  -0.639   8.881  1.00  0.00    -0.507 OA
ATOM     24  H   UNL     1      20.296  -0.589   8.590  1.00  0.00     0.293 HD
ENDBRANCH  13  23
BRANCH  19  25
ATOM     25  C   UNL     1      20.705  -1.073   6.681  1.00  0.00     0.264 C 
ATOM     26  O   UNL     1      20.980  -2.297   6.781  1.00  0.00    -0.298 OA
ENDBRANCH  19  25
BRANCH  20  27
ATOM     27  C   UNL     1      16.179   1.081   3.685  1.00  0.00     0.017 C 
ATOM     28  C   UNL     1      16.129   2.576   4.014  1.00  0.00     0.012 C 
ATOM     29  C   UNL     1      14.787   0.434   3.806  1.00  0.00     0.012 C 
ENDBRANCH  20  27
BRANCH  21  30
ATOM     30  O   UNL     1      20.554  -1.194   3.846  1.00  0.00    -0.504 OA
ATOM     31  H   UNL     1      21.411  -0.680   3.689  1.00  0.00     0.293 HD
ENDBRANCH  21  30
BRANCH  22  32
ATOM     32  O   UNL     1      18.334  -0.389   2.464  1.00  0.00    -0.504 OA
ATOM     33  H   UNL     1      19.157  -0.282   1.883  1.00  0.00     0.293 HD
ENDBRANCH  22  32
ENDBRANCH  11  12
BRANCH  10  34
ATOM     34  O   UNL     1      17.887   2.527  10.281  1.00  0.00    -0.507 OA
ATOM     35  H   UNL     1      18.512   2.479   9.488  1.00  0.00     0.293 HD
ENDBRANCH  10  34
BRANCH   9  36
ATOM     36  C   UNL     1      15.977  -0.846  15.261  1.00  0.00     0.017 C 
ATOM     37  C   UNL     1      16.953  -1.798  15.960  1.00  0.00     0.012 C 
ATOM     38  C   UNL     1      14.910  -0.320  16.240  1.00  0.00     0.012 C 
ENDBRANCH   9  36
BRANCH   6  39
ATOM     39  C   UNL     1      18.331   3.763  12.560  1.00  0.00     0.264 C 
ATOM     40  O   UNL     1      19.566   3.940  12.380  1.00  0.00    -0.298 OA
ENDBRANCH   6  39
BRANCH   8  41
ATOM     41  O   UNL     1      17.439   1.221  16.633  1.00  0.00    -0.504 OA
ATOM     42  H   UNL     1      17.797   1.971  17.212  1.00  0.00     0.293 HD
ENDBRANCH   8  41
BRANCH   7  43
ATOM     43  O   UNL     1      18.348   3.479  15.385  1.00  0.00    -0.504 OA
ATOM     44  H   UNL     1      18.273   3.511  16.393  1.00  0.00     0.293 HD
ENDBRANCH   7  43
TORSDOF 11
ENDMDL
MODEL 6
REMARK VINA RESULT:    -6.543      1.984      9.145
REMARK INTER + INTRA:         -10.945
REMARK INTER:                  -9.656
REMARK INTRA:                  -1.289
REMARK UNBOUND:                -1.343
REMARK SMILES Cc1cc2c(C(C)C)c(O)c(O)c(C=O)c2c(O)c1-c1c(C)cc2c(C(C)C)c(O)c(O)c(C=O)c2c1O
REMARK SMILES IDX 1 1 2 2 3 3 4 4 16 5 13 6 11 7 9 8 5 9 17 10 19 11 20 12
REMARK SMILES IDX 37 13 21 14 36 15 23 16 22 17 24 18 33 19 25 20 31 21 29 22
REMARK SMILES IDX 38 23 34 25 35 26 26 27 27 28 28 29 32 30 30 32 18 34 6 36
REMARK SMILES IDX 7 37 8 38 14 39 15 40 10 41 12 43
REMARK H PARENT 38 24 32 31 30 33 18 35 10 42 12 44
REMARK Flexibility Score: inf
ROOT
ATOM      1  C   UNL     1      15.955   3.709   4.540  1.00  0.00     0.045 C 
ATOM      2  C   UNL     1      14.696   3.259   5.243  1.00  0.00    -0.039 A 
ATOM      3  C   UNL     1      14.592   3.409   6.626  1.00  0.00     0.013 A 
ATOM      4  C   UNL     1      13.453   2.978   7.342  1.00  0.00    -0.006 A 
ATOM      5  C   UNL     1      12.335   2.469   6.612  1.00  0.00     0.039 A 
ATOM      6  C   UNL     1      11.131   2.166   7.319  1.00  0.00     0.072 A 
ATOM      7  C   UNL     1      11.042   2.431   8.701  1.00  0.00     0.169 A 
ATOM      8  C   UNL     1      12.147   2.918   9.404  1.00  0.00     0.162 A 
ATOM      9  C   UNL     1      13.394   3.086   8.766  1.00  0.00     0.008 A 
ATOM     10  C   UNL     1      12.447   2.317   5.195  1.00  0.00     0.132 A 
ATOM     11  C   UNL     1      13.628   2.699   4.525  1.00  0.00     0.031 A 
ENDROOT
BRANCH  11  12
ATOM     12  C   UNL     1      13.738   2.546   3.049  1.00  0.00     0.031 A 
ATOM     13  C   UNL     1      14.250   1.353   2.496  1.00  0.00     0.132 A 
ATOM     14  C   UNL     1      13.301   3.581   2.208  1.00  0.00    -0.039 A 
ATOM     15  C   UNL     1      14.382   1.208   1.080  1.00  0.00     0.039 A 
ATOM     16  C   UNL     1      13.400   3.432   0.825  1.00  0.00     0.013 A 
ATOM     17  C   UNL     1      12.672   4.832   2.774  1.00  0.00     0.045 C 
ATOM     18  C   UNL     1      13.989   2.292   0.236  1.00  0.00    -0.006 A 
ATOM     19  C   UNL     1      14.855   0.002   0.476  1.00  0.00     0.072 A 
ATOM     20  C   UNL     1      14.152   2.199  -1.180  1.00  0.00     0.008 A 
ATOM     21  C   UNL     1      14.860  -0.125  -0.928  1.00  0.00     0.169 A 
ATOM     22  C   UNL     1      14.476   0.945  -1.741  1.00  0.00     0.162 A 
BRANCH  13  23
ATOM     23  O   UNL     1      14.608   0.306   3.355  1.00  0.00    -0.507 OA
ATOM     24  H   UNL     1      14.395   0.285   4.343  1.00  0.00     0.293 HD
ENDBRANCH  13  23
BRANCH  19  25
ATOM     25  C   UNL     1      15.334  -1.140   1.280  1.00  0.00     0.264 C 
ATOM     26  O   UNL     1      14.675  -2.211   1.327  1.00  0.00    -0.298 OA
ENDBRANCH  19  25
BRANCH  20  27
ATOM     27  C   UNL     1      13.966   3.419  -2.101  1.00  0.00     0.017 C 
ATOM     28  C   UNL     1      12.693   3.282  -2.941  1.00  0.00     0.012 C 
ATOM     29  C   UNL     1      15.191   3.724  -2.985  1.00  0.00     0.012 C 
ENDBRANCH  20  27
BRANCH  21  30
ATOM     30  O   UNL     1      15.279  -1.305  -1.556  1.00  0.00    -0.504 OA
ATOM     31  H   UNL     1      16.088  -1.371  -2.160  1.00  0.00     0.293 HD
ENDBRANCH  21  30
BRANCH  22  32
ATOM     32  O   UNL     1      14.420   0.765  -3.125  1.00  0.00    -0.504 OA
ATOM     33  H   UNL     1      14.715  -0.087  -3.585  1.00  0.00     0.293 HD
ENDBRANCH  22  32
ENDBRANCH  11  12
BRANCH  10  34
ATOM     34  O   UNL     1      11.382   1.797   4.450  1.00  0.00    -0.507 OA
ATOM     35  H   UNL     1      11.340   1.806   3.439  1.00  0.00     0.293 HD
ENDBRANCH  10  34
BRANCH   9  36
ATOM     36  C   UNL     1      14.645   3.397   9.609  1.00  0.00     0.017 C 
ATOM     37  C   UNL     1      15.578   2.183   9.670  1.00  0.00     0.012 C 
ATOM     38  C   UNL     1      15.400   4.661   9.159  1.00  0.00     0.012 C 
ENDBRANCH   9  36
BRANCH   6  39
ATOM     39  C   UNL     1       9.948   1.595   6.645  1.00  0.00     0.264 C 
ATOM     40  O   UNL     1       8.951   2.318   6.381  1.00  0.00    -0.298 OA
ENDBRANCH   6  39
BRANCH   8  41
ATOM     41  O   UNL     1      12.008   3.238  10.757  1.00  0.00    -0.504 OA
ATOM     42  H   UNL     1      11.487   4.042  11.085  1.00  0.00     0.293 HD
ENDBRANCH   8  41
BRANCH   7  43
ATOM     43  O   UNL     1       9.864   2.190   9.420  1.00  0.00    -0.504 OA
ATOM     44  H   UNL     1       9.200   2.907   9.679  1.00  0.00     0.293 HD
ENDBRANCH   7  43
TORSDOF 11
ENDMDL
MODEL 7
REMARK VINA RESULT:    -6.539      0.940      9.021
REMARK INTER + INTRA:         -10.940
REMARK INTER:                  -9.741
REMARK INTRA:                  -1.198
REMARK UNBOUND:                -1.343
REMARK SMILES Cc1cc2c(C(C)C)c(O)c(O)c(C=O)c2c(O)c1-c1c(C)cc2c(C(C)C)c(O)c(O)c(C=O)c2c1O
REMARK SMILES IDX 1 1 2 2 3 3 4 4 16 5 13 6 11 7 9 8 5 9 17 10 19 11 20 12
REMARK SMILES IDX 37 13 21 14 36 15 23 16 22 17 24 18 33 19 25 20 31 21 29 22
REMARK SMILES IDX 38 23 34 25 35 26 26 27 27 28 28 29 32 30 30 32 18 34 6 36
REMARK SMILES IDX 7 37 8 38 14 39 15 40 10 41 12 43
REMARK H PARENT 38 24 32 31 30 33 18 35 10 42 12 44
REMARK Flexibility Score: inf
ROOT
ATOM      1  C   UNL     1      16.305   2.456   5.393  1.00  0.00     0.045 C 
ATOM      2  C   UNL     1      15.044   2.199   6.184  1.00  0.00    -0.039 A 
ATOM      3  C   UNL     1      15.058   2.367   7.568  1.00  0.00     0.013 A 
ATOM      4  C   UNL     1      13.919   2.110   8.364  1.00  0.00    -0.006 A 
ATOM      5  C   UNL     1      12.692   1.767   7.718  1.00  0.00     0.039 A 
ATOM      6  C   UNL     1      11.507   1.647   8.507  1.00  0.00     0.072 A 
ATOM      7  C   UNL     1      11.552   1.928   9.888  1.00  0.00     0.169 A 
ATOM      8  C   UNL     1      12.761   2.250  10.509  1.00  0.00     0.162 A 
ATOM      9  C   UNL     1      13.973   2.231   9.787  1.00  0.00     0.008 A 
ATOM     10  C   UNL     1      12.684   1.595   6.298  1.00  0.00     0.132 A 
ATOM     11  C   UNL     1      13.860   1.798   5.546  1.00  0.00     0.031 A 
ENDROOT
BRANCH  11  12
ATOM     12  C   UNL     1      13.846   1.624   4.068  1.00  0.00     0.031 A 
ATOM     13  C   UNL     1      13.647   2.738   3.225  1.00  0.00     0.132 A 
ATOM     14  C   UNL     1      14.065   0.352   3.516  1.00  0.00    -0.039 A 
ATOM     15  C   UNL     1      13.607   2.575   1.805  1.00  0.00     0.039 A 
ATOM     16  C   UNL     1      14.057   0.194   2.130  1.00  0.00     0.013 A 
ATOM     17  C   UNL     1      14.363  -0.839   4.395  1.00  0.00     0.045 C 
ATOM     18  C   UNL     1      13.771   1.266   1.256  1.00  0.00    -0.006 A 
ATOM     19  C   UNL     1      13.451   3.680   0.913  1.00  0.00     0.072 A 
ATOM     20  C   UNL     1      13.690   1.061  -0.155  1.00  0.00     0.008 A 
ATOM     21  C   UNL     1      13.530   3.476  -0.479  1.00  0.00     0.169 A 
ATOM     22  C   UNL     1      13.687   2.189  -1.002  1.00  0.00     0.162 A 
BRANCH  13  23
ATOM     23  O   UNL     1      13.508   4.007   3.800  1.00  0.00    -0.507 OA
ATOM     24  H   UNL     1      12.629   4.390   4.124  1.00  0.00     0.293 HD
ENDBRANCH  13  23
BRANCH  19  25
ATOM     25  C   UNL     1      13.217   5.054   1.403  1.00  0.00     0.264 C 
ATOM     26  O   UNL     1      12.068   5.418   1.766  1.00  0.00    -0.298 OA
ENDBRANCH  19  25
BRANCH  20  27
ATOM     27  C   UNL     1      13.624  -0.351  -0.768  1.00  0.00     0.017 C 
ATOM     28  C   UNL     1      14.928  -0.693  -1.494  1.00  0.00     0.012 C 
ATOM     29  C   UNL     1      12.400  -0.578  -1.677  1.00  0.00     0.012 C 
ENDBRANCH  20  27
BRANCH  21  30
ATOM     30  O   UNL     1      13.420   4.540  -1.384  1.00  0.00    -0.504 OA
ATOM     31  H   UNL     1      12.726   5.272  -1.319  1.00  0.00     0.293 HD
ENDBRANCH  21  30
BRANCH  22  32
ATOM     32  O   UNL     1      13.837   2.026  -2.380  1.00  0.00    -0.504 OA
ATOM     33  H   UNL     1      13.056   1.898  -3.012  1.00  0.00     0.293 HD
ENDBRANCH  22  32
ENDBRANCH  11  12
BRANCH  10  34
ATOM     34  O   UNL     1      11.507   1.235   5.633  1.00  0.00    -0.507 OA
ATOM     35  H   UNL     1      10.577   1.371   6.009  1.00  0.00     0.293 HD
ENDBRANCH  10  34
BRANCH   9  36
ATOM     36  C   UNL     1      15.310   2.358  10.541  1.00  0.00     0.017 C 
ATOM     37  C   UNL     1      16.241   1.189  10.204  1.00  0.00     0.012 C 
ATOM     38  C   UNL     1      16.015   3.713  10.334  1.00  0.00     0.012 C 
ENDBRANCH   9  36
BRANCH   6  39
ATOM     39  C   UNL     1      10.211   1.252   7.922  1.00  0.00     0.264 C 
ATOM     40  O   UNL     1       9.312   2.111   7.722  1.00  0.00    -0.298 OA
ENDBRANCH   6  39
BRANCH   8  41
ATOM     41  O   UNL     1      12.763   2.592  11.864  1.00  0.00    -0.504 OA
ATOM     42  H   UNL     1      13.533   2.382  12.487  1.00  0.00     0.293 HD
ENDBRANCH   8  41
BRANCH   7  43
ATOM     43  O   UNL     1      10.403   1.864  10.687  1.00  0.00    -0.504 OA
ATOM     44  H   UNL     1      10.166   1.079  11.280  1.00  0.00     0.293 HD
ENDBRANCH   7  43
TORSDOF 11
ENDMDL
MODEL 8
REMARK VINA RESULT:    -6.524      4.903     10.625
REMARK INTER + INTRA:         -10.918
REMARK INTER:                  -9.769
REMARK INTRA:                  -1.150
REMARK UNBOUND:                -1.343
REMARK SMILES Cc1cc2c(C(C)C)c(O)c(O)c(C=O)c2c(O)c1-c1c(C)cc2c(C(C)C)c(O)c(O)c(C=O)c2c1O
REMARK SMILES IDX 1 1 2 2 3 3 4 4 16 5 13 6 11 7 9 8 5 9 17 10 19 11 20 12
REMARK SMILES IDX 37 13 21 14 36 15 23 16 22 17 24 18 33 19 25 20 31 21 29 22
REMARK SMILES IDX 38 23 34 25 35 26 26 27 27 28 28 29 32 30 30 32 18 34 6 36
REMARK SMILES IDX 7 37 8 38 14 39 15 40 10 41 12 43
REMARK H PARENT 38 24 32 31 30 33 18 35 10 42 12 44
REMARK Flexibility Score: inf
ROOT
ATOM      1  C   UNL     1      13.780  -3.155   8.244  1.00  0.00     0.045 C 
ATOM      2  C   UNL     1      13.647  -2.485   9.591  1.00  0.00    -0.039 A 
ATOM      3  C   UNL     1      12.874  -3.087  10.583  1.00  0.00     0.013 A 
ATOM      4  C   UNL     1      12.688  -2.492  11.851  1.00  0.00    -0.006 A 
ATOM      5  C   UNL     1      13.396  -1.289  12.156  1.00  0.00     0.039 A 
ATOM      6  C   UNL     1      13.321  -0.763  13.482  1.00  0.00     0.072 A 
ATOM      7  C   UNL     1      12.610  -1.464  14.477  1.00  0.00     0.169 A 
ATOM      8  C   UNL     1      11.912  -2.633  14.161  1.00  0.00     0.162 A 
ATOM      9  C   UNL     1      11.842  -3.098  12.831  1.00  0.00     0.008 A 
ATOM     10  C   UNL     1      14.186  -0.675  11.135  1.00  0.00     0.132 A 
ATOM     11  C   UNL     1      14.294  -1.269   9.860  1.00  0.00     0.031 A 
ENDROOT
BRANCH  11  12
ATOM     12  C   UNL     1      15.123  -0.630   8.802  1.00  0.00     0.031 A 
ATOM     13  C   UNL     1      16.487  -0.965   8.671  1.00  0.00     0.132 A 
ATOM     14  C   UNL     1      14.534   0.284   7.914  1.00  0.00    -0.039 A 
ATOM     15  C   UNL     1      17.296  -0.337   7.673  1.00  0.00     0.039 A 
ATOM     16  C   UNL     1      15.312   0.876   6.920  1.00  0.00     0.013 A 
ATOM     17  C   UNL     1      13.058   0.595   7.982  1.00  0.00     0.045 C 
ATOM     18  C   UNL     1      16.700   0.635   6.813  1.00  0.00    -0.006 A 
ATOM     19  C   UNL     1      18.670  -0.678   7.477  1.00  0.00     0.072 A 
ATOM     20  C   UNL     1      17.490   1.316   5.837  1.00  0.00     0.008 A 
ATOM     21  C   UNL     1      19.390  -0.109   6.408  1.00  0.00     0.169 A 
ATOM     22  C   UNL     1      18.794   0.845   5.577  1.00  0.00     0.162 A 
BRANCH  13  23
ATOM     23  O   UNL     1      17.032  -1.936   9.520  1.00  0.00    -0.507 OA
ATOM     24  H   UNL     1      16.572  -2.286  10.350  1.00  0.00     0.293 HD
ENDBRANCH  13  23
BRANCH  19  25
ATOM     25  C   UNL     1      19.374  -1.630   8.361  1.00  0.00     0.264 C 
ATOM     26  O   UNL     1      20.201  -1.218   9.216  1.00  0.00    -0.298 OA
ENDBRANCH  19  25
BRANCH  20  27
ATOM     27  C   UNL     1      16.950   2.530   5.057  1.00  0.00     0.017 C 
ATOM     28  C   UNL     1      16.521   3.647   6.012  1.00  0.00     0.012 C 
ATOM     29  C   UNL     1      15.827   2.180   4.062  1.00  0.00     0.012 C 
ENDBRANCH  20  27
BRANCH  21  30
ATOM     30  O   UNL     1      20.727  -0.447   6.160  1.00  0.00    -0.504 OA
ATOM     31  H   UNL     1      21.486  -0.271   6.803  1.00  0.00     0.293 HD
ENDBRANCH  21  30
BRANCH  22  32
ATOM     32  O   UNL     1      19.506   1.335   4.480  1.00  0.00    -0.504 OA
ATOM     33  H   UNL     1      20.128   0.762   3.922  1.00  0.00     0.293 HD
ENDBRANCH  22  32
ENDBRANCH  11  12
BRANCH  10  34
ATOM     34  O   UNL     1      14.874   0.517  11.389  1.00  0.00    -0.507 OA
ATOM     35  H   UNL     1      15.697   0.584  11.973  1.00  0.00     0.293 HD
ENDBRANCH  10  34
BRANCH   9  36
ATOM     36  C   UNL     1      10.880  -4.246  12.475  1.00  0.00     0.017 C 
ATOM     37  C   UNL     1       9.714  -3.737  11.621  1.00  0.00     0.012 C 
ATOM     38  C   UNL     1      11.571  -5.456  11.817  1.00  0.00     0.012 C 
ENDBRANCH   9  36
BRANCH   6  39
ATOM     39  C   UNL     1      13.987   0.497  13.865  1.00  0.00     0.264 C 
ATOM     40  O   UNL     1      13.320   1.558  13.998  1.00  0.00    -0.298 OA
ENDBRANCH   6  39
BRANCH   8  41
ATOM     41  O   UNL     1      11.275  -3.345  15.182  1.00  0.00    -0.504 OA
ATOM     42  H   UNL     1      10.353  -3.111  15.528  1.00  0.00     0.293 HD
ENDBRANCH   8  41
BRANCH   7  43
ATOM     43  O   UNL     1      12.551  -1.005  15.799  1.00  0.00    -0.504 OA
ATOM     44  H   UNL     1      12.990  -1.470  16.582  1.00  0.00     0.293 HD
ENDBRANCH   7  43
TORSDOF 11
ENDMDL
