MODEL 1
REMARK VINA RESULT:    19.776      0.000      0.000
REMARK INTER + INTRA:          22.363
REMARK INTER:                  22.666
REMARK INTRA:                  -0.303
REMARK UNBOUND:                -0.303
REMARK SMILES O=C1C[C@H](c2ccc(O)cc2)Oc2cc(O)cc(O)c21
REMARK SMILES IDX 3 1 4 2 12 3 13 4 14 5 15 6 17 7 18 8 20 9 2 10 1 11 5 12
REMARK SMILES IDX 6 13 11 14 7 15 10 16 8 17 9 18 19 20 16 22
REMARK H PARENT 9 19 19 21 16 23
REMARK Flexibility Score: inf
ROOT
ATOM      1  C   UNL     1      -6.300   7.942  17.811  1.00  0.00     0.131 C 
ATOM      2  C   UNL     1      -6.662   8.661  16.507  1.00  0.00     0.211 C 
ATOM      3  O   UNL     1      -7.465   7.813  15.686  1.00  0.00    -0.484 OA
ATOM      4  C   UNL     1      -7.144   6.467  15.482  1.00  0.00     0.138 A 
ATOM      5  C   UNL     1      -7.761   5.779  14.436  1.00  0.00     0.093 A 
ATOM      6  C   UNL     1      -7.445   4.444  14.188  1.00  0.00     0.123 A 
ATOM      7  C   UNL     1      -6.494   3.798  14.982  1.00  0.00     0.093 A 
ATOM      8  C   UNL     1      -5.856   4.470  16.032  1.00  0.00     0.133 A 
ATOM      9  C   UNL     1      -6.217   5.815  16.327  1.00  0.00     0.102 A 
ATOM     10  C   UNL     1      -5.748   6.573  17.525  1.00  0.00     0.174 C 
ATOM     11  O   UNL     1      -4.978   6.056  18.375  1.00  0.00    -0.294 OA
ENDROOT
BRANCH   2  12
ATOM     12  C   UNL     1      -7.392   9.952  16.790  1.00  0.00    -0.007 A 
ATOM     13  C   UNL     1      -7.978  10.687  15.745  1.00  0.00     0.011 A 
ATOM     14  C   UNL     1      -7.541  10.403  18.112  1.00  0.00     0.011 A 
ATOM     15  C   UNL     1      -8.680  11.866  16.017  1.00  0.00     0.046 A 
ATOM     16  C   UNL     1      -8.242  11.582  18.381  1.00  0.00     0.046 A 
ATOM     17  C   UNL     1      -8.812  12.317  17.334  1.00  0.00     0.115 A 
BRANCH  17  18
ATOM     18  O   UNL     1      -9.513  13.494  17.590  1.00  0.00    -0.508 OA
ATOM     19  H   UNL     1      -9.844  14.088  16.838  1.00  0.00     0.293 HD
ENDBRANCH  17  18
ENDBRANCH   2  12
BRANCH   8  20
ATOM     20  O   UNL     1      -4.872   3.763  16.728  1.00  0.00    -0.507 OA
ATOM     21  H   UNL     1      -3.912   3.675  16.430  1.00  0.00     0.293 HD
ENDBRANCH   8  20
BRANCH   6  22
ATOM     22  O   UNL     1      -8.076   3.771  13.143  1.00  0.00    -0.508 OA
ATOM     23  H   UNL     1      -7.664   2.948  12.718  1.00  0.00     0.293 HD
ENDBRANCH   6  22
TORSDOF 4
ENDMDL
