MODEL 1
REMARK VINA RESULT:    -2.821      0.000      0.000
REMARK INTER + INTRA:          -9.927
REMARK INTER:                  -6.120
REMARK INTRA:                  -3.806
REMARK UNBOUND:                -3.806
REMARK SMILES CCCCCCCCCCCCCCCCCCCCCC(=O)[O-]
REMARK SMILES IDX 12 1 11 2 10 3 9 4 8 5 7 6 6 7 5 8 4 9 3 10 2 11 1 12 13 13
REMARK SMILES IDX 14 14 15 15 16 16 17 17 18 18 19 19 20 20 21 21 22 22 23 23
REMARK SMILES IDX 24 24
REMARK H PARENT
REMARK Flexibility Score: inf
ROOT
ATOM      1  C   UNL     1      96.930  64.120 224.251  1.00  0.00     0.000 C 
ENDROOT
BRANCH   1   2
ATOM      2  C   UNL     1      97.164  64.006 225.767  1.00  0.00     0.000 C 
BRANCH   2   3
ATOM      3  C   UNL     1      97.671  62.614 226.191  1.00  0.00     0.000 C 
BRANCH   3   4
ATOM      4  C   UNL     1      99.108  62.583 226.739  1.00  0.00    -0.000 C 
BRANCH   4   5
ATOM      5  C   UNL     1     100.128  62.067 225.711  1.00  0.00    -0.000 C 
BRANCH   5   6
ATOM      6  C   UNL     1     101.083  63.169 225.218  1.00  0.00    -0.000 C 
BRANCH   6   7
ATOM      7  C   UNL     1     100.733  63.769 223.841  1.00  0.00    -0.000 C 
BRANCH   7   8
ATOM      8  C   UNL     1     100.368  65.267 223.892  1.00  0.00    -0.000 C 
BRANCH   8   9
ATOM      9  C   UNL     1     100.423  65.834 225.323  1.00  0.00    -0.000 C 
BRANCH   9  10
ATOM     10  C   UNL     1      99.600  67.125 225.487  1.00  0.00    -0.000 C 
BRANCH  10  11
ATOM     11  C   UNL     1      99.265  67.846 224.169  1.00  0.00    -0.003 C 
ATOM     12  C   UNL     1      97.761  67.989 223.936  1.00  0.00     0.004 C 
ENDBRANCH  10  11
ENDBRANCH   9  10
ENDBRANCH   8   9
ENDBRANCH   7   8
ENDBRANCH   6   7
ENDBRANCH   5   6
ENDBRANCH   4   5
ENDBRANCH   3   4
ENDBRANCH   2   3
ENDBRANCH   1   2
BRANCH   1  13
ATOM     13  C   UNL     1      95.688  64.960 223.900  1.00  0.00     0.000 C 
BRANCH  13  14
ATOM     14  C   UNL     1      94.896  65.483 225.114  1.00  0.00     0.000 C 
BRANCH  14  15
ATOM     15  C   UNL     1      94.460  66.951 224.962  1.00  0.00     0.000 C 
BRANCH  15  16
ATOM     16  C   UNL     1      94.768  67.786 226.222  1.00  0.00     0.000 C 
BRANCH  16  17
ATOM     17  C   UNL     1      95.970  67.266 227.030  1.00  0.00     0.000 C 
BRANCH  17  18
ATOM     18  C   UNL     1      95.839  67.544 228.537  1.00  0.00     0.000 C 
BRANCH  18  19
ATOM     19  C   UNL     1      95.205  66.371 229.303  1.00  0.00     0.000 C 
BRANCH  19  20
ATOM     20  C   UNL     1      95.638  64.999 228.759  1.00  0.00     0.006 C 
BRANCH  20  21
ATOM     21  C   UNL     1      96.874  64.451 229.486  1.00  0.00     0.053 C 
BRANCH  21  22
ATOM     22  C   UNL     1      96.540  63.260 230.332  1.00  0.00     0.041 C 
ATOM     23  O   UNL     1      96.681  62.096 229.872  1.00  0.00    -0.550 OA
ATOM     24  O   UNL     1      96.104  63.434 231.639  1.00  0.00    -0.550 OA
ENDBRANCH  21  22
ENDBRANCH  20  21
ENDBRANCH  19  20
ENDBRANCH  18  19
ENDBRANCH  17  18
ENDBRANCH  16  17
ENDBRANCH  15  16
ENDBRANCH  14  15
ENDBRANCH  13  14
ENDBRANCH   1  13
TORSDOF 20
ENDMDL
MODEL 2
REMARK VINA RESULT:    -2.730     15.690     18.650
REMARK INTER + INTRA:          -9.727
REMARK INTER:                  -6.076
REMARK INTRA:                  -3.652
REMARK UNBOUND:                -3.806
REMARK SMILES CCCCCCCCCCCCCCCCCCCCCC(=O)[O-]
REMARK SMILES IDX 12 1 11 2 10 3 9 4 8 5 7 6 6 7 5 8 4 9 3 10 2 11 1 12 13 13
REMARK SMILES IDX 14 14 15 15 16 16 17 17 18 18 19 19 20 20 21 21 22 22 23 23
REMARK SMILES IDX 24 24
REMARK H PARENT
REMARK Flexibility Score: inf
ROOT
ATOM      1  C   UNL     1     113.167  55.273 229.774  1.00  0.00     0.000 C 
ENDROOT
BRANCH   1   2
ATOM      2  C   UNL     1     112.820  54.064 230.659  1.00  0.00     0.000 C 
BRANCH   2   3
ATOM      3  C   UNL     1     113.627  54.032 231.971  1.00  0.00     0.000 C 
BRANCH   3   4
ATOM      4  C   UNL     1     113.254  52.895 232.938  1.00  0.00    -0.000 C 
BRANCH   4   5
ATOM      5  C   UNL     1     112.832  53.405 234.325  1.00  0.00    -0.000 C 
BRANCH   5   6
ATOM      6  C   UNL     1     111.309  53.348 234.540  1.00  0.00    -0.000 C 
BRANCH   6   7
ATOM      7  C   UNL     1     110.503  52.776 233.357  1.00  0.00    -0.000 C 
BRANCH   7   8
ATOM      8  C   UNL     1     109.428  53.740 232.813  1.00  0.00    -0.000 C 
BRANCH   8   9
ATOM      9  C   UNL     1     109.663  55.193 233.266  1.00  0.00    -0.000 C 
BRANCH   9  10
ATOM     10  C   UNL     1     110.216  56.088 232.143  1.00  0.00    -0.000 C 
BRANCH  10  11
ATOM     11  C   UNL     1     111.385  56.997 232.562  1.00  0.00    -0.003 C 
ATOM     12  C   UNL     1     111.648  56.971 234.067  1.00  0.00     0.004 C 
ENDBRANCH  10  11
ENDBRANCH   9  10
ENDBRANCH   8   9
ENDBRANCH   7   8
ENDBRANCH   6   7
ENDBRANCH   5   6
ENDBRANCH   4   5
ENDBRANCH   3   4
ENDBRANCH   2   3
ENDBRANCH   1   2
BRANCH   1  13
ATOM     13  C   UNL     1     113.597  54.869 228.351  1.00  0.00     0.000 C 
BRANCH  13  14
ATOM     14  C   UNL     1     113.078  53.495 227.885  1.00  0.00     0.000 C 
BRANCH  14  15
ATOM     15  C   UNL     1     113.466  53.166 226.432  1.00  0.00     0.000 C 
BRANCH  15  16
ATOM     16  C   UNL     1     112.461  53.746 225.414  1.00  0.00     0.000 C 
BRANCH  16  17
ATOM     17  C   UNL     1     111.018  53.254 225.620  1.00  0.00     0.000 C 
BRANCH  17  18
ATOM     18  C   UNL     1     110.026  54.405 225.859  1.00  0.00     0.000 C 
BRANCH  18  19
ATOM     19  C   UNL     1     110.722  55.770 225.988  1.00  0.00     0.000 C 
BRANCH  19  20
ATOM     20  C   UNL     1     110.442  56.458 227.335  1.00  0.00     0.006 C 
BRANCH  20  21
ATOM     21  C   UNL     1     111.309  57.708 227.539  1.00  0.00     0.053 C 
BRANCH  21  22
ATOM     22  C   UNL     1     111.085  58.328 228.885  1.00  0.00     0.041 C 
ATOM     23  O   UNL     1     109.926  58.382 229.373  1.00  0.00    -0.550 OA
ATOM     24  O   UNL     1     112.161  58.818 229.614  1.00  0.00    -0.550 OA
ENDBRANCH  21  22
ENDBRANCH  20  21
ENDBRANCH  19  20
ENDBRANCH  18  19
ENDBRANCH  17  18
ENDBRANCH  16  17
ENDBRANCH  15  16
ENDBRANCH  14  15
ENDBRANCH  13  14
ENDBRANCH   1  13
TORSDOF 20
ENDMDL
MODEL 3
REMARK VINA RESULT:    -2.724      1.822      4.589
REMARK INTER + INTRA:          -9.715
REMARK INTER:                  -5.785
REMARK INTRA:                  -3.929
REMARK UNBOUND:                -3.806
REMARK SMILES CCCCCCCCCCCCCCCCCCCCCC(=O)[O-]
REMARK SMILES IDX 12 1 11 2 10 3 9 4 8 5 7 6 6 7 5 8 4 9 3 10 2 11 1 12 13 13
REMARK SMILES IDX 14 14 15 15 16 16 17 17 18 18 19 19 20 20 21 21 22 22 23 23
REMARK SMILES IDX 24 24
REMARK H PARENT
REMARK Flexibility Score: inf
ROOT
ATOM      1  C   UNL     1      99.924  67.385 225.216  1.00  0.00     0.000 C 
ENDROOT
BRANCH   1   2
ATOM      2  C   UNL     1     100.132  65.861 225.191  1.00  0.00     0.000 C 
BRANCH   2   3
ATOM      3  C   UNL     1     100.326  65.306 223.767  1.00  0.00     0.000 C 
BRANCH   3   4
ATOM      4  C   UNL     1     100.666  63.808 223.691  1.00  0.00    -0.000 C 
BRANCH   4   5
ATOM      5  C   UNL     1     101.867  63.424 224.569  1.00  0.00    -0.000 C 
BRANCH   5   6
ATOM      6  C   UNL     1     101.663  62.084 225.301  1.00  0.00    -0.000 C 
BRANCH   6   7
ATOM      7  C   UNL     1     100.236  61.842 225.833  1.00  0.00    -0.000 C 
BRANCH   7   8
ATOM      8  C   UNL     1     100.118  61.958 227.367  1.00  0.00    -0.000 C 
BRANCH   8   9
ATOM      9  C   UNL     1      99.523  60.688 228.005  1.00  0.00    -0.000 C 
BRANCH   9  10
ATOM     10  C   UNL     1      98.416  60.050 227.147  1.00  0.00    -0.000 C 
BRANCH  10  11
ATOM     11  C   UNL     1      96.990  60.234 227.698  1.00  0.00    -0.003 C 
ATOM     12  C   UNL     1      96.969  60.847 229.098  1.00  0.00     0.004 C 
ENDBRANCH  10  11
ENDBRANCH   9  10
ENDBRANCH   8   9
ENDBRANCH   7   8
ENDBRANCH   6   7
ENDBRANCH   5   6
ENDBRANCH   4   5
ENDBRANCH   3   4
ENDBRANCH   2   3
ENDBRANCH   1   2
BRANCH   1  13
ATOM     13  C   UNL     1      98.591  67.816 224.575  1.00  0.00     0.000 C 
BRANCH  13  14
ATOM     14  C   UNL     1      97.351  67.620 225.468  1.00  0.00     0.000 C 
BRANCH  14  15
ATOM     15  C   UNL     1      96.178  66.947 224.733  1.00  0.00     0.000 C 
BRANCH  15  16
ATOM     16  C   UNL     1      96.654  65.862 223.744  1.00  0.00     0.000 C 
BRANCH  16  17
ATOM     17  C   UNL     1      96.175  64.444 224.103  1.00  0.00     0.000 C 
BRANCH  17  18
ATOM     18  C   UNL     1      97.178  63.685 224.988  1.00  0.00     0.000 C 
BRANCH  18  19
ATOM     19  C   UNL     1      96.720  63.585 226.453  1.00  0.00     0.000 C 
BRANCH  19  20
ATOM     20  C   UNL     1      97.509  64.515 227.390  1.00  0.00     0.006 C 
BRANCH  20  21
ATOM     21  C   UNL     1      96.898  64.574 228.797  1.00  0.00     0.053 C 
BRANCH  21  22
ATOM     22  C   UNL     1      95.787  65.576 228.882  1.00  0.00     0.041 C 
ATOM     23  O   UNL     1      94.610  65.199 229.125  1.00  0.00    -0.550 OA
ATOM     24  O   UNL     1      96.057  66.929 228.724  1.00  0.00    -0.550 OA
ENDBRANCH  21  22
ENDBRANCH  20  21
ENDBRANCH  19  20
ENDBRANCH  18  19
ENDBRANCH  17  18
ENDBRANCH  16  17
ENDBRANCH  15  16
ENDBRANCH  14  15
ENDBRANCH  13  14
ENDBRANCH   1  13
TORSDOF 20
ENDMDL
MODEL 4
REMARK VINA RESULT:    -2.692     15.596     18.606
REMARK INTER + INTRA:          -9.645
REMARK INTER:                  -6.841
REMARK INTRA:                  -2.804
REMARK UNBOUND:                -3.806
REMARK SMILES CCCCCCCCCCCCCCCCCCCCCC(=O)[O-]
REMARK SMILES IDX 12 1 11 2 10 3 9 4 8 5 7 6 6 7 5 8 4 9 3 10 2 11 1 12 13 13
REMARK SMILES IDX 14 14 15 15 16 16 17 17 18 18 19 19 20 20 21 21 22 22 23 23
REMARK SMILES IDX 24 24
REMARK H PARENT
REMARK Flexibility Score: inf
ROOT
ATOM      1  C   UNL     1     113.433  54.708 230.240  1.00  0.00     0.000 C 
ENDROOT
BRANCH   1   2
ATOM      2  C   UNL     1     112.633  53.454 230.630  1.00  0.00     0.000 C 
BRANCH   2   3
ATOM      3  C   UNL     1     112.763  53.101 232.124  1.00  0.00     0.000 C 
BRANCH   3   4
ATOM      4  C   UNL     1     111.456  52.666 232.807  1.00  0.00    -0.000 C 
BRANCH   4   5
ATOM      5  C   UNL     1     111.142  53.484 234.070  1.00  0.00    -0.000 C 
BRANCH   5   6
ATOM      6  C   UNL     1     112.153  54.621 234.307  1.00  0.00    -0.000 C 
BRANCH   6   7
ATOM      7  C   UNL     1     111.565  56.044 234.225  1.00  0.00    -0.000 C 
BRANCH   7   8
ATOM      8  C   UNL     1     111.461  56.592 232.787  1.00  0.00    -0.000 C 
BRANCH   8   9
ATOM      9  C   UNL     1     110.021  56.538 232.243  1.00  0.00    -0.000 C 
BRANCH   9  10
ATOM     10  C   UNL     1     109.915  55.784 230.905  1.00  0.00    -0.000 C 
BRANCH  10  11
ATOM     11  C   UNL     1     109.425  56.638 229.723  1.00  0.00    -0.003 C 
ATOM     12  C   UNL     1     110.050  56.223 228.391  1.00  0.00     0.004 C 
ENDBRANCH  10  11
ENDBRANCH   9  10
ENDBRANCH   8   9
ENDBRANCH   7   8
ENDBRANCH   6   7
ENDBRANCH   5   6
ENDBRANCH   4   5
ENDBRANCH   3   4
ENDBRANCH   2   3
ENDBRANCH   1   2
BRANCH   1  13
ATOM     13  C   UNL     1     113.485  54.934 228.717  1.00  0.00     0.000 C 
BRANCH  13  14
ATOM     14  C   UNL     1     112.872  53.799 227.874  1.00  0.00     0.000 C 
BRANCH  14  15
ATOM     15  C   UNL     1     113.707  53.458 226.626  1.00  0.00     0.000 C 
BRANCH  15  16
ATOM     16  C   UNL     1     112.948  53.758 225.316  1.00  0.00     0.000 C 
BRANCH  16  17
ATOM     17  C   UNL     1     111.899  54.876 225.450  1.00  0.00     0.000 C 
BRANCH  17  18
ATOM     18  C   UNL     1     110.479  54.403 225.099  1.00  0.00     0.000 C 
BRANCH  18  19
ATOM     19  C   UNL     1     110.259  52.911 225.398  1.00  0.00     0.000 C 
BRANCH  19  20
ATOM     20  C   UNL     1     108.833  52.439 225.066  1.00  0.00     0.006 C 
BRANCH  20  21
ATOM     21  C   UNL     1     108.049  53.485 224.261  1.00  0.00     0.053 C 
BRANCH  21  22
ATOM     22  C   UNL     1     107.776  53.021 222.863  1.00  0.00     0.041 C 
ATOM     23  O   UNL     1     106.764  52.314 222.615  1.00  0.00    -0.550 OA
ATOM     24  O   UNL     1     108.621  53.398 221.826  1.00  0.00    -0.550 OA
ENDBRANCH  21  22
ENDBRANCH  20  21
ENDBRANCH  19  20
ENDBRANCH  18  19
ENDBRANCH  17  18
ENDBRANCH  16  17
ENDBRANCH  15  16
ENDBRANCH  14  15
ENDBRANCH  13  14
ENDBRANCH   1  13
TORSDOF 20
ENDMDL
MODEL 5
REMARK VINA RESULT:    -2.668      1.648      3.397
REMARK INTER + INTRA:          -9.593
REMARK INTER:                  -5.652
REMARK INTRA:                  -3.941
REMARK UNBOUND:                -3.806
REMARK SMILES CCCCCCCCCCCCCCCCCCCCCC(=O)[O-]
REMARK SMILES IDX 12 1 11 2 10 3 9 4 8 5 7 6 6 7 5 8 4 9 3 10 2 11 1 12 13 13
REMARK SMILES IDX 14 14 15 15 16 16 17 17 18 18 19 19 20 20 21 21 22 22 23 23
REMARK SMILES IDX 24 24
REMARK H PARENT
REMARK Flexibility Score: inf
ROOT
ATOM      1  C   UNL     1      99.928  63.025 228.088  1.00  0.00     0.000 C 
ENDROOT
BRANCH   1   2
ATOM      2  C   UNL     1      99.356  61.673 228.551  1.00  0.00     0.000 C 
BRANCH   2   3
ATOM      3  C   UNL     1     100.285  60.488 228.228  1.00  0.00     0.000 C 
BRANCH   3   4
ATOM      4  C   UNL     1      99.938  59.720 226.942  1.00  0.00    -0.000 C 
BRANCH   4   5
ATOM      5  C   UNL     1     101.083  59.725 225.916  1.00  0.00    -0.000 C 
BRANCH   5   6
ATOM      6  C   UNL     1     101.098  60.998 225.049  1.00  0.00    -0.000 C 
BRANCH   6   7
ATOM      7  C   UNL     1     102.291  61.942 225.296  1.00  0.00    -0.000 C 
BRANCH   7   8
ATOM      8  C   UNL     1     102.036  63.396 224.848  1.00  0.00    -0.000 C 
BRANCH   8   9
ATOM      9  C   UNL     1     100.874  63.502 223.843  1.00  0.00    -0.000 C 
BRANCH   9  10
ATOM     10  C   UNL     1     100.303  64.928 223.736  1.00  0.00    -0.000 C 
BRANCH  10  11
ATOM     11  C   UNL     1     100.737  65.880 224.865  1.00  0.00    -0.003 C 
ATOM     12  C   UNL     1     100.879  67.329 224.398  1.00  0.00     0.004 C 
ENDBRANCH  10  11
ENDBRANCH   9  10
ENDBRANCH   8   9
ENDBRANCH   7   8
ENDBRANCH   6   7
ENDBRANCH   5   6
ENDBRANCH   4   5
ENDBRANCH   3   4
ENDBRANCH   2   3
ENDBRANCH   1   2
BRANCH   1  13
ATOM     13  C   UNL     1      98.941  63.824 227.216  1.00  0.00     0.000 C 
BRANCH  13  14
ATOM     14  C   UNL     1      98.183  62.989 226.166  1.00  0.00     0.000 C 
BRANCH  14  15
ATOM     15  C   UNL     1      96.773  63.530 225.869  1.00  0.00     0.000 C 
BRANCH  15  16
ATOM     16  C   UNL     1      96.682  64.193 224.478  1.00  0.00     0.000 C 
BRANCH  16  17
ATOM     17  C   UNL     1      96.159  65.640 224.515  1.00  0.00     0.000 C 
BRANCH  17  18
ATOM     18  C   UNL     1      97.198  66.634 225.062  1.00  0.00     0.000 C 
BRANCH  18  19
ATOM     19  C   UNL     1      96.642  67.507 226.199  1.00  0.00     0.000 C 
BRANCH  19  20
ATOM     20  C   UNL     1      95.745  66.721 227.171  1.00  0.00     0.006 C 
BRANCH  20  21
ATOM     21  C   UNL     1      96.511  66.248 228.414  1.00  0.00     0.053 C 
BRANCH  21  22
ATOM     22  C   UNL     1      95.753  65.202 229.172  1.00  0.00     0.041 C 
ATOM     23  O   UNL     1      94.496  65.250 229.235  1.00  0.00    -0.550 OA
ATOM     24  O   UNL     1      96.432  64.155 229.783  1.00  0.00    -0.550 OA
ENDBRANCH  21  22
ENDBRANCH  20  21
ENDBRANCH  19  20
ENDBRANCH  18  19
ENDBRANCH  17  18
ENDBRANCH  16  17
ENDBRANCH  15  16
ENDBRANCH  14  15
ENDBRANCH  13  14
ENDBRANCH   1  13
TORSDOF 20
ENDMDL
MODEL 6
REMARK VINA RESULT:    -2.664     15.767     19.115
REMARK INTER + INTRA:          -9.586
REMARK INTER:                  -6.601
REMARK INTRA:                  -2.985
REMARK UNBOUND:                -3.806
REMARK SMILES CCCCCCCCCCCCCCCCCCCCCC(=O)[O-]
REMARK SMILES IDX 12 1 11 2 10 3 9 4 8 5 7 6 6 7 5 8 4 9 3 10 2 11 1 12 13 13
REMARK SMILES IDX 14 14 15 15 16 16 17 17 18 18 19 19 20 20 21 21 22 22 23 23
REMARK SMILES IDX 24 24
REMARK H PARENT
REMARK Flexibility Score: inf
ROOT
ATOM      1  C   UNL     1     111.521  56.494 228.729  1.00  0.00     0.000 C 
ENDROOT
BRANCH   1   2
ATOM      2  C   UNL     1     111.736  56.360 230.246  1.00  0.00     0.000 C 
BRANCH   2   3
ATOM      3  C   UNL     1     111.670  54.900 230.733  1.00  0.00     0.000 C 
BRANCH   3   4
ATOM      4  C   UNL     1     113.022  54.169 230.785  1.00  0.00    -0.000 C 
BRANCH   4   5
ATOM      5  C   UNL     1     113.762  54.377 232.116  1.00  0.00    -0.000 C 
BRANCH   5   6
ATOM      6  C   UNL     1     113.996  53.060 232.878  1.00  0.00    -0.000 C 
BRANCH   6   7
ATOM      7  C   UNL     1     113.533  53.065 234.349  1.00  0.00    -0.000 C 
BRANCH   7   8
ATOM      8  C   UNL     1     112.539  54.197 234.683  1.00  0.00    -0.000 C 
BRANCH   8   9
ATOM      9  C   UNL     1     111.128  53.663 234.990  1.00  0.00    -0.000 C 
BRANCH   9  10
ATOM     10  C   UNL     1     110.059  54.208 234.026  1.00  0.00    -0.000 C 
BRANCH  10  11
ATOM     11  C   UNL     1     109.317  53.132 233.213  1.00  0.00    -0.003 C 
ATOM     12  C   UNL     1     110.255  52.073 232.635  1.00  0.00     0.004 C 
ENDBRANCH  10  11
ENDBRANCH   9  10
ENDBRANCH   8   9
ENDBRANCH   7   8
ENDBRANCH   6   7
ENDBRANCH   5   6
ENDBRANCH   4   5
ENDBRANCH   3   4
ENDBRANCH   2   3
ENDBRANCH   1   2
BRANCH   1  13
ATOM     13  C   UNL     1     112.792  56.942 227.983  1.00  0.00     0.000 C 
BRANCH  13  14
ATOM     14  C   UNL     1     113.256  55.989 226.864  1.00  0.00     0.000 C 
BRANCH  14  15
ATOM     15  C   UNL     1     113.732  54.624 227.394  1.00  0.00     0.000 C 
BRANCH  15  16
ATOM     16  C   UNL     1     112.806  53.471 226.952  1.00  0.00     0.000 C 
BRANCH  16  17
ATOM     17  C   UNL     1     112.043  53.755 225.647  1.00  0.00     0.000 C 
BRANCH  17  18
ATOM     18  C   UNL     1     110.642  53.121 225.627  1.00  0.00     0.000 C 
BRANCH  18  19
ATOM     19  C   UNL     1     109.532  54.144 225.335  1.00  0.00     0.000 C 
BRANCH  19  20
ATOM     20  C   UNL     1     110.046  55.594 225.317  1.00  0.00     0.006 C 
BRANCH  20  21
ATOM     21  C   UNL     1     109.654  56.333 224.030  1.00  0.00     0.053 C 
BRANCH  21  22
ATOM     22  C   UNL     1     110.535  55.954 222.879  1.00  0.00     0.041 C 
ATOM     23  O   UNL     1     111.787  55.948 223.014  1.00  0.00    -0.550 OA
ATOM     24  O   UNL     1     109.973  55.577 221.666  1.00  0.00    -0.550 OA
ENDBRANCH  21  22
ENDBRANCH  20  21
ENDBRANCH  19  20
ENDBRANCH  18  19
ENDBRANCH  17  18
ENDBRANCH  16  17
ENDBRANCH  15  16
ENDBRANCH  14  15
ENDBRANCH  13  14
ENDBRANCH   1  13
TORSDOF 20
ENDMDL
MODEL 7
REMARK VINA RESULT:    -2.626      2.735      5.807
REMARK INTER + INTRA:          -9.502
REMARK INTER:                  -5.038
REMARK INTRA:                  -4.464
REMARK UNBOUND:                -3.806
REMARK SMILES CCCCCCCCCCCCCCCCCCCCCC(=O)[O-]
REMARK SMILES IDX 12 1 11 2 10 3 9 4 8 5 7 6 6 7 5 8 4 9 3 10 2 11 1 12 13 13
REMARK SMILES IDX 14 14 15 15 16 16 17 17 18 18 19 19 20 20 21 21 22 22 23 23
REMARK SMILES IDX 24 24
REMARK H PARENT
REMARK Flexibility Score: inf
ROOT
ATOM      1  C   UNL     1      98.592  66.915 224.628  1.00  0.00     0.000 C 
ENDROOT
BRANCH   1   2
ATOM      2  C   UNL     1      98.873  67.320 226.086  1.00  0.00     0.000 C 
BRANCH   2   3
ATOM      3  C   UNL     1      97.665  67.995 226.763  1.00  0.00     0.000 C 
BRANCH   3   4
ATOM      4  C   UNL     1      97.357  67.502 228.187  1.00  0.00    -0.000 C 
BRANCH   4   5
ATOM      5  C   UNL     1      95.868  67.620 228.550  1.00  0.00    -0.000 C 
BRANCH   5   6
ATOM      6  C   UNL     1      95.404  66.516 229.518  1.00  0.00    -0.000 C 
BRANCH   6   7
ATOM      7  C   UNL     1      96.537  65.678 230.143  1.00  0.00    -0.000 C 
BRANCH   7   8
ATOM      8  C   UNL     1      96.211  64.173 230.246  1.00  0.00    -0.000 C 
BRANCH   8   9
ATOM      9  C   UNL     1      97.469  63.318 230.487  1.00  0.00    -0.000 C 
BRANCH   9  10
ATOM     10  C   UNL     1      98.750  64.162 230.615  1.00  0.00    -0.000 C 
BRANCH  10  11
ATOM     11  C   UNL     1      99.692  64.089 229.399  1.00  0.00    -0.003 C 
ATOM     12  C   UNL     1     100.275  65.450 229.017  1.00  0.00     0.004 C 
ENDBRANCH  10  11
ENDBRANCH   9  10
ENDBRANCH   8   9
ENDBRANCH   7   8
ENDBRANCH   6   7
ENDBRANCH   5   6
ENDBRANCH   4   5
ENDBRANCH   3   4
ENDBRANCH   2   3
ENDBRANCH   1   2
BRANCH   1  13
ATOM     13  C   UNL     1      97.095  66.975 224.269  1.00  0.00     0.000 C 
BRANCH  13  14
ATOM     14  C   UNL     1      96.560  65.739 223.519  1.00  0.00     0.000 C 
BRANCH  14  15
ATOM     15  C   UNL     1      95.294  65.146 224.162  1.00  0.00     0.000 C 
BRANCH  15  16
ATOM     16  C   UNL     1      95.217  65.433 225.676  1.00  0.00     0.000 C 
BRANCH  16  17
ATOM     17  C   UNL     1      95.607  64.231 226.555  1.00  0.00     0.000 C 
BRANCH  17  18
ATOM     18  C   UNL     1      97.130  64.053 226.676  1.00  0.00     0.000 C 
BRANCH  18  19
ATOM     19  C   UNL     1      97.660  62.887 225.826  1.00  0.00     0.000 C 
BRANCH  19  20
ATOM     20  C   UNL     1      99.145  62.583 226.089  1.00  0.00     0.006 C 
BRANCH  20  21
ATOM     21  C   UNL     1     100.060  63.729 225.635  1.00  0.00     0.053 C 
BRANCH  21  22
ATOM     22  C   UNL     1     100.695  63.444 224.309  1.00  0.00     0.041 C 
ATOM     23  O   UNL     1     101.567  62.541 224.204  1.00  0.00    -0.550 OA
ATOM     24  O   UNL     1     100.300  64.152 223.181  1.00  0.00    -0.550 OA
ENDBRANCH  21  22
ENDBRANCH  20  21
ENDBRANCH  19  20
ENDBRANCH  18  19
ENDBRANCH  17  18
ENDBRANCH  16  17
ENDBRANCH  15  16
ENDBRANCH  14  15
ENDBRANCH  13  14
ENDBRANCH   1  13
TORSDOF 20
ENDMDL
MODEL 8
REMARK VINA RESULT:    -2.579      2.963      5.577
REMARK INTER + INTRA:          -9.400
REMARK INTER:                  -5.127
REMARK INTRA:                  -4.274
REMARK UNBOUND:                -3.806
REMARK SMILES CCCCCCCCCCCCCCCCCCCCCC(=O)[O-]
REMARK SMILES IDX 12 1 11 2 10 3 9 4 8 5 7 6 6 7 5 8 4 9 3 10 2 11 1 12 13 13
REMARK SMILES IDX 14 14 15 15 16 16 17 17 18 18 19 19 20 20 21 21 22 22 23 23
REMARK SMILES IDX 24 24
REMARK H PARENT
REMARK Flexibility Score: inf
ROOT
ATOM      1  C   UNL     1      96.807  65.196 229.707  1.00  0.00     0.000 C 
ENDROOT
BRANCH   1   2
ATOM      2  C   UNL     1      96.676  63.674 229.529  1.00  0.00     0.000 C 
BRANCH   2   3
ATOM      3  C   UNL     1      97.843  63.061 228.732  1.00  0.00     0.000 C 
BRANCH   3   4
ATOM      4  C   UNL     1      98.897  62.327 229.578  1.00  0.00    -0.000 C 
BRANCH   4   5
ATOM      5  C   UNL     1     100.326  62.510 229.042  1.00  0.00    -0.000 C 
BRANCH   5   6
ATOM      6  C   UNL     1     100.383  63.428 227.806  1.00  0.00    -0.000 C 
BRANCH   6   7
ATOM      7  C   UNL     1     100.951  62.771 226.532  1.00  0.00    -0.000 C 
BRANCH   7   8
ATOM      8  C   UNL     1      99.995  61.750 225.881  1.00  0.00    -0.000 C 
BRANCH   8   9
ATOM      9  C   UNL     1     100.450  60.296 226.109  1.00  0.00    -0.000 C 
BRANCH   9  10
ATOM     10  C   UNL     1      99.420  59.464 226.893  1.00  0.00    -0.000 C 
BRANCH  10  11
ATOM     11  C   UNL     1      97.977  59.994 226.823  1.00  0.00    -0.003 C 
ATOM     12  C   UNL     1      97.089  59.448 227.941  1.00  0.00     0.004 C 
ENDBRANCH  10  11
ENDBRANCH   9  10
ENDBRANCH   8   9
ENDBRANCH   7   8
ENDBRANCH   6   7
ENDBRANCH   5   6
ENDBRANCH   4   5
ENDBRANCH   3   4
ENDBRANCH   2   3
ENDBRANCH   1   2
BRANCH   1  13
ATOM     13  C   UNL     1      97.861  65.818 228.770  1.00  0.00     0.000 C 
BRANCH  13  14
ATOM     14  C   UNL     1      97.330  66.935 227.852  1.00  0.00     0.000 C 
BRANCH  14  15
ATOM     15  C   UNL     1      95.793  66.976 227.778  1.00  0.00     0.000 C 
BRANCH  15  16
ATOM     16  C   UNL     1      95.261  66.496 226.411  1.00  0.00     0.000 C 
BRANCH  16  17
ATOM     17  C   UNL     1      95.081  64.971 226.318  1.00  0.00     0.000 C 
BRANCH  17  18
ATOM     18  C   UNL     1      95.754  64.368 225.073  1.00  0.00     0.000 C 
BRANCH  18  19
ATOM     19  C   UNL     1      97.233  64.019 225.308  1.00  0.00     0.000 C 
BRANCH  19  20
ATOM     20  C   UNL     1      98.162  64.598 224.227  1.00  0.00     0.006 C 
BRANCH  20  21
ATOM     21  C   UNL     1      99.151  65.623 224.801  1.00  0.00     0.053 C 
BRANCH  21  22
ATOM     22  C   UNL     1     100.477  65.568 224.106  1.00  0.00     0.041 C 
ATOM     23  O   UNL     1     101.385  66.387 224.406  1.00  0.00    -0.550 OA
ATOM     24  O   UNL     1     100.721  64.592 223.148  1.00  0.00    -0.550 OA
ENDBRANCH  21  22
ENDBRANCH  20  21
ENDBRANCH  19  20
ENDBRANCH  18  19
ENDBRANCH  17  18
ENDBRANCH  16  17
ENDBRANCH  15  16
ENDBRANCH  14  15
ENDBRANCH  13  14
ENDBRANCH   1  13
TORSDOF 20
ENDMDL
MODEL 9
REMARK VINA RESULT:    -2.572      9.074     11.730
REMARK INTER + INTRA:          -9.386
REMARK INTER:                  -5.406
REMARK INTRA:                  -3.980
REMARK UNBOUND:                -3.806
REMARK SMILES CCCCCCCCCCCCCCCCCCCCCC(=O)[O-]
REMARK SMILES IDX 12 1 11 2 10 3 9 4 8 5 7 6 6 7 5 8 4 9 3 10 2 11 1 12 13 13
REMARK SMILES IDX 14 14 15 15 16 16 17 17 18 18 19 19 20 20 21 21 22 22 23 23
REMARK SMILES IDX 24 24
REMARK H PARENT
REMARK Flexibility Score: inf
ROOT
ATOM      1  C   UNL     1      94.714  55.432 224.289  1.00  0.00     0.000 C 
ENDROOT
BRANCH   1   2
ATOM      2  C   UNL     1      94.916  56.922 223.966  1.00  0.00     0.000 C 
BRANCH   2   3
ATOM      3  C   UNL     1      96.184  57.509 224.616  1.00  0.00     0.000 C 
BRANCH   3   4
ATOM      4  C   UNL     1      97.320  56.500 224.854  1.00  0.00    -0.000 C 
BRANCH   4   5
ATOM      5  C   UNL     1      98.625  56.893 224.142  1.00  0.00    -0.000 C 
BRANCH   5   6
ATOM      6  C   UNL     1      99.574  55.697 223.939  1.00  0.00    -0.000 C 
BRANCH   6   7
ATOM      7  C   UNL     1      99.627  55.143 222.501  1.00  0.00    -0.000 C 
BRANCH   7   8
ATOM      8  C   UNL     1     100.780  55.722 221.655  1.00  0.00    -0.000 C 
BRANCH   8   9
ATOM      9  C   UNL     1     101.112  54.839 220.438  1.00  0.00    -0.000 C 
BRANCH   9  10
ATOM     10  C   UNL     1      99.921  53.977 219.982  1.00  0.00    -0.000 C 
BRANCH  10  11
ATOM     11  C   UNL     1      99.744  53.879 218.456  1.00  0.00    -0.003 C 
ATOM     12  C   UNL     1      98.300  54.110 218.010  1.00  0.00     0.004 C 
ENDBRANCH  10  11
ENDBRANCH   9  10
ENDBRANCH   8   9
ENDBRANCH   7   8
ENDBRANCH   6   7
ENDBRANCH   5   6
ENDBRANCH   4   5
ENDBRANCH   3   4
ENDBRANCH   2   3
ENDBRANCH   1   2
BRANCH   1  13
ATOM     13  C   UNL     1      94.654  54.550 223.028  1.00  0.00     0.000 C 
BRANCH  13  14
ATOM     14  C   UNL     1      95.999  53.923 222.612  1.00  0.00     0.000 C 
BRANCH  14  15
ATOM     15  C   UNL     1      96.395  54.253 221.162  1.00  0.00     0.000 C 
BRANCH  15  16
ATOM     16  C   UNL     1      95.390  55.207 220.484  1.00  0.00     0.000 C 
BRANCH  16  17
ATOM     17  C   UNL     1      96.048  56.431 219.823  1.00  0.00     0.000 C 
BRANCH  17  18
ATOM     18  C   UNL     1      96.980  57.193 220.780  1.00  0.00     0.000 C 
BRANCH  18  19
ATOM     19  C   UNL     1      98.291  57.632 220.107  1.00  0.00     0.000 C 
BRANCH  19  20
ATOM     20  C   UNL     1      98.199  57.641 218.571  1.00  0.00     0.006 C 
BRANCH  20  21
ATOM     21  C   UNL     1      98.963  58.820 217.952  1.00  0.00     0.053 C 
BRANCH  21  22
ATOM     22  C   UNL     1     100.416  58.798 218.320  1.00  0.00     0.041 C 
ATOM     23  O   UNL     1     101.123  57.792 218.050  1.00  0.00    -0.550 OA
ATOM     24  O   UNL     1     100.996  59.902 218.932  1.00  0.00    -0.550 OA
ENDBRANCH  21  22
ENDBRANCH  20  21
ENDBRANCH  19  20
ENDBRANCH  18  19
ENDBRANCH  17  18
ENDBRANCH  16  17
ENDBRANCH  15  16
ENDBRANCH  14  15
ENDBRANCH  13  14
ENDBRANCH   1  13
TORSDOF 20
ENDMDL
