MODEL 1
REMARK VINA RESULT:    17.760      0.000      0.000
REMARK INTER + INTRA:          17.760
REMARK INTER:                  17.760
REMARK INTRA:                   0.000
REMARK UNBOUND:                 0.000
REMARK SMILES C=C1CCC[C@@]2(C)CC(=O)C(=C(C)C)C[C@@H]12
REMARK SMILES IDX 13 1 12 2 11 3 15 4 16 5 2 6 1 7 3 8 4 9 5 10 6 11 8 12 9 13
REMARK SMILES IDX 10 14 7 15 14 16
REMARK H PARENT
REMARK Flexibility Score: inf
ROOT
ATOM      1  C   UNL     1      12.365  12.936  -3.719  1.00  0.00     0.039 C 
ATOM      2  C   UNL     1      10.982  13.404  -3.329  1.00  0.00    -0.070 C 
ATOM      3  C   UNL     1      10.711  13.842  -2.065  1.00  0.00    -0.006 C 
ATOM      4  C   UNL     1      11.779  13.878  -0.986  1.00  0.00     0.047 C 
ATOM      5  C   UNL     1      11.222  13.624   0.437  1.00  0.00     0.025 C 
ATOM      6  C   UNL     1      12.319  13.872   1.457  1.00  0.00    -0.073 C 
ATOM      7  C   UNL     1      13.171  12.888   1.786  1.00  0.00     0.008 C 
ATOM      8  C   UNL     1      12.449  15.223   2.125  1.00  0.00     0.031 C 
ATOM      9  C   UNL     1      11.730  16.331   1.344  1.00  0.00     0.005 C 
ATOM     10  C   UNL     1      10.286  15.992   0.906  1.00  0.00     0.008 C 
ATOM     11  C   UNL     1       9.954  14.468   0.780  1.00  0.00    -0.018 C 
ATOM     12  C   UNL     1       8.870  14.241  -0.308  1.00  0.00     0.088 C 
ATOM     13  C   UNL     1       9.402  14.433  -1.694  1.00  0.00     0.159 C 
ATOM     14  O   UNL     1       8.727  15.102  -2.523  1.00  0.00    -0.295 OA
ATOM     15  C   UNL     1       9.345  13.968   2.119  1.00  0.00     0.012 C 
ATOM     16  C   UNL     1       9.905  13.329  -4.387  1.00  0.00     0.039 C 
ENDROOT
TORSDOF 0
ENDMDL
