MODEL 1
REMARK VINA RESULT:    -5.612      0.000      0.000
REMARK INTER + INTRA:          -7.439
REMARK INTER:                  -7.909
REMARK INTRA:                   0.470
REMARK UNBOUND:                 0.470
REMARK SMILES CC1=CCC(=C(C)C)C(=O)CC(C)=CCC1
REMARK SMILES IDX 12 1 14 2 13 3 15 4 16 5 2 6 1 7 3 8 11 10 9 11 10 12 5 13
REMARK SMILES IDX 6 14 7 15 8 16 4 17
REMARK H PARENT
REMARK Flexibility Score: 60.00
ROOT
ATOM      1  C   UNL     1     -13.428 -37.701  41.355  1.00  0.00    -0.070 C 
ATOM      2  C   UNL     1     -13.361 -38.760  42.195  1.00  0.00    -0.027 C 
ATOM      3  C   UNL     1     -14.378 -36.582  41.698  1.00  0.00     0.039 C 
ENDROOT
BRANCH   2   4
ATOM      4  C   UNL     1     -12.426 -39.939  42.038  1.00  0.00     0.032 C 
BRANCH   4   5
ATOM      5  C   UNL     1     -13.129 -41.135  41.380  1.00  0.00     0.034 C 
BRANCH   5   6
ATOM      6  C   UNL     1     -12.401 -41.671  40.155  1.00  0.00    -0.077 C 
ATOM      7  C   UNL     1     -11.251 -42.628  40.353  1.00  0.00     0.039 C 
ATOM      8  C   UNL     1     -12.741 -41.349  38.887  1.00  0.00    -0.023 CG0
ATOM      9  G   UNL     1     -13.812 -40.359  38.492  1.00  0.00     0.000 G0
ENDBRANCH   5   6
ENDBRANCH   4   5
ENDBRANCH   2   4
BRANCH   1  10
ATOM     10  C   UNL     1     -12.595 -37.596  40.091  1.00  0.00     0.111 C 
BRANCH  10  11
ATOM     11  C   UNL     1     -13.439 -37.819  38.867  1.00  0.00     0.163 C 
ATOM     12  O   UNL     1     -14.304 -36.959  38.548  1.00  0.00    -0.294 OA
BRANCH  11  13
ATOM     13  C   UNL     1     -13.260 -39.022  38.015  1.00  0.00    -0.002 C 
ATOM     14  C   UNL     1     -12.605 -38.929  36.826  1.00  0.00    -0.069 C 
ATOM     15  C   UNL     1     -11.963 -37.633  36.384  1.00  0.00     0.039 C 
ATOM     16  C   UNL     1     -12.459 -40.130  35.920  1.00  0.00     0.039 C 
BRANCH  13  17
ATOM     17  C   UNL     1     -13.819 -40.358  38.490  1.00  0.00     0.066 CG0
ATOM     18  G   UNL     1     -12.757 -41.350  38.904  1.00  0.00     0.000 G0
ENDBRANCH  13  17
ENDBRANCH  11  13
ENDBRANCH  10  11
ENDBRANCH   1  10
TORSDOF 0
ENDMDL
MODEL 2
REMARK VINA RESULT:    -5.599      2.800      4.923
REMARK INTER + INTRA:          -7.421
REMARK INTER:                  -8.134
REMARK INTRA:                   0.714
REMARK UNBOUND:                 0.470
REMARK SMILES CC1=CCC(=C(C)C)C(=O)CC(C)=CCC1
REMARK SMILES IDX 12 1 14 2 13 3 15 4 16 5 2 6 1 7 3 8 11 10 9 11 10 12 5 13
REMARK SMILES IDX 6 14 7 15 8 16 4 17
REMARK H PARENT
REMARK Flexibility Score: 60.00
ROOT
ATOM      1  C   UNL     1     -13.858 -37.441  40.129  1.00  0.00    -0.070 C 
ATOM      2  C   UNL     1     -14.372 -36.304  39.604  1.00  0.00    -0.027 C 
ATOM      3  C   UNL     1     -13.530 -37.458  41.600  1.00  0.00     0.039 C 
ENDROOT
BRANCH   2   4
ATOM      4  C   UNL     1     -14.812 -36.129  38.168  1.00  0.00     0.032 C 
BRANCH   4   5
ATOM      5  C   UNL     1     -13.635 -36.286  37.193  1.00  0.00     0.034 C 
BRANCH   5   6
ATOM      6  C   UNL     1     -12.400 -35.492  37.597  1.00  0.00    -0.077 C 
ATOM      7  C   UNL     1     -12.488 -33.987  37.650  1.00  0.00     0.039 C 
ATOM      8  C   UNL     1     -11.223 -36.068  37.933  1.00  0.00    -0.023 CG0
ATOM      9  G   UNL     1     -10.923 -37.547  37.874  1.00  0.00     0.000 G0
ENDBRANCH   5   6
ENDBRANCH   4   5
ENDBRANCH   2   4
BRANCH   1  10
ATOM     10  C   UNL     1     -13.598 -38.688  39.304  1.00  0.00     0.111 C 
BRANCH  10  11
ATOM     11  C   UNL     1     -12.184 -39.165  39.475  1.00  0.00     0.163 C 
ATOM     12  O   UNL     1     -11.971 -40.357  39.824  1.00  0.00    -0.294 OA
BRANCH  11  13
ATOM     13  C   UNL     1     -11.030 -38.265  39.221  1.00  0.00    -0.002 C 
ATOM     14  C   UNL     1     -10.081 -38.078  40.178  1.00  0.00    -0.069 C 
ATOM     15  C   UNL     1     -10.121 -38.845  41.480  1.00  0.00     0.039 C 
ATOM     16  C   UNL     1      -8.928 -37.126  39.957  1.00  0.00     0.039 C 
BRANCH  13  17
ATOM     17  C   UNL     1     -10.924 -37.556  37.875  1.00  0.00     0.066 CG0
ATOM     18  G   UNL     1     -11.242 -36.080  37.938  1.00  0.00     0.000 G0
ENDBRANCH  13  17
ENDBRANCH  11  13
ENDBRANCH  10  11
ENDBRANCH   1  10
TORSDOF 0
ENDMDL
MODEL 3
REMARK VINA RESULT:    -5.438      2.338      5.727
REMARK INTER + INTRA:          -7.194
REMARK INTER:                  -7.487
REMARK INTRA:                   0.293
REMARK UNBOUND:                 0.470
REMARK SMILES CC1=CCC(=C(C)C)C(=O)CC(C)=CCC1
REMARK SMILES IDX 12 1 14 2 13 3 15 4 16 5 2 6 1 7 3 8 11 10 9 11 10 12 5 13
REMARK SMILES IDX 6 14 7 15 8 16 4 17
REMARK H PARENT
REMARK Flexibility Score: 60.00
ROOT
ATOM      1  C   UNL     1     -11.917 -38.713  36.347  1.00  0.00    -0.070 C 
ATOM      2  C   UNL     1     -11.981 -37.638  35.527  1.00  0.00    -0.027 C 
ATOM      3  C   UNL     1     -11.985 -40.085  35.725  1.00  0.00     0.039 C 
ENDROOT
BRANCH   2   4
ATOM      4  C   UNL     1     -11.869 -36.197  35.970  1.00  0.00     0.032 C 
BRANCH   4   5
ATOM      5  C   UNL     1     -13.238 -35.614  36.350  1.00  0.00     0.034 C 
BRANCH   5   6
ATOM      6  C   UNL     1     -13.251 -34.927  37.708  1.00  0.00    -0.077 C 
ATOM      7  C   UNL     1     -12.549 -33.600  37.859  1.00  0.00     0.039 C 
ATOM      8  C   UNL     1     -13.879 -35.435  38.793  1.00  0.00    -0.023 CG0
ATOM      9  G   UNL     1     -14.572 -36.776  38.855  1.00  0.00     0.000 G0
ENDBRANCH   5   6
ENDBRANCH   4   5
ENDBRANCH   2   4
BRANCH   1  10
ATOM     10  C   UNL     1     -11.785 -38.595  37.854  1.00  0.00     0.111 C 
BRANCH  10  11
ATOM     11  C   UNL     1     -13.093 -38.886  38.536  1.00  0.00     0.163 C 
ATOM     12  O   UNL     1     -13.659 -39.995  38.340  1.00  0.00    -0.294 OA
BRANCH  11  13
ATOM     13  C   UNL     1     -13.720 -37.900  39.453  1.00  0.00    -0.002 C 
ATOM     14  C   UNL     1     -13.535 -37.999  40.798  1.00  0.00    -0.069 C 
ATOM     15  C   UNL     1     -12.618 -39.048  41.387  1.00  0.00     0.039 C 
ATOM     16  C   UNL     1     -14.208 -37.038  41.750  1.00  0.00     0.039 C 
BRANCH  13  17
ATOM     17  C   UNL     1     -14.572 -36.779  38.868  1.00  0.00     0.066 CG0
ATOM     18  G   UNL     1     -13.863 -35.447  38.803  1.00  0.00     0.000 G0
ENDBRANCH  13  17
ENDBRANCH  11  13
ENDBRANCH  10  11
ENDBRANCH   1  10
TORSDOF 0
ENDMDL
MODEL 4
REMARK VINA RESULT:    -5.432      1.892      3.354
REMARK INTER + INTRA:          -7.185
REMARK INTER:                  -7.891
REMARK INTRA:                   0.706
REMARK UNBOUND:                 0.470
REMARK SMILES CC1=CCC(=C(C)C)C(=O)CC(C)=CCC1
REMARK SMILES IDX 12 1 14 2 13 3 15 4 16 5 2 6 1 7 3 8 11 10 9 11 10 12 5 13
REMARK SMILES IDX 6 14 7 15 8 16 4 17
REMARK H PARENT
REMARK Flexibility Score: 60.00
ROOT
ATOM      1  C   UNL     1     -13.083 -39.431  37.952  1.00  0.00    -0.070 C 
ATOM      2  C   UNL     1     -13.140 -40.723  38.351  1.00  0.00    -0.027 C 
ATOM      3  C   UNL     1     -12.229 -39.095  36.755  1.00  0.00     0.039 C 
ENDROOT
BRANCH   2   4
ATOM      4  C   UNL     1     -13.988 -41.245  39.489  1.00  0.00     0.032 C 
BRANCH   4   5
ATOM      5  C   UNL     1     -13.461 -40.770  40.852  1.00  0.00     0.034 C 
BRANCH   5   6
ATOM      6  C   UNL     1     -11.945 -40.825  40.970  1.00  0.00    -0.077 C 
ATOM      7  C   UNL     1     -11.265 -42.172  40.991  1.00  0.00     0.039 C 
ATOM      8  C   UNL     1     -11.164 -39.723  41.040  1.00  0.00    -0.023 CG0
ATOM      9  G   UNL     1     -11.663 -38.299  41.104  1.00  0.00     0.000 G0
ENDBRANCH   5   6
ENDBRANCH   4   5
ENDBRANCH   2   4
BRANCH   1  10
ATOM     10  C   UNL     1     -13.833 -38.315  38.654  1.00  0.00     0.111 C 
BRANCH  10  11
ATOM     11  C   UNL     1     -12.896 -37.225  39.093  1.00  0.00     0.163 C 
ATOM     12  O   UNL     1     -13.206 -36.021  38.882  1.00  0.00    -0.294 OA
BRANCH  11  13
ATOM     13  C   UNL     1     -11.622 -37.537  39.789  1.00  0.00    -0.002 C 
ATOM     14  C   UNL     1     -10.433 -37.157  39.247  1.00  0.00    -0.069 C 
ATOM     15  C   UNL     1     -10.378 -36.332  37.981  1.00  0.00     0.039 C 
ATOM     16  C   UNL     1      -9.123 -37.511  39.913  1.00  0.00     0.039 C 
BRANCH  13  17
ATOM     17  C   UNL     1     -11.665 -38.287  41.116  1.00  0.00     0.066 CG0
ATOM     18  G   UNL     1     -11.166 -39.710  41.027  1.00  0.00     0.000 G0
ENDBRANCH  13  17
ENDBRANCH  11  13
ENDBRANCH  10  11
ENDBRANCH   1  10
TORSDOF 0
ENDMDL
MODEL 5
REMARK VINA RESULT:    -5.165      2.236      4.827
REMARK INTER + INTRA:          -6.809
REMARK INTER:                  -7.399
REMARK INTRA:                   0.590
REMARK UNBOUND:                 0.470
REMARK SMILES CC1=CCC(=C(C)C)C(=O)CC(C)=CCC1
REMARK SMILES IDX 12 1 14 2 13 3 15 4 16 5 2 6 1 7 3 8 11 10 9 11 10 12 5 13
REMARK SMILES IDX 6 14 7 15 8 16 4 17
REMARK H PARENT
REMARK Flexibility Score: 60.00
ROOT
ATOM      1  C   UNL     1     -12.603 -40.642  40.057  1.00  0.00    -0.070 C 
ATOM      2  C   UNL     1     -12.700 -40.612  38.708  1.00  0.00    -0.027 C 
ATOM      3  C   UNL     1     -11.640 -41.622  40.678  1.00  0.00     0.039 C 
ENDROOT
BRANCH   2   4
ATOM      4  C   UNL     1     -13.567 -39.657  37.918  1.00  0.00     0.032 C 
BRANCH   4   5
ATOM      5  C   UNL     1     -12.723 -38.721  37.039  1.00  0.00     0.034 C 
BRANCH   5   6
ATOM      6  C   UNL     1     -12.638 -37.298  37.573  1.00  0.00    -0.077 C 
ATOM      7  C   UNL     1     -13.471 -36.225  36.916  1.00  0.00     0.039 C 
ATOM      8  C   UNL     1     -11.865 -36.942  38.624  1.00  0.00    -0.023 CG0
ATOM      9  G   UNL     1     -10.915 -37.856  39.361  1.00  0.00     0.000 G0
ENDBRANCH   5   6
ENDBRANCH   4   5
ENDBRANCH   2   4
BRANCH   1  10
ATOM     10  C   UNL     1     -13.420 -39.740  40.964  1.00  0.00     0.111 C 
BRANCH  10  11
ATOM     11  C   UNL     1     -12.783 -38.385  41.095  1.00  0.00     0.163 C 
ATOM     12  O   UNL     1     -13.481 -37.409  41.480  1.00  0.00    -0.294 OA
BRANCH  11  13
ATOM     13  C   UNL     1     -11.343 -38.178  40.799  1.00  0.00    -0.002 C 
ATOM     14  C   UNL     1     -10.418 -38.267  41.794  1.00  0.00    -0.069 C 
ATOM     15  C   UNL     1     -10.814 -38.669  43.197  1.00  0.00     0.039 C 
ATOM     16  C   UNL     1      -8.954 -38.007  41.523  1.00  0.00     0.039 C 
BRANCH  13  17
ATOM     17  C   UNL     1     -10.916 -37.864  39.369  1.00  0.00     0.066 CG0
ATOM     18  G   UNL     1     -11.865 -36.943  38.639  1.00  0.00     0.000 G0
ENDBRANCH  13  17
ENDBRANCH  11  13
ENDBRANCH  10  11
ENDBRANCH   1  10
TORSDOF 0
ENDMDL
MODEL 6
REMARK VINA RESULT:    -5.149      2.689      4.803
REMARK INTER + INTRA:          -6.786
REMARK INTER:                  -7.082
REMARK INTRA:                   0.296
REMARK UNBOUND:                 0.470
REMARK SMILES CC1=CCC(=C(C)C)C(=O)CC(C)=CCC1
REMARK SMILES IDX 12 1 14 2 13 3 15 4 16 5 2 6 1 7 3 8 11 10 9 11 10 12 5 13
REMARK SMILES IDX 6 14 7 15 8 16 4 17
REMARK H PARENT
REMARK Flexibility Score: 60.00
ROOT
ATOM      1  C   UNL     1     -12.497 -35.889  37.137  1.00  0.00    -0.070 C 
ATOM      2  C   UNL     1     -13.840 -35.853  37.297  1.00  0.00    -0.027 C 
ATOM      3  C   UNL     1     -11.949 -35.876  35.733  1.00  0.00     0.039 C 
ENDROOT
BRANCH   2   4
ATOM      4  C   UNL     1     -14.558 -35.800  38.627  1.00  0.00     0.032 C 
BRANCH   4   5
ATOM      5  C   UNL     1     -14.615 -37.183  39.294  1.00  0.00     0.034 C 
BRANCH   5   6
ATOM      6  C   UNL     1     -14.130 -37.183  40.737  1.00  0.00    -0.077 C 
ATOM      7  C   UNL     1     -14.880 -36.362  41.757  1.00  0.00     0.039 C 
ATOM      8  C   UNL     1     -13.065 -37.899  41.164  1.00  0.00    -0.023 CG0
ATOM      9  G   UNL     1     -12.152 -38.720  40.284  1.00  0.00     0.000 G0
ENDBRANCH   5   6
ENDBRANCH   4   5
ENDBRANCH   2   4
BRANCH   1  10
ATOM     10  C   UNL     1     -11.528 -35.945  38.303  1.00  0.00     0.111 C 
BRANCH  10  11
ATOM     11  C   UNL     1     -10.952 -37.324  38.462  1.00  0.00     0.163 C 
ATOM     12  O   UNL     1     -10.482 -37.918  37.454  1.00  0.00    -0.294 OA
BRANCH  11  13
ATOM     13  C   UNL     1     -10.907 -37.994  39.787  1.00  0.00    -0.002 C 
ATOM     14  C   UNL     1      -9.774 -37.948  40.541  1.00  0.00    -0.069 C 
ATOM     15  C   UNL     1      -8.572 -37.144  40.100  1.00  0.00     0.039 C 
ATOM     16  C   UNL     1      -9.691 -38.667  41.868  1.00  0.00     0.039 C 
BRANCH  13  17
ATOM     17  C   UNL     1     -12.144 -38.730  40.289  1.00  0.00     0.066 CG0
ATOM     18  G   UNL     1     -13.045 -37.884  41.158  1.00  0.00     0.000 G0
ENDBRANCH  13  17
ENDBRANCH  11  13
ENDBRANCH  10  11
ENDBRANCH   1  10
TORSDOF 0
ENDMDL
MODEL 7
REMARK VINA RESULT:    -5.096      2.187      3.500
REMARK INTER + INTRA:          -6.712
REMARK INTER:                  -7.359
REMARK INTRA:                   0.648
REMARK UNBOUND:                 0.470
REMARK SMILES CC1=CCC(=C(C)C)C(=O)CC(C)=CCC1
REMARK SMILES IDX 12 1 14 2 13 3 15 4 16 5 2 6 1 7 3 8 11 10 9 11 10 12 5 13
REMARK SMILES IDX 6 14 7 15 8 16 4 17
REMARK H PARENT
REMARK Flexibility Score: 60.00
ROOT
ATOM      1  C   UNL     1     -10.555 -37.328  38.678  1.00  0.00    -0.070 C 
ATOM      2  C   UNL     1     -10.072 -37.467  39.935  1.00  0.00    -0.027 C 
ATOM      3  C   UNL     1     -10.378 -35.996  37.993  1.00  0.00     0.039 C 
ENDROOT
BRANCH   2   4
ATOM      4  C   UNL     1     -10.109 -38.743  40.746  1.00  0.00     0.032 C 
BRANCH   4   5
ATOM      5  C   UNL     1     -11.181 -38.685  41.844  1.00  0.00     0.034 C 
BRANCH   5   6
ATOM      6  C   UNL     1     -12.481 -39.379  41.462  1.00  0.00    -0.077 C 
ATOM      7  C   UNL     1     -12.655 -40.837  41.808  1.00  0.00     0.039 C 
ATOM      8  C   UNL     1     -13.505 -38.751  40.841  1.00  0.00    -0.023 CG0
ATOM      9  G   UNL     1     -13.489 -37.321  40.354  1.00  0.00     0.000 G0
ENDBRANCH   5   6
ENDBRANCH   4   5
ENDBRANCH   2   4
BRANCH   1  10
ATOM     10  C   UNL     1     -11.263 -38.446  37.937  1.00  0.00     0.111 C 
BRANCH  10  11
ATOM     11  C   UNL     1     -12.756 -38.309  38.050  1.00  0.00     0.163 C 
ATOM     12  O   UNL     1     -13.499 -39.164  37.497  1.00  0.00    -0.294 OA
BRANCH  11  13
ATOM     13  C   UNL     1     -13.372 -37.198  38.818  1.00  0.00    -0.002 C 
ATOM     14  C   UNL     1     -13.834 -36.092  38.174  1.00  0.00    -0.069 C 
ATOM     15  C   UNL     1     -13.819 -36.001  36.665  1.00  0.00     0.039 C 
ATOM     16  C   UNL     1     -14.417 -34.928  38.943  1.00  0.00     0.039 C 
BRANCH  13  17
ATOM     17  C   UNL     1     -13.481 -37.314  40.335  1.00  0.00     0.066 CG0
ATOM     18  G   UNL     1     -13.511 -38.740  40.835  1.00  0.00     0.000 G0
ENDBRANCH  13  17
ENDBRANCH  11  13
ENDBRANCH  10  11
ENDBRANCH   1  10
TORSDOF 0
ENDMDL
MODEL 8
REMARK VINA RESULT:    -5.093      1.818      4.436
REMARK INTER + INTRA:          -6.708
REMARK INTER:                  -7.307
REMARK INTRA:                   0.599
REMARK UNBOUND:                 0.470
REMARK SMILES CC1=CCC(=C(C)C)C(=O)CC(C)=CCC1
REMARK SMILES IDX 12 1 14 2 13 3 15 4 16 5 2 6 1 7 3 8 11 10 9 11 10 12 5 13
REMARK SMILES IDX 6 14 7 15 8 16 4 17
REMARK H PARENT
REMARK Flexibility Score: 60.00
ROOT
ATOM      1  C   UNL     1     -12.985 -41.053  40.183  1.00  0.00    -0.070 C 
ATOM      2  C   UNL     1     -13.514 -41.236  38.951  1.00  0.00    -0.027 C 
ATOM      3  C   UNL     1     -13.875 -41.281  41.379  1.00  0.00     0.039 C 
ENDROOT
BRANCH   2   4
ATOM      4  C   UNL     1     -12.753 -41.110  37.650  1.00  0.00     0.032 C 
BRANCH   4   5
ATOM      5  C   UNL     1     -13.253 -39.921  36.815  1.00  0.00     0.034 C 
BRANCH   5   6
ATOM      6  C   UNL     1     -12.355 -38.694  36.906  1.00  0.00    -0.077 C 
ATOM      7  C   UNL     1     -11.337 -38.457  35.818  1.00  0.00     0.039 C 
ATOM      8  C   UNL     1     -12.433 -37.788  37.906  1.00  0.00    -0.023 CG0
ATOM      9  G   UNL     1     -13.336 -37.890  39.113  1.00  0.00     0.000 G0
ENDBRANCH   5   6
ENDBRANCH   4   5
ENDBRANCH   2   4
BRANCH   1  10
ATOM     10  C   UNL     1     -11.546 -40.629  40.410  1.00  0.00     0.111 C 
BRANCH  10  11
ATOM     11  C   UNL     1     -11.406 -39.134  40.344  1.00  0.00     0.163 C 
ATOM     12  O   UNL     1     -10.260 -38.625  40.214  1.00  0.00    -0.294 OA
BRANCH  11  13
ATOM     13  C   UNL     1     -12.594 -38.244  40.408  1.00  0.00    -0.002 C 
ATOM     14  C   UNL     1     -13.019 -37.753  41.604  1.00  0.00    -0.069 C 
ATOM     15  C   UNL     1     -12.250 -38.018  42.878  1.00  0.00     0.039 C 
ATOM     16  C   UNL     1     -14.257 -36.890  41.695  1.00  0.00     0.039 C 
BRANCH  13  17
ATOM     17  C   UNL     1     -13.326 -37.891  39.119  1.00  0.00     0.066 CG0
ATOM     18  G   UNL     1     -12.422 -37.794  37.912  1.00  0.00     0.000 G0
ENDBRANCH  13  17
ENDBRANCH  11  13
ENDBRANCH  10  11
ENDBRANCH   1  10
TORSDOF 0
ENDMDL
MODEL 9
REMARK VINA RESULT:    -4.984      2.250      3.342
REMARK INTER + INTRA:          -6.554
REMARK INTER:                  -7.195
REMARK INTRA:                   0.641
REMARK UNBOUND:                 0.470
REMARK SMILES CC1=CCC(=C(C)C)C(=O)CC(C)=CCC1
REMARK SMILES IDX 12 1 14 2 13 3 15 4 16 5 2 6 1 7 3 8 11 10 9 11 10 12 5 13
REMARK SMILES IDX 6 14 7 15 8 16 4 17
REMARK H PARENT
REMARK Flexibility Score: 60.00
ROOT
ATOM      1  C   UNL     1     -13.613 -35.863  38.451  1.00  0.00    -0.070 C 
ATOM      2  C   UNL     1     -13.904 -36.082  39.754  1.00  0.00    -0.027 C 
ATOM      3  C   UNL     1     -13.212 -34.469  38.039  1.00  0.00     0.039 C 
ENDROOT
BRANCH   2   4
ATOM      4  C   UNL     1     -14.265 -37.424  40.351  1.00  0.00     0.032 C 
BRANCH   4   5
ATOM      5  C   UNL     1     -13.262 -37.851  41.433  1.00  0.00     0.034 C 
BRANCH   5   6
ATOM      6  C   UNL     1     -12.403 -39.041  41.030  1.00  0.00    -0.077 C 
ATOM      7  C   UNL     1     -12.716 -40.396  41.615  1.00  0.00     0.039 C 
ATOM      8  C   UNL     1     -11.376 -38.955  40.155  1.00  0.00    -0.023 CG0
ATOM      9  G   UNL     1     -10.869 -37.680  39.522  1.00  0.00     0.000 G0
ENDBRANCH   5   6
ENDBRANCH   4   5
ENDBRANCH   2   4
BRANCH   1  10
ATOM     10  C   UNL     1     -13.678 -36.951  37.395  1.00  0.00     0.111 C 
BRANCH  10  11
ATOM     11  C   UNL     1     -12.583 -37.961  37.593  1.00  0.00     0.163 C 
ATOM     12  O   UNL     1     -12.814 -39.178  37.357  1.00  0.00    -0.294 OA
BRANCH  11  13
ATOM     13  C   UNL     1     -11.227 -37.552  38.040  1.00  0.00    -0.002 C 
ATOM     14  C   UNL     1     -10.328 -37.062  37.143  1.00  0.00    -0.069 C 
ATOM     15  C   UNL     1     -10.708 -36.832  35.698  1.00  0.00     0.039 C 
ATOM     16  C   UNL     1      -8.926 -36.690  37.569  1.00  0.00     0.039 C 
BRANCH  13  17
ATOM     17  C   UNL     1     -10.858 -37.689  39.513  1.00  0.00     0.066 CG0
ATOM     18  G   UNL     1     -11.386 -38.949  40.157  1.00  0.00     0.000 G0
ENDBRANCH  13  17
ENDBRANCH  11  13
ENDBRANCH  10  11
ENDBRANCH   1  10
TORSDOF 0
ENDMDL
