MODEL 1
REMARK VINA RESULT:    -5.199      0.000      0.000
REMARK INTER + INTRA:          -9.235
REMARK INTER:                  -7.479
REMARK INTRA:                  -1.756
REMARK UNBOUND:                -1.756
REMARK SMILES CC(C)=CCCC(C)=CCCC(C)=CCO
REMARK SMILES IDX 10 1 9 2 7 3 8 4 6 5 5 6 4 7 1 8 2 9 3 10 11 11 12 12 14 13
REMARK SMILES IDX 13 14 15 15 16 16
REMARK H PARENT 16 17
REMARK Flexibility Score: inf
ROOT
ATOM      1  C   UNL     1      26.947   8.144  19.538  1.00  0.00     0.032 C 
ENDROOT
BRANCH   1   2
ATOM      2  C   UNL     1      26.534   6.748  19.144  1.00  0.00    -0.028 C 
ATOM      3  C   UNL     1      26.647   6.241  17.895  1.00  0.00    -0.077 C 
ATOM      4  C   UNL     1      27.270   7.031  16.766  1.00  0.00     0.039 C 
BRANCH   3   5
ATOM      5  C   UNL     1      26.147   4.839  17.621  1.00  0.00     0.034 C 
BRANCH   5   6
ATOM      6  C   UNL     1      26.885   3.815  18.494  1.00  0.00     0.032 C 
BRANCH   6   7
ATOM      7  C   UNL     1      28.322   3.675  18.056  1.00  0.00    -0.028 C 
ATOM      8  C   UNL     1      29.208   3.723  20.399  1.00  0.00     0.039 C 
ATOM      9  C   UNL     1      29.378   3.666  18.902  1.00  0.00    -0.080 C 
ATOM     10  C   UNL     1      30.776   3.549  18.351  1.00  0.00     0.039 C 
ENDBRANCH   6   7
ENDBRANCH   5   6
ENDBRANCH   3   5
ENDBRANCH   1   2
BRANCH   1  11
ATOM     11  C   UNL     1      28.247   8.116  20.349  1.00  0.00     0.034 C 
BRANCH  11  12
ATOM     12  C   UNL     1      29.453   8.200  19.440  1.00  0.00    -0.075 C 
ATOM     13  C   UNL     1      29.568   9.248  18.591  1.00  0.00    -0.000 C 
ATOM     14  C   UNL     1      30.490   7.102  19.485  1.00  0.00     0.039 C 
BRANCH  13  15
ATOM     15  C   UNL     1      30.710   9.426  17.629  1.00  0.00     0.183 C 
BRANCH  15  16
ATOM     16  O   UNL     1      30.259   9.252  16.315  1.00  0.00    -0.392 OA
ATOM     17  H   UNL     1      30.761   9.907  15.763  1.00  0.00     0.210 HD
ENDBRANCH  15  16
ENDBRANCH  13  15
ENDBRANCH  11  12
ENDBRANCH   1  11
TORSDOF 8
ENDMDL
MODEL 2
REMARK VINA RESULT:    -5.031      1.352      2.423
REMARK INTER + INTRA:          -8.993
REMARK INTER:                  -7.966
REMARK INTRA:                  -1.027
REMARK UNBOUND:                -1.756
REMARK SMILES CC(C)=CCCC(C)=CCCC(C)=CCO
REMARK SMILES IDX 10 1 9 2 7 3 8 4 6 5 5 6 4 7 1 8 2 9 3 10 11 11 12 12 14 13
REMARK SMILES IDX 13 14 15 15 16 16
REMARK H PARENT 16 17
REMARK Flexibility Score: inf
ROOT
ATOM      1  C   UNL     1      26.893   8.163  19.529  1.00  0.00     0.032 C 
ENDROOT
BRANCH   1   2
ATOM      2  C   UNL     1      26.479   6.767  19.133  1.00  0.00    -0.028 C 
ATOM      3  C   UNL     1      26.607   6.257  17.886  1.00  0.00    -0.077 C 
ATOM      4  C   UNL     1      27.250   7.041  16.765  1.00  0.00     0.039 C 
BRANCH   3   5
ATOM      5  C   UNL     1      26.104   4.856  17.609  1.00  0.00     0.034 C 
BRANCH   5   6
ATOM      6  C   UNL     1      27.026   3.808  18.246  1.00  0.00     0.032 C 
BRANCH   6   7
ATOM      7  C   UNL     1      26.432   3.280  19.528  1.00  0.00    -0.028 C 
ATOM      8  C   UNL     1      24.953   1.634  18.355  1.00  0.00     0.039 C 
ATOM      9  C   UNL     1      25.475   2.326  19.589  1.00  0.00    -0.080 C 
ATOM     10  C   UNL     1      24.932   1.894  20.927  1.00  0.00     0.039 C 
ENDBRANCH   6   7
ENDBRANCH   5   6
ENDBRANCH   3   5
ENDBRANCH   1   2
BRANCH   1  11
ATOM     11  C   UNL     1      28.210   8.134  20.312  1.00  0.00     0.034 C 
BRANCH  11  12
ATOM     12  C   UNL     1      29.397   8.114  19.373  1.00  0.00    -0.075 C 
ATOM     13  C   UNL     1      29.683   9.220  18.647  1.00  0.00    -0.000 C 
ATOM     14  C   UNL     1      30.220   6.853  19.251  1.00  0.00     0.039 C 
BRANCH  13  15
ATOM     15  C   UNL     1      30.822   9.309  17.669  1.00  0.00     0.183 C 
BRANCH  15  16
ATOM     16  O   UNL     1      30.328   9.293  16.359  1.00  0.00    -0.392 OA
ATOM     17  H   UNL     1      30.906   9.910  15.839  1.00  0.00     0.210 HD
ENDBRANCH  15  16
ENDBRANCH  13  15
ENDBRANCH  11  12
ENDBRANCH   1  11
TORSDOF 8
ENDMDL
MODEL 3
REMARK VINA RESULT:    -4.988      1.617      4.355
REMARK INTER + INTRA:          -8.931
REMARK INTER:                  -7.103
REMARK INTRA:                  -1.828
REMARK UNBOUND:                -1.756
REMARK SMILES CC(C)=CCCC(C)=CCCC(C)=CCO
REMARK SMILES IDX 10 1 9 2 7 3 8 4 6 5 5 6 4 7 1 8 2 9 3 10 11 11 12 12 14 13
REMARK SMILES IDX 13 14 15 15 16 16
REMARK H PARENT 16 17
REMARK Flexibility Score: inf
ROOT
ATOM      1  C   UNL     1      26.879   3.931  18.411  1.00  0.00     0.032 C 
ENDROOT
BRANCH   1   2
ATOM      2  C   UNL     1      28.328   3.804  18.007  1.00  0.00    -0.028 C 
ATOM      3  C   UNL     1      29.339   3.539  18.865  1.00  0.00    -0.077 C 
ATOM      4  C   UNL     1      29.092   3.280  20.334  1.00  0.00     0.039 C 
BRANCH   3   5
ATOM      5  C   UNL     1      30.757   3.487  18.338  1.00  0.00     0.034 C 
BRANCH   5   6
ATOM      6  C   UNL     1      31.626   4.566  18.999  1.00  0.00     0.032 C 
BRANCH   6   7
ATOM      7  C   UNL     1      31.365   5.917  18.382  1.00  0.00    -0.028 C 
ATOM      8  C   UNL     1      30.210   6.804  20.419  1.00  0.00     0.039 C 
ATOM      9  C   UNL     1      30.699   6.921  18.998  1.00  0.00    -0.080 C 
ATOM     10  C   UNL     1      30.470   8.223  18.274  1.00  0.00     0.039 C 
ENDBRANCH   6   7
ENDBRANCH   5   6
ENDBRANCH   3   5
ENDBRANCH   1   2
BRANCH   1  11
ATOM     11  C   UNL     1      26.169   4.981  17.549  1.00  0.00     0.034 C 
BRANCH  11  12
ATOM     12  C   UNL     1      26.679   6.371  17.862  1.00  0.00    -0.075 C 
ATOM     13  C   UNL     1      26.483   6.884  19.098  1.00  0.00    -0.000 C 
ATOM     14  C   UNL     1      27.374   7.162  16.779  1.00  0.00     0.039 C 
BRANCH  13  15
ATOM     15  C   UNL     1      26.927   8.259  19.516  1.00  0.00     0.183 C 
BRANCH  15  16
ATOM     16  O   UNL     1      27.030   8.324  20.911  1.00  0.00    -0.392 OA
ATOM     17  H   UNL     1      27.816   7.769  21.155  1.00  0.00     0.210 HD
ENDBRANCH  15  16
ENDBRANCH  13  15
ENDBRANCH  11  12
ENDBRANCH   1  11
TORSDOF 8
ENDMDL
MODEL 4
REMARK VINA RESULT:    -4.956      1.428      3.584
REMARK INTER + INTRA:          -8.885
REMARK INTER:                  -7.685
REMARK INTRA:                  -1.200
REMARK UNBOUND:                -1.756
REMARK SMILES CC(C)=CCCC(C)=CCCC(C)=CCO
REMARK SMILES IDX 10 1 9 2 7 3 8 4 6 5 5 6 4 7 1 8 2 9 3 10 11 11 12 12 14 13
REMARK SMILES IDX 13 14 15 15 16 16
REMARK H PARENT 16 17
REMARK Flexibility Score: inf
ROOT
ATOM      1  C   UNL     1      26.424   4.658  17.409  1.00  0.00     0.032 C 
ENDROOT
BRANCH   1   2
ATOM      2  C   UNL     1      27.801   4.277  17.895  1.00  0.00    -0.028 C 
ATOM      3  C   UNL     1      28.046   3.582  19.029  1.00  0.00    -0.077 C 
ATOM      4  C   UNL     1      26.927   3.058  19.902  1.00  0.00     0.039 C 
BRANCH   3   5
ATOM      5  C   UNL     1      29.480   3.309  19.430  1.00  0.00     0.034 C 
BRANCH   5   6
ATOM      6  C   UNL     1      30.423   3.468  18.231  1.00  0.00     0.032 C 
BRANCH   6   7
ATOM      7  C   UNL     1      31.773   3.974  18.674  1.00  0.00    -0.028 C 
ATOM      8  C   UNL     1      31.166   6.379  18.324  1.00  0.00     0.039 C 
ATOM      9  C   UNL     1      32.131   5.279  18.688  1.00  0.00    -0.080 C 
ATOM     10  C   UNL     1      33.520   5.669  19.124  1.00  0.00     0.039 C 
ENDBRANCH   6   7
ENDBRANCH   5   6
ENDBRANCH   3   5
ENDBRANCH   1   2
BRANCH   1  11
ATOM     11  C   UNL     1      26.452   6.030  16.727  1.00  0.00     0.034 C 
BRANCH  11  12
ATOM     12  C   UNL     1      26.912   7.103  17.689  1.00  0.00    -0.075 C 
ATOM     13  C   UNL     1      27.928   7.920  17.330  1.00  0.00    -0.000 C 
ATOM     14  C   UNL     1      26.240   7.222  19.037  1.00  0.00     0.039 C 
BRANCH  13  15
ATOM     15  C   UNL     1      28.481   9.007  18.211  1.00  0.00     0.183 C 
BRANCH  15  16
ATOM     16  O   UNL     1      29.599   9.591  17.602  1.00  0.00    -0.392 OA
ATOM     17  H   UNL     1      29.427   9.562  16.625  1.00  0.00     0.210 HD
ENDBRANCH  15  16
ENDBRANCH  13  15
ENDBRANCH  11  12
ENDBRANCH   1  11
TORSDOF 8
ENDMDL
MODEL 5
REMARK VINA RESULT:    -4.904      1.919      3.522
REMARK INTER + INTRA:          -8.810
REMARK INTER:                  -7.180
REMARK INTRA:                  -1.631
REMARK UNBOUND:                -1.756
REMARK SMILES CC(C)=CCCC(C)=CCCC(C)=CCO
REMARK SMILES IDX 10 1 9 2 7 3 8 4 6 5 5 6 4 7 1 8 2 9 3 10 11 11 12 12 14 13
REMARK SMILES IDX 13 14 15 15 16 16
REMARK H PARENT 16 17
REMARK Flexibility Score: inf
ROOT
ATOM      1  C   UNL     1      26.547   5.837  17.103  1.00  0.00     0.032 C 
ENDROOT
BRANCH   1   2
ATOM      2  C   UNL     1      26.027   4.594  17.782  1.00  0.00    -0.028 C 
ATOM      3  C   UNL     1      26.798   3.719  18.468  1.00  0.00    -0.077 C 
ATOM      4  C   UNL     1      28.278   3.948  18.672  1.00  0.00     0.039 C 
BRANCH   3   5
ATOM      5  C   UNL     1      26.158   2.481  19.059  1.00  0.00     0.034 C 
BRANCH   5   6
ATOM      6  C   UNL     1      25.117   2.858  20.122  1.00  0.00     0.032 C 
BRANCH   6   7
ATOM      7  C   UNL     1      25.737   3.714  21.199  1.00  0.00    -0.028 C 
ATOM      8  C   UNL     1      24.182   5.635  20.791  1.00  0.00     0.039 C 
ATOM      9  C   UNL     1      25.347   4.978  21.486  1.00  0.00    -0.080 C 
ATOM     10  C   UNL     1      26.058   5.753  22.566  1.00  0.00     0.039 C 
ENDBRANCH   6   7
ENDBRANCH   5   6
ENDBRANCH   3   5
ENDBRANCH   1   2
BRANCH   1  11
ATOM     11  C   UNL     1      26.232   7.082  17.939  1.00  0.00     0.034 C 
BRANCH  11  12
ATOM     12  C   UNL     1      27.504   7.762  18.397  1.00  0.00    -0.075 C 
ATOM     13  C   UNL     1      28.430   8.118  17.478  1.00  0.00    -0.000 C 
ATOM     14  C   UNL     1      27.719   8.006  19.872  1.00  0.00     0.039 C 
BRANCH  13  15
ATOM     15  C   UNL     1      29.737   8.780  17.818  1.00  0.00     0.183 C 
BRANCH  15  16
ATOM     16  O   UNL     1      30.306   9.332  16.663  1.00  0.00    -0.392 OA
ATOM     17  H   UNL     1      30.184  10.314  16.740  1.00  0.00     0.210 HD
ENDBRANCH  15  16
ENDBRANCH  13  15
ENDBRANCH  11  12
ENDBRANCH   1  11
TORSDOF 8
ENDMDL
MODEL 6
REMARK VINA RESULT:    -4.896      2.675      4.964
REMARK INTER + INTRA:          -8.798
REMARK INTER:                  -6.966
REMARK INTRA:                  -1.832
REMARK UNBOUND:                -1.756
REMARK SMILES CC(C)=CCCC(C)=CCCC(C)=CCO
REMARK SMILES IDX 10 1 9 2 7 3 8 4 6 5 5 6 4 7 1 8 2 9 3 10 11 11 12 12 14 13
REMARK SMILES IDX 13 14 15 15 16 16
REMARK H PARENT 16 17
REMARK Flexibility Score: inf
ROOT
ATOM      1  C   UNL     1      26.840   6.992  17.304  1.00  0.00     0.032 C 
ENDROOT
BRANCH   1   2
ATOM      2  C   UNL     1      28.330   7.027  17.539  1.00  0.00    -0.028 C 
ATOM      3  C   UNL     1      28.924   7.637  18.590  1.00  0.00    -0.077 C 
ATOM      4  C   UNL     1      28.120   8.303  19.684  1.00  0.00     0.039 C 
BRANCH   3   5
ATOM      5  C   UNL     1      30.434   7.643  18.680  1.00  0.00     0.034 C 
BRANCH   5   6
ATOM      6  C   UNL     1      30.988   6.212  18.672  1.00  0.00     0.032 C 
BRANCH   6   7
ATOM      7  C   UNL     1      30.294   5.363  19.707  1.00  0.00    -0.028 C 
ATOM      8  C   UNL     1      29.677   3.577  18.063  1.00  0.00     0.039 C 
ATOM      9  C   UNL     1      29.671   4.192  19.439  1.00  0.00    -0.080 C 
ATOM     10  C   UNL     1      28.983   3.439  20.549  1.00  0.00     0.039 C 
ENDBRANCH   6   7
ENDBRANCH   5   6
ENDBRANCH   3   5
ENDBRANCH   1   2
BRANCH   1  11
ATOM     11  C   UNL     1      26.384   5.577  16.931  1.00  0.00     0.034 C 
BRANCH  11  12
ATOM     12  C   UNL     1      26.007   4.788  18.166  1.00  0.00    -0.075 C 
ATOM     13  C   UNL     1      25.914   3.441  18.086  1.00  0.00    -0.000 C 
ATOM     14  C   UNL     1      25.721   5.525  19.454  1.00  0.00     0.039 C 
BRANCH  13  15
ATOM     15  C   UNL     1      25.527   2.557  19.240  1.00  0.00     0.183 C 
BRANCH  15  16
ATOM     16  O   UNL     1      24.146   2.327  19.223  1.00  0.00    -0.392 OA
ATOM     17  H   UNL     1      23.985   1.570  19.844  1.00  0.00     0.210 HD
ENDBRANCH  15  16
ENDBRANCH  13  15
ENDBRANCH  11  12
ENDBRANCH   1  11
TORSDOF 8
ENDMDL
MODEL 7
REMARK VINA RESULT:    -4.887      2.668      5.101
REMARK INTER + INTRA:          -8.785
REMARK INTER:                  -7.451
REMARK INTRA:                  -1.334
REMARK UNBOUND:                -1.756
REMARK SMILES CC(C)=CCCC(C)=CCCC(C)=CCO
REMARK SMILES IDX 10 1 9 2 7 3 8 4 6 5 5 6 4 7 1 8 2 9 3 10 11 11 12 12 14 13
REMARK SMILES IDX 13 14 15 15 16 16
REMARK H PARENT 16 17
REMARK Flexibility Score: inf
ROOT
ATOM      1  C   UNL     1      26.645   7.104  17.539  1.00  0.00     0.032 C 
ENDROOT
BRANCH   1   2
ATOM      2  C   UNL     1      27.982   7.770  17.324  1.00  0.00    -0.028 C 
ATOM      3  C   UNL     1      28.657   8.455  18.275  1.00  0.00    -0.077 C 
ATOM      4  C   UNL     1      28.146   8.563  19.694  1.00  0.00     0.039 C 
BRANCH   3   5
ATOM      5  C   UNL     1      29.967   9.120  17.913  1.00  0.00     0.034 C 
BRANCH   5   6
ATOM      6  C   UNL     1      31.117   8.566  18.765  1.00  0.00     0.032 C 
BRANCH   6   7
ATOM      7  C   UNL     1      31.441   7.147  18.370  1.00  0.00    -0.028 C 
ATOM      8  C   UNL     1      30.810   6.210  20.606  1.00  0.00     0.039 C 
ATOM      9  C   UNL     1      31.339   6.083  19.199  1.00  0.00    -0.080 C 
ATOM     10  C   UNL     1      31.718   4.710  18.706  1.00  0.00     0.039 C 
ENDBRANCH   6   7
ENDBRANCH   5   6
ENDBRANCH   3   5
ENDBRANCH   1   2
BRANCH   1  11
ATOM     11  C   UNL     1      26.564   5.790  16.756  1.00  0.00     0.034 C 
BRANCH  11  12
ATOM     12  C   UNL     1      26.712   4.600  17.679  1.00  0.00    -0.075 C 
ATOM     13  C   UNL     1      25.658   3.772  17.863  1.00  0.00    -0.000 C 
ATOM     14  C   UNL     1      28.026   4.378  18.390  1.00  0.00     0.039 C 
BRANCH  13  15
ATOM     15  C   UNL     1      25.683   2.573  18.770  1.00  0.00     0.183 C 
BRANCH  15  16
ATOM     16  O   UNL     1      25.310   1.427  18.056  1.00  0.00    -0.392 OA
ATOM     17  H   UNL     1      26.058   1.236  17.433  1.00  0.00     0.210 HD
ENDBRANCH  15  16
ENDBRANCH  13  15
ENDBRANCH  11  12
ENDBRANCH   1  11
TORSDOF 8
ENDMDL
MODEL 8
REMARK VINA RESULT:    -4.876      2.627      4.748
REMARK INTER + INTRA:          -8.770
REMARK INTER:                  -7.114
REMARK INTRA:                  -1.655
REMARK UNBOUND:                -1.756
REMARK SMILES CC(C)=CCCC(C)=CCCC(C)=CCO
REMARK SMILES IDX 10 1 9 2 7 3 8 4 6 5 5 6 4 7 1 8 2 9 3 10 11 11 12 12 14 13
REMARK SMILES IDX 13 14 15 15 16 16
REMARK H PARENT 16 17
REMARK Flexibility Score: inf
ROOT
ATOM      1  C   UNL     1      26.467   6.629  17.170  1.00  0.00     0.032 C 
ENDROOT
BRANCH   1   2
ATOM      2  C   UNL     1      27.884   7.142  17.223  1.00  0.00    -0.028 C 
ATOM      3  C   UNL     1      28.382   7.912  18.217  1.00  0.00    -0.077 C 
ATOM      4  C   UNL     1      27.554   8.286  19.427  1.00  0.00     0.039 C 
BRANCH   3   5
ATOM      5  C   UNL     1      29.810   8.404  18.124  1.00  0.00     0.034 C 
BRANCH   5   6
ATOM      6  C   UNL     1      30.746   7.528  18.966  1.00  0.00     0.032 C 
BRANCH   6   7
ATOM      7  C   UNL     1      30.868   6.147  18.371  1.00  0.00    -0.028 C 
ATOM      8  C   UNL     1      29.503   5.073  20.175  1.00  0.00     0.039 C 
ATOM      9  C   UNL     1      30.342   5.030  18.923  1.00  0.00    -0.080 C 
ATOM     10  C   UNL     1      30.551   3.695  18.254  1.00  0.00     0.039 C 
ENDBRANCH   6   7
ENDBRANCH   5   6
ENDBRANCH   3   5
ENDBRANCH   1   2
BRANCH   1  11
ATOM     11  C   UNL     1      26.445   5.096  17.185  1.00  0.00     0.034 C 
BRANCH  11  12
ATOM     12  C   UNL     1      26.058   4.575  18.551  1.00  0.00    -0.075 C 
ATOM     13  C   UNL     1      25.393   5.388  19.404  1.00  0.00    -0.000 C 
ATOM     14  C   UNL     1      26.442   3.166  18.939  1.00  0.00     0.039 C 
BRANCH  13  15
ATOM     15  C   UNL     1      24.975   4.986  20.792  1.00  0.00     0.183 C 
BRANCH  15  16
ATOM     16  O   UNL     1      23.578   4.975  20.885  1.00  0.00    -0.392 OA
ATOM     17  H   UNL     1      23.366   5.036  21.853  1.00  0.00     0.210 HD
ENDBRANCH  15  16
ENDBRANCH  13  15
ENDBRANCH  11  12
ENDBRANCH   1  11
TORSDOF 8
ENDMDL
MODEL 9
REMARK VINA RESULT:    -4.849      2.717      4.816
REMARK INTER + INTRA:          -8.731
REMARK INTER:                  -7.036
REMARK INTRA:                  -1.695
REMARK UNBOUND:                -1.756
REMARK SMILES CC(C)=CCCC(C)=CCCC(C)=CCO
REMARK SMILES IDX 10 1 9 2 7 3 8 4 6 5 5 6 4 7 1 8 2 9 3 10 11 11 12 12 14 13
REMARK SMILES IDX 13 14 15 15 16 16
REMARK H PARENT 16 17
REMARK Flexibility Score: inf
ROOT
ATOM      1  C   UNL     1      25.953   7.122  19.000  1.00  0.00     0.032 C 
ENDROOT
BRANCH   1   2
ATOM      2  C   UNL     1      27.347   7.654  19.224  1.00  0.00    -0.028 C 
ATOM      3  C   UNL     1      28.207   7.986  18.234  1.00  0.00    -0.077 C 
ATOM      4  C   UNL     1      27.813   7.907  16.776  1.00  0.00     0.039 C 
BRANCH   3   5
ATOM      5  C   UNL     1      29.598   8.460  18.595  1.00  0.00     0.034 C 
BRANCH   5   6
ATOM      6  C   UNL     1      30.402   7.338  19.264  1.00  0.00     0.032 C 
BRANCH   6   7
ATOM      7  C   UNL     1      30.341   6.073  18.445  1.00  0.00    -0.028 C 
ATOM      8  C   UNL     1      29.295   4.738  20.289  1.00  0.00     0.039 C 
ATOM      9  C   UNL     1      29.876   4.888  18.905  1.00  0.00    -0.080 C 
ATOM     10  C   UNL     1      29.888   3.679  18.006  1.00  0.00     0.039 C 
ENDBRANCH   6   7
ENDBRANCH   5   6
ENDBRANCH   3   5
ENDBRANCH   1   2
BRANCH   1  11
ATOM     11  C   UNL     1      25.720   5.851  19.824  1.00  0.00     0.034 C 
BRANCH  11  12
ATOM     12  C   UNL     1      25.734   4.623  18.940  1.00  0.00    -0.075 C 
ATOM     13  C   UNL     1      25.331   3.437  19.452  1.00  0.00    -0.000 C 
ATOM     14  C   UNL     1      26.218   4.746  17.515  1.00  0.00     0.039 C 
BRANCH  13  15
ATOM     15  C   UNL     1      25.322   2.149  18.675  1.00  0.00     0.183 C 
BRANCH  15  16
ATOM     16  O   UNL     1      24.088   1.990  18.031  1.00  0.00    -0.392 OA
ATOM     17  H   UNL     1      24.274   2.064  17.059  1.00  0.00     0.210 HD
ENDBRANCH  15  16
ENDBRANCH  13  15
ENDBRANCH  11  12
ENDBRANCH   1  11
TORSDOF 8
ENDMDL
