MODEL 1
REMARK VINA RESULT:    -6.065      0.000      0.000
REMARK INTER + INTRA:         -15.618
REMARK INTER:                 -13.156
REMARK INTRA:                  -2.462
REMARK UNBOUND:                -2.462
REMARK SMILES CCCCCCCCCCCCCCCCCCCCCC(=O)[O-]
REMARK SMILES IDX 12 1 11 2 10 3 9 4 8 5 7 6 6 7 5 8 4 9 3 10 2 11 1 12 13 13
REMARK SMILES IDX 14 14 15 15 16 16 17 17 18 18 19 19 20 20 21 21 22 22 23 23
REMARK SMILES IDX 24 24
REMARK H PARENT
REMARK Flexibility Score: inf
ROOT
ATOM      1  C   UNL     1      -2.909  39.427 101.670  1.00  0.00     0.000 C 
ENDROOT
BRANCH   1   2
ATOM      2  C   UNL     1      -2.382  40.005 102.992  1.00  0.00     0.000 C 
BRANCH   2   3
ATOM      3  C   UNL     1      -1.008  40.657 102.802  1.00  0.00     0.000 C 
BRANCH   3   4
ATOM      4  C   UNL     1      -0.981  42.066 103.407  1.00  0.00    -0.000 C 
BRANCH   4   5
ATOM      5  C   UNL     1      -2.397  42.649 103.511  1.00  0.00    -0.000 C 
BRANCH   5   6
ATOM      6  C   UNL     1      -2.759  43.556 102.321  1.00  0.00    -0.000 C 
BRANCH   6   7
ATOM      7  C   UNL     1      -4.100  43.228 101.632  1.00  0.00    -0.000 C 
BRANCH   7   8
ATOM      8  C   UNL     1      -4.993  44.443 101.317  1.00  0.00    -0.000 C 
BRANCH   8   9
ATOM      9  C   UNL     1      -5.748  44.968 102.550  1.00  0.00    -0.000 C 
BRANCH   9  10
ATOM     10  C   UNL     1      -7.004  44.142 102.878  1.00  0.00    -0.000 C 
BRANCH  10  11
ATOM     11  C   UNL     1      -7.023  43.514 104.283  1.00  0.00    -0.003 C 
ATOM     12  C   UNL     1      -5.661  43.552 104.974  1.00  0.00     0.004 C 
ENDBRANCH  10  11
ENDBRANCH   9  10
ENDBRANCH   8   9
ENDBRANCH   7   8
ENDBRANCH   6   7
ENDBRANCH   5   6
ENDBRANCH   4   5
ENDBRANCH   3   4
ENDBRANCH   2   3
ENDBRANCH   1   2
BRANCH   1  13
ATOM     13  C   UNL     1      -2.128  38.170 101.232  1.00  0.00     0.000 C 
BRANCH  13  14
ATOM     14  C   UNL     1      -2.816  36.850 101.617  1.00  0.00     0.000 C 
BRANCH  14  15
ATOM     15  C   UNL     1      -4.350  36.964 101.652  1.00  0.00     0.000 C 
BRANCH  15  16
ATOM     16  C   UNL     1      -5.051  35.737 101.030  1.00  0.00     0.000 C 
BRANCH  16  17
ATOM     17  C   UNL     1      -4.125  34.868 100.159  1.00  0.00     0.000 C 
BRANCH  17  18
ATOM     18  C   UNL     1      -4.304  35.046  98.640  1.00  0.00     0.000 C 
BRANCH  18  19
ATOM     19  C   UNL     1      -3.144  35.765  97.923  1.00  0.00     0.000 C 
BRANCH  19  20
ATOM     20  C   UNL     1      -3.260  37.301  97.855  1.00  0.00     0.006 C 
BRANCH  20  21
ATOM     21  C   UNL     1      -4.680  37.836  98.115  1.00  0.00     0.053 C 
BRANCH  21  22
ATOM     22  C   UNL     1      -5.521  37.865  96.875  1.00  0.00     0.041 C 
ATOM     23  O   UNL     1      -4.994  37.670  95.748  1.00  0.00    -0.550 OA
ATOM     24  O   UNL     1      -6.895  38.063  96.967  1.00  0.00    -0.550 OA
ENDBRANCH  21  22
ENDBRANCH  20  21
ENDBRANCH  19  20
ENDBRANCH  18  19
ENDBRANCH  17  18
ENDBRANCH  16  17
ENDBRANCH  15  16
ENDBRANCH  14  15
ENDBRANCH  13  14
ENDBRANCH   1  13
TORSDOF 20
ENDMDL
MODEL 2
REMARK VINA RESULT:    -6.036      2.718      8.465
REMARK INTER + INTRA:         -15.556
REMARK INTER:                 -13.105
REMARK INTRA:                  -2.452
REMARK UNBOUND:                -2.462
REMARK SMILES CCCCCCCCCCCCCCCCCCCCCC(=O)[O-]
REMARK SMILES IDX 12 1 11 2 10 3 9 4 8 5 7 6 6 7 5 8 4 9 3 10 2 11 1 12 13 13
REMARK SMILES IDX 14 14 15 15 16 16 17 17 18 18 19 19 20 20 21 21 22 22 23 23
REMARK SMILES IDX 24 24
REMARK H PARENT
REMARK Flexibility Score: inf
ROOT
ATOM      1  C   UNL     1      -2.471  39.423 103.189  1.00  0.00     0.000 C 
ENDROOT
BRANCH   1   2
ATOM      2  C   UNL     1      -2.060  39.334 101.712  1.00  0.00     0.000 C 
BRANCH   2   3
ATOM      3  C   UNL     1      -2.893  38.283 100.969  1.00  0.00     0.000 C 
BRANCH   3   4
ATOM      4  C   UNL     1      -3.218  37.095 101.882  1.00  0.00    -0.000 C 
BRANCH   4   5
ATOM      5  C   UNL     1      -4.716  36.762 101.841  1.00  0.00    -0.000 C 
BRANCH   5   6
ATOM      6  C   UNL     1      -5.142  36.083 100.526  1.00  0.00    -0.000 C 
BRANCH   6   7
ATOM      7  C   UNL     1      -4.337  34.822 100.149  1.00  0.00    -0.000 C 
BRANCH   7   8
ATOM      8  C   UNL     1      -3.921  34.724  98.669  1.00  0.00    -0.000 C 
BRANCH   8   9
ATOM      9  C   UNL     1      -2.969  35.852  98.238  1.00  0.00    -0.000 C 
BRANCH   9  10
ATOM     10  C   UNL     1      -3.437  36.575  96.962  1.00  0.00    -0.000 C 
BRANCH  10  11
ATOM     11  C   UNL     1      -4.819  37.246  97.063  1.00  0.00    -0.003 C 
ATOM     12  C   UNL     1      -4.798  38.541  97.873  1.00  0.00     0.004 C 
ENDBRANCH  10  11
ENDBRANCH   9  10
ENDBRANCH   8   9
ENDBRANCH   7   8
ENDBRANCH   6   7
ENDBRANCH   5   6
ENDBRANCH   4   5
ENDBRANCH   3   4
ENDBRANCH   2   3
ENDBRANCH   1   2
BRANCH   1  13
ATOM     13  C   UNL     1      -3.180  40.755 103.516  1.00  0.00     0.000 C 
BRANCH  13  14
ATOM     14  C   UNL     1      -2.656  41.949 102.701  1.00  0.00     0.000 C 
BRANCH  14  15
ATOM     15  C   UNL     1      -1.427  42.616 103.340  1.00  0.00     0.000 C 
BRANCH  15  16
ATOM     16  C   UNL     1      -1.578  44.149 103.459  1.00  0.00     0.000 C 
BRANCH  16  17
ATOM     17  C   UNL     1      -2.059  44.619 104.844  1.00  0.00     0.000 C 
BRANCH  17  18
ATOM     18  C   UNL     1      -3.206  45.647 104.821  1.00  0.00     0.000 C 
BRANCH  18  19
ATOM     19  C   UNL     1      -4.544  45.149 105.400  1.00  0.00     0.000 C 
BRANCH  19  20
ATOM     20  C   UNL     1      -4.894  43.680 105.086  1.00  0.00     0.006 C 
BRANCH  20  21
ATOM     21  C   UNL     1      -6.302  43.482 104.496  1.00  0.00     0.053 C 
BRANCH  21  22
ATOM     22  C   UNL     1      -6.436  44.059 103.120  1.00  0.00     0.041 C 
ATOM     23  O   UNL     1      -5.467  44.017 102.317  1.00  0.00    -0.550 OA
ATOM     24  O   UNL     1      -7.647  44.607 102.707  1.00  0.00    -0.550 OA
ENDBRANCH  21  22
ENDBRANCH  20  21
ENDBRANCH  19  20
ENDBRANCH  18  19
ENDBRANCH  17  18
ENDBRANCH  16  17
ENDBRANCH  15  16
ENDBRANCH  14  15
ENDBRANCH  13  14
ENDBRANCH   1  13
TORSDOF 20
ENDMDL
MODEL 3
REMARK VINA RESULT:    -6.011      3.307      8.579
REMARK INTER + INTRA:         -15.502
REMARK INTER:                 -12.938
REMARK INTRA:                  -2.563
REMARK UNBOUND:                -2.462
REMARK SMILES CCCCCCCCCCCCCCCCCCCCCC(=O)[O-]
REMARK SMILES IDX 12 1 11 2 10 3 9 4 8 5 7 6 6 7 5 8 4 9 3 10 2 11 1 12 13 13
REMARK SMILES IDX 14 14 15 15 16 16 17 17 18 18 19 19 20 20 21 21 22 22 23 23
REMARK SMILES IDX 24 24
REMARK H PARENT
REMARK Flexibility Score: inf
ROOT
ATOM      1  C   UNL     1      -2.639  38.764 102.602  1.00  0.00     0.000 C 
ENDROOT
BRANCH   1   2
ATOM      2  C   UNL     1      -2.333  37.806 101.440  1.00  0.00     0.000 C 
BRANCH   2   3
ATOM      3  C   UNL     1      -3.092  36.484 101.599  1.00  0.00     0.000 C 
BRANCH   3   4
ATOM      4  C   UNL     1      -4.606  36.705 101.500  1.00  0.00    -0.000 C 
BRANCH   4   5
ATOM      5  C   UNL     1      -5.269  35.609 100.655  1.00  0.00    -0.000 C 
BRANCH   5   6
ATOM      6  C   UNL     1      -4.266  34.562 100.139  1.00  0.00    -0.000 C 
BRANCH   6   7
ATOM      7  C   UNL     1      -4.028  34.578  98.615  1.00  0.00    -0.000 C 
BRANCH   7   8
ATOM      8  C   UNL     1      -2.847  35.447  98.141  1.00  0.00    -0.000 C 
BRANCH   8   9
ATOM      9  C   UNL     1      -3.292  36.647  97.288  1.00  0.00    -0.000 C 
BRANCH   9  10
ATOM     10  C   UNL     1      -3.600  37.898  98.130  1.00  0.00    -0.000 C 
BRANCH  10  11
ATOM     11  C   UNL     1      -5.086  38.296  98.187  1.00  0.00    -0.003 C 
ATOM     12  C   UNL     1      -5.940  37.571  97.148  1.00  0.00     0.004 C 
ENDBRANCH  10  11
ENDBRANCH   9  10
ENDBRANCH   8   9
ENDBRANCH   7   8
ENDBRANCH   6   7
ENDBRANCH   5   6
ENDBRANCH   4   5
ENDBRANCH   3   4
ENDBRANCH   2   3
ENDBRANCH   1   2
BRANCH   1  13
ATOM     13  C   UNL     1      -2.734  40.232 102.136  1.00  0.00     0.000 C 
BRANCH  13  14
ATOM     14  C   UNL     1      -2.833  41.241 103.292  1.00  0.00     0.000 C 
BRANCH  14  15
ATOM     15  C   UNL     1      -1.673  42.251 103.306  1.00  0.00     0.000 C 
BRANCH  15  16
ATOM     16  C   UNL     1      -2.105  43.645 103.809  1.00  0.00     0.000 C 
BRANCH  16  17
ATOM     17  C   UNL     1      -2.362  44.660 102.680  1.00  0.00     0.000 C 
BRANCH  17  18
ATOM     18  C   UNL     1      -3.820  45.143 102.557  1.00  0.00     0.000 C 
BRANCH  18  19
ATOM     19  C   UNL     1      -4.847  44.045 102.218  1.00  0.00     0.000 C 
BRANCH  19  20
ATOM     20  C   UNL     1      -5.811  43.667 103.361  1.00  0.00     0.006 C 
BRANCH  20  21
ATOM     21  C   UNL     1      -5.895  44.716 104.485  1.00  0.00     0.053 C 
BRANCH  21  22
ATOM     22  C   UNL     1      -7.094  45.604 104.355  1.00  0.00     0.041 C 
ATOM     23  O   UNL     1      -8.183  45.141 103.923  1.00  0.00    -0.550 OA
ATOM     24  O   UNL     1      -7.024  46.936 104.753  1.00  0.00    -0.550 OA
ENDBRANCH  21  22
ENDBRANCH  20  21
ENDBRANCH  19  20
ENDBRANCH  18  19
ENDBRANCH  17  18
ENDBRANCH  16  17
ENDBRANCH  15  16
ENDBRANCH  14  15
ENDBRANCH  13  14
ENDBRANCH   1  13
TORSDOF 20
ENDMDL
MODEL 4
REMARK VINA RESULT:    -5.954      2.203      7.239
REMARK INTER + INTRA:         -15.378
REMARK INTER:                 -13.149
REMARK INTRA:                  -2.229
REMARK UNBOUND:                -2.462
REMARK SMILES CCCCCCCCCCCCCCCCCCCCCC(=O)[O-]
REMARK SMILES IDX 12 1 11 2 10 3 9 4 8 5 7 6 6 7 5 8 4 9 3 10 2 11 1 12 13 13
REMARK SMILES IDX 14 14 15 15 16 16 17 17 18 18 19 19 20 20 21 21 22 22 23 23
REMARK SMILES IDX 24 24
REMARK H PARENT
REMARK Flexibility Score: inf
ROOT
ATOM      1  C   UNL     1      -2.644  37.620 102.484  1.00  0.00     0.000 C 
ENDROOT
BRANCH   1   2
ATOM      2  C   UNL     1      -3.227  36.485 101.629  1.00  0.00     0.000 C 
BRANCH   2   3
ATOM      3  C   UNL     1      -4.755  36.574 101.558  1.00  0.00     0.000 C 
BRANCH   3   4
ATOM      4  C   UNL     1      -5.311  35.636 100.480  1.00  0.00    -0.000 C 
BRANCH   4   5
ATOM      5  C   UNL     1      -4.337  34.483 100.197  1.00  0.00    -0.000 C 
BRANCH   5   6
ATOM      6  C   UNL     1      -3.978  34.357  98.705  1.00  0.00    -0.000 C 
BRANCH   6   7
ATOM      7  C   UNL     1      -2.888  35.329  98.209  1.00  0.00    -0.000 C 
BRANCH   7   8
ATOM      8  C   UNL     1      -3.402  36.563  97.443  1.00  0.00    -0.000 C 
BRANCH   8   9
ATOM      9  C   UNL     1      -3.162  37.880  98.199  1.00  0.00    -0.000 C 
BRANCH   9  10
ATOM     10  C   UNL     1      -4.468  38.561  98.646  1.00  0.00    -0.000 C 
BRANCH  10  11
ATOM     11  C   UNL     1      -5.708  38.208  97.805  1.00  0.00    -0.003 C 
ATOM     12  C   UNL     1      -5.783  38.989  96.493  1.00  0.00     0.004 C 
ENDBRANCH  10  11
ENDBRANCH   9  10
ENDBRANCH   8   9
ENDBRANCH   7   8
ENDBRANCH   6   7
ENDBRANCH   5   6
ENDBRANCH   4   5
ENDBRANCH   3   4
ENDBRANCH   2   3
ENDBRANCH   1   2
BRANCH   1  13
ATOM     13  C   UNL     1      -2.583  38.956 101.713  1.00  0.00     0.000 C 
BRANCH  13  14
ATOM     14  C   UNL     1      -1.884  40.085 102.490  1.00  0.00     0.000 C 
BRANCH  14  15
ATOM     15  C   UNL     1      -2.868  40.972 103.271  1.00  0.00     0.000 C 
BRANCH  15  16
ATOM     16  C   UNL     1      -2.741  42.467 102.904  1.00  0.00     0.000 C 
BRANCH  16  17
ATOM     17  C   UNL     1      -4.059  43.252 103.038  1.00  0.00     0.000 C 
BRANCH  17  18
ATOM     18  C   UNL     1      -4.454  44.077 101.798  1.00  0.00     0.000 C 
BRANCH  18  19
ATOM     19  C   UNL     1      -4.283  43.354 100.448  1.00  0.00     0.000 C 
BRANCH  19  20
ATOM     20  C   UNL     1      -4.908  44.068  99.232  1.00  0.00     0.006 C 
BRANCH  20  21
ATOM     21  C   UNL     1      -4.110  43.898  97.927  1.00  0.00     0.053 C 
BRANCH  21  22
ATOM     22  C   UNL     1      -4.973  43.480  96.775  1.00  0.00     0.041 C 
ATOM     23  O   UNL     1      -4.896  42.309  96.318  1.00  0.00    -0.550 OA
ATOM     24  O   UNL     1      -5.894  44.370  96.232  1.00  0.00    -0.550 OA
ENDBRANCH  21  22
ENDBRANCH  20  21
ENDBRANCH  19  20
ENDBRANCH  18  19
ENDBRANCH  17  18
ENDBRANCH  16  17
ENDBRANCH  15  16
ENDBRANCH  14  15
ENDBRANCH  13  14
ENDBRANCH   1  13
TORSDOF 20
ENDMDL
MODEL 5
REMARK VINA RESULT:    -5.940      3.226      8.635
REMARK INTER + INTRA:         -15.348
REMARK INTER:                 -13.559
REMARK INTRA:                  -1.789
REMARK UNBOUND:                -2.462
REMARK SMILES CCCCCCCCCCCCCCCCCCCCCC(=O)[O-]
REMARK SMILES IDX 12 1 11 2 10 3 9 4 8 5 7 6 6 7 5 8 4 9 3 10 2 11 1 12 13 13
REMARK SMILES IDX 14 14 15 15 16 16 17 17 18 18 19 19 20 20 21 21 22 22 23 23
REMARK SMILES IDX 24 24
REMARK H PARENT
REMARK Flexibility Score: inf
ROOT
ATOM      1  C   UNL     1      -2.654  40.097 103.007  1.00  0.00     0.000 C 
ENDROOT
BRANCH   1   2
ATOM      2  C   UNL     1      -1.788  39.321 102.002  1.00  0.00     0.000 C 
BRANCH   2   3
ATOM      3  C   UNL     1      -2.656  38.518 101.028  1.00  0.00     0.000 C 
BRANCH   3   4
ATOM      4  C   UNL     1      -3.331  37.339 101.740  1.00  0.00    -0.000 C 
BRANCH   4   5
ATOM      5  C   UNL     1      -4.662  36.976 101.066  1.00  0.00    -0.000 C 
BRANCH   5   6
ATOM      6  C   UNL     1      -4.792  35.470 100.774  1.00  0.00    -0.000 C 
BRANCH   6   7
ATOM      7  C   UNL     1      -5.669  35.113  99.555  1.00  0.00    -0.000 C 
BRANCH   7   8
ATOM      8  C   UNL     1      -4.902  34.610  98.317  1.00  0.00    -0.000 C 
BRANCH   8   9
ATOM      9  C   UNL     1      -3.436  35.071  98.292  1.00  0.00    -0.000 C 
BRANCH   9  10
ATOM     10  C   UNL     1      -3.252  36.443  97.620  1.00  0.00    -0.000 C 
BRANCH  10  11
ATOM     11  C   UNL     1      -4.430  36.902  96.742  1.00  0.00    -0.003 C 
ATOM     12  C   UNL     1      -5.158  38.121  97.306  1.00  0.00     0.004 C 
ENDBRANCH  10  11
ENDBRANCH   9  10
ENDBRANCH   8   9
ENDBRANCH   7   8
ENDBRANCH   6   7
ENDBRANCH   5   6
ENDBRANCH   4   5
ENDBRANCH   3   4
ENDBRANCH   2   3
ENDBRANCH   1   2
BRANCH   1  13
ATOM     13  C   UNL     1      -3.063  41.485 102.473  1.00  0.00     0.000 C 
BRANCH  13  14
ATOM     14  C   UNL     1      -2.494  42.654 103.294  1.00  0.00     0.000 C 
BRANCH  14  15
ATOM     15  C   UNL     1      -3.473  43.834 103.413  1.00  0.00     0.000 C 
BRANCH  15  16
ATOM     16  C   UNL     1      -4.042  43.992 104.840  1.00  0.00     0.000 C 
BRANCH  16  17
ATOM     17  C   UNL     1      -5.468  43.433 105.004  1.00  0.00     0.000 C 
BRANCH  17  18
ATOM     18  C   UNL     1      -6.593  44.363 104.510  1.00  0.00     0.000 C 
BRANCH  18  19
ATOM     19  C   UNL     1      -7.248  43.948 103.178  1.00  0.00     0.000 C 
BRANCH  19  20
ATOM     20  C   UNL     1      -6.800  44.754 101.942  1.00  0.00     0.006 C 
BRANCH  20  21
ATOM     21  C   UNL     1      -7.962  45.261 101.068  1.00  0.00     0.053 C 
BRANCH  21  22
ATOM     22  C   UNL     1      -8.938  46.097 101.837  1.00  0.00     0.041 C 
ATOM     23  O   UNL     1     -10.054  45.620 102.175  1.00  0.00    -0.550 OA
ATOM     24  O   UNL     1      -8.600  47.392 102.220  1.00  0.00    -0.550 OA
ENDBRANCH  21  22
ENDBRANCH  20  21
ENDBRANCH  19  20
ENDBRANCH  18  19
ENDBRANCH  17  18
ENDBRANCH  16  17
ENDBRANCH  15  16
ENDBRANCH  14  15
ENDBRANCH  13  14
ENDBRANCH   1  13
TORSDOF 20
ENDMDL
MODEL 6
REMARK VINA RESULT:    -5.888      2.975      7.615
REMARK INTER + INTRA:         -15.234
REMARK INTER:                 -13.352
REMARK INTRA:                  -1.882
REMARK UNBOUND:                -2.462
REMARK SMILES CCCCCCCCCCCCCCCCCCCCCC(=O)[O-]
REMARK SMILES IDX 12 1 11 2 10 3 9 4 8 5 7 6 6 7 5 8 4 9 3 10 2 11 1 12 13 13
REMARK SMILES IDX 14 14 15 15 16 16 17 17 18 18 19 19 20 20 21 21 22 22 23 23
REMARK SMILES IDX 24 24
REMARK H PARENT
REMARK Flexibility Score: inf
ROOT
ATOM      1  C   UNL     1      -5.174  36.441 101.430  1.00  0.00     0.000 C 
ENDROOT
BRANCH   1   2
ATOM      2  C   UNL     1      -5.423  35.275 100.461  1.00  0.00     0.000 C 
BRANCH   2   3
ATOM      3  C   UNL     1      -4.123  34.527 100.151  1.00  0.00     0.000 C 
BRANCH   3   4
ATOM      4  C   UNL     1      -3.885  34.442  98.639  1.00  0.00    -0.000 C 
BRANCH   4   5
ATOM      5  C   UNL     1      -2.756  35.387  98.203  1.00  0.00    -0.000 C 
BRANCH   5   6
ATOM      6  C   UNL     1      -3.269  36.611  97.422  1.00  0.00    -0.000 C 
BRANCH   6   7
ATOM      7  C   UNL     1      -4.770  36.579  97.066  1.00  0.00    -0.000 C 
BRANCH   7   8
ATOM      8  C   UNL     1      -5.589  37.788  97.555  1.00  0.00    -0.000 C 
BRANCH   8   9
ATOM      9  C   UNL     1      -5.707  38.899  96.498  1.00  0.00    -0.000 C 
BRANCH   9  10
ATOM     10  C   UNL     1      -5.134  40.245  96.979  1.00  0.00    -0.000 C 
BRANCH  10  11
ATOM     11  C   UNL     1      -5.398  41.437  96.042  1.00  0.00    -0.003 C 
ATOM     12  C   UNL     1      -4.832  42.753  96.574  1.00  0.00     0.004 C 
ENDBRANCH  10  11
ENDBRANCH   9  10
ENDBRANCH   8   9
ENDBRANCH   7   8
ENDBRANCH   6   7
ENDBRANCH   5   6
ENDBRANCH   4   5
ENDBRANCH   3   4
ENDBRANCH   2   3
ENDBRANCH   1   2
BRANCH   1  13
ATOM     13  C   UNL     1      -4.051  37.377 100.938  1.00  0.00     0.000 C 
BRANCH  13  14
ATOM     14  C   UNL     1      -3.151  37.907 102.067  1.00  0.00     0.000 C 
BRANCH  14  15
ATOM     15  C   UNL     1      -2.007  38.797 101.551  1.00  0.00     0.000 C 
BRANCH  15  16
ATOM     16  C   UNL     1      -1.551  39.842 102.593  1.00  0.00     0.000 C 
BRANCH  16  17
ATOM     17  C   UNL     1      -2.713  40.619 103.241  1.00  0.00     0.000 C 
BRANCH  17  18
ATOM     18  C   UNL     1      -2.797  42.107 102.852  1.00  0.00     0.000 C 
BRANCH  18  19
ATOM     19  C   UNL     1      -3.258  43.053 103.978  1.00  0.00     0.000 C 
BRANCH  19  20
ATOM     20  C   UNL     1      -4.781  43.274 104.074  1.00  0.00     0.006 C 
BRANCH  20  21
ATOM     21  C   UNL     1      -5.417  43.831 102.788  1.00  0.00     0.053 C 
BRANCH  21  22
ATOM     22  C   UNL     1      -6.883  44.103 102.942  1.00  0.00     0.041 C 
ATOM     23  O   UNL     1      -7.481  43.774 104.000  1.00  0.00    -0.550 OA
ATOM     24  O   UNL     1      -7.581  44.761 101.933  1.00  0.00    -0.550 OA
ENDBRANCH  21  22
ENDBRANCH  20  21
ENDBRANCH  19  20
ENDBRANCH  18  19
ENDBRANCH  17  18
ENDBRANCH  16  17
ENDBRANCH  15  16
ENDBRANCH  14  15
ENDBRANCH  13  14
ENDBRANCH   1  13
TORSDOF 20
ENDMDL
MODEL 7
REMARK VINA RESULT:    -5.867      4.155      9.021
REMARK INTER + INTRA:         -15.189
REMARK INTER:                 -13.409
REMARK INTRA:                  -1.780
REMARK UNBOUND:                -2.462
REMARK SMILES CCCCCCCCCCCCCCCCCCCCCC(=O)[O-]
REMARK SMILES IDX 12 1 11 2 10 3 9 4 8 5 7 6 6 7 5 8 4 9 3 10 2 11 1 12 13 13
REMARK SMILES IDX 14 14 15 15 16 16 17 17 18 18 19 19 20 20 21 21 22 22 23 23
REMARK SMILES IDX 24 24
REMARK H PARENT
REMARK Flexibility Score: inf
ROOT
ATOM      1  C   UNL     1      -2.772  40.594 103.128  1.00  0.00     0.000 C 
ENDROOT
BRANCH   1   2
ATOM      2  C   UNL     1      -1.466  40.193 102.425  1.00  0.00     0.000 C 
BRANCH   2   3
ATOM      3  C   UNL     1      -1.634  38.878 101.656  1.00  0.00     0.000 C 
BRANCH   3   4
ATOM      4  C   UNL     1      -2.898  38.136 102.106  1.00  0.00    -0.000 C 
BRANCH   4   5
ATOM      5  C   UNL     1      -3.808  37.819 100.911  1.00  0.00    -0.000 C 
BRANCH   5   6
ATOM      6  C   UNL     1      -3.259  38.366  99.581  1.00  0.00    -0.000 C 
BRANCH   6   7
ATOM      7  C   UNL     1      -4.320  38.947  98.624  1.00  0.00    -0.000 C 
BRANCH   7   8
ATOM      8  C   UNL     1      -5.325  37.928  98.055  1.00  0.00    -0.000 C 
BRANCH   8   9
ATOM      9  C   UNL     1      -4.642  36.734  97.367  1.00  0.00    -0.000 C 
BRANCH   9  10
ATOM     10  C   UNL     1      -5.140  35.376  97.893  1.00  0.00    -0.000 C 
BRANCH  10  11
ATOM     11  C   UNL     1      -4.210  34.689  98.909  1.00  0.00    -0.003 C 
ATOM     12  C   UNL     1      -2.729  34.965  98.647  1.00  0.00     0.004 C 
ENDBRANCH  10  11
ENDBRANCH   9  10
ENDBRANCH   8   9
ENDBRANCH   7   8
ENDBRANCH   6   7
ENDBRANCH   5   6
ENDBRANCH   4   5
ENDBRANCH   3   4
ENDBRANCH   2   3
ENDBRANCH   1   2
BRANCH   1  13
ATOM     13  C   UNL     1      -3.333  41.929 102.596  1.00  0.00     0.000 C 
BRANCH  13  14
ATOM     14  C   UNL     1      -3.561  42.984 103.692  1.00  0.00     0.000 C 
BRANCH  14  15
ATOM     15  C   UNL     1      -4.687  42.599 104.666  1.00  0.00     0.000 C 
BRANCH  15  16
ATOM     16  C   UNL     1      -5.726  43.727 104.849  1.00  0.00     0.000 C 
BRANCH  16  17
ATOM     17  C   UNL     1      -7.046  43.482 104.094  1.00  0.00     0.000 C 
BRANCH  17  18
ATOM     18  C   UNL     1      -7.206  44.281 102.787  1.00  0.00     0.000 C 
BRANCH  18  19
ATOM     19  C   UNL     1      -8.324  45.341 102.800  1.00  0.00     0.000 C 
BRANCH  19  20
ATOM     20  C   UNL     1      -9.349  45.207 103.944  1.00  0.00     0.006 C 
BRANCH  20  21
ATOM     21  C   UNL     1     -10.786  45.595 103.549  1.00  0.00     0.053 C 
BRANCH  21  22
ATOM     22  C   UNL     1     -11.149  46.981 103.986  1.00  0.00     0.041 C 
ATOM     23  O   UNL     1     -12.207  47.521 103.567  1.00  0.00    -0.550 OA
ATOM     24  O   UNL     1     -10.343  47.662 104.892  1.00  0.00    -0.550 OA
ENDBRANCH  21  22
ENDBRANCH  20  21
ENDBRANCH  19  20
ENDBRANCH  18  19
ENDBRANCH  17  18
ENDBRANCH  16  17
ENDBRANCH  15  16
ENDBRANCH  14  15
ENDBRANCH  13  14
ENDBRANCH   1  13
TORSDOF 20
ENDMDL
MODEL 8
REMARK VINA RESULT:    -5.863      1.131      2.247
REMARK INTER + INTRA:         -15.180
REMARK INTER:                 -13.401
REMARK INTRA:                  -1.779
REMARK UNBOUND:                -2.462
REMARK SMILES CCCCCCCCCCCCCCCCCCCCCC(=O)[O-]
REMARK SMILES IDX 12 1 11 2 10 3 9 4 8 5 7 6 6 7 5 8 4 9 3 10 2 11 1 12 13 13
REMARK SMILES IDX 14 14 15 15 16 16 17 17 18 18 19 19 20 20 21 21 22 22 23 23
REMARK SMILES IDX 24 24
REMARK H PARENT
REMARK Flexibility Score: inf
ROOT
ATOM      1  C   UNL     1      -2.874  39.673 101.621  1.00  0.00     0.000 C 
ENDROOT
BRANCH   1   2
ATOM      2  C   UNL     1      -1.738  39.961 102.615  1.00  0.00     0.000 C 
BRANCH   2   3
ATOM      3  C   UNL     1      -1.820  41.395 103.148  1.00  0.00     0.000 C 
BRANCH   3   4
ATOM      4  C   UNL     1      -3.173  42.031 102.806  1.00  0.00    -0.000 C 
BRANCH   4   5
ATOM      5  C   UNL     1      -3.586  43.056 103.872  1.00  0.00    -0.000 C 
BRANCH   5   6
ATOM      6  C   UNL     1      -4.830  42.622 104.668  1.00  0.00    -0.000 C 
BRANCH   6   7
ATOM      7  C   UNL     1      -5.876  43.731 104.906  1.00  0.00    -0.000 C 
BRANCH   7   8
ATOM      8  C   UNL     1      -7.073  43.728 103.936  1.00  0.00    -0.000 C 
BRANCH   8   9
ATOM      9  C   UNL     1      -7.121  44.978 103.041  1.00  0.00    -0.000 C 
BRANCH   9  10
ATOM     10  C   UNL     1      -6.706  44.689 101.587  1.00  0.00    -0.000 C 
BRANCH  10  11
ATOM     11  C   UNL     1      -5.197  44.801 101.305  1.00  0.00    -0.003 C 
ATOM     12  C   UNL     1      -4.788  44.162  99.978  1.00  0.00     0.004 C 
ENDBRANCH  10  11
ENDBRANCH   9  10
ENDBRANCH   8   9
ENDBRANCH   7   8
ENDBRANCH   6   7
ENDBRANCH   5   6
ENDBRANCH   4   5
ENDBRANCH   3   4
ENDBRANCH   2   3
ENDBRANCH   1   2
BRANCH   1  13
ATOM     13  C   UNL     1      -2.767  38.261 101.008  1.00  0.00     0.000 C 
BRANCH  13  14
ATOM     14  C   UNL     1      -3.543  37.189 101.790  1.00  0.00     0.000 C 
BRANCH  14  15
ATOM     15  C   UNL     1      -3.652  35.856 101.030  1.00  0.00     0.000 C 
BRANCH  15  16
ATOM     16  C   UNL     1      -2.488  35.642 100.037  1.00  0.00     0.000 C 
BRANCH  16  17
ATOM     17  C   UNL     1      -2.902  34.912  98.746  1.00  0.00     0.000 C 
BRANCH  17  18
ATOM     18  C   UNL     1      -4.342  34.363  98.741  1.00  0.00     0.000 C 
BRANCH  18  19
ATOM     19  C   UNL     1      -5.422  35.360  98.278  1.00  0.00     0.000 C 
BRANCH  19  20
ATOM     20  C   UNL     1      -5.053  36.208  97.044  1.00  0.00     0.006 C 
BRANCH  20  21
ATOM     21  C   UNL     1      -4.739  37.681  97.364  1.00  0.00     0.053 C 
BRANCH  21  22
ATOM     22  C   UNL     1      -5.835  38.609  96.936  1.00  0.00     0.041 C 
ATOM     23  O   UNL     1      -5.556  39.738  96.453  1.00  0.00    -0.550 OA
ATOM     24  O   UNL     1      -7.165  38.211  97.030  1.00  0.00    -0.550 OA
ENDBRANCH  21  22
ENDBRANCH  20  21
ENDBRANCH  19  20
ENDBRANCH  18  19
ENDBRANCH  17  18
ENDBRANCH  16  17
ENDBRANCH  15  16
ENDBRANCH  14  15
ENDBRANCH  13  14
ENDBRANCH   1  13
TORSDOF 20
ENDMDL
MODEL 9
REMARK VINA RESULT:    -5.809      2.311      8.083
REMARK INTER + INTRA:         -15.064
REMARK INTER:                 -13.066
REMARK INTRA:                  -1.998
REMARK UNBOUND:                -2.462
REMARK SMILES CCCCCCCCCCCCCCCCCCCCCC(=O)[O-]
REMARK SMILES IDX 12 1 11 2 10 3 9 4 8 5 7 6 6 7 5 8 4 9 3 10 2 11 1 12 13 13
REMARK SMILES IDX 14 14 15 15 16 16 17 17 18 18 19 19 20 20 21 21 22 22 23 23
REMARK SMILES IDX 24 24
REMARK H PARENT
REMARK Flexibility Score: inf
ROOT
ATOM      1  C   UNL     1      -2.403  40.636 103.130  1.00  0.00     0.000 C 
ENDROOT
BRANCH   1   2
ATOM      2  C   UNL     1      -1.656  39.603 102.272  1.00  0.00     0.000 C 
BRANCH   2   3
ATOM      3  C   UNL     1      -2.594  38.952 101.250  1.00  0.00     0.000 C 
BRANCH   3   4
ATOM      4  C   UNL     1      -2.506  37.423 101.320  1.00  0.00    -0.000 C 
BRANCH   4   5
ATOM      5  C   UNL     1      -3.776  36.825 101.942  1.00  0.00    -0.000 C 
BRANCH   5   6
ATOM      6  C   UNL     1      -4.958  36.776 100.957  1.00  0.00    -0.000 C 
BRANCH   6   7
ATOM      7  C   UNL     1      -5.377  35.362 100.507  1.00  0.00    -0.000 C 
BRANCH   7   8
ATOM      8  C   UNL     1      -4.225  34.444 100.056  1.00  0.00    -0.000 C 
BRANCH   8   9
ATOM      9  C   UNL     1      -3.927  34.552  98.551  1.00  0.00    -0.000 C 
BRANCH   9  10
ATOM     10  C   UNL     1      -2.833  35.586  98.231  1.00  0.00    -0.000 C 
BRANCH  10  11
ATOM     11  C   UNL     1      -3.219  36.639  97.177  1.00  0.00    -0.003 C 
ATOM     12  C   UNL     1      -4.704  36.998  97.205  1.00  0.00     0.004 C 
ENDBRANCH  10  11
ENDBRANCH   9  10
ENDBRANCH   8   9
ENDBRANCH   7   8
ENDBRANCH   6   7
ENDBRANCH   5   6
ENDBRANCH   4   5
ENDBRANCH   3   4
ENDBRANCH   2   3
ENDBRANCH   1   2
BRANCH   1  13
ATOM     13  C   UNL     1      -1.690  42.004 103.144  1.00  0.00     0.000 C 
BRANCH  13  14
ATOM     14  C   UNL     1      -2.654  43.201 103.219  1.00  0.00     0.000 C 
BRANCH  14  15
ATOM     15  C   UNL     1      -4.110  42.780 103.474  1.00  0.00     0.000 C 
BRANCH  15  16
ATOM     16  C   UNL     1      -4.765  43.573 104.627  1.00  0.00     0.000 C 
BRANCH  16  17
ATOM     17  C   UNL     1      -6.301  43.462 104.661  1.00  0.00     0.000 C 
BRANCH  17  18
ATOM     18  C   UNL     1      -7.052  44.602 103.947  1.00  0.00     0.000 C 
BRANCH  18  19
ATOM     19  C   UNL     1      -7.167  44.454 102.418  1.00  0.00     0.000 C 
BRANCH  19  20
ATOM     20  C   UNL     1      -6.117  45.230 101.597  1.00  0.00     0.006 C 
BRANCH  20  21
ATOM     21  C   UNL     1      -6.003  44.774 100.131  1.00  0.00     0.053 C 
BRANCH  21  22
ATOM     22  C   UNL     1      -4.630  44.286  99.785  1.00  0.00     0.041 C 
ATOM     23  O   UNL     1      -4.481  43.325  98.984  1.00  0.00    -0.550 OA
ATOM     24  O   UNL     1      -3.509  44.920 100.311  1.00  0.00    -0.550 OA
ENDBRANCH  21  22
ENDBRANCH  20  21
ENDBRANCH  19  20
ENDBRANCH  18  19
ENDBRANCH  17  18
ENDBRANCH  16  17
ENDBRANCH  15  16
ENDBRANCH  14  15
ENDBRANCH  13  14
ENDBRANCH   1  13
TORSDOF 20
ENDMDL
