MODEL 1
REMARK VINA RESULT:     0.000      0.000      0.000
REMARK INTER + INTRA:          -0.390
REMARK INTER:                   0.000
REMARK INTRA:                  -0.390
REMARK UNBOUND:                -0.390
REMARK SMILES C=C1C[C@@]2(O)O[C@@]3(C[C@H]2C(C)C)[C@@H](C)CC[C@@H]13
REMARK SMILES IDX 14 1 13 2 15 3 16 4 17 5 7 6 8 7 9 8 4 9 6 10 3 11 2 12 1 13
REMARK SMILES IDX 10 14 11 15 12 16 5 17
REMARK H PARENT 5 18
REMARK Flexibility Score: inf
ROOT
ATOM      1  C   UNL     1       8.014  26.530  46.090  1.00  0.00     0.011 C 
ATOM      2  C   UNL     1       6.971  25.404  46.065  1.00  0.00     0.019 C 
ATOM      3  C   UNL     1       6.915  24.624  47.387  1.00  0.00     0.007 C 
ATOM      4  C   UNL     1       5.438  24.336  47.674  1.00  0.00     0.011 C 
ATOM      5  C   UNL     1       4.664  24.787  46.436  1.00  0.00     0.047 C 
ATOM      6  C   UNL     1       5.536  25.892  45.820  1.00  0.00     0.081 C 
ATOM      7  C   UNL     1       5.191  26.140  44.348  1.00  0.00     0.046 C 
ATOM      8  C   UNL     1       4.254  27.345  44.404  1.00  0.00     0.054 C 
ATOM      9  C   UNL     1       4.082  27.566  45.936  1.00  0.00     0.173 C 
ATOM     10  O   UNL     1       5.281  27.099  46.504  1.00  0.00    -0.342 OA
ATOM     11  C   UNL     1       2.923  26.762  46.606  1.00  0.00     0.096 C 
ATOM     12  C   UNL     1       3.266  25.291  46.759  1.00  0.00    -0.066 C 
ATOM     13  C   UNL     1       2.330  24.436  47.195  1.00  0.00     0.008 C 
ENDROOT
BRANCH   8  14
ATOM     14  C   UNL     1       2.974  27.177  43.522  1.00  0.00    -0.009 C 
ATOM     15  C   UNL     1       2.865  25.735  42.988  1.00  0.00     0.008 C 
ATOM     16  C   UNL     1       2.971  28.133  42.315  1.00  0.00     0.008 C 
ENDBRANCH   8  14
BRANCH   9  17
ATOM     17  O   UNL     1       3.975  28.938  46.226  1.00  0.00    -0.365 OA
ATOM     18  H   UNL     1       4.863  29.268  46.513  1.00  0.00     0.214 HD
ENDBRANCH   9  17
TORSDOF 2
ENDMDL
MODEL 2
REMARK VINA RESULT:     0.000      4.834      6.884
REMARK INTER + INTRA:          -0.390
REMARK INTER:                   0.000
REMARK INTRA:                  -0.390
REMARK UNBOUND:                -0.390
REMARK SMILES C=C1C[C@@]2(O)O[C@@]3(C[C@H]2C(C)C)[C@@H](C)CC[C@@H]13
REMARK SMILES IDX 14 1 13 2 15 3 16 4 17 5 7 6 8 7 9 8 4 9 6 10 3 11 2 12 1 13
REMARK SMILES IDX 10 14 11 15 12 16 5 17
REMARK H PARENT 5 18
REMARK Flexibility Score: inf
ROOT
ATOM      1  C   UNL     1       5.105  21.842  53.442  1.00  0.00     0.011 C 
ATOM      2  C   UNL     1       6.322  21.797  52.505  1.00  0.00     0.019 C 
ATOM      3  C   UNL     1       6.401  20.487  51.707  1.00  0.00     0.007 C 
ATOM      4  C   UNL     1       6.851  20.854  50.290  1.00  0.00     0.011 C 
ATOM      5  C   UNL     1       7.204  22.341  50.323  1.00  0.00     0.047 C 
ATOM      6  C   UNL     1       6.338  22.915  51.454  1.00  0.00     0.081 C 
ATOM      7  C   UNL     1       6.876  24.258  51.962  1.00  0.00     0.046 C 
ATOM      8  C   UNL     1       6.026  25.283  51.214  1.00  0.00     0.054 C 
ATOM      9  C   UNL     1       5.175  24.387  50.267  1.00  0.00     0.173 C 
ATOM     10  O   UNL     1       5.045  23.164  50.948  1.00  0.00    -0.342 OA
ATOM     11  C   UNL     1       5.822  24.065  48.883  1.00  0.00     0.096 C 
ATOM     12  C   UNL     1       6.939  23.045  49.001  1.00  0.00    -0.066 C 
ATOM     13  C   UNL     1       7.688  22.756  47.927  1.00  0.00     0.008 C 
ENDROOT
BRANCH   8  14
ATOM     14  C   UNL     1       6.863  26.448  50.593  1.00  0.00    -0.009 C 
ATOM     15  C   UNL     1       8.372  26.152  50.698  1.00  0.00     0.008 C 
ATOM     16  C   UNL     1       6.592  27.794  51.290  1.00  0.00     0.008 C 
ENDBRANCH   8  14
BRANCH   9  17
ATOM     17  O   UNL     1       3.886  24.928  50.106  1.00  0.00    -0.365 OA
ATOM     18  H   UNL     1       3.501  25.095  51.002  1.00  0.00     0.214 HD
ENDBRANCH   9  17
TORSDOF 2
ENDMDL
MODEL 3
REMARK VINA RESULT:     0.000     13.260     16.070
REMARK INTER + INTRA:          -0.390
REMARK INTER:                   0.000
REMARK INTRA:                  -0.390
REMARK UNBOUND:                -0.390
REMARK SMILES C=C1C[C@@]2(O)O[C@@]3(C[C@H]2C(C)C)[C@@H](C)CC[C@@H]13
REMARK SMILES IDX 14 1 13 2 15 3 16 4 17 5 7 6 8 7 9 8 4 9 6 10 3 11 2 12 1 13
REMARK SMILES IDX 10 14 11 15 12 16 5 17
REMARK H PARENT 5 18
REMARK Flexibility Score: inf
ROOT
ATOM      1  C   UNL     1      15.784  14.691  54.194  1.00  0.00     0.011 C 
ATOM      2  C   UNL     1      14.969  15.082  55.435  1.00  0.00     0.019 C 
ATOM      3  C   UNL     1      15.847  15.264  56.682  1.00  0.00     0.007 C 
ATOM      4  C   UNL     1      15.303  16.480  57.439  1.00  0.00     0.011 C 
ATOM      5  C   UNL     1      14.011  16.884  56.730  1.00  0.00     0.047 C 
ATOM      6  C   UNL     1      14.200  16.403  55.284  1.00  0.00     0.081 C 
ATOM      7  C   UNL     1      12.865  16.280  54.541  1.00  0.00     0.046 C 
ATOM      8  C   UNL     1      12.775  17.590  53.762  1.00  0.00     0.054 C 
ATOM      9  C   UNL     1      14.032  18.364  54.257  1.00  0.00     0.173 C 
ATOM     10  O   UNL     1      14.963  17.363  54.587  1.00  0.00    -0.342 OA
ATOM     11  C   UNL     1      13.828  19.231  55.540  1.00  0.00     0.096 C 
ATOM     12  C   UNL     1      13.740  18.379  56.793  1.00  0.00    -0.066 C 
ATOM     13  C   UNL     1      13.433  18.955  57.964  1.00  0.00     0.008 C 
ENDROOT
BRANCH   8  14
ATOM     14  C   UNL     1      11.376  18.283  53.873  1.00  0.00    -0.009 C 
ATOM     15  C   UNL     1      10.503  17.580  54.930  1.00  0.00     0.008 C 
ATOM     16  C   UNL     1      10.613  18.266  52.537  1.00  0.00     0.008 C 
ENDBRANCH   8  14
BRANCH   9  17
ATOM     17  O   UNL     1      14.579  19.132  53.213  1.00  0.00    -0.365 OA
ATOM     18  H   UNL     1      14.108  20.002  53.184  1.00  0.00     0.214 HD
ENDBRANCH   9  17
TORSDOF 2
ENDMDL
MODEL 4
REMARK VINA RESULT:     0.000     13.220     16.196
REMARK INTER + INTRA:          -0.390
REMARK INTER:                   0.000
REMARK INTRA:                  -0.390
REMARK UNBOUND:                -0.390
REMARK SMILES C=C1C[C@@]2(O)O[C@@]3(C[C@H]2C(C)C)[C@@H](C)CC[C@@H]13
REMARK SMILES IDX 14 1 13 2 15 3 16 4 17 5 7 6 8 7 9 8 4 9 6 10 3 11 2 12 1 13
REMARK SMILES IDX 10 14 11 15 12 16 5 17
REMARK H PARENT 5 18
REMARK Flexibility Score: inf
ROOT
ATOM      1  C   UNL     1      13.290  17.986  47.560  1.00  0.00     0.011 C 
ATOM      2  C   UNL     1      14.715  17.593  47.145  1.00  0.00     0.019 C 
ATOM      3  C   UNL     1      15.701  18.767  47.244  1.00  0.00     0.007 C 
ATOM      4  C   UNL     1      17.012  18.204  47.802  1.00  0.00     0.011 C 
ATOM      5  C   UNL     1      16.840  16.686  47.853  1.00  0.00     0.047 C 
ATOM      6  C   UNL     1      15.326  16.476  48.003  1.00  0.00     0.081 C 
ATOM      7  C   UNL     1      14.901  15.060  47.599  1.00  0.00     0.046 C 
ATOM      8  C   UNL     1      14.819  14.324  48.935  1.00  0.00     0.054 C 
ATOM      9  C   UNL     1      15.332  15.395  49.942  1.00  0.00     0.173 C 
ATOM     10  O   UNL     1      14.984  16.628  49.363  1.00  0.00    -0.342 OA
ATOM     11  C   UNL     1      16.876  15.422  50.168  1.00  0.00     0.096 C 
ATOM     12  C   UNL     1      17.612  16.037  48.991  1.00  0.00    -0.066 C 
ATOM     13  C   UNL     1      18.952  16.017  48.965  1.00  0.00     0.008 C 
ENDROOT
BRANCH   8  14
ATOM     14  C   UNL     1      15.512  12.921  48.914  1.00  0.00    -0.009 C 
ATOM     15  C   UNL     1      16.306  12.726  47.607  1.00  0.00     0.008 C 
ATOM     16  C   UNL     1      14.497  11.770  49.032  1.00  0.00     0.008 C 
ENDBRANCH   8  14
BRANCH   9  17
ATOM     17  O   UNL     1      14.647  15.287  51.166  1.00  0.00    -0.365 OA
ATOM     18  H   UNL     1      15.057  14.555  51.692  1.00  0.00     0.214 HD
ENDBRANCH   9  17
TORSDOF 2
ENDMDL
MODEL 5
REMARK VINA RESULT:     0.000      5.166      8.366
REMARK INTER + INTRA:          -0.390
REMARK INTER:                   0.000
REMARK INTRA:                  -0.390
REMARK UNBOUND:                -0.390
REMARK SMILES C=C1C[C@@]2(O)O[C@@]3(C[C@H]2C(C)C)[C@@H](C)CC[C@@H]13
REMARK SMILES IDX 14 1 13 2 15 3 16 4 17 5 7 6 8 7 9 8 4 9 6 10 3 11 2 12 1 13
REMARK SMILES IDX 10 14 11 15 12 16 5 17
REMARK H PARENT 5 18
REMARK Flexibility Score: inf
ROOT
ATOM      1  C   UNL     1       6.715  20.666  45.801  1.00  0.00     0.011 C 
ATOM      2  C   UNL     1       7.809  21.600  45.262  1.00  0.00     0.019 C 
ATOM      3  C   UNL     1       7.290  23.022  44.999  1.00  0.00     0.007 C 
ATOM      4  C   UNL     1       8.387  23.989  45.454  1.00  0.00     0.011 C 
ATOM      5  C   UNL     1       9.600  23.128  45.806  1.00  0.00     0.047 C 
ATOM      6  C   UNL     1       9.002  21.773  46.212  1.00  0.00     0.081 C 
ATOM      7  C   UNL     1      10.038  20.645  46.142  1.00  0.00     0.046 C 
ATOM      8  C   UNL     1      10.514  20.515  47.587  1.00  0.00     0.054 C 
ATOM      9  C   UNL     1       9.766  21.682  48.294  1.00  0.00     0.173 C 
ATOM     10  O   UNL     1       8.582  21.851  47.556  1.00  0.00    -0.342 OA
ATOM     11  C   UNL     1      10.503  23.059  48.284  1.00  0.00     0.096 C 
ATOM     12  C   UNL     1      10.449  23.723  46.920  1.00  0.00    -0.066 C 
ATOM     13  C   UNL     1      11.145  24.847  46.702  1.00  0.00     0.008 C 
ENDROOT
BRANCH   8  14
ATOM     14  C   UNL     1      12.070  20.429  47.723  1.00  0.00    -0.009 C 
ATOM     15  C   UNL     1      12.752  20.725  46.373  1.00  0.00     0.008 C 
ATOM     16  C   UNL     1      12.535  19.040  48.197  1.00  0.00     0.008 C 
ENDBRANCH   8  14
BRANCH   9  17
ATOM     17  O   UNL     1       9.407  21.315  49.605  1.00  0.00    -0.365 OA
ATOM     18  H   UNL     1       9.545  20.340  49.705  1.00  0.00     0.214 HD
ENDBRANCH   9  17
TORSDOF 2
ENDMDL
MODEL 6
REMARK VINA RESULT:     0.000      4.780      7.370
REMARK INTER + INTRA:          -0.390
REMARK INTER:                   0.000
REMARK INTRA:                  -0.390
REMARK UNBOUND:                -0.390
REMARK SMILES C=C1C[C@@]2(O)O[C@@]3(C[C@H]2C(C)C)[C@@H](C)CC[C@@H]13
REMARK SMILES IDX 14 1 13 2 15 3 16 4 17 5 7 6 8 7 9 8 4 9 6 10 3 11 2 12 1 13
REMARK SMILES IDX 10 14 11 15 12 16 5 17
REMARK H PARENT 5 18
REMARK Flexibility Score: inf
ROOT
ATOM      1  C   UNL     1       6.547  20.411  43.943  1.00  0.00     0.011 C 
ATOM      2  C   UNL     1       7.017  21.743  43.340  1.00  0.00     0.019 C 
ATOM      3  C   UNL     1       5.944  22.838  43.427  1.00  0.00     0.007 C 
ATOM      4  C   UNL     1       6.663  24.142  43.787  1.00  0.00     0.011 C 
ATOM      5  C   UNL     1       8.160  23.837  43.728  1.00  0.00     0.047 C 
ATOM      6  C   UNL     1       8.256  22.334  44.028  1.00  0.00     0.081 C 
ATOM      7  C   UNL     1       9.588  21.739  43.556  1.00  0.00     0.046 C 
ATOM      8  C   UNL     1      10.437  21.728  44.826  1.00  0.00     0.054 C 
ATOM      9  C   UNL     1       9.511  22.440  45.856  1.00  0.00     0.173 C 
ATOM     10  O   UNL     1       8.205  22.150  45.425  1.00  0.00    -0.342 OA
ATOM     11  C   UNL     1       9.633  23.995  45.910  1.00  0.00     0.096 C 
ATOM     12  C   UNL     1       8.974  24.659  44.715  1.00  0.00    -0.066 C 
ATOM     13  C   UNL     1       9.103  25.982  44.538  1.00  0.00     0.008 C 
ENDROOT
BRANCH   8  14
ATOM     14  C   UNL     1      11.884  22.283  44.610  1.00  0.00    -0.009 C 
ATOM     15  C   UNL     1      12.022  22.915  43.211  1.00  0.00     0.008 C 
ATOM     16  C   UNL     1      12.953  21.183  44.743  1.00  0.00     0.008 C 
ENDBRANCH   8  14
BRANCH   9  17
ATOM     17  O   UNL     1       9.676  21.878  47.136  1.00  0.00    -0.365 OA
ATOM     18  H   UNL     1       9.560  20.897  47.065  1.00  0.00     0.214 HD
ENDBRANCH   9  17
TORSDOF 2
ENDMDL
MODEL 7
REMARK VINA RESULT:     0.000     12.541     15.792
REMARK INTER + INTRA:          -0.390
REMARK INTER:                   0.000
REMARK INTRA:                  -0.390
REMARK UNBOUND:                -0.390
REMARK SMILES C=C1C[C@@]2(O)O[C@@]3(C[C@H]2C(C)C)[C@@H](C)CC[C@@H]13
REMARK SMILES IDX 14 1 13 2 15 3 16 4 17 5 7 6 8 7 9 8 4 9 6 10 3 11 2 12 1 13
REMARK SMILES IDX 10 14 11 15 12 16 5 17
REMARK H PARENT 5 18
REMARK Flexibility Score: inf
ROOT
ATOM      1  C   UNL     1      13.964  21.218  51.258  1.00  0.00     0.011 C 
ATOM      2  C   UNL     1      15.401  21.172  51.799  1.00  0.00     0.019 C 
ATOM      3  C   UNL     1      16.010  22.572  51.968  1.00  0.00     0.007 C 
ATOM      4  C   UNL     1      16.811  22.556  53.274  1.00  0.00     0.011 C 
ATOM      5  C   UNL     1      16.813  21.107  53.759  1.00  0.00     0.047 C 
ATOM      6  C   UNL     1      15.525  20.506  53.177  1.00  0.00     0.081 C 
ATOM      7  C   UNL     1      15.572  18.974  53.140  1.00  0.00     0.046 C 
ATOM      8  C   UNL     1      14.817  18.569  54.405  1.00  0.00     0.054 C 
ATOM      9  C   UNL     1      14.531  19.942  55.080  1.00  0.00     0.173 C 
ATOM     10  O   UNL     1      14.446  20.857  54.016  1.00  0.00    -0.342 OA
ATOM     11  C   UNL     1      15.647  20.468  56.038  1.00  0.00     0.096 C 
ATOM     12  C   UNL     1      16.852  20.987  55.275  1.00  0.00    -0.066 C 
ATOM     13  C   UNL     1      17.954  21.351  55.946  1.00  0.00     0.008 C 
ENDROOT
BRANCH   8  14
ATOM     14  C   UNL     1      15.547  17.463  55.235  1.00  0.00    -0.009 C 
ATOM     15  C   UNL     1      16.965  17.214  54.685  1.00  0.00     0.008 C 
ATOM     16  C   UNL     1      14.786  16.124  55.213  1.00  0.00     0.008 C 
ENDBRANCH   8  14
BRANCH   9  17
ATOM     17  O   UNL     1      13.282  19.921  55.729  1.00  0.00    -0.365 OA
ATOM     18  H   UNL     1      13.338  19.300  56.497  1.00  0.00     0.214 HD
ENDBRANCH   9  17
TORSDOF 2
ENDMDL
MODEL 8
REMARK VINA RESULT:     0.000     10.825     13.538
REMARK INTER + INTRA:          -0.390
REMARK INTER:                   0.000
REMARK INTRA:                  -0.390
REMARK UNBOUND:                -0.390
REMARK SMILES C=C1C[C@@]2(O)O[C@@]3(C[C@H]2C(C)C)[C@@H](C)CC[C@@H]13
REMARK SMILES IDX 14 1 13 2 15 3 16 4 17 5 7 6 8 7 9 8 4 9 6 10 3 11 2 12 1 13
REMARK SMILES IDX 10 14 11 15 12 16 5 17
REMARK H PARENT 5 18
REMARK Flexibility Score: inf
ROOT
ATOM      1  C   UNL     1       8.601  19.343  54.875  1.00  0.00     0.011 C 
ATOM      2  C   UNL     1       8.116  20.799  54.915  1.00  0.00     0.019 C 
ATOM      3  C   UNL     1       6.862  21.025  54.058  1.00  0.00     0.007 C 
ATOM      4  C   UNL     1       5.951  21.976  54.841  1.00  0.00     0.011 C 
ATOM      5  C   UNL     1       6.756  22.438  56.055  1.00  0.00     0.047 C 
ATOM      6  C   UNL     1       7.743  21.292  56.320  1.00  0.00     0.081 C 
ATOM      7  C   UNL     1       8.934  21.746  57.172  1.00  0.00     0.046 C 
ATOM      8  C   UNL     1       8.540  21.315  58.583  1.00  0.00     0.054 C 
ATOM      9  C   UNL     1       7.098  20.767  58.378  1.00  0.00     0.173 C 
ATOM     10  O   UNL     1       7.079  20.288  57.056  1.00  0.00    -0.342 OA
ATOM     11  C   UNL     1       5.953  21.822  58.491  1.00  0.00     0.096 C 
ATOM     12  C   UNL     1       5.887  22.723  57.271  1.00  0.00    -0.066 C 
ATOM     13  C   UNL     1       5.048  23.768  57.264  1.00  0.00     0.008 C 
ENDROOT
BRANCH   8  14
ATOM     14  C   UNL     1       8.774  22.426  59.659  1.00  0.00    -0.009 C 
ATOM     15  C   UNL     1       9.136  23.766  58.988  1.00  0.00     0.008 C 
ATOM     16  C   UNL     1       9.908  22.061  60.634  1.00  0.00     0.008 C 
ENDBRANCH   8  14
BRANCH   9  17
ATOM     17  O   UNL     1       6.860  19.675  59.233  1.00  0.00    -0.365 OA
ATOM     18  H   UNL     1       7.131  19.930  60.150  1.00  0.00     0.214 HD
ENDBRANCH   9  17
TORSDOF 2
ENDMDL
MODEL 9
REMARK VINA RESULT:     0.000     11.749     13.975
REMARK INTER + INTRA:          -0.390
REMARK INTER:                   0.000
REMARK INTRA:                  -0.390
REMARK UNBOUND:                -0.390
REMARK SMILES C=C1C[C@@]2(O)O[C@@]3(C[C@H]2C(C)C)[C@@H](C)CC[C@@H]13
REMARK SMILES IDX 14 1 13 2 15 3 16 4 17 5 7 6 8 7 9 8 4 9 6 10 3 11 2 12 1 13
REMARK SMILES IDX 10 14 11 15 12 16 5 17
REMARK H PARENT 5 18
REMARK Flexibility Score: inf
ROOT
ATOM      1  C   UNL     1       8.248  25.020  55.536  1.00  0.00     0.011 C 
ATOM      2  C   UNL     1       7.825  26.432  55.968  1.00  0.00     0.019 C 
ATOM      3  C   UNL     1       6.409  26.793  55.494  1.00  0.00     0.007 C 
ATOM      4  C   UNL     1       5.737  27.558  56.639  1.00  0.00     0.011 C 
ATOM      5  C   UNL     1       6.819  27.795  57.692  1.00  0.00     0.047 C 
ATOM      6  C   UNL     1       7.810  26.639  57.489  1.00  0.00     0.081 C 
ATOM      7  C   UNL     1       9.181  26.945  58.103  1.00  0.00     0.046 C 
ATOM      8  C   UNL     1       9.124  26.244  59.458  1.00  0.00     0.054 C 
ATOM      9  C   UNL     1       7.660  25.716  59.503  1.00  0.00     0.173 C 
ATOM     10  O   UNL     1       7.314  25.499  58.157  1.00  0.00    -0.342 OA
ATOM     11  C   UNL     1       6.603  26.707  60.085  1.00  0.00     0.096 C 
ATOM     12  C   UNL     1       6.273  27.823  59.111  1.00  0.00    -0.066 C 
ATOM     13  C   UNL     1       5.484  28.833  59.504  1.00  0.00     0.008 C 
ENDROOT
BRANCH   8  14
ATOM     14  C   UNL     1       9.636  27.133  60.639  1.00  0.00    -0.009 C 
ATOM     15  C   UNL     1       9.863  28.583  60.170  1.00  0.00     0.008 C 
ATOM     16  C   UNL     1      10.959  26.610  61.227  1.00  0.00     0.008 C 
ENDBRANCH   8  14
BRANCH   9  17
ATOM     17  O   UNL     1       7.604  24.476  60.165  1.00  0.00    -0.365 OA
ATOM     18  H   UNL     1       8.478  24.313  60.599  1.00  0.00     0.214 HD
ENDBRANCH   9  17
TORSDOF 2
ENDMDL
