MODEL 1
REMARK VINA RESULT:    -5.450      0.000      0.000
REMARK INTER + INTRA:          -5.609
REMARK INTER:                  -5.609
REMARK INTRA:                   0.000
REMARK UNBOUND:                 0.000
REMARK SMILES Oc1ccc2[nH]ccc2c1
REMARK SMILES IDX 3 1 4 2 5 3 9 4 8 5 7 6 6 7 10 8 2 9 1 11
REMARK H PARENT 6 10 1 12
REMARK Flexibility Score: inf
ROOT
ATOM      1  C   UNL     1      46.302  52.924  30.638  1.00  0.00     0.048 A 
ATOM      2  C   UNL     1      46.094  52.667  29.270  1.00  0.00     0.030 A 
ATOM      3  C   UNL     1      46.581  51.468  28.753  1.00  0.00     0.046 A 
ATOM      4  C   UNL     1      47.241  50.560  29.537  1.00  0.00     0.003 A 
ATOM      5  C   UNL     1      47.588  49.496  28.734  1.00  0.00     0.028 A 
ATOM      6  C   UNL     1      47.106  49.822  27.470  1.00  0.00     0.083 A 
ATOM      7  N   UNL     1      46.493  51.028  27.487  1.00  0.00    -0.361 N 
ATOM      8  C   UNL     1      47.462  50.783  30.895  1.00  0.00     0.056 A 
ATOM      9  C   UNL     1      46.982  51.988  31.451  1.00  0.00     0.116 A 
ATOM     10  H   UNL     1      46.043  51.514  26.679  1.00  0.00     0.166 HD
ENDROOT
BRANCH   9  11
ATOM     11  O   UNL     1      47.175  52.267  32.802  1.00  0.00    -0.508 OA
ATOM     12  H   UNL     1      48.101  52.414  33.185  1.00  0.00     0.293 HD
ENDBRANCH   9  11
TORSDOF 1
ENDMDL
MODEL 2
REMARK VINA RESULT:    -5.273      1.614      2.139
REMARK INTER + INTRA:          -5.427
REMARK INTER:                  -5.427
REMARK INTRA:                   0.000
REMARK UNBOUND:                 0.000
REMARK SMILES Oc1ccc2[nH]ccc2c1
REMARK SMILES IDX 3 1 4 2 5 3 9 4 8 5 7 6 6 7 10 8 2 9 1 11
REMARK H PARENT 6 10 1 12
REMARK Flexibility Score: inf
ROOT
ATOM      1  C   UNL     1      45.941  50.483  32.155  1.00  0.00     0.048 A 
ATOM      2  C   UNL     1      46.268  49.631  31.083  1.00  0.00     0.030 A 
ATOM      3  C   UNL     1      47.199  50.086  30.152  1.00  0.00     0.046 A 
ATOM      4  C   UNL     1      47.786  51.318  30.263  1.00  0.00     0.003 A 
ATOM      5  C   UNL     1      48.647  51.462  29.197  1.00  0.00     0.028 A 
ATOM      6  C   UNL     1      48.535  50.276  28.476  1.00  0.00     0.083 A 
ATOM      7  N   UNL     1      47.649  49.439  29.064  1.00  0.00    -0.361 N 
ATOM      8  C   UNL     1      47.486  52.185  31.311  1.00  0.00     0.056 A 
ATOM      9  C   UNL     1      46.547  51.756  32.272  1.00  0.00     0.116 A 
ATOM     10  H   UNL     1      47.374  48.487  28.735  1.00  0.00     0.166 HD
ENDROOT
BRANCH   9  11
ATOM     11  O   UNL     1      46.206  52.580  33.342  1.00  0.00    -0.508 OA
ATOM     12  H   UNL     1      45.265  52.938  33.455  1.00  0.00     0.293 HD
ENDBRANCH   9  11
TORSDOF 1
ENDMDL
MODEL 3
REMARK VINA RESULT:    -5.195      2.766      3.891
REMARK INTER + INTRA:          -5.347
REMARK INTER:                  -5.347
REMARK INTRA:                   0.000
REMARK UNBOUND:                 0.000
REMARK SMILES Oc1ccc2[nH]ccc2c1
REMARK SMILES IDX 3 1 4 2 5 3 9 4 8 5 7 6 6 7 10 8 2 9 1 11
REMARK H PARENT 6 10 1 12
REMARK Flexibility Score: inf
ROOT
ATOM      1  C   UNL     1      48.121  51.157  28.070  1.00  0.00     0.048 A 
ATOM      2  C   UNL     1      48.646  51.603  29.297  1.00  0.00     0.030 A 
ATOM      3  C   UNL     1      47.777  51.694  30.382  1.00  0.00     0.046 A 
ATOM      4  C   UNL     1      46.453  51.365  30.273  1.00  0.00     0.003 A 
ATOM      5  C   UNL     1      45.875  51.562  31.508  1.00  0.00     0.028 A 
ATOM      6  C   UNL     1      46.908  52.014  32.324  1.00  0.00     0.083 A 
ATOM      7  N   UNL     1      48.068  52.093  31.631  1.00  0.00    -0.361 N 
ATOM      8  C   UNL     1      45.900  50.919  29.074  1.00  0.00     0.056 A 
ATOM      9  C   UNL     1      46.753  50.815  27.954  1.00  0.00     0.116 A 
ATOM     10  H   UNL     1      48.996  52.402  31.996  1.00  0.00     0.166 HD
ENDROOT
BRANCH   9  11
ATOM     11  O   UNL     1      46.258  50.376  26.729  1.00  0.00    -0.508 OA
ATOM     12  H   UNL     1      46.430  50.893  25.874  1.00  0.00     0.293 HD
ENDBRANCH   9  11
TORSDOF 1
ENDMDL
MODEL 4
REMARK VINA RESULT:    -5.193      2.806      3.850
REMARK INTER + INTRA:          -5.345
REMARK INTER:                  -5.345
REMARK INTRA:                   0.000
REMARK UNBOUND:                 0.000
REMARK SMILES Oc1ccc2[nH]ccc2c1
REMARK SMILES IDX 3 1 4 2 5 3 9 4 8 5 7 6 6 7 10 8 2 9 1 11
REMARK H PARENT 6 10 1 12
REMARK Flexibility Score: inf
ROOT
ATOM      1  C   UNL     1      48.551  50.802  28.502  1.00  0.00     0.048 A 
ATOM      2  C   UNL     1      48.621  51.749  29.541  1.00  0.00     0.030 A 
ATOM      3  C   UNL     1      47.741  51.605  30.612  1.00  0.00     0.046 A 
ATOM      4  C   UNL     1      46.833  50.582  30.665  1.00  0.00     0.003 A 
ATOM      5  C   UNL     1      46.122  50.722  31.837  1.00  0.00     0.028 A 
ATOM      6  C   UNL     1      46.651  51.853  32.450  1.00  0.00     0.083 A 
ATOM      7  N   UNL     1      47.640  52.389  31.698  1.00  0.00    -0.361 N 
ATOM      8  C   UNL     1      46.737  49.628  29.654  1.00  0.00     0.056 A 
ATOM      9  C   UNL     1      47.614  49.744  28.554  1.00  0.00     0.116 A 
ATOM     10  H   UNL     1      48.206  53.238  31.919  1.00  0.00     0.166 HD
ENDROOT
BRANCH   9  11
ATOM     11  O   UNL     1      47.565  48.821  27.513  1.00  0.00    -0.508 OA
ATOM     12  H   UNL     1      47.664  49.109  26.546  1.00  0.00     0.293 HD
ENDBRANCH   9  11
TORSDOF 1
ENDMDL
MODEL 5
REMARK VINA RESULT:    -5.189      1.576      1.746
REMARK INTER + INTRA:          -5.341
REMARK INTER:                  -5.341
REMARK INTRA:                   0.000
REMARK UNBOUND:                 0.000
REMARK SMILES Oc1ccc2[nH]ccc2c1
REMARK SMILES IDX 3 1 4 2 5 3 9 4 8 5 7 6 6 7 10 8 2 9 1 11
REMARK H PARENT 6 10 1 12
REMARK Flexibility Score: inf
ROOT
ATOM      1  C   UNL     1      47.365  51.733  31.321  1.00  0.00     0.048 A 
ATOM      2  C   UNL     1      48.116  52.133  30.200  1.00  0.00     0.030 A 
ATOM      3  C   UNL     1      48.088  51.314  29.073  1.00  0.00     0.046 A 
ATOM      4  C   UNL     1      47.359  50.156  29.042  1.00  0.00     0.003 A 
ATOM      5  C   UNL     1      47.542  49.586  27.801  1.00  0.00     0.028 A 
ATOM      6  C   UNL     1      48.395  50.453  27.125  1.00  0.00     0.083 A 
ATOM      7  N   UNL     1      48.726  51.507  27.907  1.00  0.00    -0.361 N 
ATOM      8  C   UNL     1      46.604  49.731  30.134  1.00  0.00     0.056 A 
ATOM      9  C   UNL     1      46.610  50.537  31.292  1.00  0.00     0.116 A 
ATOM     10  H   UNL     1      49.350  52.305  27.652  1.00  0.00     0.166 HD
ENDROOT
BRANCH   9  11
ATOM     11  O   UNL     1      45.875  50.164  32.415  1.00  0.00    -0.508 OA
ATOM     12  H   UNL     1      44.863  50.118  32.393  1.00  0.00     0.293 HD
ENDBRANCH   9  11
TORSDOF 1
ENDMDL
MODEL 6
REMARK VINA RESULT:    -4.953      2.646      3.906
REMARK INTER + INTRA:          -5.097
REMARK INTER:                  -5.097
REMARK INTRA:                   0.000
REMARK UNBOUND:                 0.000
REMARK SMILES Oc1ccc2[nH]ccc2c1
REMARK SMILES IDX 3 1 4 2 5 3 9 4 8 5 7 6 6 7 10 8 2 9 1 11
REMARK H PARENT 6 10 1 12
REMARK Flexibility Score: inf
ROOT
ATOM      1  C   UNL     1      47.662  49.600  28.156  1.00  0.00     0.048 A 
ATOM      2  C   UNL     1      46.961  49.266  29.330  1.00  0.00     0.030 A 
ATOM      3  C   UNL     1      46.920  50.211  30.353  1.00  0.00     0.046 A 
ATOM      4  C   UNL     1      47.537  51.427  30.235  1.00  0.00     0.003 A 
ATOM      5  C   UNL     1      47.312  52.119  31.406  1.00  0.00     0.028 A 
ATOM      6  C   UNL     1      46.549  51.262  32.193  1.00  0.00     0.083 A 
ATOM      7  N   UNL     1      46.313  50.098  31.546  1.00  0.00    -0.361 N 
ATOM      8  C   UNL     1      48.238  51.790  29.087  1.00  0.00     0.056 A 
ATOM      9  C   UNL     1      48.299  50.856  28.031  1.00  0.00     0.116 A 
ATOM     10  H   UNL     1      45.769  49.281  31.904  1.00  0.00     0.166 HD
ENDROOT
BRANCH   9  11
ATOM     11  O   UNL     1      48.986  51.162  26.858  1.00  0.00    -0.508 OA
ATOM     12  H   UNL     1      49.879  51.641  26.879  1.00  0.00     0.293 HD
ENDBRANCH   9  11
TORSDOF 1
ENDMDL
MODEL 7
REMARK VINA RESULT:    -4.736      1.351      2.088
REMARK INTER + INTRA:          -4.875
REMARK INTER:                  -4.875
REMARK INTRA:                   0.000
REMARK UNBOUND:                 0.000
REMARK SMILES Oc1ccc2[nH]ccc2c1
REMARK SMILES IDX 3 1 4 2 5 3 9 4 8 5 7 6 6 7 10 8 2 9 1 11
REMARK H PARENT 6 10 1 12
REMARK Flexibility Score: inf
ROOT
ATOM      1  C   UNL     1      47.809  51.795  31.217  1.00  0.00     0.048 A 
ATOM      2  C   UNL     1      48.311  50.609  30.650  1.00  0.00     0.030 A 
ATOM      3  C   UNL     1      47.853  50.249  29.384  1.00  0.00     0.046 A 
ATOM      4  C   UNL     1      46.944  51.013  28.703  1.00  0.00     0.003 A 
ATOM      5  C   UNL     1      46.700  50.389  27.499  1.00  0.00     0.028 A 
ATOM      6  C   UNL     1      47.497  49.248  27.513  1.00  0.00     0.083 A 
ATOM      7  N   UNL     1      48.198  49.167  28.667  1.00  0.00    -0.361 N 
ATOM      8  C   UNL     1      46.428  52.193  29.235  1.00  0.00     0.056 A 
ATOM      9  C   UNL     1      46.871  52.587  30.515  1.00  0.00     0.116 A 
ATOM     10  H   UNL     1      48.870  48.415  28.941  1.00  0.00     0.166 HD
ENDROOT
BRANCH   9  11
ATOM     11  O   UNL     1      46.389  53.757  31.099  1.00  0.00    -0.508 OA
ATOM     12  H   UNL     1      46.973  54.326  31.700  1.00  0.00     0.293 HD
ENDBRANCH   9  11
TORSDOF 1
ENDMDL
MODEL 8
REMARK VINA RESULT:    -4.112      1.914      2.448
REMARK INTER + INTRA:          -4.232
REMARK INTER:                  -4.232
REMARK INTRA:                   0.000
REMARK UNBOUND:                 0.000
REMARK SMILES Oc1ccc2[nH]ccc2c1
REMARK SMILES IDX 3 1 4 2 5 3 9 4 8 5 7 6 6 7 10 8 2 9 1 11
REMARK H PARENT 6 10 1 12
REMARK Flexibility Score: inf
ROOT
ATOM      1  C   UNL     1      47.358  51.741  29.253  1.00  0.00     0.048 A 
ATOM      2  C   UNL     1      48.260  51.638  28.178  1.00  0.00     0.030 A 
ATOM      3  C   UNL     1      48.546  50.364  27.690  1.00  0.00     0.046 A 
ATOM      4  C   UNL     1      47.976  49.242  28.227  1.00  0.00     0.003 A 
ATOM      5  C   UNL     1      48.460  48.158  27.528  1.00  0.00     0.028 A 
ATOM      6  C   UNL     1      49.323  48.695  26.577  1.00  0.00     0.083 A 
ATOM      7  N   UNL     1      49.372  50.043  26.681  1.00  0.00    -0.361 N 
ATOM      8  C   UNL     1      47.077  49.309  29.290  1.00  0.00     0.056 A 
ATOM      9  C   UNL     1      46.765  50.583  29.809  1.00  0.00     0.116 A 
ATOM     10  H   UNL     1      49.938  50.696  26.094  1.00  0.00     0.166 HD
ENDROOT
BRANCH   9  11
ATOM     11  O   UNL     1      45.875  50.713  30.873  1.00  0.00    -0.508 OA
ATOM     12  H   UNL     1      46.198  50.731  31.833  1.00  0.00     0.293 HD
ENDBRANCH   9  11
TORSDOF 1
ENDMDL
MODEL 9
REMARK VINA RESULT:    -3.921      3.026      4.246
REMARK INTER + INTRA:          -4.036
REMARK INTER:                  -4.036
REMARK INTRA:                   0.000
REMARK UNBOUND:                 0.000
REMARK SMILES Oc1ccc2[nH]ccc2c1
REMARK SMILES IDX 3 1 4 2 5 3 9 4 8 5 7 6 6 7 10 8 2 9 1 11
REMARK H PARENT 6 10 1 12
REMARK Flexibility Score: inf
ROOT
ATOM      1  C   UNL     1      49.210  50.143  25.973  1.00  0.00     0.048 A 
ATOM      2  C   UNL     1      48.141  51.032  26.192  1.00  0.00     0.030 A 
ATOM      3  C   UNL     1      47.360  50.841  27.330  1.00  0.00     0.046 A 
ATOM      4  C   UNL     1      47.612  49.827  28.215  1.00  0.00     0.003 A 
ATOM      5  C   UNL     1      46.672  49.912  29.219  1.00  0.00     0.028 A 
ATOM      6  C   UNL     1      45.877  51.003  28.880  1.00  0.00     0.083 A 
ATOM      7  N   UNL     1      46.301  51.566  27.726  1.00  0.00    -0.361 N 
ATOM      8  C   UNL     1      48.663  48.931  28.028  1.00  0.00     0.056 A 
ATOM      9  C   UNL     1      49.474  49.096  26.886  1.00  0.00     0.116 A 
ATOM     10  H   UNL     1      45.887  52.396  27.245  1.00  0.00     0.166 HD
ENDROOT
BRANCH   9  11
ATOM     11  O   UNL     1      50.538  48.230  26.645  1.00  0.00    -0.508 OA
ATOM     12  H   UNL     1      50.387  47.244  26.466  1.00  0.00     0.293 HD
ENDBRANCH   9  11
TORSDOF 1
ENDMDL
