MODEL 1
REMARK VINA RESULT:    -6.467      0.000      0.000
REMARK INTER + INTRA:         -10.309
REMARK INTER:                  -9.113
REMARK INTRA:                  -1.196
REMARK UNBOUND:                -1.196
REMARK SMILES OC[C@@H]1O[C@@H](O[C@@H]2OC=C[C@H]3[C@@H](O)[C@@H]4O[C@]4(CO)[C@@H]23)[C@@H](O)[C@@H](O)[C@H]1O
REMARK SMILES IDX 6 1 7 2 10 3 9 4 11 5 8 6 19 7 12 8 16 9 14 10 15 11 13 12
REMARK SMILES IDX 17 14 18 15 5 17 20 18 4 19 22 20 3 21 24 22 21 23 23 25
REMARK SMILES IDX 2 27 1 28 25 30
REMARK H PARENT 13 13 18 16 21 24 23 26 1 29 25 31
REMARK Flexibility Score: inf
ROOT
ATOM      1  O   UNL     1      24.713 -25.446  26.863  1.00  0.00    -0.310 OA
ENDROOT
BRANCH   1   2
ATOM      2  C   UNL     1      24.698 -26.358  27.977  1.00  0.00     0.315 C 
ATOM      3  C   UNL     1      23.500 -24.386  29.602  1.00  0.00     0.018 C 
ATOM      4  C   UNL     1      22.746 -25.436  29.228  1.00  0.00     0.186 C 
ATOM      5  C   UNL     1      24.984 -24.559  29.809  1.00  0.00     0.059 C 
ATOM      6  O   UNL     1      23.356 -26.478  28.502  1.00  0.00    -0.472 OA
ATOM      7  C   UNL     1      25.611 -25.821  29.112  1.00  0.00     0.105 C 
ATOM      8  C   UNL     1      25.356 -24.705  31.321  1.00  0.00     0.154 C 
ATOM      9  C   UNL     1      25.832 -26.819  30.260  1.00  0.00     0.130 C 
ATOM     10  C   UNL     1      25.695 -26.154  31.568  1.00  0.00     0.183 C 
ATOM     11  O   UNL     1      26.978 -26.546  31.060  1.00  0.00    -0.360 OA
BRANCH   8  12
ATOM     12  O   UNL     1      24.374 -24.254  32.250  1.00  0.00    -0.390 OA
ATOM     13  H   UNL     1      24.838 -23.791  32.953  1.00  0.00     0.211 HD
ENDBRANCH   8  12
BRANCH   9  14
ATOM     14  C   UNL     1      25.349 -28.299  30.312  1.00  0.00     0.195 C 
BRANCH  14  15
ATOM     15  O   UNL     1      26.056 -29.172  29.490  1.00  0.00    -0.393 OA
ATOM     16  H   UNL     1      26.419 -29.907  30.063  1.00  0.00     0.210 HD
ENDBRANCH  14  15
ENDBRANCH   9  14
ENDBRANCH   1   2
BRANCH   1  17
ATOM     17  C   UNL     1      24.338 -26.094  25.626  1.00  0.00     0.286 C 
ATOM     18  C   UNL     1      22.945 -25.736  25.123  1.00  0.00     0.202 C 
ATOM     19  O   UNL     1      25.260 -25.754  24.553  1.00  0.00    -0.341 OA
ATOM     20  C   UNL     1      22.786 -24.192  25.001  1.00  0.00     0.179 C 
ATOM     21  C   UNL     1      25.096 -24.463  23.958  1.00  0.00     0.178 C 
ATOM     22  C   UNL     1      24.182 -23.498  24.702  1.00  0.00     0.177 C 
BRANCH  18  23
ATOM     23  O   UNL     1      21.916 -26.360  25.864  1.00  0.00    -0.385 OA
ATOM     24  H   UNL     1      21.812 -27.300  25.478  1.00  0.00     0.211 HD
ENDBRANCH  18  23
BRANCH  20  25
ATOM     25  O   UNL     1      22.146 -23.602  26.104  1.00  0.00    -0.387 OA
ATOM     26  H   UNL     1      21.870 -24.319  26.717  1.00  0.00     0.211 HD
ENDBRANCH  20  25
BRANCH  21  27
ATOM     27  C   UNL     1      24.732 -24.595  22.457  1.00  0.00     0.191 C 
BRANCH  27  28
ATOM     28  O   UNL     1      24.529 -25.933  22.015  1.00  0.00    -0.394 OA
ATOM     29  H   UNL     1      25.088 -25.975  21.174  1.00  0.00     0.210 HD
ENDBRANCH  27  28
ENDBRANCH  21  27
BRANCH  22  30
ATOM     30  O   UNL     1      24.789 -23.138  25.930  1.00  0.00    -0.387 OA
ATOM     31  H   UNL     1      25.775 -23.222  25.835  1.00  0.00     0.211 HD
ENDBRANCH  22  30
ENDBRANCH   1  17
TORSDOF 10
ENDMDL
MODEL 2
REMARK VINA RESULT:    -6.452      3.688      6.578
REMARK INTER + INTRA:         -10.289
REMARK INTER:                  -9.184
REMARK INTRA:                  -1.105
REMARK UNBOUND:                -1.196
REMARK SMILES OC[C@@H]1O[C@@H](O[C@@H]2OC=C[C@H]3[C@@H](O)[C@@H]4O[C@]4(CO)[C@@H]23)[C@@H](O)[C@@H](O)[C@H]1O
REMARK SMILES IDX 6 1 7 2 10 3 9 4 11 5 8 6 19 7 12 8 16 9 14 10 15 11 13 12
REMARK SMILES IDX 17 14 18 15 5 17 20 18 4 19 22 20 3 21 24 22 21 23 23 25
REMARK SMILES IDX 2 27 1 28 25 30
REMARK H PARENT 13 13 18 16 21 24 23 26 1 29 25 31
REMARK Flexibility Score: inf
ROOT
ATOM      1  O   UNL     1      24.044 -21.331  27.407  1.00  0.00    -0.310 OA
ENDROOT
BRANCH   1   2
ATOM      2  C   UNL     1      24.322 -21.937  26.132  1.00  0.00     0.315 C 
ATOM      3  C   UNL     1      22.416 -23.952  26.649  1.00  0.00     0.018 C 
ATOM      4  C   UNL     1      22.119 -23.030  25.714  1.00  0.00     0.186 C 
ATOM      5  C   UNL     1      23.849 -24.366  26.872  1.00  0.00     0.059 C 
ATOM      6  O   UNL     1      23.099 -22.079  25.372  1.00  0.00    -0.472 OA
ATOM      7  C   UNL     1      24.926 -23.352  26.339  1.00  0.00     0.105 C 
ATOM      8  C   UNL     1      24.187 -25.721  26.169  1.00  0.00     0.154 C 
ATOM      9  C   UNL     1      25.453 -24.000  25.049  1.00  0.00     0.130 C 
ATOM     10  C   UNL     1      25.028 -25.408  24.957  1.00  0.00     0.183 C 
ATOM     11  O   UNL     1      26.383 -25.056  25.263  1.00  0.00    -0.360 OA
BRANCH   8  12
ATOM     12  O   UNL     1      23.071 -26.532  25.811  1.00  0.00    -0.390 OA
ATOM     13  H   UNL     1      23.418 -27.335  25.411  1.00  0.00     0.211 HD
ENDBRANCH   8  12
BRANCH   9  14
ATOM     14  C   UNL     1      25.550 -23.333  23.645  1.00  0.00     0.195 C 
BRANCH  14  15
ATOM     15  O   UNL     1      24.338 -23.216  22.970  1.00  0.00    -0.393 OA
ATOM     16  H   UNL     1      23.695 -22.745  23.575  1.00  0.00     0.210 HD
ENDBRANCH  14  15
ENDBRANCH   9  14
ENDBRANCH   1   2
BRANCH   1  17
ATOM     17  C   UNL     1      24.512 -19.964  27.474  1.00  0.00     0.286 C 
ATOM     18  C   UNL     1      23.596 -18.949  26.802  1.00  0.00     0.202 C 
ATOM     19  O   UNL     1      24.668 -19.527  28.852  1.00  0.00    -0.341 OA
ATOM     20  C   UNL     1      22.150 -19.058  27.368  1.00  0.00     0.179 C 
ATOM     21  C   UNL     1      23.466 -19.176  29.547  1.00  0.00     0.178 C 
ATOM     22  C   UNL     1      22.163 -19.576  28.868  1.00  0.00     0.177 C 
BRANCH  18  23
ATOM     23  O   UNL     1      23.663 -18.997  25.391  1.00  0.00    -0.385 OA
ATOM     24  H   UNL     1      23.231 -18.136  25.052  1.00  0.00     0.211 HD
ENDBRANCH  18  23
BRANCH  20  25
ATOM     25  O   UNL     1      21.287 -19.827  26.568  1.00  0.00    -0.387 OA
ATOM     26  H   UNL     1      21.593 -19.758  25.636  1.00  0.00     0.211 HD
ENDBRANCH  20  25
BRANCH  21  27
ATOM     27  C   UNL     1      23.491 -17.683  29.963  1.00  0.00     0.191 C 
BRANCH  27  28
ATOM     28  O   UNL     1      24.681 -16.991  29.603  1.00  0.00    -0.394 OA
ATOM     29  H   UNL     1      24.966 -17.467  28.758  1.00  0.00     0.210 HD
ENDBRANCH  27  28
ENDBRANCH  21  27
BRANCH  22  30
ATOM     30  O   UNL     1      22.056 -20.989  28.868  1.00  0.00    -0.387 OA
ATOM     31  H   UNL     1      21.193 -21.244  28.446  1.00  0.00     0.211 HD
ENDBRANCH  22  30
ENDBRANCH   1  17
TORSDOF 10
ENDMDL
MODEL 3
REMARK VINA RESULT:    -6.424      1.674      6.508
REMARK INTER + INTRA:         -10.248
REMARK INTER:                  -9.512
REMARK INTRA:                  -0.737
REMARK UNBOUND:                -1.196
REMARK SMILES OC[C@@H]1O[C@@H](O[C@@H]2OC=C[C@H]3[C@@H](O)[C@@H]4O[C@]4(CO)[C@@H]23)[C@@H](O)[C@@H](O)[C@H]1O
REMARK SMILES IDX 6 1 7 2 10 3 9 4 11 5 8 6 19 7 12 8 16 9 14 10 15 11 13 12
REMARK SMILES IDX 17 14 18 15 5 17 20 18 4 19 22 20 3 21 24 22 21 23 23 25
REMARK SMILES IDX 2 27 1 28 25 30
REMARK H PARENT 13 13 18 16 21 24 23 26 1 29 25 31
REMARK Flexibility Score: inf
ROOT
ATOM      1  O   UNL     1      24.619 -25.407  27.512  1.00  0.00    -0.310 OA
ENDROOT
BRANCH   1   2
ATOM      2  C   UNL     1      24.356 -24.378  26.541  1.00  0.00     0.315 C 
ATOM      3  C   UNL     1      23.608 -26.329  24.644  1.00  0.00     0.018 C 
ATOM      4  C   UNL     1      22.639 -25.552  25.163  1.00  0.00     0.186 C 
ATOM      5  C   UNL     1      25.002 -25.781  24.471  1.00  0.00     0.059 C 
ATOM      6  O   UNL     1      23.007 -24.508  26.034  1.00  0.00    -0.472 OA
ATOM      7  C   UNL     1      25.335 -24.517  25.344  1.00  0.00     0.105 C 
ATOM      8  C   UNL     1      25.282 -25.339  22.997  1.00  0.00     0.154 C 
ATOM      9  C   UNL     1      25.278 -23.344  24.353  1.00  0.00     0.130 C 
ATOM     10  C   UNL     1      25.263 -23.831  22.962  1.00  0.00     0.183 C 
ATOM     11  O   UNL     1      26.431 -23.221  23.526  1.00  0.00    -0.360 OA
BRANCH   8  12
ATOM     12  O   UNL     1      24.407 -25.876  22.009  1.00  0.00    -0.390 OA
ATOM     13  H   UNL     1      24.484 -26.834  22.049  1.00  0.00     0.211 HD
ENDBRANCH   8  12
BRANCH   9  14
ATOM     14  C   UNL     1      24.459 -22.029  24.513  1.00  0.00     0.195 C 
BRANCH  14  15
ATOM     15  O   UNL     1      25.227 -20.876  24.642  1.00  0.00    -0.393 OA
ATOM     16  H   UNL     1      24.838 -20.330  25.385  1.00  0.00     0.210 HD
ENDBRANCH  14  15
ENDBRANCH   9  14
ENDBRANCH   1   2
BRANCH   1  17
ATOM     17  C   UNL     1      25.821 -25.144  28.272  1.00  0.00     0.286 C 
ATOM     18  C   UNL     1      25.604 -25.027  29.775  1.00  0.00     0.202 C 
ATOM     19  O   UNL     1      26.806 -26.197  28.081  1.00  0.00    -0.341 OA
ATOM     20  C   UNL     1      24.877 -26.288  30.324  1.00  0.00     0.179 C 
ATOM     21  C   UNL     1      26.585 -27.413  28.803  1.00  0.00     0.178 C 
ATOM     22  C   UNL     1      25.212 -27.566  29.445  1.00  0.00     0.177 C 
BRANCH  18  23
ATOM     23  O   UNL     1      24.994 -23.807  30.149  1.00  0.00    -0.385 OA
ATOM     24  H   UNL     1      24.344 -23.567  29.398  1.00  0.00     0.211 HD
ENDBRANCH  18  23
BRANCH  20  25
ATOM     25  O   UNL     1      23.490 -26.120  30.475  1.00  0.00    -0.387 OA
ATOM     26  H   UNL     1      23.071 -26.230  29.593  1.00  0.00     0.211 HD
ENDBRANCH  20  25
BRANCH  21  27
ATOM     27  C   UNL     1      27.744 -27.677  29.799  1.00  0.00     0.191 C 
BRANCH  27  28
ATOM     28  O   UNL     1      28.118 -29.045  29.919  1.00  0.00    -0.394 OA
ATOM     29  H   UNL     1      27.976 -29.396  28.982  1.00  0.00     0.210 HD
ENDBRANCH  27  28
ENDBRANCH  21  27
BRANCH  22  30
ATOM     30  O   UNL     1      24.236 -27.692  28.426  1.00  0.00    -0.387 OA
ATOM     31  H   UNL     1      24.698 -27.812  27.554  1.00  0.00     0.211 HD
ENDBRANCH  22  30
ENDBRANCH   1  17
TORSDOF 10
ENDMDL
MODEL 4
REMARK VINA RESULT:    -6.225      1.645      3.729
REMARK INTER + INTRA:          -9.968
REMARK INTER:                  -9.192
REMARK INTRA:                  -0.776
REMARK UNBOUND:                -1.196
REMARK SMILES OC[C@@H]1O[C@@H](O[C@@H]2OC=C[C@H]3[C@@H](O)[C@@H]4O[C@]4(CO)[C@@H]23)[C@@H](O)[C@@H](O)[C@H]1O
REMARK SMILES IDX 6 1 7 2 10 3 9 4 11 5 8 6 19 7 12 8 16 9 14 10 15 11 13 12
REMARK SMILES IDX 17 14 18 15 5 17 20 18 4 19 22 20 3 21 24 22 21 23 23 25
REMARK SMILES IDX 2 27 1 28 25 30
REMARK H PARENT 13 13 18 16 21 24 23 26 1 29 25 31
REMARK Flexibility Score: inf
ROOT
ATOM      1  O   UNL     1      24.282 -25.990  27.520  1.00  0.00    -0.310 OA
ENDROOT
BRANCH   1   2
ATOM      2  C   UNL     1      24.791 -25.950  28.865  1.00  0.00     0.315 C 
ATOM      3  C   UNL     1      27.133 -27.292  28.043  1.00  0.00     0.018 C 
ATOM      4  C   UNL     1      27.237 -25.992  28.375  1.00  0.00     0.186 C 
ATOM      5  C   UNL     1      26.111 -28.165  28.728  1.00  0.00     0.059 C 
ATOM      6  O   UNL     1      26.100 -25.334  28.883  1.00  0.00    -0.472 OA
ATOM      7  C   UNL     1      24.931 -27.392  29.421  1.00  0.00     0.105 C 
ATOM      8  C   UNL     1      26.745 -29.038  29.861  1.00  0.00     0.154 C 
ATOM      9  C   UNL     1      25.266 -27.453  30.920  1.00  0.00     0.130 C 
ATOM     10  C   UNL     1      26.329 -28.439  31.181  1.00  0.00     0.183 C 
ATOM     11  O   UNL     1      24.965 -28.701  31.536  1.00  0.00    -0.360 OA
BRANCH   8  12
ATOM     12  O   UNL     1      28.159 -29.199  29.804  1.00  0.00    -0.390 OA
ATOM     13  H   UNL     1      28.344 -29.871  29.141  1.00  0.00     0.211 HD
ENDBRANCH   8  12
BRANCH   9  14
ATOM     14  C   UNL     1      25.339 -26.251  31.907  1.00  0.00     0.195 C 
BRANCH  14  15
ATOM     15  O   UNL     1      24.132 -25.922  32.516  1.00  0.00    -0.393 OA
ATOM     16  H   UNL     1      24.074 -24.924  32.564  1.00  0.00     0.210 HD
ENDBRANCH  14  15
ENDBRANCH   9  14
ENDBRANCH   1   2
BRANCH   1  17
ATOM     17  C   UNL     1      24.471 -24.734  26.829  1.00  0.00     0.286 C 
ATOM     18  C   UNL     1      24.712 -24.867  25.331  1.00  0.00     0.202 C 
ATOM     19  O   UNL     1      23.312 -23.868  26.981  1.00  0.00    -0.341 OA
ATOM     20  C   UNL     1      23.573 -25.690  24.664  1.00  0.00     0.179 C 
ATOM     21  C   UNL     1      22.176 -24.177  26.165  1.00  0.00     0.178 C 
ATOM     22  C   UNL     1      22.210 -25.526  25.460  1.00  0.00     0.177 C 
BRANCH  18  23
ATOM     23  O   UNL     1      26.011 -25.333  25.023  1.00  0.00    -0.385 OA
ATOM     24  H   UNL     1      25.896 -26.069  24.324  1.00  0.00     0.211 HD
ENDBRANCH  18  23
BRANCH  20  25
ATOM     25  O   UNL     1      23.893 -27.045  24.470  1.00  0.00    -0.387 OA
ATOM     26  H   UNL     1      23.058 -27.536  24.308  1.00  0.00     0.211 HD
ENDBRANCH  20  25
BRANCH  21  27
ATOM     27  C   UNL     1      21.863 -23.005  25.200  1.00  0.00     0.191 C 
BRANCH  27  28
ATOM     28  O   UNL     1      21.664 -21.750  25.841  1.00  0.00    -0.394 OA
ATOM     29  H   UNL     1      20.804 -21.897  26.352  1.00  0.00     0.210 HD
ENDBRANCH  27  28
ENDBRANCH  21  27
BRANCH  22  30
ATOM     30  O   UNL     1      22.116 -26.557  26.428  1.00  0.00    -0.387 OA
ATOM     31  H   UNL     1      21.157 -26.725  26.624  1.00  0.00     0.211 HD
ENDBRANCH  22  30
ENDBRANCH   1  17
TORSDOF 10
ENDMDL
MODEL 5
REMARK VINA RESULT:    -6.172      4.166      6.495
REMARK INTER + INTRA:          -9.894
REMARK INTER:                  -8.823
REMARK INTRA:                  -1.071
REMARK UNBOUND:                -1.196
REMARK SMILES OC[C@@H]1O[C@@H](O[C@@H]2OC=C[C@H]3[C@@H](O)[C@@H]4O[C@]4(CO)[C@@H]23)[C@@H](O)[C@@H](O)[C@H]1O
REMARK SMILES IDX 6 1 7 2 10 3 9 4 11 5 8 6 19 7 12 8 16 9 14 10 15 11 13 12
REMARK SMILES IDX 17 14 18 15 5 17 20 18 4 19 22 20 3 21 24 22 21 23 23 25
REMARK SMILES IDX 2 27 1 28 25 30
REMARK H PARENT 13 13 18 16 21 24 23 26 1 29 25 31
REMARK Flexibility Score: inf
ROOT
ATOM      1  O   UNL     1      23.861 -21.305  25.776  1.00  0.00    -0.310 OA
ENDROOT
BRANCH   1   2
ATOM      2  C   UNL     1      24.116 -20.061  26.452  1.00  0.00     0.315 C 
ATOM      3  C   UNL     1      22.435 -20.846  28.578  1.00  0.00     0.018 C 
ATOM      4  C   UNL     1      23.760 -20.800  28.808  1.00  0.00     0.186 C 
ATOM      5  C   UNL     1      21.806 -19.890  27.595  1.00  0.00     0.059 C 
ATOM      6  O   UNL     1      24.603 -20.314  27.790  1.00  0.00    -0.472 OA
ATOM      7  C   UNL     1      22.802 -19.242  26.566  1.00  0.00     0.105 C 
ATOM      8  C   UNL     1      21.117 -18.680  28.309  1.00  0.00     0.154 C 
ATOM      9  C   UNL     1      23.004 -17.808  27.083  1.00  0.00     0.130 C 
ATOM     10  C   UNL     1      21.996 -17.471  28.103  1.00  0.00     0.183 C 
ATOM     11  O   UNL     1      21.930 -16.922  26.781  1.00  0.00    -0.360 OA
BRANCH   8  12
ATOM     12  O   UNL     1      20.822 -18.859  29.691  1.00  0.00    -0.390 OA
ATOM     13  H   UNL     1      21.647 -18.753  30.175  1.00  0.00     0.211 HD
ENDBRANCH   8  12
BRANCH   9  14
ATOM     14  C   UNL     1      24.363 -17.101  27.358  1.00  0.00     0.195 C 
BRANCH  14  15
ATOM     15  O   UNL     1      25.021 -17.529  28.508  1.00  0.00    -0.393 OA
ATOM     16  H   UNL     1      25.394 -16.722  28.966  1.00  0.00     0.210 HD
ENDBRANCH  14  15
ENDBRANCH   9  14
ENDBRANCH   1   2
BRANCH   1  17
ATOM     17  C   UNL     1      25.062 -21.869  25.202  1.00  0.00     0.286 C 
ATOM     18  C   UNL     1      25.651 -23.033  25.988  1.00  0.00     0.202 C 
ATOM     19  O   UNL     1      24.821 -22.364  23.855  1.00  0.00    -0.341 OA
ATOM     20  C   UNL     1      24.582 -24.141  26.210  1.00  0.00     0.179 C 
ATOM     21  C   UNL     1      24.149 -23.625  23.752  1.00  0.00     0.178 C 
ATOM     22  C   UNL     1      23.516 -24.148  25.034  1.00  0.00     0.177 C 
BRANCH  18  23
ATOM     23  O   UNL     1      26.304 -22.622  27.172  1.00  0.00    -0.385 OA
ATOM     24  H   UNL     1      26.000 -21.663  27.352  1.00  0.00     0.211 HD
ENDBRANCH  18  23
BRANCH  20  25
ATOM     25  O   UNL     1      23.957 -24.079  27.468  1.00  0.00    -0.387 OA
ATOM     26  H   UNL     1      23.042 -23.746  27.337  1.00  0.00     0.211 HD
ENDBRANCH  20  25
BRANCH  21  27
ATOM     27  C   UNL     1      25.059 -24.673  23.062  1.00  0.00     0.191 C 
BRANCH  27  28
ATOM     28  O   UNL     1      24.430 -25.396  22.008  1.00  0.00    -0.394 OA
ATOM     29  H   UNL     1      25.217 -25.805  21.522  1.00  0.00     0.210 HD
ENDBRANCH  27  28
ENDBRANCH  21  27
BRANCH  22  30
ATOM     30  O   UNL     1      22.432 -23.309  25.391  1.00  0.00    -0.387 OA
ATOM     31  H   UNL     1      21.785 -23.284  24.638  1.00  0.00     0.211 HD
ENDBRANCH  22  30
ENDBRANCH   1  17
TORSDOF 10
ENDMDL
MODEL 6
REMARK VINA RESULT:    -6.164      2.984      5.385
REMARK INTER + INTRA:          -9.882
REMARK INTER:                  -9.090
REMARK INTRA:                  -0.792
REMARK UNBOUND:                -1.196
REMARK SMILES OC[C@@H]1O[C@@H](O[C@@H]2OC=C[C@H]3[C@@H](O)[C@@H]4O[C@]4(CO)[C@@H]23)[C@@H](O)[C@@H](O)[C@H]1O
REMARK SMILES IDX 6 1 7 2 10 3 9 4 11 5 8 6 19 7 12 8 16 9 14 10 15 11 13 12
REMARK SMILES IDX 17 14 18 15 5 17 20 18 4 19 22 20 3 21 24 22 21 23 23 25
REMARK SMILES IDX 2 27 1 28 25 30
REMARK H PARENT 13 13 18 16 21 24 23 26 1 29 25 31
REMARK Flexibility Score: inf
ROOT
ATOM      1  O   UNL     1      24.137 -23.382  26.613  1.00  0.00    -0.310 OA
ENDROOT
BRANCH   1   2
ATOM      2  C   UNL     1      24.211 -21.945  26.637  1.00  0.00     0.315 C 
ATOM      3  C   UNL     1      24.030 -21.961  29.453  1.00  0.00     0.018 C 
ATOM      4  C   UNL     1      25.212 -21.629  28.901  1.00  0.00     0.186 C 
ATOM      5  C   UNL     1      22.744 -21.628  28.739  1.00  0.00     0.059 C 
ATOM      6  O   UNL     1      25.292 -21.518  27.499  1.00  0.00    -0.472 OA
ATOM      7  C   UNL     1      22.889 -21.357  27.197  1.00  0.00     0.105 C 
ATOM      8  C   UNL     1      22.066 -20.342  29.315  1.00  0.00     0.154 C 
ATOM      9  C   UNL     1      22.783 -19.828  27.069  1.00  0.00     0.130 C 
ATOM     10  C   UNL     1      22.280 -19.230  28.318  1.00  0.00     0.183 C 
ATOM     11  O   UNL     1      21.452 -19.326  27.152  1.00  0.00    -0.360 OA
BRANCH   8  12
ATOM     12  O   UNL     1      22.492 -19.942  30.614  1.00  0.00    -0.390 OA
ATOM     13  H   UNL     1      21.710 -19.662  31.098  1.00  0.00     0.211 HD
ENDBRANCH   8  12
BRANCH   9  14
ATOM     14  C   UNL     1      23.782 -18.884  26.338  1.00  0.00     0.195 C 
BRANCH  14  15
ATOM     15  O   UNL     1      23.818 -19.032  24.954  1.00  0.00    -0.393 OA
ATOM     16  H   UNL     1      23.006 -18.585  24.577  1.00  0.00     0.210 HD
ENDBRANCH  14  15
ENDBRANCH   9  14
ENDBRANCH   1   2
BRANCH   1  17
ATOM     17  C   UNL     1      25.266 -23.973  25.930  1.00  0.00     0.286 C 
ATOM     18  C   UNL     1      25.410 -25.476  26.134  1.00  0.00     0.202 C 
ATOM     19  O   UNL     1      25.183 -23.762  24.493  1.00  0.00    -0.341 OA
ATOM     20  C   UNL     1      24.094 -26.211  25.748  1.00  0.00     0.179 C 
ATOM     21  C   UNL     1      24.274 -24.605  23.777  1.00  0.00     0.178 C 
ATOM     22  C   UNL     1      23.303 -25.411  24.629  1.00  0.00     0.177 C 
BRANCH  18  23
ATOM     23  O   UNL     1      25.898 -25.812  27.417  1.00  0.00    -0.385 OA
ATOM     24  H   UNL     1      26.000 -26.828  27.431  1.00  0.00     0.211 HD
ENDBRANCH  18  23
BRANCH  20  25
ATOM     25  O   UNL     1      23.269 -26.505  26.847  1.00  0.00    -0.387 OA
ATOM     26  H   UNL     1      22.351 -26.235  26.621  1.00  0.00     0.211 HD
ENDBRANCH  20  25
BRANCH  21  27
ATOM     27  C   UNL     1      25.036 -25.479  22.748  1.00  0.00     0.191 C 
BRANCH  27  28
ATOM     28  O   UNL     1      24.272 -26.551  22.206  1.00  0.00    -0.394 OA
ATOM     29  H   UNL     1      24.602 -27.347  22.735  1.00  0.00     0.210 HD
ENDBRANCH  27  28
ENDBRANCH  21  27
BRANCH  22  30
ATOM     30  O   UNL     1      22.391 -24.525  25.254  1.00  0.00    -0.387 OA
ATOM     31  H   UNL     1      22.867 -24.029  25.971  1.00  0.00     0.211 HD
ENDBRANCH  22  30
ENDBRANCH   1  17
TORSDOF 10
ENDMDL
MODEL 7
REMARK VINA RESULT:    -6.079      3.708      6.747
REMARK INTER + INTRA:          -9.763
REMARK INTER:                  -8.706
REMARK INTRA:                  -1.056
REMARK UNBOUND:                -1.196
REMARK SMILES OC[C@@H]1O[C@@H](O[C@@H]2OC=C[C@H]3[C@@H](O)[C@@H]4O[C@]4(CO)[C@@H]23)[C@@H](O)[C@@H](O)[C@H]1O
REMARK SMILES IDX 6 1 7 2 10 3 9 4 11 5 8 6 19 7 12 8 16 9 14 10 15 11 13 12
REMARK SMILES IDX 17 14 18 15 5 17 20 18 4 19 22 20 3 21 24 22 21 23 23 25
REMARK SMILES IDX 2 27 1 28 25 30
REMARK H PARENT 13 13 18 16 21 24 23 26 1 29 25 31
REMARK Flexibility Score: inf
ROOT
ATOM      1  O   UNL     1      22.712 -21.659  27.613  1.00  0.00    -0.310 OA
ENDROOT
BRANCH   1   2
ATOM      2  C   UNL     1      23.375 -22.925  27.454  1.00  0.00     0.315 C 
ATOM      3  C   UNL     1      24.480 -22.065  25.004  1.00  0.00     0.018 C 
ATOM      4  C   UNL     1      25.310 -22.197  26.056  1.00  0.00     0.186 C 
ATOM      5  C   UNL     1      23.279 -22.967  24.873  1.00  0.00     0.059 C 
ATOM      6  O   UNL     1      24.794 -22.721  27.257  1.00  0.00    -0.472 OA
ATOM      7  C   UNL     1      22.819 -23.662  26.206  1.00  0.00     0.105 C 
ATOM      8  C   UNL     1      23.529 -24.140  23.870  1.00  0.00     0.154 C 
ATOM      9  C   UNL     1      23.310 -25.112  26.067  1.00  0.00     0.130 C 
ATOM     10  C   UNL     1      23.715 -25.399  24.680  1.00  0.00     0.183 C 
ATOM     11  O   UNL     1      22.498 -25.925  25.225  1.00  0.00    -0.360 OA
BRANCH   8  12
ATOM     12  O   UNL     1      24.612 -23.962  22.961  1.00  0.00    -0.390 OA
ATOM     13  H   UNL     1      25.406 -23.825  23.487  1.00  0.00     0.211 HD
ENDBRANCH   8  12
BRANCH   9  14
ATOM     14  C   UNL     1      24.168 -25.907  27.096  1.00  0.00     0.195 C 
BRANCH  14  15
ATOM     15  O   UNL     1      23.473 -26.882  27.805  1.00  0.00    -0.393 OA
ATOM     16  H   UNL     1      23.556 -26.670  28.779  1.00  0.00     0.210 HD
ENDBRANCH  14  15
ENDBRANCH   9  14
ENDBRANCH   1   2
BRANCH   1  17
ATOM     17  C   UNL     1      22.922 -21.095  28.927  1.00  0.00     0.286 C 
ATOM     18  C   UNL     1      23.790 -19.844  28.946  1.00  0.00     0.202 C 
ATOM     19  O   UNL     1      21.660 -20.727  29.551  1.00  0.00    -0.341 OA
ATOM     20  C   UNL     1      23.222 -18.767  27.977  1.00  0.00     0.179 C 
ATOM     21  C   UNL     1      21.057 -19.510  29.097  1.00  0.00     0.178 C 
ATOM     22  C   UNL     1      21.648 -18.907  27.830  1.00  0.00     0.177 C 
BRANCH  18  23
ATOM     23  O   UNL     1      25.162 -20.124  28.750  1.00  0.00    -0.385 OA
ATOM     24  H   UNL     1      25.637 -19.861  29.616  1.00  0.00     0.211 HD
ENDBRANCH  18  23
BRANCH  20  25
ATOM     25  O   UNL     1      23.854 -18.749  26.721  1.00  0.00    -0.387 OA
ATOM     26  H   UNL     1      23.503 -17.984  26.214  1.00  0.00     0.211 HD
ENDBRANCH  20  25
BRANCH  21  27
ATOM     27  C   UNL     1      20.954 -18.486  30.257  1.00  0.00     0.191 C 
BRANCH  27  28
ATOM     28  O   UNL     1      20.129 -17.361  29.977  1.00  0.00    -0.394 OA
ATOM     29  H   UNL     1      20.576 -16.955  29.165  1.00  0.00     0.210 HD
ENDBRANCH  27  28
ENDBRANCH  21  27
BRANCH  22  30
ATOM     30  O   UNL     1      21.362 -19.758  26.735  1.00  0.00    -0.387 OA
ATOM     31  H   UNL     1      22.000 -20.520  26.746  1.00  0.00     0.211 HD
ENDBRANCH  22  30
ENDBRANCH   1  17
TORSDOF 10
ENDMDL
MODEL 8
REMARK VINA RESULT:    -6.017      2.245      7.089
REMARK INTER + INTRA:          -9.675
REMARK INTER:                  -8.681
REMARK INTRA:                  -0.994
REMARK UNBOUND:                -1.196
REMARK SMILES OC[C@@H]1O[C@@H](O[C@@H]2OC=C[C@H]3[C@@H](O)[C@@H]4O[C@]4(CO)[C@@H]23)[C@@H](O)[C@@H](O)[C@H]1O
REMARK SMILES IDX 6 1 7 2 10 3 9 4 11 5 8 6 19 7 12 8 16 9 14 10 15 11 13 12
REMARK SMILES IDX 17 14 18 15 5 17 20 18 4 19 22 20 3 21 24 22 21 23 23 25
REMARK SMILES IDX 2 27 1 28 25 30
REMARK H PARENT 13 13 18 16 21 24 23 26 1 29 25 31
REMARK Flexibility Score: inf
ROOT
ATOM      1  O   UNL     1      26.531 -26.344  30.747  1.00  0.00    -0.310 OA
ENDROOT
BRANCH   1   2
ATOM      2  C   UNL     1      25.306 -25.931  30.115  1.00  0.00     0.315 C 
ATOM      3  C   UNL     1      26.226 -26.922  27.638  1.00  0.00     0.018 C 
ATOM      4  C   UNL     1      25.233 -27.591  28.253  1.00  0.00     0.186 C 
ATOM      5  C   UNL     1      26.344 -25.428  27.804  1.00  0.00     0.059 C 
ATOM      6  O   UNL     1      24.694 -27.054  29.439  1.00  0.00    -0.472 OA
ATOM      7  C   UNL     1      25.601 -24.835  29.056  1.00  0.00     0.105 C 
ATOM      8  C   UNL     1      25.760 -24.650  26.580  1.00  0.00     0.154 C 
ATOM      9  C   UNL     1      24.340 -24.177  28.472  1.00  0.00     0.130 C 
ATOM     10  C   UNL     1      24.442 -24.054  27.008  1.00  0.00     0.183 C 
ATOM     11  O   UNL     1      24.571 -22.911  27.863  1.00  0.00    -0.360 OA
BRANCH   8  12
ATOM     12  O   UNL     1      25.605 -25.404  25.380  1.00  0.00    -0.390 OA
ATOM     13  H   UNL     1      24.840 -25.050  24.917  1.00  0.00     0.211 HD
ENDBRANCH   8  12
BRANCH   9  14
ATOM     14  C   UNL     1      22.871 -24.412  28.931  1.00  0.00     0.195 C 
BRANCH  14  15
ATOM     15  O   UNL     1      22.320 -25.625  28.527  1.00  0.00    -0.393 OA
ATOM     16  H   UNL     1      22.527 -26.305  29.231  1.00  0.00     0.210 HD
ENDBRANCH  14  15
ENDBRANCH   9  14
ENDBRANCH   1   2
BRANCH   1  17
ATOM     17  C   UNL     1      26.416 -26.374  32.188  1.00  0.00     0.286 C 
ATOM     18  C   UNL     1      25.612 -27.548  32.733  1.00  0.00     0.202 C 
ATOM     19  O   UNL     1      27.725 -26.447  32.820  1.00  0.00    -0.341 OA
ATOM     20  C   UNL     1      26.181 -28.896  32.203  1.00  0.00     0.179 C 
ATOM     21  C   UNL     1      28.362 -27.730  32.818  1.00  0.00     0.178 C 
ATOM     22  C   UNL     1      27.737 -28.782  31.912  1.00  0.00     0.177 C 
BRANCH  18  23
ATOM     23  O   UNL     1      24.220 -27.398  32.537  1.00  0.00    -0.385 OA
ATOM     24  H   UNL     1      24.082 -26.463  32.147  1.00  0.00     0.211 HD
ENDBRANCH  18  23
BRANCH  20  25
ATOM     25  O   UNL     1      25.487 -29.403  31.091  1.00  0.00    -0.387 OA
ATOM     26  H   UNL     1      25.333 -30.362  31.239  1.00  0.00     0.211 HD
ENDBRANCH  20  25
BRANCH  21  27
ATOM     27  C   UNL     1      28.574 -28.237  34.267  1.00  0.00     0.191 C 
BRANCH  27  28
ATOM     28  O   UNL     1      28.775 -29.641  34.377  1.00  0.00    -0.394 OA
ATOM     29  H   UNL     1      28.129 -29.900  35.111  1.00  0.00     0.210 HD
ENDBRANCH  27  28
ENDBRANCH  21  27
BRANCH  22  30
ATOM     30  O   UNL     1      27.925 -28.400  30.560  1.00  0.00    -0.387 OA
ATOM     31  H   UNL     1      27.137 -27.872  30.264  1.00  0.00     0.211 HD
ENDBRANCH  22  30
ENDBRANCH   1  17
TORSDOF 10
ENDMDL
