MODEL 1
REMARK VINA RESULT:    12.308      0.000      0.000
REMARK INTER + INTRA:          22.774
REMARK INTER:                  23.820
REMARK INTRA:                  -1.046
REMARK UNBOUND:                -1.046
REMARK SMILES CCCCCCCCCCCCCCCCCC(=O)[O-]
REMARK SMILES IDX 10 1 11 2 12 3 13 4 14 5 15 6 16 7 17 8 18 9 19 10 20 11
REMARK SMILES IDX 9 12 8 13 7 14 6 15 5 16 4 17 3 18 2 19 1 20
REMARK H PARENT
REMARK Flexibility Score: inf
ROOT
ATOM      1  C   UNL     1      11.543 -56.587  -3.188  1.00  0.00     0.000 C 
ENDROOT
BRANCH   1   2
ATOM      2  C   UNL     1      11.130 -55.786  -4.438  1.00  0.00     0.000 C 
BRANCH   2   3
ATOM      3  C   UNL     1      10.819 -54.295  -4.186  1.00  0.00     0.000 C 
BRANCH   3   4
ATOM      4  C   UNL     1       9.495 -54.020  -3.449  1.00  0.00     0.000 C 
BRANCH   4   5
ATOM      5  C   UNL     1       8.855 -52.681  -3.852  1.00  0.00     0.000 C 
BRANCH   5   6
ATOM      6  C   UNL     1       8.702 -51.719  -2.663  1.00  0.00     0.000 C 
BRANCH   6   7
ATOM      7  C   UNL     1       9.053 -50.266  -3.026  1.00  0.00     0.006 C 
BRANCH   7   8
ATOM      8  C   UNL     1       9.678 -49.509  -1.847  1.00  0.00     0.053 C 
BRANCH   8   9
ATOM      9  C   UNL     1      10.817 -48.640  -2.286  1.00  0.00     0.041 C 
ATOM     10  O   UNL     1      10.800 -48.098  -3.423  1.00  0.00    -0.550 OA
ATOM     11  O   UNL     1      11.910 -48.452  -1.450  1.00  0.00    -0.550 OA
ENDBRANCH   8   9
ENDBRANCH   7   8
ENDBRANCH   6   7
ENDBRANCH   5   6
ENDBRANCH   4   5
ENDBRANCH   3   4
ENDBRANCH   2   3
ENDBRANCH   1   2
BRANCH   1  12
ATOM     12  C   UNL     1      12.497 -57.769  -3.458  1.00  0.00     0.000 C 
BRANCH  12  13
ATOM     13  C   UNL     1      13.957 -57.374  -3.739  1.00  0.00    -0.000 C 
BRANCH  13  14
ATOM     14  C   UNL     1      14.788 -58.528  -4.319  1.00  0.00    -0.000 C 
BRANCH  14  15
ATOM     15  C   UNL     1      15.244 -59.487  -3.209  1.00  0.00    -0.000 C 
BRANCH  15  16
ATOM     16  C   UNL     1      16.745 -59.366  -2.893  1.00  0.00    -0.000 C 
BRANCH  16  17
ATOM     17  C   UNL     1      17.103 -58.324  -1.813  1.00  0.00    -0.000 C 
BRANCH  17  18
ATOM     18  C   UNL     1      17.965 -57.147  -2.303  1.00  0.00    -0.000 C 
BRANCH  18  19
ATOM     19  C   UNL     1      17.164 -55.846  -2.456  1.00  0.00    -0.003 C 
ATOM     20  C   UNL     1      17.298 -55.283  -3.868  1.00  0.00     0.004 C 
ENDBRANCH  18  19
ENDBRANCH  17  18
ENDBRANCH  16  17
ENDBRANCH  15  16
ENDBRANCH  14  15
ENDBRANCH  13  14
ENDBRANCH  12  13
ENDBRANCH   1  12
TORSDOF 16
ENDMDL
MODEL 2
REMARK VINA RESULT:    12.777      0.890      1.460
REMARK INTER + INTRA:          23.683
REMARK INTER:                  24.230
REMARK INTRA:                  -0.547
REMARK UNBOUND:                -1.046
REMARK SMILES CCCCCCCCCCCCCCCCCC(=O)[O-]
REMARK SMILES IDX 10 1 11 2 12 3 13 4 14 5 15 6 16 7 17 8 18 9 19 10 20 11
REMARK SMILES IDX 9 12 8 13 7 14 6 15 5 16 4 17 3 18 2 19 1 20
REMARK H PARENT
REMARK Flexibility Score: inf
ROOT
ATOM      1  C   UNL     1      11.094 -56.653  -3.361  1.00  0.00     0.000 C 
ENDROOT
BRANCH   1   2
ATOM      2  C   UNL     1      11.616 -55.308  -3.903  1.00  0.00     0.000 C 
BRANCH   2   3
ATOM      3  C   UNL     1      10.528 -54.352  -4.435  1.00  0.00     0.000 C 
BRANCH   3   4
ATOM      4  C   UNL     1       9.450 -53.955  -3.411  1.00  0.00     0.000 C 
BRANCH   4   5
ATOM      5  C   UNL     1       8.739 -52.640  -3.771  1.00  0.00     0.000 C 
BRANCH   5   6
ATOM      6  C   UNL     1       8.708 -51.646  -2.598  1.00  0.00     0.000 C 
BRANCH   6   7
ATOM      7  C   UNL     1       9.025 -50.205  -3.032  1.00  0.00     0.006 C 
BRANCH   7   8
ATOM      8  C   UNL     1       9.674 -49.390  -1.906  1.00  0.00     0.053 C 
BRANCH   8   9
ATOM      9  C   UNL     1      10.841 -48.591  -2.399  1.00  0.00     0.041 C 
ATOM     10  O   UNL     1      11.892 -48.511  -1.708  1.00  0.00    -0.550 OA
ATOM     11  O   UNL     1      10.758 -47.911  -3.606  1.00  0.00    -0.550 OA
ENDBRANCH   8   9
ENDBRANCH   7   8
ENDBRANCH   6   7
ENDBRANCH   5   6
ENDBRANCH   4   5
ENDBRANCH   3   4
ENDBRANCH   2   3
ENDBRANCH   1   2
BRANCH   1  12
ATOM     12  C   UNL     1      12.180 -57.719  -3.108  1.00  0.00     0.000 C 
BRANCH  12  13
ATOM     13  C   UNL     1      13.380 -57.665  -4.070  1.00  0.00    -0.000 C 
BRANCH  13  14
ATOM     14  C   UNL     1      14.438 -58.736  -3.768  1.00  0.00    -0.000 C 
BRANCH  14  15
ATOM     15  C   UNL     1      15.786 -58.091  -3.415  1.00  0.00    -0.000 C 
BRANCH  15  16
ATOM     16  C   UNL     1      16.716 -59.036  -2.633  1.00  0.00    -0.000 C 
BRANCH  16  17
ATOM     17  C   UNL     1      18.117 -58.468  -2.328  1.00  0.00    -0.000 C 
BRANCH  17  18
ATOM     18  C   UNL     1      18.163 -56.952  -2.062  1.00  0.00    -0.000 C 
BRANCH  18  19
ATOM     19  C   UNL     1      17.339 -56.538  -0.834  1.00  0.00    -0.003 C 
ATOM     20  C   UNL     1      17.835 -57.247   0.423  1.00  0.00     0.004 C 
ENDBRANCH  18  19
ENDBRANCH  17  18
ENDBRANCH  16  17
ENDBRANCH  15  16
ENDBRANCH  14  15
ENDBRANCH  13  14
ENDBRANCH  12  13
ENDBRANCH   1  12
TORSDOF 16
ENDMDL
MODEL 3
REMARK VINA RESULT:    12.910      3.363      9.015
REMARK INTER + INTRA:          23.939
REMARK INTER:                  24.486
REMARK INTRA:                  -0.548
REMARK UNBOUND:                -1.046
REMARK SMILES CCCCCCCCCCCCCCCCCC(=O)[O-]
REMARK SMILES IDX 10 1 11 2 12 3 13 4 14 5 15 6 16 7 17 8 18 9 19 10 20 11
REMARK SMILES IDX 9 12 8 13 7 14 6 15 5 16 4 17 3 18 2 19 1 20
REMARK H PARENT
REMARK Flexibility Score: inf
ROOT
ATOM      1  C   UNL     1      11.826 -55.620  -3.761  1.00  0.00     0.000 C 
ENDROOT
BRANCH   1   2
ATOM      2  C   UNL     1      11.316 -57.020  -3.366  1.00  0.00     0.000 C 
BRANCH   2   3
ATOM      3  C   UNL     1      12.409 -58.102  -3.238  1.00  0.00     0.000 C 
BRANCH   3   4
ATOM      4  C   UNL     1      13.612 -57.929  -4.183  1.00  0.00     0.000 C 
BRANCH   4   5
ATOM      5  C   UNL     1      14.797 -58.839  -3.815  1.00  0.00     0.000 C 
BRANCH   5   6
ATOM      6  C   UNL     1      15.972 -58.059  -3.204  1.00  0.00     0.000 C 
BRANCH   6   7
ATOM      7  C   UNL     1      17.070 -58.981  -2.645  1.00  0.00     0.006 C 
BRANCH   7   8
ATOM      8  C   UNL     1      18.336 -58.205  -2.259  1.00  0.00     0.053 C 
BRANCH   8   9
ATOM      9  C   UNL     1      18.012 -56.961  -1.489  1.00  0.00     0.041 C 
ATOM     10  O   UNL     1      18.012 -55.841  -2.065  1.00  0.00    -0.550 OA
ATOM     11  O   UNL     1      17.740 -57.036  -0.129  1.00  0.00    -0.550 OA
ENDBRANCH   8   9
ENDBRANCH   7   8
ENDBRANCH   6   7
ENDBRANCH   5   6
ENDBRANCH   4   5
ENDBRANCH   3   4
ENDBRANCH   2   3
ENDBRANCH   1   2
BRANCH   1  12
ATOM     12  C   UNL     1      10.806 -54.747  -4.521  1.00  0.00     0.000 C 
BRANCH  12  13
ATOM     13  C   UNL     1      10.458 -53.412  -3.837  1.00  0.00    -0.000 C 
BRANCH  13  14
ATOM     14  C   UNL     1       8.949 -53.131  -3.808  1.00  0.00    -0.000 C 
BRANCH  14  15
ATOM     15  C   UNL     1       8.602 -52.113  -2.712  1.00  0.00    -0.000 C 
BRANCH  15  16
ATOM     16  C   UNL     1       8.904 -50.662  -3.125  1.00  0.00    -0.000 C 
BRANCH  16  17
ATOM     17  C   UNL     1       9.339 -49.733  -1.974  1.00  0.00    -0.000 C 
BRANCH  17  18
ATOM     18  C   UNL     1      10.153 -48.499  -2.404  1.00  0.00    -0.000 C 
BRANCH  18  19
ATOM     19  C   UNL     1      11.656 -48.788  -2.522  1.00  0.00    -0.003 C 
ATOM     20  C   UNL     1      12.377 -48.488  -1.211  1.00  0.00     0.004 C 
ENDBRANCH  18  19
ENDBRANCH  17  18
ENDBRANCH  16  17
ENDBRANCH  15  16
ENDBRANCH  14  15
ENDBRANCH  13  14
ENDBRANCH  12  13
ENDBRANCH   1  12
TORSDOF 16
ENDMDL
MODEL 4
REMARK VINA RESULT:    13.511      4.755      7.344
REMARK INTER + INTRA:          25.102
REMARK INTER:                  25.848
REMARK INTRA:                  -0.746
REMARK UNBOUND:                -1.046
REMARK SMILES CCCCCCCCCCCCCCCCCC(=O)[O-]
REMARK SMILES IDX 10 1 11 2 12 3 13 4 14 5 15 6 16 7 17 8 18 9 19 10 20 11
REMARK SMILES IDX 9 12 8 13 7 14 6 15 5 16 4 17 3 18 2 19 1 20
REMARK H PARENT
REMARK Flexibility Score: inf
ROOT
ATOM      1  C   UNL     1      19.107 -57.959  -2.967  1.00  0.00     0.000 C 
ENDROOT
BRANCH   1   2
ATOM      2  C   UNL     1      19.118 -59.481  -2.723  1.00  0.00     0.000 C 
BRANCH   2   3
ATOM      3  C   UNL     1      17.845 -60.225  -3.177  1.00  0.00     0.000 C 
BRANCH   3   4
ATOM      4  C   UNL     1      16.567 -59.871  -2.396  1.00  0.00     0.000 C 
BRANCH   4   5
ATOM      5  C   UNL     1      15.341 -59.692  -3.306  1.00  0.00     0.000 C 
BRANCH   5   6
ATOM      6  C   UNL     1      15.435 -58.433  -4.183  1.00  0.00     0.000 C 
BRANCH   6   7
ATOM      7  C   UNL     1      14.057 -57.836  -4.517  1.00  0.00     0.006 C 
BRANCH   7   8
ATOM      8  C   UNL     1      12.960 -58.352  -3.577  1.00  0.00     0.053 C 
BRANCH   8   9
ATOM      9  C   UNL     1      11.918 -57.308  -3.311  1.00  0.00     0.041 C 
ATOM     10  O   UNL     1      11.185 -57.389  -2.290  1.00  0.00    -0.550 OA
ATOM     11  O   UNL     1      11.739 -56.262  -4.207  1.00  0.00    -0.550 OA
ENDBRANCH   8   9
ENDBRANCH   7   8
ENDBRANCH   6   7
ENDBRANCH   5   6
ENDBRANCH   4   5
ENDBRANCH   3   4
ENDBRANCH   2   3
ENDBRANCH   1   2
BRANCH   1  12
ATOM     12  C   UNL     1      19.116 -57.094  -1.690  1.00  0.00     0.000 C 
BRANCH  12  13
ATOM     13  C   UNL     1      18.891 -57.869  -0.380  1.00  0.00    -0.000 C 
BRANCH  13  14
ATOM     14  C   UNL     1      17.634 -57.414   0.376  1.00  0.00    -0.000 C 
BRANCH  14  15
ATOM     15  C   UNL     1      17.076 -56.114  -0.221  1.00  0.00    -0.000 C 
BRANCH  15  16
ATOM     16  C   UNL     1      16.100 -56.360  -1.386  1.00  0.00    -0.000 C 
BRANCH  16  17
ATOM     17  C   UNL     1      16.247 -55.391  -2.576  1.00  0.00    -0.000 C 
BRANCH  17  18
ATOM     18  C   UNL     1      17.649 -55.341  -3.208  1.00  0.00    -0.000 C 
BRANCH  18  19
ATOM     19  C   UNL     1      17.611 -55.331  -4.743  1.00  0.00    -0.003 C 
ATOM     20  C   UNL     1      17.471 -53.910  -5.279  1.00  0.00     0.004 C 
ENDBRANCH  18  19
ENDBRANCH  17  18
ENDBRANCH  16  17
ENDBRANCH  15  16
ENDBRANCH  14  15
ENDBRANCH  13  14
ENDBRANCH  12  13
ENDBRANCH   1  12
TORSDOF 16
ENDMDL
MODEL 5
REMARK VINA RESULT:    13.966      2.776      8.608
REMARK INTER + INTRA:          25.984
REMARK INTER:                  26.741
REMARK INTRA:                  -0.757
REMARK UNBOUND:                -1.046
REMARK SMILES CCCCCCCCCCCCCCCCCC(=O)[O-]
REMARK SMILES IDX 10 1 11 2 12 3 13 4 14 5 15 6 16 7 17 8 18 9 19 10 20 11
REMARK SMILES IDX 9 12 8 13 7 14 6 15 5 16 4 17 3 18 2 19 1 20
REMARK H PARENT
REMARK Flexibility Score: inf
ROOT
ATOM      1  C   UNL     1      12.697 -57.797  -3.734  1.00  0.00     0.000 C 
ENDROOT
BRANCH   1   2
ATOM      2  C   UNL     1      14.231 -57.669  -3.806  1.00  0.00     0.000 C 
BRANCH   2   3
ATOM      3  C   UNL     1      14.976 -58.959  -4.208  1.00  0.00     0.000 C 
BRANCH   3   4
ATOM      4  C   UNL     1      15.686 -59.690  -3.054  1.00  0.00     0.000 C 
BRANCH   4   5
ATOM      5  C   UNL     1      17.031 -59.047  -2.677  1.00  0.00     0.000 C 
BRANCH   5   6
ATOM      6  C   UNL     1      16.925 -58.137  -1.443  1.00  0.00     0.000 C 
BRANCH   6   7
ATOM      7  C   UNL     1      18.003 -57.040  -1.419  1.00  0.00     0.006 C 
BRANCH   7   8
ATOM      8  C   UNL     1      18.343 -56.531  -2.826  1.00  0.00     0.053 C 
BRANCH   8   9
ATOM      9  C   UNL     1      17.321 -55.556  -3.326  1.00  0.00     0.041 C 
ATOM     10  O   UNL     1      17.379 -55.127  -4.510  1.00  0.00    -0.550 OA
ATOM     11  O   UNL     1      16.321 -55.099  -2.478  1.00  0.00    -0.550 OA
ENDBRANCH   8   9
ENDBRANCH   7   8
ENDBRANCH   6   7
ENDBRANCH   5   6
ENDBRANCH   4   5
ENDBRANCH   3   4
ENDBRANCH   2   3
ENDBRANCH   1   2
BRANCH   1  12
ATOM     12  C   UNL     1      11.968 -56.568  -3.154  1.00  0.00     0.000 C 
BRANCH  12  13
ATOM     13  C   UNL     1      10.982 -55.882  -4.117  1.00  0.00    -0.000 C 
BRANCH  13  14
ATOM     14  C   UNL     1      11.063 -54.350  -4.063  1.00  0.00    -0.000 C 
BRANCH  14  15
ATOM     15  C   UNL     1       9.708 -53.743  -3.672  1.00  0.00    -0.000 C 
BRANCH  15  16
ATOM     16  C   UNL     1       9.699 -52.205  -3.738  1.00  0.00    -0.000 C 
BRANCH  16  17
ATOM     17  C   UNL     1       9.054 -51.504  -2.525  1.00  0.00    -0.000 C 
BRANCH  17  18
ATOM     18  C   UNL     1       8.937 -49.974  -2.643  1.00  0.00    -0.000 C 
BRANCH  18  19
ATOM     19  C   UNL     1      10.011 -49.231  -1.833  1.00  0.00    -0.003 C 
ATOM     20  C   UNL     1      11.118 -48.707  -2.743  1.00  0.00     0.004 C 
ENDBRANCH  18  19
ENDBRANCH  17  18
ENDBRANCH  16  17
ENDBRANCH  15  16
ENDBRANCH  14  15
ENDBRANCH  13  14
ENDBRANCH  12  13
ENDBRANCH   1  12
TORSDOF 16
ENDMDL
MODEL 6
REMARK VINA RESULT:    14.901      5.737      7.786
REMARK INTER + INTRA:          27.792
REMARK INTER:                  28.537
REMARK INTRA:                  -0.744
REMARK UNBOUND:                -1.046
REMARK SMILES CCCCCCCCCCCCCCCCCC(=O)[O-]
REMARK SMILES IDX 10 1 11 2 12 3 13 4 14 5 15 6 16 7 17 8 18 9 19 10 20 11
REMARK SMILES IDX 9 12 8 13 7 14 6 15 5 16 4 17 3 18 2 19 1 20
REMARK H PARENT
REMARK Flexibility Score: inf
ROOT
ATOM      1  C   UNL     1      19.055 -59.250  -2.260  1.00  0.00     0.000 C 
ENDROOT
BRANCH   1   2
ATOM      2  C   UNL     1      19.124 -57.711  -2.324  1.00  0.00     0.000 C 
BRANCH   2   3
ATOM      3  C   UNL     1      18.993 -56.994  -0.964  1.00  0.00     0.000 C 
BRANCH   3   4
ATOM      4  C   UNL     1      17.755 -57.384  -0.137  1.00  0.00     0.000 C 
BRANCH   4   5
ATOM      5  C   UNL     1      16.673 -56.291  -0.128  1.00  0.00     0.000 C 
BRANCH   5   6
ATOM      6  C   UNL     1      15.880 -56.235  -1.444  1.00  0.00     0.000 C 
BRANCH   6   7
ATOM      7  C   UNL     1      16.394 -55.147  -2.402  1.00  0.00     0.006 C 
BRANCH   7   8
ATOM      8  C   UNL     1      17.307 -55.720  -3.493  1.00  0.00     0.053 C 
BRANCH   8   9
ATOM      9  C   UNL     1      17.667 -54.687  -4.517  1.00  0.00     0.041 C 
ATOM     10  O   UNL     1      17.923 -53.505  -4.161  1.00  0.00    -0.550 OA
ATOM     11  O   UNL     1      17.692 -55.021  -5.864  1.00  0.00    -0.550 OA
ENDBRANCH   8   9
ENDBRANCH   7   8
ENDBRANCH   6   7
ENDBRANCH   5   6
ENDBRANCH   4   5
ENDBRANCH   3   4
ENDBRANCH   2   3
ENDBRANCH   1   2
BRANCH   1  12
ATOM     12  C   UNL     1      18.264 -59.914  -3.405  1.00  0.00     0.000 C 
BRANCH  12  13
ATOM     13  C   UNL     1      16.812 -60.290  -3.058  1.00  0.00    -0.000 C 
BRANCH  13  14
ATOM     14  C   UNL     1      15.919 -59.064  -2.816  1.00  0.00    -0.000 C 
BRANCH  14  15
ATOM     15  C   UNL     1      14.845 -58.944  -3.906  1.00  0.00    -0.000 C 
BRANCH  15  16
ATOM     16  C   UNL     1      14.855 -60.126  -4.891  1.00  0.00    -0.000 C 
BRANCH  16  17
ATOM     17  C   UNL     1      14.639 -59.747  -6.370  1.00  0.00    -0.000 C 
BRANCH  17  18
ATOM     18  C   UNL     1      14.801 -60.905  -7.371  1.00  0.00    -0.000 C 
BRANCH  18  19
ATOM     19  C   UNL     1      13.900 -62.105  -7.043  1.00  0.00    -0.003 C 
ATOM     20  C   UNL     1      12.461 -61.846  -7.477  1.00  0.00     0.004 C 
ENDBRANCH  18  19
ENDBRANCH  17  18
ENDBRANCH  16  17
ENDBRANCH  15  16
ENDBRANCH  14  15
ENDBRANCH  13  14
ENDBRANCH  12  13
ENDBRANCH   1  12
TORSDOF 16
ENDMDL
