MODEL 1
REMARK VINA RESULT:    -3.891      0.000      0.000
REMARK INTER + INTRA:          -4.005
REMARK INTER:                  -4.005
REMARK INTRA:                   0.000
REMARK UNBOUND:                 0.000
REMARK SMILES CC1(C)[C@H]2CC[C@]1(C)[C@H](O)C2
REMARK SMILES IDX 1 1 2 2 4 3 5 4 6 5 7 6 9 7 11 8 8 9 3 10 10 11
REMARK H PARENT 10 12
REMARK Flexibility Score: inf
ROOT
ATOM      1  C   UNL     1     168.570 166.852 167.882  1.00  0.00     0.012 C 
ATOM      2  C   UNL     1     168.094 167.739 169.076  1.00  0.00    -0.025 C 
ATOM      3  C   UNL     1     166.876 167.170 169.823  1.00  0.00    -0.002 C 
ATOM      4  C   UNL     1     166.535 168.279 170.846  1.00  0.00     0.005 C 
ATOM      5  C   UNL     1     166.860 169.571 170.072  1.00  0.00     0.010 C 
ATOM      6  C   UNL     1     167.333 169.030 168.692  1.00  0.00    -0.001 C 
ATOM      7  C   UNL     1     166.078 168.481 167.947  1.00  0.00     0.121 C 
ATOM      8  C   UNL     1     165.750 167.204 168.758  1.00  0.00     0.036 C 
ATOM      9  C   UNL     1     168.128 170.057 167.875  1.00  0.00     0.015 C 
ATOM     10  C   UNL     1     169.349 167.942 169.980  1.00  0.00     0.012 C 
ENDROOT
BRANCH   7  11
ATOM     11  O   UNL     1     165.011 169.395 167.962  1.00  0.00    -0.393 OA
ATOM     12  H   UNL     1     164.179 168.854 167.981  1.00  0.00     0.210 HD
ENDBRANCH   7  11
TORSDOF 1
ENDMDL
MODEL 2
REMARK VINA RESULT:    -3.851      1.866      2.603
REMARK INTER + INTRA:          -3.963
REMARK INTER:                  -3.963
REMARK INTRA:                   0.000
REMARK UNBOUND:                 0.000
REMARK SMILES CC1(C)[C@H]2CC[C@]1(C)[C@H](O)C2
REMARK SMILES IDX 1 1 2 2 4 3 5 4 6 5 7 6 9 7 11 8 8 9 3 10 10 11
REMARK H PARENT 10 12
REMARK Flexibility Score: inf
ROOT
ATOM      1  C   UNL     1     168.918 168.296 167.906  1.00  0.00     0.012 C 
ATOM      2  C   UNL     1     168.056 167.806 169.112  1.00  0.00    -0.025 C 
ATOM      3  C   UNL     1     168.556 166.492 169.736  1.00  0.00    -0.002 C 
ATOM      4  C   UNL     1     167.476 166.167 170.795  1.00  0.00     0.005 C 
ATOM      5  C   UNL     1     166.179 166.654 170.122  1.00  0.00     0.010 C 
ATOM      6  C   UNL     1     166.687 167.184 168.750  1.00  0.00    -0.001 C 
ATOM      7  C   UNL     1     167.087 165.948 167.888  1.00  0.00     0.121 C 
ATOM      8  C   UNL     1     168.371 165.456 168.598  1.00  0.00     0.036 C 
ATOM      9  C   UNL     1     165.691 168.120 168.052  1.00  0.00     0.015 C 
ATOM     10  C   UNL     1     168.009 169.001 170.112  1.00  0.00     0.012 C 
ENDROOT
BRANCH   7  11
ATOM     11  O   UNL     1     166.087 164.962 167.879  1.00  0.00    -0.393 OA
ATOM     12  H   UNL     1     165.869 164.774 168.830  1.00  0.00     0.210 HD
ENDBRANCH   7  11
TORSDOF 1
ENDMDL
MODEL 3
REMARK VINA RESULT:    -3.821      2.218      3.598
REMARK INTER + INTRA:          -3.933
REMARK INTER:                  -3.933
REMARK INTRA:                   0.000
REMARK UNBOUND:                 0.000
REMARK SMILES CC1(C)[C@H]2CC[C@]1(C)[C@H](O)C2
REMARK SMILES IDX 1 1 2 2 4 3 5 4 6 5 7 6 9 7 11 8 8 9 3 10 10 11
REMARK H PARENT 10 12
REMARK Flexibility Score: inf
ROOT
ATOM      1  C   UNL     1     167.059 168.905 167.876  1.00  0.00     0.012 C 
ATOM      2  C   UNL     1     167.563 168.065 169.091  1.00  0.00    -0.025 C 
ATOM      3  C   UNL     1     168.870 168.590 169.708  1.00  0.00    -0.002 C 
ATOM      4  C   UNL     1     169.212 167.527 170.778  1.00  0.00     0.005 C 
ATOM      5  C   UNL     1     168.742 166.215 170.120  1.00  0.00     0.010 C 
ATOM      6  C   UNL     1     168.203 166.700 168.744  1.00  0.00    -0.001 C 
ATOM      7  C   UNL     1     169.432 167.108 167.875  1.00  0.00     0.121 C 
ATOM      8  C   UNL     1     169.907 168.406 168.570  1.00  0.00     0.036 C 
ATOM      9  C   UNL     1     167.281 165.683 168.059  1.00  0.00     0.015 C 
ATOM     10  C   UNL     1     166.369 168.012 170.094  1.00  0.00     0.012 C 
ENDROOT
BRANCH   7  11
ATOM     11  O   UNL     1     170.433 166.122 167.876  1.00  0.00    -0.393 OA
ATOM     12  H   UNL     1     171.188 166.487 167.345  1.00  0.00     0.210 HD
ENDBRANCH   7  11
TORSDOF 1
ENDMDL
MODEL 4
REMARK VINA RESULT:    -3.764      1.831      3.183
REMARK INTER + INTRA:          -3.874
REMARK INTER:                  -3.874
REMARK INTRA:                   0.000
REMARK UNBOUND:                 0.000
REMARK SMILES CC1(C)[C@H]2CC[C@]1(C)[C@H](O)C2
REMARK SMILES IDX 1 1 2 2 4 3 5 4 6 5 7 6 9 7 11 8 8 9 3 10 10 11
REMARK H PARENT 10 12
REMARK Flexibility Score: inf
ROOT
ATOM      1  C   UNL     1     165.814 167.345 171.548  1.00  0.00     0.012 C 
ATOM      2  C   UNL     1     166.629 167.728 170.272  1.00  0.00    -0.025 C 
ATOM      3  C   UNL     1     165.754 168.194 169.096  1.00  0.00    -0.002 C 
ATOM      4  C   UNL     1     166.772 168.377 167.946  1.00  0.00     0.005 C 
ATOM      5  C   UNL     1     167.782 167.241 168.198  1.00  0.00     0.010 C 
ATOM      6  C   UNL     1     167.199 166.541 169.459  1.00  0.00    -0.001 C 
ATOM      7  C   UNL     1     165.913 165.777 169.019  1.00  0.00     0.121 C 
ATOM      8  C   UNL     1     164.924 166.934 168.741  1.00  0.00     0.036 C 
ATOM      9  C   UNL     1     168.216 165.657 170.190  1.00  0.00     0.015 C 
ATOM     10  C   UNL     1     167.674 168.787 170.739  1.00  0.00     0.012 C 
ENDROOT
BRANCH   7  11
ATOM     11  O   UNL     1     166.129 164.991 167.875  1.00  0.00    -0.393 OA
ATOM     12  H   UNL     1     167.104 164.808 167.840  1.00  0.00     0.210 HD
ENDBRANCH   7  11
TORSDOF 1
ENDMDL
MODEL 5
REMARK VINA RESULT:    -3.747      1.848      3.271
REMARK INTER + INTRA:          -3.856
REMARK INTER:                  -3.856
REMARK INTRA:                   0.000
REMARK UNBOUND:                 0.000
REMARK SMILES CC1(C)[C@H]2CC[C@]1(C)[C@H](O)C2
REMARK SMILES IDX 1 1 2 2 4 3 5 4 6 5 7 6 9 7 11 8 8 9 3 10 10 11
REMARK H PARENT 10 12
REMARK Flexibility Score: inf
ROOT
ATOM      1  C   UNL     1     169.816 167.904 171.481  1.00  0.00     0.012 C 
ATOM      2  C   UNL     1     168.920 167.539 170.256  1.00  0.00    -0.025 C 
ATOM      3  C   UNL     1     169.717 167.097 169.017  1.00  0.00    -0.002 C 
ATOM      4  C   UNL     1     168.626 166.927 167.934  1.00  0.00     0.005 C 
ATOM      5  C   UNL     1     167.630 168.054 168.271  1.00  0.00     0.010 C 
ATOM      6  C   UNL     1     168.293 168.735 169.502  1.00  0.00    -0.001 C 
ATOM      7  C   UNL     1     169.543 169.514 168.992  1.00  0.00     0.121 C 
ATOM      8  C   UNL     1     170.517 168.367 168.629  1.00  0.00     0.036 C 
ATOM      9  C   UNL     1     167.322 169.602 170.314  1.00  0.00     0.015 C 
ATOM     10  C   UNL     1     167.912 166.466 170.773  1.00  0.00     0.012 C 
ENDROOT
BRANCH   7  11
ATOM     11  O   UNL     1     169.249 170.318 167.878  1.00  0.00    -0.393 OA
ATOM     12  H   UNL     1     168.938 171.190 168.235  1.00  0.00     0.210 HD
ENDBRANCH   7  11
TORSDOF 1
ENDMDL
MODEL 6
REMARK VINA RESULT:    -3.738      1.235      2.820
REMARK INTER + INTRA:          -3.847
REMARK INTER:                  -3.847
REMARK INTRA:                   0.000
REMARK UNBOUND:                 0.000
REMARK SMILES CC1(C)[C@H]2CC[C@]1(C)[C@H](O)C2
REMARK SMILES IDX 1 1 2 2 4 3 5 4 6 5 7 6 9 7 11 8 8 9 3 10 10 11
REMARK H PARENT 10 12
REMARK Flexibility Score: inf
ROOT
ATOM      1  C   UNL     1     167.318 169.137 171.575  1.00  0.00     0.012 C 
ATOM      2  C   UNL     1     167.700 168.515 170.195  1.00  0.00    -0.025 C 
ATOM      3  C   UNL     1     168.196 169.546 169.167  1.00  0.00    -0.002 C 
ATOM      4  C   UNL     1     168.373 168.707 167.879  1.00  0.00     0.005 C 
ATOM      5  C   UNL     1     167.216 167.694 167.967  1.00  0.00     0.010 C 
ATOM      6  C   UNL     1     166.513 168.097 169.295  1.00  0.00    -0.001 C 
ATOM      7  C   UNL     1     165.777 169.449 169.046  1.00  0.00     0.121 C 
ATOM      8  C   UNL     1     166.956 170.445 168.929  1.00  0.00     0.036 C 
ATOM      9  C   UNL     1     165.601 167.000 169.858  1.00  0.00     0.015 C 
ATOM     10  C   UNL     1     168.734 167.390 170.509  1.00  0.00     0.012 C 
ENDROOT
BRANCH   7  11
ATOM     11  O   UNL     1     165.001 169.422 167.875  1.00  0.00    -0.393 OA
ATOM     12  H   UNL     1     165.628 169.565 167.119  1.00  0.00     0.210 HD
ENDBRANCH   7  11
TORSDOF 1
ENDMDL
MODEL 7
REMARK VINA RESULT:    -3.649      2.437      3.589
REMARK INTER + INTRA:          -3.755
REMARK INTER:                  -3.755
REMARK INTRA:                   0.000
REMARK UNBOUND:                 0.000
REMARK SMILES CC1(C)[C@H]2CC[C@]1(C)[C@H](O)C2
REMARK SMILES IDX 1 1 2 2 4 3 5 4 6 5 7 6 9 7 11 8 8 9 3 10 10 11
REMARK H PARENT 10 12
REMARK Flexibility Score: inf
ROOT
ATOM      1  C   UNL     1     168.001 165.935 171.575  1.00  0.00     0.012 C 
ATOM      2  C   UNL     1     167.526 166.512 170.205  1.00  0.00    -0.025 C 
ATOM      3  C   UNL     1     167.194 165.434 169.161  1.00  0.00    -0.002 C 
ATOM      4  C   UNL     1     166.888 166.254 167.885  1.00  0.00     0.005 C 
ATOM      5  C   UNL     1     167.876 167.432 167.990  1.00  0.00     0.010 C 
ATOM      6  C   UNL     1     168.634 167.121 169.313  1.00  0.00    -0.001 C 
ATOM      7  C   UNL     1     169.568 165.903 169.044  1.00  0.00     0.121 C 
ATOM      8  C   UNL     1     168.557 164.739 168.910  1.00  0.00     0.036 C 
ATOM      9  C   UNL     1     169.367 168.337 169.894  1.00  0.00     0.015 C 
ATOM     10  C   UNL     1     166.332 167.460 170.535  1.00  0.00     0.012 C 
ENDROOT
BRANCH   7  11
ATOM     11  O   UNL     1     170.330 166.066 167.875  1.00  0.00    -0.393 OA
ATOM     12  H   UNL     1     169.738 165.820 167.117  1.00  0.00     0.210 HD
ENDBRANCH   7  11
TORSDOF 1
ENDMDL
MODEL 8
REMARK VINA RESULT:    -3.449      1.831      3.143
REMARK INTER + INTRA:          -3.550
REMARK INTER:                  -3.550
REMARK INTRA:                   0.000
REMARK UNBOUND:                 0.000
REMARK SMILES CC1(C)[C@H]2CC[C@]1(C)[C@H](O)C2
REMARK SMILES IDX 1 1 2 2 4 3 5 4 6 5 7 6 9 7 11 8 8 9 3 10 10 11
REMARK H PARENT 10 12
REMARK Flexibility Score: inf
ROOT
ATOM      1  C   UNL     1     166.316 167.824 170.912  1.00  0.00     0.012 C 
ATOM      2  C   UNL     1     167.083 168.854 170.024  1.00  0.00    -0.025 C 
ATOM      3  C   UNL     1     166.717 168.779 168.533  1.00  0.00    -0.002 C 
ATOM      4  C   UNL     1     167.692 169.784 167.875  1.00  0.00     0.005 C 
ATOM      5  C   UNL     1     168.974 169.617 168.714  1.00  0.00     0.010 C 
ATOM      6  C   UNL     1     168.567 168.520 169.739  1.00  0.00    -0.001 C 
ATOM      7  C   UNL     1     168.474 167.168 168.968  1.00  0.00     0.121 C 
ATOM      8  C   UNL     1     167.201 167.368 168.110  1.00  0.00     0.036 C 
ATOM      9  C   UNL     1     169.487 168.462 170.965  1.00  0.00     0.015 C 
ATOM     10  C   UNL     1     166.820 170.249 170.669  1.00  0.00     0.012 C 
ENDROOT
BRANCH   7  11
ATOM     11  O   UNL     1     169.607 166.933 168.172  1.00  0.00    -0.393 OA
ATOM     12  H   UNL     1     169.574 165.974 167.913  1.00  0.00     0.210 HD
ENDBRANCH   7  11
TORSDOF 1
ENDMDL
MODEL 9
REMARK VINA RESULT:    -1.551      1.616      2.461
REMARK INTER + INTRA:          -1.596
REMARK INTER:                  -1.596
REMARK INTRA:                   0.000
REMARK UNBOUND:                 0.000
REMARK SMILES CC1(C)[C@H]2CC[C@]1(C)[C@H](O)C2
REMARK SMILES IDX 1 1 2 2 4 3 5 4 6 5 7 6 9 7 11 8 8 9 3 10 10 11
REMARK H PARENT 10 12
REMARK Flexibility Score: inf
ROOT
ATOM      1  C   UNL     1     166.471 167.113 167.875  1.00  0.00     0.012 C 
ATOM      2  C   UNL     1     167.356 167.557 169.082  1.00  0.00    -0.025 C 
ATOM      3  C   UNL     1     166.814 168.789 169.826  1.00  0.00    -0.002 C 
ATOM      4  C   UNL     1     167.920 169.093 170.864  1.00  0.00     0.005 C 
ATOM      5  C   UNL     1     169.212 168.732 170.105  1.00  0.00     0.010 C 
ATOM      6  C   UNL     1     168.674 168.281 168.717  1.00  0.00    -0.001 C 
ATOM      7  C   UNL     1     168.172 169.554 167.970  1.00  0.00     0.121 C 
ATOM      8  C   UNL     1     166.896 169.917 168.766  1.00  0.00     0.036 C 
ATOM      9  C   UNL     1     169.687 167.458 167.910  1.00  0.00     0.015 C 
ATOM     10  C   UNL     1     167.509 166.293 169.983  1.00  0.00     0.012 C 
ENDROOT
BRANCH   7  11
ATOM     11  O   UNL     1     169.117 170.593 168.000  1.00  0.00    -0.393 OA
ATOM     12  H   UNL     1     168.722 171.347 167.488  1.00  0.00     0.210 HD
ENDBRANCH   7  11
TORSDOF 1
ENDMDL
