MODEL 1
REMARK VINA RESULT:    -4.449      0.000      0.000
REMARK INTER + INTRA:          -9.935
REMARK INTER:                  -7.831
REMARK INTRA:                  -2.104
REMARK UNBOUND:                -2.104
REMARK SMILES CCCCCCCCCCCCCCC(=O)[O-]
REMARK SMILES IDX 9 1 10 2 11 3 12 4 13 5 14 6 15 7 16 8 17 9 8 10 7 11 6 12
REMARK SMILES IDX 5 13 4 14 3 15 2 16 1 17
REMARK H PARENT
REMARK Flexibility Score: inf
ROOT
ATOM      1  C   UNL     1      -6.032 -27.219  29.845  1.00  0.00     0.000 C 
ENDROOT
BRANCH   1   2
ATOM      2  C   UNL     1      -6.985 -27.512  28.672  1.00  0.00     0.000 C 
BRANCH   2   3
ATOM      3  C   UNL     1      -8.187 -26.555  28.559  1.00  0.00     0.000 C 
BRANCH   3   4
ATOM      4  C   UNL     1      -9.487 -27.270  28.162  1.00  0.00     0.000 C 
BRANCH   4   5
ATOM      5  C   UNL     1     -10.589 -26.258  27.823  1.00  0.00     0.006 C 
BRANCH   5   6
ATOM      6  C   UNL     1     -10.002 -24.862  27.596  1.00  0.00     0.053 C 
BRANCH   6   7
ATOM      7  C   UNL     1     -10.706 -24.174  26.469  1.00  0.00     0.041 C 
ATOM      8  O   UNL     1     -11.175 -23.018  26.628  1.00  0.00    -0.550 OA
ATOM      9  O   UNL     1     -10.887 -24.831  25.259  1.00  0.00    -0.550 OA
ENDBRANCH   6   7
ENDBRANCH   5   6
ENDBRANCH   4   5
ENDBRANCH   3   4
ENDBRANCH   2   3
ENDBRANCH   1   2
BRANCH   1  10
ATOM     10  C   UNL     1      -6.416 -27.972  31.129  1.00  0.00     0.000 C 
BRANCH  10  11
ATOM     11  C   UNL     1      -5.930 -27.257  32.400  1.00  0.00    -0.000 C 
BRANCH  11  12
ATOM     12  C   UNL     1      -5.620 -25.758  32.181  1.00  0.00    -0.000 C 
BRANCH  12  13
ATOM     13  C   UNL     1      -6.744 -24.827  32.675  1.00  0.00    -0.000 C 
BRANCH  13  14
ATOM     14  C   UNL     1      -7.431 -24.037  31.545  1.00  0.00    -0.000 C 
BRANCH  14  15
ATOM     15  C   UNL     1      -8.878 -24.496  31.301  1.00  0.00    -0.000 C 
BRANCH  15  16
ATOM     16  C   UNL     1      -9.351 -25.432  32.420  1.00  0.00    -0.003 C 
ATOM     17  C   UNL     1      -9.890 -26.741  31.853  1.00  0.00     0.004 C 
ENDBRANCH  15  16
ENDBRANCH  14  15
ENDBRANCH  13  14
ENDBRANCH  12  13
ENDBRANCH  11  12
ENDBRANCH  10  11
ENDBRANCH   1  10
TORSDOF 13
ENDMDL
MODEL 2
REMARK VINA RESULT:    -4.351      1.223      2.614
REMARK INTER + INTRA:          -9.762
REMARK INTER:                  -7.903
REMARK INTRA:                  -1.859
REMARK UNBOUND:                -2.104
REMARK SMILES CCCCCCCCCCCCCCC(=O)[O-]
REMARK SMILES IDX 9 1 10 2 11 3 12 4 13 5 14 6 15 7 16 8 17 9 8 10 7 11 6 12
REMARK SMILES IDX 5 13 4 14 3 15 2 16 1 17
REMARK H PARENT
REMARK Flexibility Score: inf
ROOT
ATOM      1  C   UNL     1      -6.832 -27.936  30.903  1.00  0.00     0.000 C 
ENDROOT
BRANCH   1   2
ATOM      2  C   UNL     1      -6.984 -26.862  29.811  1.00  0.00     0.000 C 
BRANCH   2   3
ATOM      3  C   UNL     1      -7.156 -27.412  28.382  1.00  0.00     0.000 C 
BRANCH   3   4
ATOM      4  C   UNL     1      -8.580 -27.229  27.837  1.00  0.00     0.000 C 
BRANCH   4   5
ATOM      5  C   UNL     1      -9.054 -25.781  28.012  1.00  0.00     0.006 C 
BRANCH   5   6
ATOM      6  C   UNL     1     -10.582 -25.702  28.037  1.00  0.00     0.053 C 
BRANCH   6   7
ATOM      7  C   UNL     1     -11.156 -26.236  26.762  1.00  0.00     0.041 C 
ATOM      8  O   UNL     1     -10.933 -25.647  25.673  1.00  0.00    -0.550 OA
ATOM      9  O   UNL     1     -11.977 -27.356  26.785  1.00  0.00    -0.550 OA
ENDBRANCH   6   7
ENDBRANCH   5   6
ENDBRANCH   4   5
ENDBRANCH   3   4
ENDBRANCH   2   3
ENDBRANCH   1   2
BRANCH   1  10
ATOM     10  C   UNL     1      -8.063 -28.035  31.819  1.00  0.00     0.000 C 
BRANCH  10  11
ATOM     11  C   UNL     1      -9.354 -27.568  31.127  1.00  0.00    -0.000 C 
BRANCH  11  12
ATOM     12  C   UNL     1     -10.246 -26.681  32.027  1.00  0.00    -0.000 C 
BRANCH  12  13
ATOM     13  C   UNL     1      -9.513 -25.441  32.575  1.00  0.00    -0.000 C 
BRANCH  13  14
ATOM     14  C   UNL     1      -8.954 -24.520  31.474  1.00  0.00    -0.000 C 
BRANCH  14  15
ATOM     15  C   UNL     1      -7.607 -23.889  31.863  1.00  0.00    -0.000 C 
BRANCH  15  16
ATOM     16  C   UNL     1      -6.880 -24.748  32.905  1.00  0.00    -0.003 C 
ATOM     17  C   UNL     1      -6.499 -23.923  34.131  1.00  0.00     0.004 C 
ENDBRANCH  15  16
ENDBRANCH  14  15
ENDBRANCH  13  14
ENDBRANCH  12  13
ENDBRANCH  11  12
ENDBRANCH  10  11
ENDBRANCH   1  10
TORSDOF 13
ENDMDL
MODEL 3
REMARK VINA RESULT:    -4.317      1.341      2.321
REMARK INTER + INTRA:          -9.702
REMARK INTER:                  -7.862
REMARK INTRA:                  -1.840
REMARK UNBOUND:                -2.104
REMARK SMILES CCCCCCCCCCCCCCC(=O)[O-]
REMARK SMILES IDX 9 1 10 2 11 3 12 4 13 5 14 6 15 7 16 8 17 9 8 10 7 11 6 12
REMARK SMILES IDX 5 13 4 14 3 15 2 16 1 17
REMARK H PARENT
REMARK Flexibility Score: inf
ROOT
ATOM      1  C   UNL     1      -7.798 -27.964  27.476  1.00  0.00     0.000 C 
ENDROOT
BRANCH   1   2
ATOM      2  C   UNL     1      -9.314 -28.008  27.211  1.00  0.00     0.000 C 
BRANCH   2   3
ATOM      3  C   UNL     1     -10.194 -27.645  28.422  1.00  0.00     0.000 C 
BRANCH   3   4
ATOM      4  C   UNL     1     -11.178 -26.504  28.127  1.00  0.00     0.000 C 
BRANCH   4   5
ATOM      5  C   UNL     1     -10.694 -25.653  26.946  1.00  0.00     0.006 C 
BRANCH   5   6
ATOM      6  C   UNL     1     -10.521 -24.189  27.359  1.00  0.00     0.053 C 
BRANCH   6   7
ATOM      7  C   UNL     1     -11.092 -23.279  26.318  1.00  0.00     0.041 C 
ATOM      8  O   UNL     1     -11.720 -23.755  25.337  1.00  0.00    -0.550 OA
ATOM      9  O   UNL     1     -10.887 -21.908  26.405  1.00  0.00    -0.550 OA
ENDBRANCH   6   7
ENDBRANCH   5   6
ENDBRANCH   4   5
ENDBRANCH   3   4
ENDBRANCH   2   3
ENDBRANCH   1   2
BRANCH   1  10
ATOM     10  C   UNL     1      -7.393 -26.849  28.453  1.00  0.00     0.000 C 
BRANCH  10  11
ATOM     11  C   UNL     1      -7.021 -27.387  29.844  1.00  0.00    -0.000 C 
BRANCH  11  12
ATOM     12  C   UNL     1      -7.285 -26.377  30.984  1.00  0.00    -0.000 C 
BRANCH  12  13
ATOM     13  C   UNL     1      -8.101 -25.151  30.532  1.00  0.00    -0.000 C 
BRANCH  13  14
ATOM     14  C   UNL     1      -9.504 -25.079  31.163  1.00  0.00    -0.000 C 
BRANCH  14  15
ATOM     15  C   UNL     1      -9.886 -26.373  31.900  1.00  0.00    -0.000 C 
BRANCH  15  16
ATOM     16  C   UNL     1     -11.370 -26.363  32.288  1.00  0.00    -0.003 C 
ATOM     17  C   UNL     1     -11.549 -26.070  33.775  1.00  0.00     0.004 C 
ENDBRANCH  15  16
ENDBRANCH  14  15
ENDBRANCH  13  14
ENDBRANCH  12  13
ENDBRANCH  11  12
ENDBRANCH  10  11
ENDBRANCH   1  10
TORSDOF 13
ENDMDL
MODEL 4
REMARK VINA RESULT:    -4.297      3.627      5.883
REMARK INTER + INTRA:          -9.666
REMARK INTER:                  -7.504
REMARK INTRA:                  -2.162
REMARK UNBOUND:                -2.104
REMARK SMILES CCCCCCCCCCCCCCC(=O)[O-]
REMARK SMILES IDX 9 1 10 2 11 3 12 4 13 5 14 6 15 7 16 8 17 9 8 10 7 11 6 12
REMARK SMILES IDX 5 13 4 14 3 15 2 16 1 17
REMARK H PARENT
REMARK Flexibility Score: inf
ROOT
ATOM      1  C   UNL     1      -7.227 -27.985  31.510  1.00  0.00     0.000 C 
ENDROOT
BRANCH   1   2
ATOM      2  C   UNL     1      -6.515 -27.270  30.348  1.00  0.00     0.000 C 
BRANCH   2   3
ATOM      3  C   UNL     1      -5.728 -26.008  30.748  1.00  0.00     0.000 C 
BRANCH   3   4
ATOM      4  C   UNL     1      -4.875 -26.208  32.010  1.00  0.00     0.000 C 
BRANCH   4   5
ATOM      5  C   UNL     1      -4.985 -24.998  32.946  1.00  0.00     0.006 C 
BRANCH   5   6
ATOM      6  C   UNL     1      -6.446 -24.714  33.306  1.00  0.00     0.053 C 
BRANCH   6   7
ATOM      7  C   UNL     1      -6.776 -25.288  34.648  1.00  0.00     0.041 C 
ATOM      8  O   UNL     1      -7.964 -25.282  35.064  1.00  0.00    -0.550 OA
ATOM      9  O   UNL     1      -5.764 -25.784  35.460  1.00  0.00    -0.550 OA
ENDBRANCH   6   7
ENDBRANCH   5   6
ENDBRANCH   4   5
ENDBRANCH   3   4
ENDBRANCH   2   3
ENDBRANCH   1   2
BRANCH   1  10
ATOM     10  C   UNL     1      -8.759 -27.927  31.400  1.00  0.00     0.000 C 
BRANCH  10  11
ATOM     11  C   UNL     1      -9.369 -26.789  32.234  1.00  0.00    -0.000 C 
BRANCH  11  12
ATOM     12  C   UNL     1     -10.349 -25.900  31.434  1.00  0.00    -0.000 C 
BRANCH  12  13
ATOM     13  C   UNL     1      -9.661 -25.083  30.323  1.00  0.00    -0.000 C 
BRANCH  13  14
ATOM     14  C   UNL     1     -10.145 -25.442  28.906  1.00  0.00    -0.000 C 
BRANCH  14  15
ATOM     15  C   UNL     1      -9.019 -26.006  28.024  1.00  0.00    -0.000 C 
BRANCH  15  16
ATOM     16  C   UNL     1      -9.239 -27.497  27.744  1.00  0.00    -0.003 C 
ATOM     17  C   UNL     1     -10.665 -27.918  28.088  1.00  0.00     0.004 C 
ENDBRANCH  15  16
ENDBRANCH  14  15
ENDBRANCH  13  14
ENDBRANCH  12  13
ENDBRANCH  11  12
ENDBRANCH  10  11
ENDBRANCH   1  10
TORSDOF 13
ENDMDL
MODEL 5
REMARK VINA RESULT:    -4.280      1.199      1.750
REMARK INTER + INTRA:          -9.637
REMARK INTER:                  -7.707
REMARK INTRA:                  -1.930
REMARK UNBOUND:                -2.104
REMARK SMILES CCCCCCCCCCCCCCC(=O)[O-]
REMARK SMILES IDX 9 1 10 2 11 3 12 4 13 5 14 6 15 7 16 8 17 9 8 10 7 11 6 12
REMARK SMILES IDX 5 13 4 14 3 15 2 16 1 17
REMARK H PARENT
REMARK Flexibility Score: inf
ROOT
ATOM      1  C   UNL     1      -6.131 -27.531  31.387  1.00  0.00     0.000 C 
ENDROOT
BRANCH   1   2
ATOM      2  C   UNL     1      -6.541 -27.130  29.959  1.00  0.00     0.000 C 
BRANCH   2   3
ATOM      3  C   UNL     1      -8.038 -27.309  29.640  1.00  0.00     0.000 C 
BRANCH   3   4
ATOM      4  C   UNL     1      -8.397 -26.905  28.203  1.00  0.00     0.000 C 
BRANCH   4   5
ATOM      5  C   UNL     1      -9.207 -25.603  28.185  1.00  0.00     0.006 C 
BRANCH   5   6
ATOM      6  C   UNL     1     -10.710 -25.890  28.213  1.00  0.00     0.053 C 
BRANCH   6   7
ATOM      7  C   UNL     1     -11.170 -26.408  26.887  1.00  0.00     0.041 C 
ATOM      8  O   UNL     1     -11.804 -27.493  26.816  1.00  0.00    -0.550 OA
ATOM      9  O   UNL     1     -10.855 -25.718  25.723  1.00  0.00    -0.550 OA
ENDBRANCH   6   7
ENDBRANCH   5   6
ENDBRANCH   4   5
ENDBRANCH   3   4
ENDBRANCH   2   3
ENDBRANCH   1   2
BRANCH   1  10
ATOM     10  C   UNL     1      -4.835 -26.846  31.851  1.00  0.00     0.000 C 
BRANCH  10  11
ATOM     11  C   UNL     1      -5.011 -25.334  32.068  1.00  0.00    -0.000 C 
BRANCH  11  12
ATOM     12  C   UNL     1      -5.589 -24.977  33.457  1.00  0.00    -0.000 C 
BRANCH  12  13
ATOM     13  C   UNL     1      -7.047 -24.483  33.400  1.00  0.00    -0.000 C 
BRANCH  13  14
ATOM     14  C   UNL     1      -7.473 -23.983  32.007  1.00  0.00    -0.000 C 
BRANCH  14  15
ATOM     15  C   UNL     1      -8.846 -24.528  31.580  1.00  0.00    -0.000 C 
BRANCH  15  16
ATOM     16  C   UNL     1      -9.377 -25.535  32.606  1.00  0.00    -0.003 C 
ATOM     17  C   UNL     1     -10.675 -26.178  32.126  1.00  0.00     0.004 C 
ENDBRANCH  15  16
ENDBRANCH  14  15
ENDBRANCH  13  14
ENDBRANCH  12  13
ENDBRANCH  11  12
ENDBRANCH  10  11
ENDBRANCH   1  10
TORSDOF 13
ENDMDL
MODEL 6
REMARK VINA RESULT:    -4.279      2.920      5.938
REMARK INTER + INTRA:          -9.635
REMARK INTER:                  -8.175
REMARK INTRA:                  -1.460
REMARK UNBOUND:                -2.104
REMARK SMILES CCCCCCCCCCCCCCC(=O)[O-]
REMARK SMILES IDX 9 1 10 2 11 3 12 4 13 5 14 6 15 7 16 8 17 9 8 10 7 11 6 12
REMARK SMILES IDX 5 13 4 14 3 15 2 16 1 17
REMARK H PARENT
REMARK Flexibility Score: inf
ROOT
ATOM      1  C   UNL     1      -9.604 -25.379  32.128  1.00  0.00     0.000 C 
ENDROOT
BRANCH   1   2
ATOM      2  C   UNL     1      -8.900 -24.241  31.368  1.00  0.00     0.000 C 
BRANCH   2   3
ATOM      3  C   UNL     1      -7.363 -24.253  31.459  1.00  0.00     0.000 C 
BRANCH   3   4
ATOM      4  C   UNL     1      -6.843 -24.972  32.713  1.00  0.00     0.000 C 
BRANCH   4   5
ATOM      5  C   UNL     1      -5.782 -26.017  32.348  1.00  0.00     0.006 C 
BRANCH   5   6
ATOM      6  C   UNL     1      -5.517 -26.026  30.840  1.00  0.00     0.053 C 
BRANCH   6   7
ATOM      7  C   UNL     1      -5.450 -27.430  30.328  1.00  0.00     0.041 C 
ATOM      8  O   UNL     1      -5.219 -27.650  29.111  1.00  0.00    -0.550 OA
ATOM      9  O   UNL     1      -5.693 -28.495  31.186  1.00  0.00    -0.550 OA
ENDBRANCH   6   7
ENDBRANCH   5   6
ENDBRANCH   4   5
ENDBRANCH   3   4
ENDBRANCH   2   3
ENDBRANCH   1   2
BRANCH   1  10
ATOM     10  C   UNL     1     -10.194 -26.447  31.194  1.00  0.00     0.000 C 
BRANCH  10  11
ATOM     11  C   UNL     1      -9.111 -27.299  30.510  1.00  0.00    -0.000 C 
BRANCH  11  12
ATOM     12  C   UNL     1      -9.221 -27.309  28.968  1.00  0.00    -0.000 C 
BRANCH  12  13
ATOM     13  C   UNL     1      -9.122 -25.904  28.342  1.00  0.00    -0.000 C 
BRANCH  13  14
ATOM     14  C   UNL     1     -10.280 -25.575  27.382  1.00  0.00    -0.000 C 
BRANCH  14  15
ATOM     15  C   UNL     1     -10.064 -24.252  26.630  1.00  0.00    -0.000 C 
BRANCH  15  16
ATOM     16  C   UNL     1     -11.200 -23.999  25.631  1.00  0.00    -0.003 C 
ATOM     17  C   UNL     1     -11.778 -22.596  25.796  1.00  0.00     0.004 C 
ENDBRANCH  15  16
ENDBRANCH  14  15
ENDBRANCH  13  14
ENDBRANCH  12  13
ENDBRANCH  11  12
ENDBRANCH  10  11
ENDBRANCH   1  10
TORSDOF 13
ENDMDL
MODEL 7
REMARK VINA RESULT:    -4.272      1.301      2.807
REMARK INTER + INTRA:          -9.623
REMARK INTER:                  -7.897
REMARK INTRA:                  -1.726
REMARK UNBOUND:                -2.104
REMARK SMILES CCCCCCCCCCCCCCC(=O)[O-]
REMARK SMILES IDX 9 1 10 2 11 3 12 4 13 5 14 6 15 7 16 8 17 9 8 10 7 11 6 12
REMARK SMILES IDX 5 13 4 14 3 15 2 16 1 17
REMARK H PARENT
REMARK Flexibility Score: inf
ROOT
ATOM      1  C   UNL     1     -10.476 -25.982  30.968  1.00  0.00     0.000 C 
ENDROOT
BRANCH   1   2
ATOM      2  C   UNL     1      -9.580 -25.019  30.169  1.00  0.00     0.000 C 
BRANCH   2   3
ATOM      3  C   UNL     1      -9.396 -25.386  28.685  1.00  0.00     0.000 C 
BRANCH   3   4
ATOM      4  C   UNL     1     -10.645 -26.032  28.068  1.00  0.00     0.000 C 
BRANCH   4   5
ATOM      5  C   UNL     1     -10.772 -25.676  26.582  1.00  0.00     0.006 C 
BRANCH   5   6
ATOM      6  C   UNL     1     -10.353 -24.225  26.328  1.00  0.00     0.053 C 
BRANCH   6   7
ATOM      7  C   UNL     1     -11.463 -23.467  25.670  1.00  0.00     0.041 C 
ATOM      8  O   UNL     1     -11.558 -22.222  25.827  1.00  0.00    -0.550 OA
ATOM      9  O   UNL     1     -12.420 -24.142  24.923  1.00  0.00    -0.550 OA
ENDBRANCH   6   7
ENDBRANCH   5   6
ENDBRANCH   4   5
ENDBRANCH   3   4
ENDBRANCH   2   3
ENDBRANCH   1   2
BRANCH   1  10
ATOM     10  C   UNL     1      -9.686 -26.852  31.959  1.00  0.00     0.000 C 
BRANCH  10  11
ATOM     11  C   UNL     1      -8.863 -27.947  31.259  1.00  0.00    -0.000 C 
BRANCH  11  12
ATOM     12  C   UNL     1      -7.371 -27.945  31.661  1.00  0.00    -0.000 C 
BRANCH  12  13
ATOM     13  C   UNL     1      -6.463 -27.254  30.626  1.00  0.00    -0.000 C 
BRANCH  13  14
ATOM     14  C   UNL     1      -6.148 -25.785  30.967  1.00  0.00    -0.000 C 
BRANCH  14  15
ATOM     15  C   UNL     1      -5.793 -25.587  32.449  1.00  0.00    -0.000 C 
BRANCH  15  16
ATOM     16  C   UNL     1      -6.775 -24.620  33.122  1.00  0.00    -0.003 C 
ATOM     17  C   UNL     1      -7.454 -25.271  34.323  1.00  0.00     0.004 C 
ENDBRANCH  15  16
ENDBRANCH  14  15
ENDBRANCH  13  14
ENDBRANCH  12  13
ENDBRANCH  11  12
ENDBRANCH  10  11
ENDBRANCH   1  10
TORSDOF 13
ENDMDL
MODEL 8
REMARK VINA RESULT:    -4.250      0.848      2.993
REMARK INTER + INTRA:          -9.585
REMARK INTER:                  -7.619
REMARK INTRA:                  -1.966
REMARK UNBOUND:                -2.104
REMARK SMILES CCCCCCCCCCCCCCC(=O)[O-]
REMARK SMILES IDX 9 1 10 2 11 3 12 4 13 5 14 6 15 7 16 8 17 9 8 10 7 11 6 12
REMARK SMILES IDX 5 13 4 14 3 15 2 16 1 17
REMARK H PARENT
REMARK Flexibility Score: inf
ROOT
ATOM      1  C   UNL     1     -10.367 -26.265  31.056  1.00  0.00     0.000 C 
ENDROOT
BRANCH   1   2
ATOM      2  C   UNL     1      -9.425 -27.337  30.479  1.00  0.00     0.000 C 
BRANCH   2   3
ATOM      3  C   UNL     1      -9.413 -27.428  28.942  1.00  0.00     0.000 C 
BRANCH   3   4
ATOM      4  C   UNL     1      -8.886 -26.152  28.270  1.00  0.00     0.000 C 
BRANCH   4   5
ATOM      5  C   UNL     1      -9.865 -25.649  27.202  1.00  0.00     0.006 C 
BRANCH   5   6
ATOM      6  C   UNL     1     -10.510 -24.327  27.627  1.00  0.00     0.053 C 
BRANCH   6   7
ATOM      7  C   UNL     1     -10.929 -23.538  26.427  1.00  0.00     0.041 C 
ATOM      8  O   UNL     1     -11.085 -22.292  26.511  1.00  0.00    -0.550 OA
ATOM      9  O   UNL     1     -11.194 -24.186  25.227  1.00  0.00    -0.550 OA
ENDBRANCH   6   7
ENDBRANCH   5   6
ENDBRANCH   4   5
ENDBRANCH   3   4
ENDBRANCH   2   3
ENDBRANCH   1   2
BRANCH   1  10
ATOM     10  C   UNL     1      -9.658 -25.303  32.023  1.00  0.00     0.000 C 
BRANCH  10  11
ATOM     11  C   UNL     1      -8.966 -24.138  31.296  1.00  0.00    -0.000 C 
BRANCH  11  12
ATOM     12  C   UNL     1      -7.425 -24.174  31.408  1.00  0.00    -0.000 C 
BRANCH  12  13
ATOM     13  C   UNL     1      -6.926 -24.779  32.734  1.00  0.00    -0.000 C 
BRANCH  13  14
ATOM     14  C   UNL     1      -6.013 -26.006  32.547  1.00  0.00    -0.000 C 
BRANCH  14  15
ATOM     15  C   UNL     1      -5.488 -26.135  31.108  1.00  0.00    -0.000 C 
BRANCH  15  16
ATOM     16  C   UNL     1      -5.872 -27.492  30.505  1.00  0.00    -0.003 C 
ATOM     17  C   UNL     1      -5.441 -27.588  29.045  1.00  0.00     0.004 C 
ENDBRANCH  15  16
ENDBRANCH  14  15
ENDBRANCH  13  14
ENDBRANCH  12  13
ENDBRANCH  11  12
ENDBRANCH  10  11
ENDBRANCH   1  10
TORSDOF 13
ENDMDL
MODEL 9
REMARK VINA RESULT:    -4.215      3.645      6.193
REMARK INTER + INTRA:          -9.523
REMARK INTER:                  -8.202
REMARK INTRA:                  -1.321
REMARK UNBOUND:                -2.104
REMARK SMILES CCCCCCCCCCCCCCC(=O)[O-]
REMARK SMILES IDX 9 1 10 2 11 3 12 4 13 5 14 6 15 7 16 8 17 9 8 10 7 11 6 12
REMARK SMILES IDX 5 13 4 14 3 15 2 16 1 17
REMARK H PARENT
REMARK Flexibility Score: inf
ROOT
ATOM      1  C   UNL     1      -7.989 -24.713  30.899  1.00  0.00     0.000 C 
ENDROOT
BRANCH   1   2
ATOM      2  C   UNL     1      -6.775 -25.062  31.778  1.00  0.00     0.000 C 
BRANCH   2   3
ATOM      3  C   UNL     1      -5.901 -26.214  31.247  1.00  0.00     0.000 C 
BRANCH   3   4
ATOM      4  C   UNL     1      -6.497 -26.895  30.005  1.00  0.00     0.000 C 
BRANCH   4   5
ATOM      5  C   UNL     1      -5.423 -27.677  29.239  1.00  0.00     0.006 C 
BRANCH   5   6
ATOM      6  C   UNL     1      -4.253 -28.045  30.155  1.00  0.00     0.053 C 
BRANCH   6   7
ATOM      7  C   UNL     1      -2.963 -28.014  29.396  1.00  0.00     0.041 C 
ATOM      8  O   UNL     1      -2.948 -27.658  28.190  1.00  0.00    -0.550 OA
ATOM      9  O   UNL     1      -1.787 -28.426  30.009  1.00  0.00    -0.550 OA
ENDBRANCH   6   7
ENDBRANCH   5   6
ENDBRANCH   4   5
ENDBRANCH   3   4
ENDBRANCH   2   3
ENDBRANCH   1   2
BRANCH   1  10
ATOM     10  C   UNL     1      -9.331 -24.963  31.606  1.00  0.00     0.000 C 
BRANCH  10  11
ATOM     11  C   UNL     1      -9.930 -26.338  31.267  1.00  0.00    -0.000 C 
BRANCH  11  12
ATOM     12  C   UNL     1     -10.757 -26.343  29.961  1.00  0.00    -0.000 C 
BRANCH  12  13
ATOM     13  C   UNL     1     -10.070 -27.100  28.809  1.00  0.00    -0.000 C 
BRANCH  13  14
ATOM     14  C   UNL     1      -9.862 -26.244  27.546  1.00  0.00    -0.000 C 
BRANCH  14  15
ATOM     15  C   UNL     1     -10.374 -24.805  27.719  1.00  0.00    -0.000 C 
BRANCH  15  16
ATOM     16  C   UNL     1     -10.374 -24.059  26.379  1.00  0.00    -0.003 C 
ATOM     17  C   UNL     1     -11.109 -22.727  26.489  1.00  0.00     0.004 C 
ENDBRANCH  15  16
ENDBRANCH  14  15
ENDBRANCH  13  14
ENDBRANCH  12  13
ENDBRANCH  11  12
ENDBRANCH  10  11
ENDBRANCH   1  10
TORSDOF 13
ENDMDL
