MODEL 1
REMARK VINA RESULT:    -7.342      0.000      0.000
REMARK INTER + INTRA:         -12.173
REMARK INTER:                 -10.776
REMARK INTRA:                  -1.397
REMARK UNBOUND:                -1.397
REMARK SMILES O=c1c(O[C@H]2O[C@H](CO)[C@H](O)[C@H](O)[C@H]2O)c(-c2ccc(O)c(O)c2)oc2cc(O)cc(O)c12
REMARK SMILES IDX 4 1 3 2 16 3 25 4 2 5 26 6 1 7 33 8 27 9 31 10 28 11 30 12
REMARK SMILES IDX 17 13 18 14 19 15 20 16 24 17 22 18 21 19 23 21 32 23 29 25
REMARK SMILES IDX 5 27 14 28 6 29 12 30 7 31 10 32 15 33 13 35 8 37 9 38 11 40
REMARK H PARENT 21 20 23 22 32 24 29 26 15 34 13 36 9 39 11 41
REMARK Flexibility Score: inf
ROOT
ATOM      1  O   UNL     1      15.205 -35.074   0.085  1.00  0.00    -0.454 OA
ENDROOT
BRANCH   1   2
ATOM      2  C   UNL     1      14.174 -35.023  -0.875  1.00  0.00     0.214 A 
ATOM      3  C   UNL     1      14.441 -35.538  -2.161  1.00  0.00     0.180 A 
ATOM      4  O   UNL     1      13.524 -35.465  -3.118  1.00  0.00    -0.452 OA
ATOM      5  C   UNL     1      12.900 -34.458  -0.636  1.00  0.00     0.239 A 
ATOM      6  C   UNL     1      12.319 -34.944  -2.935  1.00  0.00     0.146 A 
ATOM      7  O   UNL     1      12.615 -33.983   0.495  1.00  0.00    -0.285 OA
ATOM      8  C   UNL     1      11.946 -34.418  -1.677  1.00  0.00     0.111 A 
ATOM      9  C   UNL     1      11.419 -34.921  -4.005  1.00  0.00     0.094 A 
ATOM     10  C   UNL     1      10.647 -33.873  -1.517  1.00  0.00     0.134 A 
ATOM     11  C   UNL     1      10.141 -34.381  -3.841  1.00  0.00     0.123 A 
ATOM     12  C   UNL     1       9.759 -33.861  -2.603  1.00  0.00     0.093 A 
BRANCH   3  13
ATOM     13  C   UNL     1      15.747 -36.149  -2.498  1.00  0.00     0.025 A 
ATOM     14  C   UNL     1      16.806 -35.331  -2.910  1.00  0.00     0.016 A 
ATOM     15  C   UNL     1      18.043 -35.890  -3.235  1.00  0.00     0.051 A 
ATOM     16  C   UNL     1      18.242 -37.274  -3.170  1.00  0.00     0.157 A 
ATOM     17  C   UNL     1      15.933 -37.541  -2.459  1.00  0.00     0.062 A 
ATOM     18  C   UNL     1      17.169 -38.111  -2.782  1.00  0.00     0.158 A 
BRANCH  16  19
ATOM     19  O   UNL     1      19.506 -37.769  -3.498  1.00  0.00    -0.504 OA
ATOM     20  H   UNL     1      20.349 -37.215  -3.483  1.00  0.00     0.293 HD
ENDBRANCH  16  19
BRANCH  18  21
ATOM     21  O   UNL     1      17.285 -39.501  -2.710  1.00  0.00    -0.504 OA
ATOM     22  H   UNL     1      17.568 -40.084  -3.484  1.00  0.00     0.293 HD
ENDBRANCH  18  21
ENDBRANCH   3  13
BRANCH  10  23
ATOM     23  O   UNL     1      10.234 -33.346  -0.294  1.00  0.00    -0.507 OA
ATOM     24  H   UNL     1      10.873 -32.856   0.319  1.00  0.00     0.293 HD
ENDBRANCH  10  23
BRANCH  11  25
ATOM     25  O   UNL     1       9.239 -34.355  -4.903  1.00  0.00    -0.508 OA
ATOM     26  H   UNL     1       9.487 -33.948  -5.799  1.00  0.00     0.293 HD
ENDBRANCH  11  25
ENDBRANCH   1   2
BRANCH   1  27
ATOM     27  C   UNL     1      15.167 -35.699   1.374  1.00  0.00     0.339 C 
ATOM     28  C   UNL     1      15.997 -34.883   2.384  1.00  0.00     0.214 C 
ATOM     29  O   UNL     1      15.610 -37.047   1.316  1.00  0.00    -0.332 OA
ATOM     30  C   UNL     1      17.498 -34.981   2.047  1.00  0.00     0.180 C 
ATOM     31  C   UNL     1      16.956 -37.138   0.876  1.00  0.00     0.179 C 
ATOM     32  C   UNL     1      17.906 -36.455   1.885  1.00  0.00     0.177 C 
BRANCH  28  33
ATOM     33  O   UNL     1      15.578 -33.543   2.353  1.00  0.00    -0.384 OA
ATOM     34  H   UNL     1      16.188 -33.034   2.947  1.00  0.00     0.211 HD
ENDBRANCH  28  33
BRANCH  30  35
ATOM     35  O   UNL     1      18.266 -34.388   3.063  1.00  0.00    -0.387 OA
ATOM     36  H   UNL     1      18.489 -33.469   2.758  1.00  0.00     0.211 HD
ENDBRANCH  30  35
BRANCH  31  37
ATOM     37  C   UNL     1      17.307 -38.621   0.682  1.00  0.00     0.191 C 
BRANCH  37  38
ATOM     38  O   UNL     1      18.602 -38.898   1.143  1.00  0.00    -0.394 OA
ATOM     39  H   UNL     1      19.041 -38.022   1.301  1.00  0.00     0.210 HD
ENDBRANCH  37  38
ENDBRANCH  31  37
BRANCH  32  40
ATOM     40  O   UNL     1      17.839 -37.117   3.125  1.00  0.00    -0.387 OA
ATOM     41  H   UNL     1      18.625 -37.721   3.175  1.00  0.00     0.211 HD
ENDBRANCH  32  40
ENDBRANCH   1  27
TORSDOF 12
ENDMDL
MODEL 2
REMARK VINA RESULT:    -7.176      2.241      3.036
REMARK INTER + INTRA:         -11.930
REMARK INTER:                 -10.076
REMARK INTRA:                  -1.854
REMARK UNBOUND:                -1.397
REMARK SMILES O=c1c(O[C@H]2O[C@H](CO)[C@H](O)[C@H](O)[C@H]2O)c(-c2ccc(O)c(O)c2)oc2cc(O)cc(O)c12
REMARK SMILES IDX 4 1 3 2 16 3 25 4 2 5 26 6 1 7 33 8 27 9 31 10 28 11 30 12
REMARK SMILES IDX 17 13 18 14 19 15 20 16 24 17 22 18 21 19 23 21 32 23 29 25
REMARK SMILES IDX 5 27 14 28 6 29 12 30 7 31 10 32 15 33 13 35 8 37 9 38 11 40
REMARK H PARENT 21 20 23 22 32 24 29 26 15 34 13 36 9 39 11 41
REMARK Flexibility Score: inf
ROOT
ATOM      1  O   UNL     1      14.447 -35.940  -1.206  1.00  0.00    -0.454 OA
ENDROOT
BRANCH   1   2
ATOM      2  C   UNL     1      13.804 -36.638  -2.249  1.00  0.00     0.214 A 
ATOM      3  C   UNL     1      14.577 -37.525  -3.027  1.00  0.00     0.180 A 
ATOM      4  O   UNL     1      14.033 -38.166  -4.055  1.00  0.00    -0.452 OA
ATOM      5  C   UNL     1      12.438 -36.479  -2.580  1.00  0.00     0.239 A 
ATOM      6  C   UNL     1      12.759 -38.044  -4.398  1.00  0.00     0.146 A 
ATOM      7  O   UNL     1      11.708 -35.698  -1.915  1.00  0.00    -0.285 OA
ATOM      8  C   UNL     1      11.895 -37.196  -3.669  1.00  0.00     0.111 A 
ATOM      9  C   UNL     1      12.279 -38.770  -5.492  1.00  0.00     0.094 A 
ATOM     10  C   UNL     1      10.537 -37.095  -4.062  1.00  0.00     0.134 A 
ATOM     11  C   UNL     1      10.939 -38.665  -5.876  1.00  0.00     0.123 A 
ATOM     12  C   UNL     1      10.075 -37.832  -5.163  1.00  0.00     0.093 A 
BRANCH   3  13
ATOM     13  C   UNL     1      16.013 -37.753  -2.750  1.00  0.00     0.025 A 
ATOM     14  C   UNL     1      16.979 -37.096  -3.523  1.00  0.00     0.016 A 
ATOM     15  C   UNL     1      18.338 -37.302  -3.277  1.00  0.00     0.051 A 
ATOM     16  C   UNL     1      18.758 -38.177  -2.269  1.00  0.00     0.157 A 
ATOM     17  C   UNL     1      16.430 -38.654  -1.756  1.00  0.00     0.062 A 
ATOM     18  C   UNL     1      17.790 -38.866  -1.501  1.00  0.00     0.158 A 
BRANCH  16  19
ATOM     19  O   UNL     1      20.131 -38.330  -2.067  1.00  0.00    -0.504 OA
ATOM     20  H   UNL     1      20.588 -39.223  -1.956  1.00  0.00     0.293 HD
ENDBRANCH  16  19
BRANCH  18  21
ATOM     21  O   UNL     1      18.131 -39.768  -0.490  1.00  0.00    -0.504 OA
ATOM     22  H   UNL     1      17.474 -40.395  -0.049  1.00  0.00     0.293 HD
ENDBRANCH  18  21
ENDBRANCH   3  13
BRANCH  10  23
ATOM     23  O   UNL     1       9.647 -36.273  -3.372  1.00  0.00    -0.507 OA
ATOM     24  H   UNL     1       8.833 -35.871  -3.821  1.00  0.00     0.293 HD
ENDBRANCH  10  23
BRANCH  11  25
ATOM     25  O   UNL     1      10.453 -39.385  -6.966  1.00  0.00    -0.508 OA
ATOM     26  H   UNL     1       9.739 -39.003  -7.577  1.00  0.00     0.293 HD
ENDBRANCH  11  25
ENDBRANCH   1   2
BRANCH   1  27
ATOM     27  C   UNL     1      14.332 -36.174   0.202  1.00  0.00     0.339 C 
ATOM     28  C   UNL     1      13.831 -34.903   0.913  1.00  0.00     0.214 C 
ATOM     29  O   UNL     1      15.559 -36.624   0.760  1.00  0.00    -0.332 OA
ATOM     30  C   UNL     1      14.914 -33.807   0.878  1.00  0.00     0.180 C 
ATOM     31  C   UNL     1      16.589 -35.660   0.606  1.00  0.00     0.179 C 
ATOM     32  C   UNL     1      16.251 -34.372   1.388  1.00  0.00     0.177 C 
BRANCH  28  33
ATOM     33  O   UNL     1      12.660 -34.450   0.282  1.00  0.00    -0.384 OA
ATOM     34  H   UNL     1      12.161 -33.912   0.950  1.00  0.00     0.211 HD
ENDBRANCH  28  33
BRANCH  30  35
ATOM     35  O   UNL     1      14.530 -32.715   1.675  1.00  0.00    -0.387 OA
ATOM     36  H   UNL     1      13.937 -32.145   1.118  1.00  0.00     0.211 HD
ENDBRANCH  30  35
BRANCH  31  37
ATOM     37  C   UNL     1      17.913 -36.280   1.081  1.00  0.00     0.191 C 
BRANCH  37  38
ATOM     38  O   UNL     1      18.825 -35.289   1.465  1.00  0.00    -0.394 OA
ATOM     39  H   UNL     1      19.730 -35.635   1.250  1.00  0.00     0.210 HD
ENDBRANCH  37  38
ENDBRANCH  31  37
BRANCH  32  40
ATOM     40  O   UNL     1      16.166 -34.658   2.763  1.00  0.00    -0.387 OA
ATOM     41  H   UNL     1      17.056 -34.994   3.046  1.00  0.00     0.211 HD
ENDBRANCH  32  40
ENDBRANCH   1  27
TORSDOF 12
ENDMDL
MODEL 3
REMARK VINA RESULT:    -7.031      3.003      5.548
REMARK INTER + INTRA:         -11.717
REMARK INTER:                  -9.895
REMARK INTRA:                  -1.821
REMARK UNBOUND:                -1.397
REMARK SMILES O=c1c(O[C@H]2O[C@H](CO)[C@H](O)[C@H](O)[C@H]2O)c(-c2ccc(O)c(O)c2)oc2cc(O)cc(O)c12
REMARK SMILES IDX 4 1 3 2 16 3 25 4 2 5 26 6 1 7 33 8 27 9 31 10 28 11 30 12
REMARK SMILES IDX 17 13 18 14 19 15 20 16 24 17 22 18 21 19 23 21 32 23 29 25
REMARK SMILES IDX 5 27 14 28 6 29 12 30 7 31 10 32 15 33 13 35 8 37 9 38 11 40
REMARK H PARENT 21 20 23 22 32 24 29 26 15 34 13 36 9 39 11 41
REMARK Flexibility Score: inf
ROOT
ATOM      1  O   UNL     1      14.856 -38.085  -1.883  1.00  0.00    -0.454 OA
ENDROOT
BRANCH   1   2
ATOM      2  C   UNL     1      13.905 -38.302  -2.902  1.00  0.00     0.214 A 
ATOM      3  C   UNL     1      13.006 -37.256  -3.200  1.00  0.00     0.180 A 
ATOM      4  O   UNL     1      12.057 -37.427  -4.112  1.00  0.00    -0.452 OA
ATOM      5  C   UNL     1      13.779 -39.514  -3.619  1.00  0.00     0.239 A 
ATOM      6  C   UNL     1      11.904 -38.546  -4.806  1.00  0.00     0.146 A 
ATOM      7  O   UNL     1      14.557 -40.477  -3.387  1.00  0.00    -0.285 OA
ATOM      8  C   UNL     1      12.767 -39.646  -4.595  1.00  0.00     0.111 A 
ATOM      9  C   UNL     1      10.878 -38.624  -5.752  1.00  0.00     0.094 A 
ATOM     10  C   UNL     1      12.577 -40.825  -5.359  1.00  0.00     0.134 A 
ATOM     11  C   UNL     1      10.695 -39.790  -6.501  1.00  0.00     0.123 A 
ATOM     12  C   UNL     1      11.542 -40.882  -6.304  1.00  0.00     0.093 A 
BRANCH   3  13
ATOM     13  C   UNL     1      13.067 -35.954  -2.499  1.00  0.00     0.025 A 
ATOM     14  C   UNL     1      13.696 -34.866  -3.117  1.00  0.00     0.016 A 
ATOM     15  C   UNL     1      13.765 -33.631  -2.470  1.00  0.00     0.051 A 
ATOM     16  C   UNL     1      13.224 -33.463  -1.190  1.00  0.00     0.157 A 
ATOM     17  C   UNL     1      12.549 -35.798  -1.203  1.00  0.00     0.062 A 
ATOM     18  C   UNL     1      12.613 -34.564  -0.546  1.00  0.00     0.158 A 
BRANCH  16  19
ATOM     19  O   UNL     1      13.318 -32.200  -0.602  1.00  0.00    -0.504 OA
ATOM     20  H   UNL     1      13.498 -32.047   0.379  1.00  0.00     0.293 HD
ENDBRANCH  16  19
BRANCH  18  21
ATOM     21  O   UNL     1      12.066 -34.480   0.737  1.00  0.00    -0.504 OA
ATOM     22  H   UNL     1      11.312 -33.858   0.988  1.00  0.00     0.293 HD
ENDBRANCH  18  21
ENDBRANCH   3  13
BRANCH  10  23
ATOM     23  O   UNL     1      13.405 -41.935  -5.188  1.00  0.00    -0.507 OA
ATOM     24  H   UNL     1      14.166 -41.934  -4.520  1.00  0.00     0.293 HD
ENDBRANCH  10  23
BRANCH  11  25
ATOM     25  O   UNL     1       9.674 -39.875  -7.446  1.00  0.00    -0.508 OA
ATOM     26  H   UNL     1       9.216 -39.045  -7.807  1.00  0.00     0.293 HD
ENDBRANCH  11  25
ENDBRANCH   1   2
BRANCH   1  27
ATOM     27  C   UNL     1      16.128 -37.437  -1.999  1.00  0.00     0.339 C 
ATOM     28  C   UNL     1      17.263 -38.436  -1.707  1.00  0.00     0.214 C 
ATOM     29  O   UNL     1      16.215 -36.299  -1.152  1.00  0.00    -0.332 OA
ATOM     30  C   UNL     1      17.261 -38.829  -0.217  1.00  0.00     0.180 C 
ATOM     31  C   UNL     1      16.079 -36.653   0.215  1.00  0.00     0.179 C 
ATOM     32  C   UNL     1      17.244 -37.565   0.660  1.00  0.00     0.177 C 
BRANCH  28  33
ATOM     33  O   UNL     1      17.094 -39.576  -2.511  1.00  0.00    -0.384 OA
ATOM     34  H   UNL     1      16.714 -39.269  -3.374  1.00  0.00     0.211 HD
ENDBRANCH  28  33
BRANCH  30  35
ATOM     35  O   UNL     1      18.397 -39.598   0.087  1.00  0.00    -0.387 OA
ATOM     36  H   UNL     1      18.834 -39.171   0.869  1.00  0.00     0.211 HD
ENDBRANCH  30  35
BRANCH  31  37
ATOM     37  C   UNL     1      16.019 -35.364   1.049  1.00  0.00     0.191 C 
BRANCH  37  38
ATOM     38  O   UNL     1      16.538 -35.569   2.334  1.00  0.00    -0.394 OA
ATOM     39  H   UNL     1      17.008 -34.733   2.589  1.00  0.00     0.210 HD
ENDBRANCH  37  38
ENDBRANCH  31  37
BRANCH  32  40
ATOM     40  O   UNL     1      18.463 -36.872   0.539  1.00  0.00    -0.387 OA
ATOM     41  H   UNL     1      19.086 -37.464   0.042  1.00  0.00     0.211 HD
ENDBRANCH  32  40
ENDBRANCH   1  27
TORSDOF 12
ENDMDL
MODEL 4
REMARK VINA RESULT:    -6.924      3.181      5.748
REMARK INTER + INTRA:         -11.559
REMARK INTER:                 -10.009
REMARK INTRA:                  -1.550
REMARK UNBOUND:                -1.397
REMARK SMILES O=c1c(O[C@H]2O[C@H](CO)[C@H](O)[C@H](O)[C@H]2O)c(-c2ccc(O)c(O)c2)oc2cc(O)cc(O)c12
REMARK SMILES IDX 4 1 3 2 16 3 25 4 2 5 26 6 1 7 33 8 27 9 31 10 28 11 30 12
REMARK SMILES IDX 17 13 18 14 19 15 20 16 24 17 22 18 21 19 23 21 32 23 29 25
REMARK SMILES IDX 5 27 14 28 6 29 12 30 7 31 10 32 15 33 13 35 8 37 9 38 11 40
REMARK H PARENT 21 20 23 22 32 24 29 26 15 34 13 36 9 39 11 41
REMARK Flexibility Score: inf
ROOT
ATOM      1  O   UNL     1      13.461 -36.383  -2.546  1.00  0.00    -0.454 OA
ENDROOT
BRANCH   1   2
ATOM      2  C   UNL     1      13.185 -37.548  -3.290  1.00  0.00     0.214 A 
ATOM      3  C   UNL     1      14.165 -38.562  -3.318  1.00  0.00     0.180 A 
ATOM      4  O   UNL     1      13.979 -39.656  -4.048  1.00  0.00    -0.452 OA
ATOM      5  C   UNL     1      11.999 -37.747  -4.034  1.00  0.00     0.239 A 
ATOM      6  C   UNL     1      12.883 -39.881  -4.759  1.00  0.00     0.146 A 
ATOM      7  O   UNL     1      11.096 -36.869  -4.042  1.00  0.00    -0.285 OA
ATOM      8  C   UNL     1      11.833 -38.934  -4.781  1.00  0.00     0.111 A 
ATOM      9  C   UNL     1      12.778 -41.069  -5.488  1.00  0.00     0.094 A 
ATOM     10  C   UNL     1      10.674 -39.211  -5.549  1.00  0.00     0.134 A 
ATOM     11  C   UNL     1      11.633 -41.336  -6.244  1.00  0.00     0.123 A 
ATOM     12  C   UNL     1      10.588 -40.410  -6.272  1.00  0.00     0.093 A 
BRANCH   3  13
ATOM     13  C   UNL     1      15.435 -38.439  -2.568  1.00  0.00     0.025 A 
ATOM     14  C   UNL     1      15.444 -38.655  -1.185  1.00  0.00     0.016 A 
ATOM     15  C   UNL     1      16.632 -38.539  -0.460  1.00  0.00     0.051 A 
ATOM     16  C   UNL     1      17.827 -38.191  -1.099  1.00  0.00     0.157 A 
ATOM     17  C   UNL     1      16.626 -38.061  -3.209  1.00  0.00     0.062 A 
ATOM     18  C   UNL     1      17.823 -37.943  -2.492  1.00  0.00     0.158 A 
BRANCH  16  19
ATOM     19  O   UNL     1      18.982 -38.103  -0.320  1.00  0.00    -0.504 OA
ATOM     20  H   UNL     1      19.063 -37.529   0.507  1.00  0.00     0.293 HD
ENDBRANCH  16  19
BRANCH  18  21
ATOM     21  O   UNL     1      18.971 -37.574  -3.196  1.00  0.00    -0.504 OA
ATOM     22  H   UNL     1      19.226 -37.953  -4.097  1.00  0.00     0.293 HD
ENDBRANCH  18  21
ENDBRANCH   3  13
BRANCH  10  23
ATOM     23  O   UNL     1       9.611 -38.308  -5.598  1.00  0.00    -0.507 OA
ATOM     24  H   UNL     1       9.238 -37.877  -4.761  1.00  0.00     0.293 HD
ENDBRANCH  10  23
BRANCH  11  25
ATOM     25  O   UNL     1      11.522 -42.518  -6.973  1.00  0.00    -0.508 OA
ATOM     26  H   UNL     1      11.387 -43.412  -6.514  1.00  0.00     0.293 HD
ENDBRANCH  11  25
ENDBRANCH   1   2
BRANCH   1  27
ATOM     27  C   UNL     1      13.950 -35.129  -3.037  1.00  0.00     0.339 C 
ATOM     28  C   UNL     1      14.697 -34.375  -1.920  1.00  0.00     0.214 C 
ATOM     29  O   UNL     1      12.904 -34.336  -3.581  1.00  0.00    -0.332 OA
ATOM     30  C   UNL     1      13.707 -33.908  -0.835  1.00  0.00     0.180 C 
ATOM     31  C   UNL     1      11.925 -34.020  -2.603  1.00  0.00     0.179 C 
ATOM     32  C   UNL     1      12.535 -33.150  -1.482  1.00  0.00     0.177 C 
BRANCH  28  33
ATOM     33  O   UNL     1      15.669 -35.221  -1.360  1.00  0.00    -0.384 OA
ATOM     34  H   UNL     1      15.693 -35.030  -0.386  1.00  0.00     0.211 HD
ENDBRANCH  28  33
BRANCH  30  35
ATOM     35  O   UNL     1      14.354 -33.072   0.091  1.00  0.00    -0.387 OA
ATOM     36  H   UNL     1      14.507 -33.612   0.910  1.00  0.00     0.211 HD
ENDBRANCH  30  35
BRANCH  31  37
ATOM     37  C   UNL     1      10.754 -33.307  -3.299  1.00  0.00     0.191 C 
BRANCH  37  38
ATOM     38  O   UNL     1      10.324 -34.024  -4.424  1.00  0.00    -0.394 OA
ATOM     39  H   UNL     1      10.141 -33.356  -5.135  1.00  0.00     0.210 HD
ENDBRANCH  37  38
ENDBRANCH  31  37
BRANCH  32  40
ATOM     40  O   UNL     1      12.983 -31.928  -2.018  1.00  0.00    -0.387 OA
ATOM     41  H   UNL     1      12.406 -31.215  -1.639  1.00  0.00     0.211 HD
ENDBRANCH  32  40
ENDBRANCH   1  27
TORSDOF 12
ENDMDL
MODEL 5
REMARK VINA RESULT:    -6.781      2.356      3.869
REMARK INTER + INTRA:         -11.350
REMARK INTER:                  -9.817
REMARK INTRA:                  -1.534
REMARK UNBOUND:                -1.397
REMARK SMILES O=c1c(O[C@H]2O[C@H](CO)[C@H](O)[C@H](O)[C@H]2O)c(-c2ccc(O)c(O)c2)oc2cc(O)cc(O)c12
REMARK SMILES IDX 4 1 3 2 16 3 25 4 2 5 26 6 1 7 33 8 27 9 31 10 28 11 30 12
REMARK SMILES IDX 17 13 18 14 19 15 20 16 24 17 22 18 21 19 23 21 32 23 29 25
REMARK SMILES IDX 5 27 14 28 6 29 12 30 7 31 10 32 15 33 13 35 8 37 9 38 11 40
REMARK H PARENT 21 20 23 22 32 24 29 26 15 34 13 36 9 39 11 41
REMARK Flexibility Score: inf
ROOT
ATOM      1  O   UNL     1      14.489 -36.126  -1.191  1.00  0.00    -0.454 OA
ENDROOT
BRANCH   1   2
ATOM      2  C   UNL     1      13.850 -36.814  -2.243  1.00  0.00     0.214 A 
ATOM      3  C   UNL     1      14.636 -37.659  -3.054  1.00  0.00     0.180 A 
ATOM      4  O   UNL     1      14.094 -38.287  -4.091  1.00  0.00    -0.452 OA
ATOM      5  C   UNL     1      12.476 -36.683  -2.551  1.00  0.00     0.239 A 
ATOM      6  C   UNL     1      12.812 -38.191  -4.414  1.00  0.00     0.146 A 
ATOM      7  O   UNL     1      11.734 -35.938  -1.857  1.00  0.00    -0.285 OA
ATOM      8  C   UNL     1      11.937 -37.385  -3.652  1.00  0.00     0.111 A 
ATOM      9  C   UNL     1      12.336 -38.901  -5.521  1.00  0.00     0.094 A 
ATOM     10  C   UNL     1      10.571 -37.310  -4.025  1.00  0.00     0.134 A 
ATOM     11  C   UNL     1      10.989 -38.822  -5.884  1.00  0.00     0.123 A 
ATOM     12  C   UNL     1      10.114 -38.031  -5.138  1.00  0.00     0.093 A 
BRANCH   3  13
ATOM     13  C   UNL     1      16.080 -37.855  -2.802  1.00  0.00     0.025 A 
ATOM     14  C   UNL     1      17.018 -37.224  -3.629  1.00  0.00     0.016 A 
ATOM     15  C   UNL     1      18.385 -37.401  -3.408  1.00  0.00     0.051 A 
ATOM     16  C   UNL     1      18.842 -38.222  -2.370  1.00  0.00     0.157 A 
ATOM     17  C   UNL     1      16.533 -38.703  -1.777  1.00  0.00     0.062 A 
ATOM     18  C   UNL     1      17.902 -38.886  -1.547  1.00  0.00     0.158 A 
BRANCH  16  19
ATOM     19  O   UNL     1      20.221 -38.348  -2.195  1.00  0.00    -0.504 OA
ATOM     20  H   UNL     1      20.749 -37.848  -1.496  1.00  0.00     0.293 HD
ENDBRANCH  16  19
BRANCH  18  21
ATOM     21  O   UNL     1      18.279 -39.734  -0.503  1.00  0.00    -0.504 OA
ATOM     22  H   UNL     1      17.739 -40.532  -0.202  1.00  0.00     0.293 HD
ENDBRANCH  18  21
ENDBRANCH   3  13
BRANCH  10  23
ATOM     23  O   UNL     1       9.669 -36.530  -3.301  1.00  0.00    -0.507 OA
ATOM     24  H   UNL     1       9.980 -35.863  -2.605  1.00  0.00     0.293 HD
ENDBRANCH  10  23
BRANCH  11  25
ATOM     25  O   UNL     1      10.507 -39.526  -6.986  1.00  0.00    -0.508 OA
ATOM     26  H   UNL     1       9.852 -39.107  -7.636  1.00  0.00     0.293 HD
ENDBRANCH  11  25
ENDBRANCH   1   2
BRANCH   1  27
ATOM     27  C   UNL     1      14.851 -34.740  -1.147  1.00  0.00     0.339 C 
ATOM     28  C   UNL     1      16.085 -34.542  -0.247  1.00  0.00     0.214 C 
ATOM     29  O   UNL     1      13.766 -33.929  -0.716  1.00  0.00    -0.332 OA
ATOM     30  C   UNL     1      15.722 -34.804   1.228  1.00  0.00     0.180 C 
ATOM     31  C   UNL     1      13.348 -34.268   0.597  1.00  0.00     0.179 C 
ATOM     32  C   UNL     1      14.476 -33.989   1.616  1.00  0.00     0.177 C 
BRANCH  28  33
ATOM     33  O   UNL     1      17.105 -35.415  -0.660  1.00  0.00    -0.384 OA
ATOM     34  H   UNL     1      17.146 -36.148   0.008  1.00  0.00     0.211 HD
ENDBRANCH  28  33
BRANCH  30  35
ATOM     35  O   UNL     1      16.794 -34.454   2.065  1.00  0.00    -0.387 OA
ATOM     36  H   UNL     1      17.622 -34.534   1.524  1.00  0.00     0.211 HD
ENDBRANCH  30  35
BRANCH  31  37
ATOM     37  C   UNL     1      12.078 -33.468   0.926  1.00  0.00     0.191 C 
BRANCH  37  38
ATOM     38  O   UNL     1      11.080 -33.690  -0.032  1.00  0.00    -0.394 OA
ATOM     39  H   UNL     1      11.421 -33.324  -0.889  1.00  0.00     0.210 HD
ENDBRANCH  37  38
ENDBRANCH  31  37
BRANCH  32  40
ATOM     40  O   UNL     1      14.778 -32.615   1.628  1.00  0.00    -0.387 OA
ATOM     41  H   UNL     1      15.420 -32.464   2.369  1.00  0.00     0.211 HD
ENDBRANCH  32  40
ENDBRANCH   1  27
TORSDOF 12
ENDMDL
MODEL 6
REMARK VINA RESULT:    -6.710      3.320      5.098
REMARK INTER + INTRA:         -11.245
REMARK INTER:                  -9.471
REMARK INTRA:                  -1.775
REMARK UNBOUND:                -1.397
REMARK SMILES O=c1c(O[C@H]2O[C@H](CO)[C@H](O)[C@H](O)[C@H]2O)c(-c2ccc(O)c(O)c2)oc2cc(O)cc(O)c12
REMARK SMILES IDX 4 1 3 2 16 3 25 4 2 5 26 6 1 7 33 8 27 9 31 10 28 11 30 12
REMARK SMILES IDX 17 13 18 14 19 15 20 16 24 17 22 18 21 19 23 21 32 23 29 25
REMARK SMILES IDX 5 27 14 28 6 29 12 30 7 31 10 32 15 33 13 35 8 37 9 38 11 40
REMARK H PARENT 21 20 23 22 32 24 29 26 15 34 13 36 9 39 11 41
REMARK Flexibility Score: inf
ROOT
ATOM      1  O   UNL     1      13.407 -36.303  -2.956  1.00  0.00    -0.454 OA
ENDROOT
BRANCH   1   2
ATOM      2  C   UNL     1      13.055 -37.476  -3.654  1.00  0.00     0.214 A 
ATOM      3  C   UNL     1      14.001 -38.521  -3.709  1.00  0.00     0.180 A 
ATOM      4  O   UNL     1      13.741 -39.626  -4.399  1.00  0.00    -0.452 OA
ATOM      5  C   UNL     1      11.824 -37.655  -4.327  1.00  0.00     0.239 A 
ATOM      6  C   UNL     1      12.602 -39.832  -5.043  1.00  0.00     0.146 A 
ATOM      7  O   UNL     1      10.949 -36.749  -4.308  1.00  0.00    -0.285 OA
ATOM      8  C   UNL     1      11.582 -38.854  -5.033  1.00  0.00     0.111 A 
ATOM      9  C   UNL     1      12.421 -41.034  -5.735  1.00  0.00     0.094 A 
ATOM     10  C   UNL     1      10.374 -39.112  -5.729  1.00  0.00     0.134 A 
ATOM     11  C   UNL     1      11.229 -41.282  -6.420  1.00  0.00     0.123 A 
ATOM     12  C   UNL     1      10.213 -40.325  -6.416  1.00  0.00     0.093 A 
BRANCH   3  13
ATOM     13  C   UNL     1      15.313 -38.420  -3.032  1.00  0.00     0.025 A 
ATOM     14  C   UNL     1      15.438 -38.836  -1.700  1.00  0.00     0.016 A 
ATOM     15  C   UNL     1      16.667 -38.745  -1.045  1.00  0.00     0.051 A 
ATOM     16  C   UNL     1      17.789 -38.223  -1.699  1.00  0.00     0.157 A 
ATOM     17  C   UNL     1      16.429 -37.869  -3.683  1.00  0.00     0.062 A 
ATOM     18  C   UNL     1      17.665 -37.774  -3.035  1.00  0.00     0.158 A 
BRANCH  16  19
ATOM     19  O   UNL     1      18.991 -38.169  -0.991  1.00  0.00    -0.504 OA
ATOM     20  H   UNL     1      19.695 -37.458  -1.129  1.00  0.00     0.293 HD
ENDBRANCH  16  19
BRANCH  18  21
ATOM     21  O   UNL     1      18.734 -37.225  -3.748  1.00  0.00    -0.504 OA
ATOM     22  H   UNL     1      19.689 -37.220  -3.418  1.00  0.00     0.293 HD
ENDBRANCH  18  21
ENDBRANCH   3  13
BRANCH  10  23
ATOM     23  O   UNL     1       9.339 -38.178  -5.745  1.00  0.00    -0.507 OA
ATOM     24  H   UNL     1       8.371 -38.455  -5.862  1.00  0.00     0.293 HD
ENDBRANCH  10  23
BRANCH  11  25
ATOM     25  O   UNL     1      11.042 -42.477  -7.112  1.00  0.00    -0.508 OA
ATOM     26  H   UNL     1      11.543 -43.321  -6.856  1.00  0.00     0.293 HD
ENDBRANCH  11  25
ENDBRANCH   1   2
BRANCH   1  27
ATOM     27  C   UNL     1      12.901 -35.853  -1.693  1.00  0.00     0.339 C 
ATOM     28  C   UNL     1      12.353 -34.419  -1.820  1.00  0.00     0.214 C 
ATOM     29  O   UNL     1      13.888 -35.937  -0.674  1.00  0.00    -0.332 OA
ATOM     30  C   UNL     1      13.506 -33.423  -2.053  1.00  0.00     0.180 C 
ATOM     31  C   UNL     1      15.009 -35.116  -0.962  1.00  0.00     0.179 C 
ATOM     32  C   UNL     1      14.601 -33.627  -0.992  1.00  0.00     0.177 C 
BRANCH  28  33
ATOM     33  O   UNL     1      11.440 -34.365  -2.886  1.00  0.00    -0.384 OA
ATOM     34  H   UNL     1      11.972 -34.335  -3.722  1.00  0.00     0.211 HD
ENDBRANCH  28  33
BRANCH  30  35
ATOM     35  O   UNL     1      13.031 -32.103  -1.993  1.00  0.00    -0.387 OA
ATOM     36  H   UNL     1      12.831 -31.910  -1.040  1.00  0.00     0.211 HD
ENDBRANCH  30  35
BRANCH  31  37
ATOM     37  C   UNL     1      16.094 -35.385   0.093  1.00  0.00     0.191 C 
BRANCH  37  38
ATOM     38  O   UNL     1      17.374 -35.333  -0.475  1.00  0.00    -0.394 OA
ATOM     39  H   UNL     1      17.607 -36.261  -0.738  1.00  0.00     0.210 HD
ENDBRANCH  37  38
ENDBRANCH  31  37
BRANCH  32  40
ATOM     40  O   UNL     1      14.128 -33.238   0.275  1.00  0.00    -0.387 OA
ATOM     41  H   UNL     1      14.161 -32.246   0.307  1.00  0.00     0.211 HD
ENDBRANCH  32  40
ENDBRANCH   1  27
TORSDOF 12
ENDMDL
MODEL 7
REMARK VINA RESULT:    -6.447      2.305      7.844
REMARK INTER + INTRA:         -10.859
REMARK INTER:                  -8.786
REMARK INTRA:                  -2.073
REMARK UNBOUND:                -1.397
REMARK SMILES O=c1c(O[C@H]2O[C@H](CO)[C@H](O)[C@H](O)[C@H]2O)c(-c2ccc(O)c(O)c2)oc2cc(O)cc(O)c12
REMARK SMILES IDX 4 1 3 2 16 3 25 4 2 5 26 6 1 7 33 8 27 9 31 10 28 11 30 12
REMARK SMILES IDX 17 13 18 14 19 15 20 16 24 17 22 18 21 19 23 21 32 23 29 25
REMARK SMILES IDX 5 27 14 28 6 29 12 30 7 31 10 32 15 33 13 35 8 37 9 38 11 40
REMARK H PARENT 21 20 23 22 32 24 29 26 15 34 13 36 9 39 11 41
REMARK Flexibility Score: inf
ROOT
ATOM      1  O   UNL     1      14.123 -37.478  -2.554  1.00  0.00    -0.454 OA
ENDROOT
BRANCH   1   2
ATOM      2  C   UNL     1      14.942 -37.035  -1.496  1.00  0.00     0.214 A 
ATOM      3  C   UNL     1      14.671 -35.770  -0.935  1.00  0.00     0.180 A 
ATOM      4  O   UNL     1      15.446 -35.281   0.027  1.00  0.00    -0.452 OA
ATOM      5  C   UNL     1      16.038 -37.769  -0.985  1.00  0.00     0.239 A 
ATOM      6  C   UNL     1      16.481 -35.937   0.533  1.00  0.00     0.146 A 
ATOM      7  O   UNL     1      16.320 -38.903  -1.455  1.00  0.00    -0.285 OA
ATOM      8  C   UNL     1      16.824 -37.221   0.052  1.00  0.00     0.111 A 
ATOM      9  C   UNL     1      17.230 -35.340   1.551  1.00  0.00     0.094 A 
ATOM     10  C   UNL     1      17.934 -37.894   0.621  1.00  0.00     0.134 A 
ATOM     11  C   UNL     1      18.325 -36.008   2.107  1.00  0.00     0.123 A 
ATOM     12  C   UNL     1      18.672 -37.278   1.642  1.00  0.00     0.093 A 
BRANCH   3  13
ATOM     13  C   UNL     1      13.544 -34.935  -1.407  1.00  0.00     0.025 A 
ATOM     14  C   UNL     1      13.732 -34.070  -2.493  1.00  0.00     0.016 A 
ATOM     15  C   UNL     1      12.682 -33.272  -2.950  1.00  0.00     0.051 A 
ATOM     16  C   UNL     1      11.430 -33.312  -2.324  1.00  0.00     0.157 A 
ATOM     17  C   UNL     1      12.299 -34.956  -0.759  1.00  0.00     0.062 A 
ATOM     18  C   UNL     1      11.238 -34.162  -1.210  1.00  0.00     0.158 A 
BRANCH  16  19
ATOM     19  O   UNL     1      10.418 -32.497  -2.836  1.00  0.00    -0.504 OA
ATOM     20  H   UNL     1      10.525 -31.910  -3.650  1.00  0.00     0.293 HD
ENDBRANCH  16  19
BRANCH  18  21
ATOM     21  O   UNL     1      10.025 -34.243  -0.523  1.00  0.00    -0.504 OA
ATOM     22  H   UNL     1       9.949 -34.411   0.470  1.00  0.00     0.293 HD
ENDBRANCH  18  21
ENDBRANCH   3  13
BRANCH  10  23
ATOM     23  O   UNL     1      18.309 -39.164   0.181  1.00  0.00    -0.507 OA
ATOM     24  H   UNL     1      19.277 -39.404   0.008  1.00  0.00     0.293 HD
ENDBRANCH  10  23
BRANCH  11  25
ATOM     25  O   UNL     1      19.077 -35.419   3.121  1.00  0.00    -0.508 OA
ATOM     26  H   UNL     1      19.569 -34.545   2.976  1.00  0.00     0.293 HD
ENDBRANCH  11  25
ENDBRANCH   1   2
BRANCH   1  27
ATOM     27  C   UNL     1      13.033 -38.405  -2.485  1.00  0.00     0.339 C 
ATOM     28  C   UNL     1      13.243 -39.550  -3.495  1.00  0.00     0.214 C 
ATOM     29  O   UNL     1      11.783 -37.761  -2.693  1.00  0.00    -0.332 OA
ATOM     30  C   UNL     1      13.100 -39.025  -4.937  1.00  0.00     0.180 C 
ATOM     31  C   UNL     1      11.709 -37.164  -3.978  1.00  0.00     0.179 C 
ATOM     32  C   UNL     1      11.785 -38.240  -5.084  1.00  0.00     0.177 C 
BRANCH  28  33
ATOM     33  O   UNL     1      14.518 -40.107  -3.305  1.00  0.00    -0.384 OA
ATOM     34  H   UNL     1      15.157 -39.351  -3.229  1.00  0.00     0.211 HD
ENDBRANCH  28  33
BRANCH  30  35
ATOM     35  O   UNL     1      13.115 -40.092  -5.850  1.00  0.00    -0.387 OA
ATOM     36  H   UNL     1      12.361 -39.947  -6.479  1.00  0.00     0.211 HD
ENDBRANCH  30  35
BRANCH  31  37
ATOM     37  C   UNL     1      10.407 -36.353  -4.065  1.00  0.00     0.191 C 
BRANCH  37  38
ATOM     38  O   UNL     1       9.419 -36.896  -3.232  1.00  0.00    -0.394 OA
ATOM     39  H   UNL     1       9.001 -37.642  -3.735  1.00  0.00     0.210 HD
ENDBRANCH  37  38
ENDBRANCH  31  37
BRANCH  32  40
ATOM     40  O   UNL     1      10.684 -39.111  -4.977  1.00  0.00    -0.387 OA
ATOM     41  H   UNL     1      10.660 -39.652  -5.808  1.00  0.00     0.211 HD
ENDBRANCH  32  40
ENDBRANCH   1  27
TORSDOF 12
ENDMDL
MODEL 8
REMARK VINA RESULT:    -6.370      2.521      7.587
REMARK INTER + INTRA:         -10.746
REMARK INTER:                  -9.464
REMARK INTRA:                  -1.282
REMARK UNBOUND:                -1.397
REMARK SMILES O=c1c(O[C@H]2O[C@H](CO)[C@H](O)[C@H](O)[C@H]2O)c(-c2ccc(O)c(O)c2)oc2cc(O)cc(O)c12
REMARK SMILES IDX 4 1 3 2 16 3 25 4 2 5 26 6 1 7 33 8 27 9 31 10 28 11 30 12
REMARK SMILES IDX 17 13 18 14 19 15 20 16 24 17 22 18 21 19 23 21 32 23 29 25
REMARK SMILES IDX 5 27 14 28 6 29 12 30 7 31 10 32 15 33 13 35 8 37 9 38 11 40
REMARK H PARENT 21 20 23 22 32 24 29 26 15 34 13 36 9 39 11 41
REMARK Flexibility Score: inf
ROOT
ATOM      1  O   UNL     1      14.054 -37.508  -2.329  1.00  0.00    -0.454 OA
ENDROOT
BRANCH   1   2
ATOM      2  C   UNL     1      14.902 -37.016  -1.315  1.00  0.00     0.214 A 
ATOM      3  C   UNL     1      14.674 -35.708  -0.841  1.00  0.00     0.180 A 
ATOM      4  O   UNL     1      15.477 -35.176   0.075  1.00  0.00    -0.452 OA
ATOM      5  C   UNL     1      15.984 -37.744  -0.769  1.00  0.00     0.239 A 
ATOM      6  C   UNL     1      16.501 -35.825   0.611  1.00  0.00     0.146 A 
ATOM      7  O   UNL     1      16.228 -38.916  -1.163  1.00  0.00    -0.285 OA
ATOM      8  C   UNL     1      16.801 -37.148   0.217  1.00  0.00     0.111 A 
ATOM      9  C   UNL     1      17.282 -35.180   1.575  1.00  0.00     0.094 A 
ATOM     10  C   UNL     1      17.901 -37.812   0.816  1.00  0.00     0.134 A 
ATOM     11  C   UNL     1      18.366 -35.839   2.162  1.00  0.00     0.123 A 
ATOM     12  C   UNL     1      18.671 -37.148   1.782  1.00  0.00     0.093 A 
BRANCH   3  13
ATOM     13  C   UNL     1      13.564 -34.875  -1.355  1.00  0.00     0.025 A 
ATOM     14  C   UNL     1      13.849 -33.675  -2.017  1.00  0.00     0.016 A 
ATOM     15  C   UNL     1      12.815 -32.876  -2.506  1.00  0.00     0.051 A 
ATOM     16  C   UNL     1      11.478 -33.251  -2.330  1.00  0.00     0.157 A 
ATOM     17  C   UNL     1      12.223 -35.241  -1.151  1.00  0.00     0.062 A 
ATOM     18  C   UNL     1      11.179 -34.447  -1.638  1.00  0.00     0.158 A 
BRANCH  16  19
ATOM     19  O   UNL     1      10.490 -32.413  -2.852  1.00  0.00    -0.504 OA
ATOM     20  H   UNL     1      10.646 -31.758  -3.604  1.00  0.00     0.293 HD
ENDBRANCH  16  19
BRANCH  18  21
ATOM     21  O   UNL     1       9.870 -34.879  -1.408  1.00  0.00    -0.504 OA
ATOM     22  H   UNL     1       9.246 -34.455  -0.737  1.00  0.00     0.293 HD
ENDBRANCH  18  21
ENDBRANCH   3  13
BRANCH  10  23
ATOM     23  O   UNL     1      18.233 -39.119   0.461  1.00  0.00    -0.507 OA
ATOM     24  H   UNL     1      18.250 -39.422  -0.506  1.00  0.00     0.293 HD
ENDBRANCH  10  23
BRANCH  11  25
ATOM     25  O   UNL     1      19.149 -35.203   3.123  1.00  0.00    -0.508 OA
ATOM     26  H   UNL     1      18.744 -34.565   3.798  1.00  0.00     0.293 HD
ENDBRANCH  11  25
ENDBRANCH   1   2
BRANCH   1  27
ATOM     27  C   UNL     1      14.404 -37.825  -3.682  1.00  0.00     0.339 C 
ATOM     28  C   UNL     1      13.276 -37.391  -4.638  1.00  0.00     0.214 C 
ATOM     29  O   UNL     1      14.705 -39.205  -3.836  1.00  0.00    -0.332 OA
ATOM     30  C   UNL     1      12.031 -38.276  -4.434  1.00  0.00     0.180 C 
ATOM     31  C   UNL     1      13.589 -40.022  -3.518  1.00  0.00     0.179 C 
ATOM     32  C   UNL     1      12.425 -39.762  -4.499  1.00  0.00     0.177 C 
BRANCH  28  33
ATOM     33  O   UNL     1      12.959 -36.043  -4.399  1.00  0.00    -0.384 OA
ATOM     34  H   UNL     1      11.969 -35.974  -4.396  1.00  0.00     0.211 HD
ENDBRANCH  28  33
BRANCH  30  35
ATOM     35  O   UNL     1      11.069 -38.000  -5.420  1.00  0.00    -0.387 OA
ATOM     36  H   UNL     1      11.272 -37.097  -5.778  1.00  0.00     0.211 HD
ENDBRANCH  30  35
BRANCH  31  37
ATOM     37  C   UNL     1      14.037 -41.492  -3.548  1.00  0.00     0.191 C 
BRANCH  37  38
ATOM     38  O   UNL     1      12.996 -42.328  -3.973  1.00  0.00    -0.394 OA
ATOM     39  H   UNL     1      12.429 -42.503  -3.178  1.00  0.00     0.210 HD
ENDBRANCH  37  38
ENDBRANCH  31  37
BRANCH  32  40
ATOM     40  O   UNL     1      12.819 -40.104  -5.807  1.00  0.00    -0.387 OA
ATOM     41  H   UNL     1      12.232 -40.847  -6.102  1.00  0.00     0.211 HD
ENDBRANCH  32  40
ENDBRANCH   1  27
TORSDOF 12
ENDMDL
MODEL 9
REMARK VINA RESULT:    -6.224      3.635      6.271
REMARK INTER + INTRA:         -10.532
REMARK INTER:                  -9.266
REMARK INTRA:                  -1.266
REMARK UNBOUND:                -1.397
REMARK SMILES O=c1c(O[C@H]2O[C@H](CO)[C@H](O)[C@H](O)[C@H]2O)c(-c2ccc(O)c(O)c2)oc2cc(O)cc(O)c12
REMARK SMILES IDX 4 1 3 2 16 3 25 4 2 5 26 6 1 7 33 8 27 9 31 10 28 11 30 12
REMARK SMILES IDX 17 13 18 14 19 15 20 16 24 17 22 18 21 19 23 21 32 23 29 25
REMARK SMILES IDX 5 27 14 28 6 29 12 30 7 31 10 32 15 33 13 35 8 37 9 38 11 40
REMARK H PARENT 21 20 23 22 32 24 29 26 15 34 13 36 9 39 11 41
REMARK Flexibility Score: inf
ROOT
ATOM      1  O   UNL     1      14.080 -37.805  -2.857  1.00  0.00    -0.454 OA
ENDROOT
BRANCH   1   2
ATOM      2  C   UNL     1      13.151 -38.309  -3.791  1.00  0.00     0.214 A 
ATOM      3  C   UNL     1      12.087 -37.469  -4.184  1.00  0.00     0.180 A 
ATOM      4  O   UNL     1      11.155 -37.913  -5.018  1.00  0.00    -0.452 OA
ATOM      5  C   UNL     1      13.204 -39.614  -4.331  1.00  0.00     0.239 A 
ATOM      6  C   UNL     1      11.168 -39.129  -5.546  1.00  0.00     0.146 A 
ATOM      7  O   UNL     1      14.133 -40.401  -4.009  1.00  0.00    -0.285 OA
ATOM      8  C   UNL     1      12.202 -40.039  -5.231  1.00  0.00     0.111 A 
ATOM      9  C   UNL     1      10.143 -39.499  -6.423  1.00  0.00     0.094 A 
ATOM     10  C   UNL     1      12.185 -41.329  -5.819  1.00  0.00     0.134 A 
ATOM     11  C   UNL     1      10.132 -40.772  -6.999  1.00  0.00     0.123 A 
ATOM     12  C   UNL     1      11.149 -41.680  -6.697  1.00  0.00     0.093 A 
BRANCH   3  13
ATOM     13  C   UNL     1      11.955 -36.088  -3.669  1.00  0.00     0.025 A 
ATOM     14  C   UNL     1      12.921 -35.130  -4.003  1.00  0.00     0.016 A 
ATOM     15  C   UNL     1      12.814 -33.824  -3.524  1.00  0.00     0.051 A 
ATOM     16  C   UNL     1      11.752 -33.452  -2.691  1.00  0.00     0.157 A 
ATOM     17  C   UNL     1      10.904 -35.727  -2.810  1.00  0.00     0.062 A 
ATOM     18  C   UNL     1      10.787 -34.420  -2.325  1.00  0.00     0.158 A 
BRANCH  16  19
ATOM     19  O   UNL     1      11.697 -32.127  -2.255  1.00  0.00    -0.504 OA
ATOM     20  H   UNL     1      11.133 -31.812  -1.479  1.00  0.00     0.293 HD
ENDBRANCH  16  19
BRANCH  18  21
ATOM     21  O   UNL     1       9.709 -34.130  -1.485  1.00  0.00    -0.504 OA
ATOM     22  H   UNL     1       9.183 -34.829  -0.982  1.00  0.00     0.293 HD
ENDBRANCH  18  21
ENDBRANCH   3  13
BRANCH  10  23
ATOM     23  O   UNL     1      13.186 -42.260  -5.540  1.00  0.00    -0.507 OA
ATOM     24  H   UNL     1      14.154 -41.984  -5.426  1.00  0.00     0.293 HD
ENDBRANCH  10  23
BRANCH  11  25
ATOM     25  O   UNL     1       9.114 -41.148  -7.873  1.00  0.00    -0.508 OA
ATOM     26  H   UNL     1       8.878 -40.587  -8.684  1.00  0.00     0.293 HD
ENDBRANCH  11  25
ENDBRANCH   1   2
BRANCH   1  27
ATOM     27  C   UNL     1      15.502 -37.977  -2.861  1.00  0.00     0.339 C 
ATOM     28  C   UNL     1      15.978 -38.504  -1.494  1.00  0.00     0.214 C 
ATOM     29  O   UNL     1      16.174 -36.775  -3.210  1.00  0.00    -0.332 OA
ATOM     30  C   UNL     1      15.810 -37.417  -0.413  1.00  0.00     0.180 C 
ATOM     31  C   UNL     1      15.907 -35.737  -2.280  1.00  0.00     0.179 C 
ATOM     32  C   UNL     1      16.457 -36.103  -0.883  1.00  0.00     0.177 C 
BRANCH  28  33
ATOM     33  O   UNL     1      15.235 -39.647  -1.154  1.00  0.00    -0.384 OA
ATOM     34  H   UNL     1      15.226 -39.702  -0.163  1.00  0.00     0.211 HD
ENDBRANCH  28  33
BRANCH  30  35
ATOM     35  O   UNL     1      16.403 -37.830   0.791  1.00  0.00    -0.387 OA
ATOM     36  H   UNL     1      17.289 -37.385   0.845  1.00  0.00     0.211 HD
ENDBRANCH  30  35
BRANCH  31  37
ATOM     37  C   UNL     1      16.529 -34.435  -2.809  1.00  0.00     0.191 C 
BRANCH  37  38
ATOM     38  O   UNL     1      17.867 -34.630  -3.180  1.00  0.00    -0.394 OA
ATOM     39  H   UNL     1      17.964 -34.267  -4.099  1.00  0.00     0.210 HD
ENDBRANCH  37  38
ENDBRANCH  31  37
BRANCH  32  40
ATOM     40  O   UNL     1      17.856 -36.244  -0.944  1.00  0.00    -0.387 OA
ATOM     41  H   UNL     1      18.057 -37.208  -0.818  1.00  0.00     0.211 HD
ENDBRANCH  32  40
ENDBRANCH   1  27
TORSDOF 12
ENDMDL
