MODEL 1
REMARK VINA RESULT:    -4.654      0.000      0.000
REMARK INTER + INTRA:          -9.015
REMARK INTER:                  -7.918
REMARK INTRA:                  -1.097
REMARK UNBOUND:                -1.097
REMARK SMILES CCCCCCCCCCCCCC(=O)[O-]
REMARK SMILES IDX 8 1 9 2 10 3 11 4 12 5 13 6 14 7 15 8 16 9 7 10 6 11 5 12
REMARK SMILES IDX 4 13 3 14 2 15 1 16
REMARK H PARENT
REMARK Flexibility Score: inf
ROOT
ATOM      1  C   UNL     1       5.894   0.415  17.567  1.00  0.00     0.000 C 
ENDROOT
BRANCH   1   2
ATOM      2  C   UNL     1       6.456   0.991  16.256  1.00  0.00     0.000 C 
BRANCH   2   3
ATOM      3  C   UNL     1       6.178   2.497  16.074  1.00  0.00     0.000 C 
BRANCH   3   4
ATOM      4  C   UNL     1       7.459   3.290  15.759  1.00  0.00     0.000 C 
BRANCH   4   5
ATOM      5  C   UNL     1       7.763   4.373  16.813  1.00  0.00     0.006 C 
BRANCH   5   6
ATOM      6  C   UNL     1       6.722   4.443  17.943  1.00  0.00     0.053 C 
BRANCH   6   7
ATOM      7  C   UNL     1       6.693   5.780  18.613  1.00  0.00     0.041 C 
ATOM      8  O   UNL     1       7.486   6.033  19.558  1.00  0.00    -0.550 OA
ATOM      9  O   UNL     1       5.790   6.749  18.195  1.00  0.00    -0.550 OA
ENDBRANCH   6   7
ENDBRANCH   5   6
ENDBRANCH   4   5
ENDBRANCH   3   4
ENDBRANCH   2   3
ENDBRANCH   1   2
BRANCH   1  10
ATOM     10  C   UNL     1       6.990   0.033  18.570  1.00  0.00     0.000 C 
BRANCH  10  11
ATOM     11  C   UNL     1       8.369   0.493  18.081  1.00  0.00    -0.000 C 
BRANCH  11  12
ATOM     12  C   UNL     1       9.277  -0.712  17.790  1.00  0.00    -0.000 C 
BRANCH  12  13
ATOM     13  C   UNL     1       8.523  -2.049  17.839  1.00  0.00    -0.000 C 
BRANCH  13  14
ATOM     14  C   UNL     1       8.524  -2.780  16.488  1.00  0.00    -0.000 C 
BRANCH  14  15
ATOM     15  C   UNL     1       9.251  -4.126  16.593  1.00  0.00    -0.003 C 
ATOM     16  C   UNL     1      10.621  -4.067  15.924  1.00  0.00     0.004 C 
ENDBRANCH  14  15
ENDBRANCH  13  14
ENDBRANCH  12  13
ENDBRANCH  11  12
ENDBRANCH  10  11
ENDBRANCH   1  10
TORSDOF 12
ENDMDL
MODEL 2
REMARK VINA RESULT:    -4.601      2.104      4.175
REMARK INTER + INTRA:          -8.926
REMARK INTER:                  -7.598
REMARK INTRA:                  -1.328
REMARK UNBOUND:                -1.097
REMARK SMILES CCCCCCCCCCCCCC(=O)[O-]
REMARK SMILES IDX 8 1 9 2 10 3 11 4 12 5 13 6 14 7 15 8 16 9 7 10 6 11 5 12
REMARK SMILES IDX 4 13 3 14 2 15 1 16
REMARK H PARENT
REMARK Flexibility Score: inf
ROOT
ATOM      1  C   UNL     1       8.912  -0.896  17.954  1.00  0.00     0.000 C 
ENDROOT
BRANCH   1   2
ATOM      2  C   UNL     1       7.448  -0.595  18.320  1.00  0.00     0.000 C 
BRANCH   2   3
ATOM      3  C   UNL     1       7.179   0.897  18.608  1.00  0.00     0.000 C 
BRANCH   3   4
ATOM      4  C   UNL     1       8.297   1.804  18.067  1.00  0.00     0.000 C 
BRANCH   4   5
ATOM      5  C   UNL     1       8.390   3.147  18.817  1.00  0.00     0.006 C 
BRANCH   5   6
ATOM      6  C   UNL     1       7.582   3.180  20.124  1.00  0.00     0.053 C 
BRANCH   6   7
ATOM      7  C   UNL     1       7.702   4.489  20.840  1.00  0.00     0.041 C 
ATOM      8  O   UNL     1       8.138   5.504  20.235  1.00  0.00    -0.550 OA
ATOM      9  O   UNL     1       7.333   4.589  22.175  1.00  0.00    -0.550 OA
ENDBRANCH   6   7
ENDBRANCH   5   6
ENDBRANCH   4   5
ENDBRANCH   3   4
ENDBRANCH   2   3
ENDBRANCH   1   2
BRANCH   1  10
ATOM     10  C   UNL     1       9.064  -1.511  16.556  1.00  0.00     0.000 C 
BRANCH  10  11
ATOM     11  C   UNL     1       7.727  -2.063  16.049  1.00  0.00    -0.000 C 
BRANCH  11  12
ATOM     12  C   UNL     1       7.221  -1.256  14.844  1.00  0.00    -0.000 C 
BRANCH  12  13
ATOM     13  C   UNL     1       5.728  -0.908  14.947  1.00  0.00    -0.000 C 
BRANCH  13  14
ATOM     14  C   UNL     1       5.487   0.560  15.327  1.00  0.00    -0.000 C 
BRANCH  14  15
ATOM     15  C   UNL     1       4.007   0.811  15.639  1.00  0.00    -0.003 C 
ATOM     16  C   UNL     1       3.689   0.498  17.098  1.00  0.00     0.004 C 
ENDBRANCH  14  15
ENDBRANCH  13  14
ENDBRANCH  12  13
ENDBRANCH  11  12
ENDBRANCH  10  11
ENDBRANCH   1  10
TORSDOF 12
ENDMDL
MODEL 3
REMARK VINA RESULT:    -4.590      9.776     11.686
REMARK INTER + INTRA:          -8.907
REMARK INTER:                  -7.509
REMARK INTRA:                  -1.398
REMARK UNBOUND:                -1.097
REMARK SMILES CCCCCCCCCCCCCC(=O)[O-]
REMARK SMILES IDX 8 1 9 2 10 3 11 4 12 5 13 6 14 7 15 8 16 9 7 10 6 11 5 12
REMARK SMILES IDX 4 13 3 14 2 15 1 16
REMARK H PARENT
REMARK Flexibility Score: inf
ROOT
ATOM      1  C   UNL     1      13.899   1.638   8.371  1.00  0.00     0.000 C 
ENDROOT
BRANCH   1   2
ATOM      2  C   UNL     1      14.458   1.198   9.735  1.00  0.00     0.000 C 
BRANCH   2   3
ATOM      3  C   UNL     1      15.899   1.683   9.997  1.00  0.00     0.000 C 
BRANCH   3   4
ATOM      4  C   UNL     1      16.151   1.976  11.486  1.00  0.00     0.000 C 
BRANCH   4   5
ATOM      5  C   UNL     1      15.794   3.424  11.877  1.00  0.00     0.006 C 
BRANCH   5   6
ATOM      6  C   UNL     1      15.677   3.641  13.395  1.00  0.00     0.053 C 
BRANCH   6   7
ATOM      7  C   UNL     1      16.912   4.246  13.984  1.00  0.00     0.041 C 
ATOM      8  O   UNL     1      17.033   4.351  15.234  1.00  0.00    -0.550 OA
ATOM      9  O   UNL     1      17.931   4.695  13.155  1.00  0.00    -0.550 OA
ENDBRANCH   6   7
ENDBRANCH   5   6
ENDBRANCH   4   5
ENDBRANCH   3   4
ENDBRANCH   2   3
ENDBRANCH   1   2
BRANCH   1  10
ATOM     10  C   UNL     1      14.820   2.621   7.636  1.00  0.00     0.000 C 
BRANCH  10  11
ATOM     11  C   UNL     1      14.027   3.493   6.656  1.00  0.00    -0.000 C 
BRANCH  11  12
ATOM     12  C   UNL     1      12.846   4.176   7.362  1.00  0.00    -0.000 C 
BRANCH  12  13
ATOM     13  C   UNL     1      13.067   5.684   7.563  1.00  0.00    -0.000 C 
BRANCH  13  14
ATOM     14  C   UNL     1      12.917   6.114   9.029  1.00  0.00    -0.000 C 
BRANCH  14  15
ATOM     15  C   UNL     1      13.337   4.985   9.978  1.00  0.00    -0.003 C 
ATOM     16  C   UNL     1      12.240   4.682  10.995  1.00  0.00     0.004 C 
ENDBRANCH  14  15
ENDBRANCH  13  14
ENDBRANCH  12  13
ENDBRANCH  11  12
ENDBRANCH  10  11
ENDBRANCH   1  10
TORSDOF 12
ENDMDL
MODEL 4
REMARK VINA RESULT:    -4.576     12.389     14.681
REMARK INTER + INTRA:          -8.884
REMARK INTER:                  -7.344
REMARK INTRA:                  -1.540
REMARK UNBOUND:                -1.097
REMARK SMILES CCCCCCCCCCCCCC(=O)[O-]
REMARK SMILES IDX 8 1 9 2 10 3 11 4 12 5 13 6 14 7 15 8 16 9 7 10 6 11 5 12
REMARK SMILES IDX 4 13 3 14 2 15 1 16
REMARK H PARENT
REMARK Flexibility Score: inf
ROOT
ATOM      1  C   UNL     1      20.026  -4.460  23.963  1.00  0.00     0.000 C 
ENDROOT
BRANCH   1   2
ATOM      2  C   UNL     1      21.558  -4.370  23.857  1.00  0.00     0.000 C 
BRANCH   2   3
ATOM      3  C   UNL     1      22.072  -4.262  22.407  1.00  0.00     0.000 C 
BRANCH   3   4
ATOM      4  C   UNL     1      22.336  -2.805  21.991  1.00  0.00     0.000 C 
BRANCH   4   5
ATOM      5  C   UNL     1      21.206  -2.219  21.122  1.00  0.00     0.006 C 
BRANCH   5   6
ATOM      6  C   UNL     1      20.919  -3.036  19.851  1.00  0.00     0.053 C 
BRANCH   6   7
ATOM      7  C   UNL     1      20.467  -2.180  18.710  1.00  0.00     0.041 C 
ATOM      8  O   UNL     1      20.853  -2.431  17.537  1.00  0.00    -0.550 OA
ATOM      9  O   UNL     1      19.620  -1.104  18.939  1.00  0.00    -0.550 OA
ENDBRANCH   6   7
ENDBRANCH   5   6
ENDBRANCH   4   5
ENDBRANCH   3   4
ENDBRANCH   2   3
ENDBRANCH   1   2
BRANCH   1  10
ATOM     10  C   UNL     1      19.405  -5.356  22.883  1.00  0.00     0.000 C 
BRANCH  10  11
ATOM     11  C   UNL     1      18.340  -4.596  22.082  1.00  0.00    -0.000 C 
BRANCH  11  12
ATOM     12  C   UNL     1      17.913  -3.315  22.815  1.00  0.00    -0.000 C 
BRANCH  12  13
ATOM     13  C   UNL     1      16.495  -3.411  23.400  1.00  0.00    -0.000 C 
BRANCH  13  14
ATOM     14  C   UNL     1      16.493  -3.800  24.886  1.00  0.00    -0.000 C 
BRANCH  14  15
ATOM     15  C   UNL     1      17.275  -2.779  25.721  1.00  0.00    -0.003 C 
ATOM     16  C   UNL     1      16.613  -1.405  25.675  1.00  0.00     0.004 C 
ENDBRANCH  14  15
ENDBRANCH  13  14
ENDBRANCH  12  13
ENDBRANCH  11  12
ENDBRANCH  10  11
ENDBRANCH   1  10
TORSDOF 12
ENDMDL
MODEL 5
REMARK VINA RESULT:    -4.576      9.894     11.664
REMARK INTER + INTRA:          -8.883
REMARK INTER:                  -7.299
REMARK INTRA:                  -1.584
REMARK UNBOUND:                -1.097
REMARK SMILES CCCCCCCCCCCCCC(=O)[O-]
REMARK SMILES IDX 8 1 9 2 10 3 11 4 12 5 13 6 14 7 15 8 16 9 7 10 6 11 5 12
REMARK SMILES IDX 4 13 3 14 2 15 1 16
REMARK H PARENT
REMARK Flexibility Score: inf
ROOT
ATOM      1  C   UNL     1      13.461   1.959   9.475  1.00  0.00     0.000 C 
ENDROOT
BRANCH   1   2
ATOM      2  C   UNL     1      14.921   2.218   9.066  1.00  0.00     0.000 C 
BRANCH   2   3
ATOM      3  C   UNL     1      15.937   1.321   9.803  1.00  0.00     0.000 C 
BRANCH   3   4
ATOM      4  C   UNL     1      15.847   1.476  11.331  1.00  0.00     0.000 C 
BRANCH   4   5
ATOM      5  C   UNL     1      16.606   2.714  11.850  1.00  0.00     0.006 C 
BRANCH   5   6
ATOM      6  C   UNL     1      15.830   3.512  12.911  1.00  0.00     0.053 C 
BRANCH   6   7
ATOM      7  C   UNL     1      16.732   4.296  13.811  1.00  0.00     0.041 C 
ATOM      8  O   UNL     1      16.416   4.486  15.016  1.00  0.00    -0.550 OA
ATOM      9  O   UNL     1      17.921   4.820  13.322  1.00  0.00    -0.550 OA
ENDBRANCH   6   7
ENDBRANCH   5   6
ENDBRANCH   4   5
ENDBRANCH   3   4
ENDBRANCH   2   3
ENDBRANCH   1   2
BRANCH   1  10
ATOM     10  C   UNL     1      12.750   3.221   9.982  1.00  0.00     0.000 C 
BRANCH  10  11
ATOM     11  C   UNL     1      13.690   4.432   9.957  1.00  0.00    -0.000 C 
BRANCH  11  12
ATOM     12  C   UNL     1      13.214   5.476   8.935  1.00  0.00    -0.000 C 
BRANCH  12  13
ATOM     13  C   UNL     1      12.030   4.981   8.089  1.00  0.00    -0.000 C 
BRANCH  13  14
ATOM     14  C   UNL     1      12.387   4.830   6.603  1.00  0.00    -0.000 C 
BRANCH  14  15
ATOM     15  C   UNL     1      13.866   5.154   6.358  1.00  0.00    -0.003 C 
ATOM     16  C   UNL     1      14.629   3.924   5.876  1.00  0.00     0.004 C 
ENDBRANCH  14  15
ENDBRANCH  13  14
ENDBRANCH  12  13
ENDBRANCH  11  12
ENDBRANCH  10  11
ENDBRANCH   1  10
TORSDOF 12
ENDMDL
MODEL 6
REMARK VINA RESULT:    -4.572      1.929      2.533
REMARK INTER + INTRA:          -8.876
REMARK INTER:                  -8.348
REMARK INTRA:                  -0.527
REMARK UNBOUND:                -1.097
REMARK SMILES CCCCCCCCCCCCCC(=O)[O-]
REMARK SMILES IDX 8 1 9 2 10 3 11 4 12 5 13 6 14 7 15 8 16 9 7 10 6 11 5 12
REMARK SMILES IDX 4 13 3 14 2 15 1 16
REMARK H PARENT
REMARK Flexibility Score: inf
ROOT
ATOM      1  C   UNL     1       6.388   1.836  18.229  1.00  0.00     0.000 C 
ENDROOT
BRANCH   1   2
ATOM      2  C   UNL     1       6.603   2.936  17.174  1.00  0.00     0.000 C 
BRANCH   2   3
ATOM      3  C   UNL     1       7.519   4.080  17.653  1.00  0.00     0.000 C 
BRANCH   3   4
ATOM      4  C   UNL     1       6.830   4.977  18.696  1.00  0.00     0.000 C 
BRANCH   4   5
ATOM      5  C   UNL     1       7.809   5.517  19.758  1.00  0.00     0.006 C 
BRANCH   5   6
ATOM      6  C   UNL     1       7.919   4.624  21.005  1.00  0.00     0.053 C 
BRANCH   6   7
ATOM      7  C   UNL     1       7.305   5.254  22.216  1.00  0.00     0.041 C 
ATOM      8  O   UNL     1       7.545   4.791  23.362  1.00  0.00    -0.550 OA
ATOM      9  O   UNL     1       6.466   6.352  22.080  1.00  0.00    -0.550 OA
ENDBRANCH   6   7
ENDBRANCH   5   6
ENDBRANCH   4   5
ENDBRANCH   3   4
ENDBRANCH   2   3
ENDBRANCH   1   2
BRANCH   1  10
ATOM     10  C   UNL     1       6.208   0.443  17.611  1.00  0.00     0.000 C 
BRANCH  10  11
ATOM     11  C   UNL     1       7.398  -0.465  17.942  1.00  0.00    -0.000 C 
BRANCH  11  12
ATOM     12  C   UNL     1       7.746  -1.370  16.751  1.00  0.00    -0.000 C 
BRANCH  12  13
ATOM     13  C   UNL     1       8.992  -2.232  17.005  1.00  0.00    -0.000 C 
BRANCH  13  14
ATOM     14  C   UNL     1       8.694  -3.737  16.943  1.00  0.00    -0.000 C 
BRANCH  14  15
ATOM     15  C   UNL     1       9.961  -4.534  16.608  1.00  0.00    -0.003 C 
ATOM     16  C   UNL     1      10.848  -3.774  15.626  1.00  0.00     0.004 C 
ENDBRANCH  14  15
ENDBRANCH  13  14
ENDBRANCH  12  13
ENDBRANCH  11  12
ENDBRANCH  10  11
ENDBRANCH   1  10
TORSDOF 12
ENDMDL
MODEL 7
REMARK VINA RESULT:    -4.557      2.950      4.530
REMARK INTER + INTRA:          -8.850
REMARK INTER:                  -7.594
REMARK INTRA:                  -1.256
REMARK UNBOUND:                -1.097
REMARK SMILES CCCCCCCCCCCCCC(=O)[O-]
REMARK SMILES IDX 8 1 9 2 10 3 11 4 12 5 13 6 14 7 15 8 16 9 7 10 6 11 5 12
REMARK SMILES IDX 4 13 3 14 2 15 1 16
REMARK H PARENT
REMARK Flexibility Score: inf
ROOT
ATOM      1  C   UNL     1       7.981   3.350  17.794  1.00  0.00     0.000 C 
ENDROOT
BRANCH   1   2
ATOM      2  C   UNL     1       6.675   3.806  18.467  1.00  0.00     0.000 C 
BRANCH   2   3
ATOM      3  C   UNL     1       6.338   5.291  18.218  1.00  0.00     0.000 C 
BRANCH   3   4
ATOM      4  C   UNL     1       7.316   6.237  18.936  1.00  0.00     0.000 C 
BRANCH   4   5
ATOM      5  C   UNL     1       7.802   5.677  20.288  1.00  0.00     0.006 C 
BRANCH   5   6
ATOM      6  C   UNL     1       7.046   6.249  21.498  1.00  0.00     0.053 C 
BRANCH   6   7
ATOM      7  C   UNL     1       7.065   5.324  22.674  1.00  0.00     0.041 C 
ATOM      8  O   UNL     1       6.212   5.448  23.593  1.00  0.00    -0.550 OA
ATOM      9  O   UNL     1       8.025   4.324  22.759  1.00  0.00    -0.550 OA
ENDBRANCH   6   7
ENDBRANCH   5   6
ENDBRANCH   4   5
ENDBRANCH   3   4
ENDBRANCH   2   3
ENDBRANCH   1   2
BRANCH   1  10
ATOM     10  C   UNL     1       8.577   2.091  18.438  1.00  0.00     0.000 C 
BRANCH  10  11
ATOM     11  C   UNL     1       8.196   0.834  17.646  1.00  0.00    -0.000 C 
BRANCH  11  12
ATOM     12  C   UNL     1       7.000   0.119  18.292  1.00  0.00    -0.000 C 
BRANCH  12  13
ATOM     13  C   UNL     1       5.705   0.276  17.480  1.00  0.00    -0.000 C 
BRANCH  13  14
ATOM     14  C   UNL     1       5.965   0.406  15.972  1.00  0.00    -0.000 C 
BRANCH  14  15
ATOM     15  C   UNL     1       5.186   1.587  15.380  1.00  0.00    -0.003 C 
ATOM     16  C   UNL     1       4.109   2.077  16.343  1.00  0.00     0.004 C 
ENDBRANCH  14  15
ENDBRANCH  13  14
ENDBRANCH  12  13
ENDBRANCH  11  12
ENDBRANCH  10  11
ENDBRANCH   1  10
TORSDOF 12
ENDMDL
MODEL 8
REMARK VINA RESULT:    -4.551     12.460     14.642
REMARK INTER + INTRA:          -8.841
REMARK INTER:                  -6.828
REMARK INTRA:                  -2.013
REMARK UNBOUND:                -1.097
REMARK SMILES CCCCCCCCCCCCCC(=O)[O-]
REMARK SMILES IDX 8 1 9 2 10 3 11 4 12 5 13 6 14 7 15 8 16 9 7 10 6 11 5 12
REMARK SMILES IDX 4 13 3 14 2 15 1 16
REMARK H PARENT
REMARK Flexibility Score: inf
ROOT
ATOM      1  C   UNL     1      21.920  -4.144  22.117  1.00  0.00     0.000 C 
ENDROOT
BRANCH   1   2
ATOM      2  C   UNL     1      21.004  -4.759  21.044  1.00  0.00     0.000 C 
BRANCH   2   3
ATOM      3  C   UNL     1      19.704  -5.363  21.615  1.00  0.00     0.000 C 
BRANCH   3   4
ATOM      4  C   UNL     1      19.590  -5.161  23.136  1.00  0.00     0.000 C 
BRANCH   4   5
ATOM      5  C   UNL     1      18.296  -4.429  23.544  1.00  0.00     0.006 C 
BRANCH   5   6
ATOM      6  C   UNL     1      18.363  -3.795  24.944  1.00  0.00     0.053 C 
BRANCH   6   7
ATOM      7  C   UNL     1      17.079  -3.134  25.335  1.00  0.00     0.041 C 
ATOM      8  O   UNL     1      17.051  -1.899  25.583  1.00  0.00    -0.550 OA
ATOM      9  O   UNL     1      15.911  -3.879  25.427  1.00  0.00    -0.550 OA
ENDBRANCH   6   7
ENDBRANCH   5   6
ENDBRANCH   4   5
ENDBRANCH   3   4
ENDBRANCH   2   3
ENDBRANCH   1   2
BRANCH   1  10
ATOM     10  C   UNL     1      22.604  -2.853  21.649  1.00  0.00     0.000 C 
BRANCH  10  11
ATOM     11  C   UNL     1      22.343  -1.704  22.630  1.00  0.00    -0.000 C 
BRANCH  11  12
ATOM     12  C   UNL     1      20.842  -1.571  22.931  1.00  0.00    -0.000 C 
BRANCH  12  13
ATOM     13  C   UNL     1      20.068  -0.878  21.799  1.00  0.00    -0.000 C 
BRANCH  13  14
ATOM     14  C   UNL     1      18.933  -1.748  21.239  1.00  0.00    -0.000 C 
BRANCH  14  15
ATOM     15  C   UNL     1      18.814  -1.585  19.719  1.00  0.00    -0.003 C 
ATOM     16  C   UNL     1      20.157  -1.821  19.032  1.00  0.00     0.004 C 
ENDBRANCH  14  15
ENDBRANCH  13  14
ENDBRANCH  12  13
ENDBRANCH  11  12
ENDBRANCH  10  11
ENDBRANCH   1  10
TORSDOF 12
ENDMDL
MODEL 9
REMARK VINA RESULT:    -4.502     10.427     12.776
REMARK INTER + INTRA:          -8.757
REMARK INTER:                  -8.114
REMARK INTRA:                  -0.642
REMARK UNBOUND:                -1.097
REMARK SMILES CCCCCCCCCCCCCC(=O)[O-]
REMARK SMILES IDX 8 1 9 2 10 3 11 4 12 5 13 6 14 7 15 8 16 9 7 10 6 11 5 12
REMARK SMILES IDX 4 13 3 14 2 15 1 16
REMARK H PARENT
REMARK Flexibility Score: inf
ROOT
ATOM      1  C   UNL     1      14.741   0.645   9.036  1.00  0.00     0.000 C 
ENDROOT
BRANCH   1   2
ATOM      2  C   UNL     1      15.268  -0.439   9.992  1.00  0.00     0.000 C 
BRANCH   2   3
ATOM      3  C   UNL     1      15.431  -1.821   9.328  1.00  0.00     0.000 C 
BRANCH   3   4
ATOM      4  C   UNL     1      15.912  -1.712   7.870  1.00  0.00     0.000 C 
BRANCH   4   5
ATOM      5  C   UNL     1      15.404  -2.869   6.987  1.00  0.00     0.006 C 
BRANCH   5   6
ATOM      6  C   UNL     1      14.056  -3.449   7.448  1.00  0.00     0.053 C 
BRANCH   6   7
ATOM      7  C   UNL     1      12.895  -2.853   6.715  1.00  0.00     0.041 C 
ATOM      8  O   UNL     1      13.080  -1.932   5.875  1.00  0.00    -0.550 OA
ATOM      9  O   UNL     1      11.608  -3.313   6.959  1.00  0.00    -0.550 OA
ENDBRANCH   6   7
ENDBRANCH   5   6
ENDBRANCH   4   5
ENDBRANCH   3   4
ENDBRANCH   2   3
ENDBRANCH   1   2
BRANCH   1  10
ATOM     10  C   UNL     1      15.245   2.051   9.391  1.00  0.00     0.000 C 
BRANCH  10  11
ATOM     11  C   UNL     1      15.980   2.049  10.736  1.00  0.00    -0.000 C 
BRANCH  11  12
ATOM     12  C   UNL     1      15.484   3.194  11.633  1.00  0.00    -0.000 C 
BRANCH  12  13
ATOM     13  C   UNL     1      16.430   3.476  12.811  1.00  0.00    -0.000 C 
BRANCH  13  14
ATOM     14  C   UNL     1      15.737   4.223  13.960  1.00  0.00    -0.000 C 
BRANCH  14  15
ATOM     15  C   UNL     1      16.633   4.271  15.203  1.00  0.00    -0.003 C 
ATOM     16  C   UNL     1      16.001   3.515  16.369  1.00  0.00     0.004 C 
ENDBRANCH  14  15
ENDBRANCH  13  14
ENDBRANCH  12  13
ENDBRANCH  11  12
ENDBRANCH  10  11
ENDBRANCH   1  10
TORSDOF 12
ENDMDL
