MODEL 1
REMARK VINA RESULT:    -6.046      0.000      0.000
REMARK INTER + INTRA:          -6.917
REMARK INTER:                  -6.576
REMARK INTRA:                  -0.342
REMARK UNBOUND:                -0.342
REMARK SMILES CC(=O)[C@H]1CC[C@H]2[C@@H]3CC=C4C[C@@H](O)CC[C@]4(C)[C@@H]3CC[C@@]12C
REMARK SMILES IDX 4 1 5 2 6 3 7 4 22 5 21 6 20 7 19 8 8 9 9 10 10 11 11 12
REMARK SMILES IDX 17 13 16 14 15 15 13 16 12 17 18 18 23 19 2 20 1 21 3 22
REMARK SMILES IDX 14 23
REMARK H PARENT 14 24
REMARK Flexibility Score: inf
ROOT
ATOM      1  C   UNL     1     131.166 145.982 107.136  1.00  0.00     0.062 C 
ATOM      2  C   UNL     1     130.320 145.796 105.887  1.00  0.00     0.012 C 
ATOM      3  C   UNL     1     128.893 145.812 106.396  1.00  0.00     0.005 C 
ATOM      4  C   UNL     1     128.918 145.189 107.809  1.00  0.00    -0.001 C 
ATOM      5  C   UNL     1     130.408 145.241 108.285  1.00  0.00    -0.020 C 
ATOM      6  C   UNL     1     130.967 143.818 108.595  1.00  0.00     0.008 C 
ATOM      7  C   UNL     1     130.624 142.740 107.553  1.00  0.00     0.005 C 
ATOM      8  C   UNL     1     129.135 142.724 107.070  1.00  0.00     0.003 C 
ATOM      9  C   UNL     1     128.268 143.774 107.817  1.00  0.00     0.000 C 
ATOM     10  C   UNL     1     127.841 143.311 109.247  1.00  0.00     0.031 C 
ATOM     11  C   UNL     1     128.093 141.850 109.562  1.00  0.00    -0.027 C 
ATOM     12  C   UNL     1     128.363 140.917 108.622  1.00  0.00    -0.065 C 
ATOM     13  C   UNL     1     128.456 141.309 107.155  1.00  0.00    -0.008 C 
ATOM     14  C   UNL     1     129.272 140.239 106.358  1.00  0.00     0.014 C 
ATOM     15  C   UNL     1     128.766 138.792 106.570  1.00  0.00     0.033 C 
ATOM     16  C   UNL     1     128.283 138.478 108.014  1.00  0.00     0.118 C 
ATOM     17  C   UNL     1     128.754 139.517 109.043  1.00  0.00     0.063 C 
ATOM     18  C   UNL     1     127.023 141.364 106.552  1.00  0.00     0.016 C 
ATOM     19  C   UNL     1     130.521 146.080 109.583  1.00  0.00     0.012 C 
ENDROOT
BRANCH   1  20
ATOM     20  C   UNL     1     132.628 145.614 106.944  1.00  0.00     0.133 C 
ATOM     21  C   UNL     1     133.065 144.818 105.746  1.00  0.00     0.088 C 
ATOM     22  O   UNL     1     133.473 145.977 107.749  1.00  0.00    -0.300 OA
ENDBRANCH   1  20
BRANCH  16  23
ATOM     23  O   UNL     1     126.882 138.396 108.064  1.00  0.00    -0.393 OA
ATOM     24  H   UNL     1     126.587 137.978 107.212  1.00  0.00     0.210 HD
ENDBRANCH  16  23
TORSDOF 2
ENDMDL
MODEL 2
REMARK VINA RESULT:    -5.981      1.668      6.225
REMARK INTER + INTRA:          -6.847
REMARK INTER:                  -6.506
REMARK INTRA:                  -0.341
REMARK UNBOUND:                -0.342
REMARK SMILES CC(=O)[C@H]1CC[C@H]2[C@@H]3CC=C4C[C@@H](O)CC[C@]4(C)[C@@H]3CC[C@@]12C
REMARK SMILES IDX 4 1 5 2 6 3 7 4 22 5 21 6 20 7 19 8 8 9 9 10 10 11 11 12
REMARK SMILES IDX 17 13 16 14 15 15 13 16 12 17 18 18 23 19 2 20 1 21 3 22
REMARK SMILES IDX 14 23
REMARK H PARENT 14 24
REMARK Flexibility Score: inf
ROOT
ATOM      1  C   UNL     1     127.549 142.766 107.205  1.00  0.00     0.062 C 
ATOM      2  C   UNL     1     127.609 143.328 108.615  1.00  0.00     0.012 C 
ATOM      3  C   UNL     1     127.710 144.827 108.416  1.00  0.00     0.005 C 
ATOM      4  C   UNL     1     128.505 145.050 107.111  1.00  0.00    -0.001 C 
ATOM      5  C   UNL     1     128.457 143.693 106.331  1.00  0.00    -0.020 C 
ATOM      6  C   UNL     1     129.886 143.120 106.078  1.00  0.00     0.008 C 
ATOM      7  C   UNL     1     130.837 143.177 107.285  1.00  0.00     0.005 C 
ATOM      8  C   UNL     1     130.847 144.534 108.067  1.00  0.00     0.003 C 
ATOM      9  C   UNL     1     129.932 145.598 107.400  1.00  0.00     0.000 C 
ATOM     10  C   UNL     1     130.586 146.276 106.154  1.00  0.00     0.031 C 
ATOM     11  C   UNL     1     132.066 146.002 105.963  1.00  0.00    -0.027 C 
ATOM     12  C   UNL     1     132.862 145.489 106.927  1.00  0.00    -0.065 C 
ATOM     13  C   UNL     1     132.286 145.126 108.287  1.00  0.00    -0.008 C 
ATOM     14  C   UNL     1     133.217 144.102 109.015  1.00  0.00     0.014 C 
ATOM     15  C   UNL     1     134.697 144.549 109.081  1.00  0.00     0.033 C 
ATOM     16  C   UNL     1     135.207 145.293 107.815  1.00  0.00     0.118 C 
ATOM     17  C   UNL     1     134.289 145.105 106.599  1.00  0.00     0.063 C 
ATOM     18  C   UNL     1     132.210 146.408 109.166  1.00  0.00     0.016 C 
ATOM     19  C   UNL     1     127.784 143.897 104.950  1.00  0.00     0.012 C 
ENDROOT
BRANCH   1  20
ATOM     20  C   UNL     1     127.836 141.276 107.129  1.00  0.00     0.133 C 
ATOM     21  C   UNL     1     128.409 140.546 108.311  1.00  0.00     0.088 C 
ATOM     22  O   UNL     1     127.585 140.644 106.113  1.00  0.00    -0.300 OA
ENDBRANCH   1  20
BRANCH  16  23
ATOM     23  O   UNL     1     135.347 146.667 108.068  1.00  0.00    -0.393 OA
ATOM     24  H   UNL     1     134.480 147.094 107.834  1.00  0.00     0.210 HD
ENDBRANCH  16  23
TORSDOF 2
ENDMDL
MODEL 3
REMARK VINA RESULT:    -5.888      2.576      4.385
REMARK INTER + INTRA:          -6.747
REMARK INTER:                  -6.409
REMARK INTRA:                  -0.337
REMARK UNBOUND:                -0.342
REMARK SMILES CC(=O)[C@H]1CC[C@H]2[C@@H]3CC=C4C[C@@H](O)CC[C@]4(C)[C@@H]3CC[C@@]12C
REMARK SMILES IDX 4 1 5 2 6 3 7 4 22 5 21 6 20 7 19 8 8 9 9 10 10 11 11 12
REMARK SMILES IDX 17 13 16 14 15 15 13 16 12 17 18 18 23 19 2 20 1 21 3 22
REMARK SMILES IDX 14 23
REMARK H PARENT 14 24
REMARK Flexibility Score: inf
ROOT
ATOM      1  C   UNL     1     135.453 144.458 105.345  1.00  0.00     0.062 C 
ATOM      2  C   UNL     1     134.666 145.148 104.244  1.00  0.00     0.012 C 
ATOM      3  C   UNL     1     134.028 146.339 104.930  1.00  0.00     0.005 C 
ATOM      4  C   UNL     1     133.738 145.911 106.385  1.00  0.00    -0.001 C 
ATOM      5  C   UNL     1     134.620 144.647 106.656  1.00  0.00    -0.020 C 
ATOM      6  C   UNL     1     133.754 143.407 107.038  1.00  0.00     0.008 C 
ATOM      7  C   UNL     1     132.504 143.190 106.169  1.00  0.00     0.005 C 
ATOM      8  C   UNL     1     131.651 144.473 105.888  1.00  0.00     0.003 C 
ATOM      9  C   UNL     1     132.212 145.719 106.627  1.00  0.00     0.000 C 
ATOM     10  C   UNL     1     131.828 145.758 108.141  1.00  0.00     0.031 C 
ATOM     11  C   UNL     1     130.773 144.758 108.573  1.00  0.00    -0.027 C 
ATOM     12  C   UNL     1     129.976 144.091 107.709  1.00  0.00    -0.065 C 
ATOM     13  C   UNL     1     130.123 144.300 106.210  1.00  0.00    -0.008 C 
ATOM     14  C   UNL     1     129.511 143.090 105.430  1.00  0.00     0.014 C 
ATOM     15  C   UNL     1     128.064 142.747 105.858  1.00  0.00     0.033 C 
ATOM     16  C   UNL     1     127.780 142.911 107.378  1.00  0.00     0.118 C 
ATOM     17  C   UNL     1     129.060 143.000 108.221  1.00  0.00     0.063 C 
ATOM     18  C   UNL     1     129.339 145.579 105.796  1.00  0.00     0.016 C 
ATOM     19  C   UNL     1     135.591 144.920 107.832  1.00  0.00     0.012 C 
ENDROOT
BRANCH   1  20
ATOM     20  C   UNL     1     135.860 143.034 105.005  1.00  0.00     0.133 C 
ATOM     21  C   UNL     1     135.194 142.296 103.877  1.00  0.00     0.088 C 
ATOM     22  O   UNL     1     136.751 142.475 105.629  1.00  0.00    -0.300 OA
ENDBRANCH   1  20
BRANCH  16  23
ATOM     23  O   UNL     1     127.001 144.054 107.617  1.00  0.00    -0.393 OA
ATOM     24  H   UNL     1     126.501 143.892 108.462  1.00  0.00     0.210 HD
ENDBRANCH  16  23
TORSDOF 2
ENDMDL
MODEL 4
REMARK VINA RESULT:    -5.876      2.348      6.535
REMARK INTER + INTRA:          -6.733
REMARK INTER:                  -6.394
REMARK INTRA:                  -0.340
REMARK UNBOUND:                -0.342
REMARK SMILES CC(=O)[C@H]1CC[C@H]2[C@@H]3CC=C4C[C@@H](O)CC[C@]4(C)[C@@H]3CC[C@@]12C
REMARK SMILES IDX 4 1 5 2 6 3 7 4 22 5 21 6 20 7 19 8 8 9 9 10 10 11 11 12
REMARK SMILES IDX 17 13 16 14 15 15 13 16 12 17 18 18 23 19 2 20 1 21 3 22
REMARK SMILES IDX 14 23
REMARK H PARENT 14 24
REMARK Flexibility Score: inf
ROOT
ATOM      1  C   UNL     1     128.949 137.393 106.232  1.00  0.00     0.062 C 
ATOM      2  C   UNL     1     129.917 137.970 105.212  1.00  0.00     0.012 C 
ATOM      3  C   UNL     1     130.946 138.704 106.048  1.00  0.00     0.005 C 
ATOM      4  C   UNL     1     130.205 139.247 107.290  1.00  0.00    -0.001 C 
ATOM      5  C   UNL     1     128.869 138.438 107.392  1.00  0.00    -0.020 C 
ATOM      6  C   UNL     1     127.621 139.370 107.318  1.00  0.00     0.008 C 
ATOM      7  C   UNL     1     127.678 140.453 106.227  1.00  0.00     0.005 C 
ATOM      8  C   UNL     1     129.033 141.230 106.124  1.00  0.00     0.003 C 
ATOM      9  C   UNL     1     130.041 140.793 107.222  1.00  0.00     0.000 C 
ATOM     10  C   UNL     1     129.745 141.433 108.616  1.00  0.00     0.031 C 
ATOM     11  C   UNL     1     128.727 142.558 108.615  1.00  0.00    -0.027 C 
ATOM     12  C   UNL     1     128.323 143.200 107.497  1.00  0.00    -0.065 C 
ATOM     13  C   UNL     1     128.869 142.793 106.137  1.00  0.00    -0.008 C 
ATOM     14  C   UNL     1     127.908 143.273 105.000  1.00  0.00     0.014 C 
ATOM     15  C   UNL     1     127.549 144.776 105.088  1.00  0.00     0.033 C 
ATOM     16  C   UNL     1     127.368 145.318 106.533  1.00  0.00     0.118 C 
ATOM     17  C   UNL     1     127.191 144.202 107.574  1.00  0.00     0.063 C 
ATOM     18  C   UNL     1     130.248 143.480 105.917  1.00  0.00     0.016 C 
ATOM     19  C   UNL     1     128.809 137.683 108.744  1.00  0.00     0.012 C 
ENDROOT
BRANCH   1  20
ATOM     20  C   UNL     1     127.625 136.948 105.632  1.00  0.00     0.133 C 
ATOM     21  C   UNL     1     127.214 137.404 104.261  1.00  0.00     0.088 C 
ATOM     22  O   UNL     1     126.885 136.195 106.248  1.00  0.00    -0.300 OA
ENDBRANCH   1  20
BRANCH  16  23
ATOM     23  O   UNL     1     128.462 146.115 106.907  1.00  0.00    -0.393 OA
ATOM     24  H   UNL     1     128.628 145.944 107.873  1.00  0.00     0.210 HD
ENDBRANCH  16  23
TORSDOF 2
ENDMDL
MODEL 5
REMARK VINA RESULT:    -5.781      2.300      6.069
REMARK INTER + INTRA:          -6.630
REMARK INTER:                  -6.372
REMARK INTRA:                  -0.258
REMARK UNBOUND:                -0.342
REMARK SMILES CC(=O)[C@H]1CC[C@H]2[C@@H]3CC=C4C[C@@H](O)CC[C@]4(C)[C@@H]3CC[C@@]12C
REMARK SMILES IDX 4 1 5 2 6 3 7 4 22 5 21 6 20 7 19 8 8 9 9 10 10 11 11 12
REMARK SMILES IDX 17 13 16 14 15 15 13 16 12 17 18 18 23 19 2 20 1 21 3 22
REMARK SMILES IDX 14 23
REMARK H PARENT 14 24
REMARK Flexibility Score: inf
ROOT
ATOM      1  C   UNL     1     127.250 144.359 109.045  1.00  0.00     0.062 C 
ATOM      2  C   UNL     1     127.336 145.847 108.745  1.00  0.00     0.012 C 
ATOM      3  C   UNL     1     127.418 145.919 107.233  1.00  0.00     0.005 C 
ATOM      4  C   UNL     1     128.180 144.658 106.769  1.00  0.00    -0.001 C 
ATOM      5  C   UNL     1     128.128 143.648 107.964  1.00  0.00    -0.020 C 
ATOM      6  C   UNL     1     129.556 143.266 108.462  1.00  0.00     0.008 C 
ATOM      7  C   UNL     1     130.534 144.444 108.609  1.00  0.00     0.005 C 
ATOM      8  C   UNL     1     130.549 145.456 107.415  1.00  0.00     0.003 C 
ATOM      9  C   UNL     1     129.608 145.012 106.261  1.00  0.00     0.000 C 
ATOM     10  C   UNL     1     130.227 143.895 105.362  1.00  0.00     0.031 C 
ATOM     11  C   UNL     1     131.704 143.626 105.576  1.00  0.00    -0.027 C 
ATOM     12  C   UNL     1     132.528 144.465 106.243  1.00  0.00    -0.065 C 
ATOM     13  C   UNL     1     131.987 145.749 106.852  1.00  0.00    -0.008 C 
ATOM     14  C   UNL     1     132.944 146.261 107.978  1.00  0.00     0.014 C 
ATOM     15  C   UNL     1     134.421 146.375 107.530  1.00  0.00     0.033 C 
ATOM     16  C   UNL     1     134.894 145.253 106.563  1.00  0.00     0.118 C 
ATOM     17  C   UNL     1     133.950 144.042 106.542  1.00  0.00     0.063 C 
ATOM     18  C   UNL     1     131.919 146.846 105.751  1.00  0.00     0.016 C 
ATOM     19  C   UNL     1     127.421 142.341 107.524  1.00  0.00     0.012 C 
ENDROOT
BRANCH   1  20
ATOM     20  C   UNL     1     127.550 144.011 110.494  1.00  0.00     0.133 C 
ATOM     21  C   UNL     1     128.402 144.916 111.338  1.00  0.00     0.088 C 
ATOM     22  O   UNL     1     127.084 143.000 111.000  1.00  0.00    -0.300 OA
ENDBRANCH   1  20
BRANCH  16  23
ATOM     23  O   UNL     1     135.027 145.747 105.255  1.00  0.00    -0.393 OA
ATOM     24  H   UNL     1     134.496 146.586 105.208  1.00  0.00     0.210 HD
ENDBRANCH  16  23
TORSDOF 2
ENDMDL
MODEL 6
REMARK VINA RESULT:    -5.518      9.849     13.556
REMARK INTER + INTRA:          -6.344
REMARK INTER:                  -6.003
REMARK INTRA:                  -0.341
REMARK UNBOUND:                -0.342
REMARK SMILES CC(=O)[C@H]1CC[C@H]2[C@@H]3CC=C4C[C@@H](O)CC[C@]4(C)[C@@H]3CC[C@@]12C
REMARK SMILES IDX 4 1 5 2 6 3 7 4 22 5 21 6 20 7 19 8 8 9 9 10 10 11 11 12
REMARK SMILES IDX 17 13 16 14 15 15 13 16 12 17 18 18 23 19 2 20 1 21 3 22
REMARK SMILES IDX 14 23
REMARK H PARENT 14 24
REMARK Flexibility Score: inf
ROOT
ATOM      1  C   UNL     1     139.559 146.497 107.190  1.00  0.00     0.062 C 
ATOM      2  C   UNL     1     140.076 146.567 108.618  1.00  0.00     0.012 C 
ATOM      3  C   UNL     1     141.480 147.121 108.480  1.00  0.00     0.005 C 
ATOM      4  C   UNL     1     142.033 146.600 107.136  1.00  0.00    -0.001 C 
ATOM      5  C   UNL     1     140.793 146.135 106.301  1.00  0.00    -0.020 C 
ATOM      6  C   UNL     1     140.882 144.623 105.927  1.00  0.00     0.008 C 
ATOM      7  C   UNL     1     141.320 143.692 107.070  1.00  0.00     0.005 C 
ATOM      8  C   UNL     1     142.544 144.190 107.909  1.00  0.00     0.003 C 
ATOM      9  C   UNL     1     143.130 145.518 107.354  1.00  0.00     0.000 C 
ATOM     10  C   UNL     1     144.036 145.310 106.099  1.00  0.00     0.031 C 
ATOM     11  C   UNL     1     144.415 143.873 105.797  1.00  0.00    -0.027 C 
ATOM     12  C   UNL     1     144.275 142.861 106.682  1.00  0.00    -0.065 C 
ATOM     13  C   UNL     1     143.686 143.121 108.059  1.00  0.00    -0.008 C 
ATOM     14  C   UNL     1     143.141 141.791 108.677  1.00  0.00     0.014 C 
ATOM     15  C   UNL     1     144.171 140.636 108.663  1.00  0.00     0.033 C 
ATOM     16  C   UNL     1     145.076 140.588 107.401  1.00  0.00     0.118 C 
ATOM     17  C   UNL     1     144.534 141.436 106.241  1.00  0.00     0.063 C 
ATOM     18  C   UNL     1     144.804 143.658 108.998  1.00  0.00     0.016 C 
ATOM     19  C   UNL     1     140.712 146.940 104.979  1.00  0.00     0.012 C 
ENDROOT
BRANCH   1  20
ATOM     20  C   UNL     1     138.331 145.617 107.029  1.00  0.00     0.133 C 
ATOM     21  C   UNL     1     137.930 144.656 108.112  1.00  0.00     0.088 C 
ATOM     22  O   UNL     1     137.637 145.693 106.024  1.00  0.00    -0.300 OA
ENDBRANCH   1  20
BRANCH  16  23
ATOM     23  O   UNL     1     146.378 141.019 107.706  1.00  0.00    -0.393 OA
ATOM     24  H   UNL     1     146.871 141.081 106.845  1.00  0.00     0.210 HD
ENDBRANCH  16  23
TORSDOF 2
ENDMDL
MODEL 7
REMARK VINA RESULT:    -5.422      3.141      4.487
REMARK INTER + INTRA:          -6.239
REMARK INTER:                  -5.898
REMARK INTRA:                  -0.341
REMARK UNBOUND:                -0.342
REMARK SMILES CC(=O)[C@H]1CC[C@H]2[C@@H]3CC=C4C[C@@H](O)CC[C@]4(C)[C@@H]3CC[C@@]12C
REMARK SMILES IDX 4 1 5 2 6 3 7 4 22 5 21 6 20 7 19 8 8 9 9 10 10 11 11 12
REMARK SMILES IDX 17 13 16 14 15 15 13 16 12 17 18 18 23 19 2 20 1 21 3 22
REMARK SMILES IDX 14 23
REMARK H PARENT 14 24
REMARK Flexibility Score: inf
ROOT
ATOM      1  C   UNL     1     132.132 144.530 111.889  1.00  0.00     0.062 C 
ATOM      2  C   UNL     1     132.987 145.128 110.783  1.00  0.00     0.012 C 
ATOM      3  C   UNL     1     132.240 146.380 110.369  1.00  0.00     0.005 C 
ATOM      4  C   UNL     1     130.736 146.083 110.556  1.00  0.00    -0.001 C 
ATOM      5  C   UNL     1     130.648 144.840 111.504  1.00  0.00    -0.020 C 
ATOM      6  C   UNL     1     129.909 143.646 110.825  1.00  0.00     0.008 C 
ATOM      7  C   UNL     1     130.321 143.363 109.371  1.00  0.00     0.005 C 
ATOM      8  C   UNL     1     130.430 144.624 108.448  1.00  0.00     0.003 C 
ATOM      9  C   UNL     1     130.013 145.926 109.187  1.00  0.00     0.000 C 
ATOM     10  C   UNL     1     128.464 146.100 109.295  1.00  0.00     0.031 C 
ATOM     11  C   UNL     1     127.639 145.150 108.448  1.00  0.00    -0.027 C 
ATOM     12  C   UNL     1     128.149 144.417 107.434  1.00  0.00    -0.065 C 
ATOM     13  C   UNL     1     129.632 144.492 107.101  1.00  0.00    -0.008 C 
ATOM     14  C   UNL     1     130.074 143.224 106.300  1.00  0.00     0.014 C 
ATOM     15  C   UNL     1     129.187 142.932 105.066  1.00  0.00     0.033 C 
ATOM     16  C   UNL     1     127.675 143.230 105.268  1.00  0.00     0.118 C 
ATOM     17  C   UNL     1     127.286 143.382 106.746  1.00  0.00     0.063 C 
ATOM     18  C   UNL     1     129.888 145.736 106.202  1.00  0.00     0.016 C 
ATOM     19  C   UNL     1     129.863 145.207 112.789  1.00  0.00     0.012 C 
ENDROOT
BRANCH   1  20
ATOM     20  C   UNL     1     132.460 143.079 112.197  1.00  0.00     0.133 C 
ATOM     21  C   UNL     1     133.333 142.279 111.272  1.00  0.00     0.088 C 
ATOM     22  O   UNL     1     132.036 142.547 113.213  1.00  0.00    -0.300 OA
ENDBRANCH   1  20
BRANCH  16  23
ATOM     23  O   UNL     1     127.302 144.396 104.581  1.00  0.00    -0.393 OA
ATOM     24  H   UNL     1     126.330 144.319 104.386  1.00  0.00     0.210 HD
ENDBRANCH  16  23
TORSDOF 2
ENDMDL
MODEL 8
REMARK VINA RESULT:    -5.411      2.655      4.964
REMARK INTER + INTRA:          -6.228
REMARK INTER:                  -5.889
REMARK INTRA:                  -0.339
REMARK UNBOUND:                -0.342
REMARK SMILES CC(=O)[C@H]1CC[C@H]2[C@@H]3CC=C4C[C@@H](O)CC[C@]4(C)[C@@H]3CC[C@@]12C
REMARK SMILES IDX 4 1 5 2 6 3 7 4 22 5 21 6 20 7 19 8 8 9 9 10 10 11 11 12
REMARK SMILES IDX 17 13 16 14 15 15 13 16 12 17 18 18 23 19 2 20 1 21 3 22
REMARK SMILES IDX 14 23
REMARK H PARENT 14 24
REMARK Flexibility Score: inf
ROOT
ATOM      1  C   UNL     1     135.419 145.083 106.433  1.00  0.00     0.062 C 
ATOM      2  C   UNL     1     135.264 143.648 106.909  1.00  0.00     0.012 C 
ATOM      3  C   UNL     1     134.204 143.064 105.996  1.00  0.00     0.005 C 
ATOM      4  C   UNL     1     133.237 144.216 105.645  1.00  0.00    -0.001 C 
ATOM      5  C   UNL     1     133.996 145.544 105.977  1.00  0.00    -0.020 C 
ATOM      6  C   UNL     1     133.236 146.393 107.042  1.00  0.00     0.008 C 
ATOM      7  C   UNL     1     132.693 145.602 108.244  1.00  0.00     0.005 C 
ATOM      8  C   UNL     1     131.962 144.264 107.890  1.00  0.00     0.003 C 
ATOM      9  C   UNL     1     131.863 144.041 106.355  1.00  0.00     0.000 C 
ATOM     10  C   UNL     1     130.724 144.875 105.687  1.00  0.00     0.031 C 
ATOM     11  C   UNL     1     129.748 145.532 106.644  1.00  0.00    -0.027 C 
ATOM     12  C   UNL     1     129.639 145.197 107.949  1.00  0.00    -0.065 C 
ATOM     13  C   UNL     1     130.540 144.126 108.545  1.00  0.00    -0.008 C 
ATOM     14  C   UNL     1     130.613 144.282 110.099  1.00  0.00     0.014 C 
ATOM     15  C   UNL     1     129.225 144.357 110.779  1.00  0.00     0.033 C 
ATOM     16  C   UNL     1     128.149 145.138 109.974  1.00  0.00     0.118 C 
ATOM     17  C   UNL     1     128.749 146.012 108.863  1.00  0.00     0.063 C 
ATOM     18  C   UNL     1     129.939 142.725 108.234  1.00  0.00     0.016 C 
ATOM     19  C   UNL     1     134.134 146.410 104.700  1.00  0.00     0.012 C 
ENDROOT
BRANCH   1  20
ATOM     20  C   UNL     1     136.133 145.982 107.428  1.00  0.00     0.133 C 
ATOM     21  C   UNL     1     136.380 145.521 108.837  1.00  0.00     0.088 C 
ATOM     22  O   UNL     1     136.536 147.087 107.092  1.00  0.00    -0.300 OA
ENDBRANCH   1  20
BRANCH  16  23
ATOM     23  O   UNL     1     127.218 144.256 109.402  1.00  0.00    -0.393 OA
ATOM     24  H   UNL     1     127.638 143.883 108.582  1.00  0.00     0.210 HD
ENDBRANCH  16  23
TORSDOF 2
ENDMDL
