MODEL 1
REMARK VINA RESULT:    -6.256      0.000      0.000
REMARK INTER + INTRA:          -7.865
REMARK INTER:                  -7.537
REMARK INTRA:                  -0.329
REMARK UNBOUND:                -0.329
REMARK SMILES O=c1c(O)c(-c2ccc(O)cc2O)oc2cc(O)cc(O)c12
REMARK SMILES IDX 5 1 3 2 2 3 1 4 22 5 20 6 19 7 17 8 16 9 15 10 14 11 6 12
REMARK SMILES IDX 8 13 7 14 9 15 11 16 12 17 10 18 13 20 4 22 21 24 18 26
REMARK H PARENT 10 19 13 21 4 23 21 25 18 27
REMARK Flexibility Score: inf
ROOT
ATOM      1  C   UNL     1      15.550  -7.573 -32.374  1.00  0.00     0.184 A 
ATOM      2  C   UNL     1      14.979  -7.446 -33.648  1.00  0.00     0.208 A 
ATOM      3  C   UNL     1      15.822  -7.266 -34.756  1.00  0.00     0.238 A 
ATOM      4  O   UNL     1      15.309  -7.227 -35.904  1.00  0.00    -0.285 OA
ATOM      5  C   UNL     1      17.222  -7.158 -34.566  1.00  0.00     0.111 A 
ATOM      6  C   UNL     1      18.168  -6.931 -35.611  1.00  0.00     0.134 A 
ATOM      7  C   UNL     1      19.538  -6.950 -35.318  1.00  0.00     0.093 A 
ATOM      8  C   UNL     1      19.993  -7.122 -34.012  1.00  0.00     0.123 A 
ATOM      9  C   UNL     1      19.075  -7.292 -32.974  1.00  0.00     0.094 A 
ATOM     10  C   UNL     1      17.704  -7.316 -33.240  1.00  0.00     0.146 A 
ATOM     11  O   UNL     1      16.866  -7.501 -32.226  1.00  0.00    -0.451 OA
ENDROOT
BRANCH   1  12
ATOM     12  C   UNL     1      14.720  -7.772 -31.167  1.00  0.00     0.063 A 
ATOM     13  C   UNL     1      13.873  -9.275 -29.453  1.00  0.00     0.047 A 
ATOM     14  C   UNL     1      14.652  -9.051 -30.591  1.00  0.00     0.020 A 
ATOM     15  C   UNL     1      13.139  -8.226 -28.886  1.00  0.00     0.119 A 
ATOM     16  C   UNL     1      13.181  -6.955 -29.467  1.00  0.00     0.093 A 
ATOM     17  C   UNL     1      13.956  -6.723 -30.613  1.00  0.00     0.130 A 
BRANCH  15  18
ATOM     18  O   UNL     1      12.361  -8.437 -27.749  1.00  0.00    -0.508 OA
ATOM     19  H   UNL     1      12.174  -7.690 -27.090  1.00  0.00     0.293 HD
ENDBRANCH  15  18
BRANCH  17  20
ATOM     20  O   UNL     1      13.951  -5.463 -31.211  1.00  0.00    -0.507 OA
ATOM     21  H   UNL     1      14.018  -4.613 -30.662  1.00  0.00     0.293 HD
ENDBRANCH  17  20
ENDBRANCH   1  12
BRANCH   2  22
ATOM     22  O   UNL     1      13.590  -7.484 -33.800  1.00  0.00    -0.502 OA
ATOM     23  H   UNL     1      12.954  -7.271 -33.040  1.00  0.00     0.293 HD
ENDBRANCH   2  22
BRANCH   6  24
ATOM     24  O   UNL     1      17.820  -6.659 -36.937  1.00  0.00    -0.507 OA
ATOM     25  H   UNL     1      18.305  -6.013 -37.542  1.00  0.00     0.293 HD
ENDBRANCH   6  24
BRANCH   8  26
ATOM     26  O   UNL     1      21.362  -7.118 -33.755  1.00  0.00    -0.508 OA
ATOM     27  H   UNL     1      21.771  -6.490 -33.073  1.00  0.00     0.293 HD
ENDBRANCH   8  26
TORSDOF 6
ENDMDL
MODEL 2
REMARK VINA RESULT:    -6.076      1.724      6.830
REMARK INTER + INTRA:          -7.648
REMARK INTER:                  -7.266
REMARK INTRA:                  -0.383
REMARK UNBOUND:                -0.329
REMARK SMILES O=c1c(O)c(-c2ccc(O)cc2O)oc2cc(O)cc(O)c12
REMARK SMILES IDX 5 1 3 2 2 3 1 4 22 5 20 6 19 7 17 8 16 9 15 10 14 11 6 12
REMARK SMILES IDX 8 13 7 14 9 15 11 16 12 17 10 18 13 20 4 22 21 24 18 26
REMARK H PARENT 10 19 13 21 4 23 21 25 18 27
REMARK Flexibility Score: inf
ROOT
ATOM      1  C   UNL     1      17.185  -6.603 -32.270  1.00  0.00     0.184 A 
ATOM      2  C   UNL     1      16.867  -5.433 -31.566  1.00  0.00     0.208 A 
ATOM      3  C   UNL     1      15.815  -5.461 -30.637  1.00  0.00     0.238 A 
ATOM      4  O   UNL     1      15.584  -4.428 -29.956  1.00  0.00    -0.285 OA
ATOM      5  C   UNL     1      15.058  -6.646 -30.466  1.00  0.00     0.111 A 
ATOM      6  C   UNL     1      13.942  -6.777 -29.585  1.00  0.00     0.134 A 
ATOM      7  C   UNL     1      13.337  -8.029 -29.420  1.00  0.00     0.093 A 
ATOM      8  C   UNL     1      13.763  -9.138 -30.149  1.00  0.00     0.123 A 
ATOM      9  C   UNL     1      14.818  -9.010 -31.053  1.00  0.00     0.094 A 
ATOM     10  C   UNL     1      15.467  -7.783 -31.212  1.00  0.00     0.146 A 
ATOM     11  O   UNL     1      16.480  -7.710 -32.068  1.00  0.00    -0.451 OA
ENDROOT
BRANCH   1  12
ATOM     12  C   UNL     1      18.285  -6.643 -33.256  1.00  0.00     0.063 A 
ATOM     13  C   UNL     1      20.614  -7.133 -33.750  1.00  0.00     0.047 A 
ATOM     14  C   UNL     1      19.551  -7.088 -32.845  1.00  0.00     0.020 A 
ATOM     15  C   UNL     1      20.428  -6.720 -35.075  1.00  0.00     0.119 A 
ATOM     16  C   UNL     1      19.176  -6.253 -35.487  1.00  0.00     0.093 A 
ATOM     17  C   UNL     1      18.105  -6.198 -34.583  1.00  0.00     0.130 A 
BRANCH  15  18
ATOM     18  O   UNL     1      21.480  -6.764 -35.988  1.00  0.00    -0.508 OA
ATOM     19  H   UNL     1      21.601  -7.547 -36.619  1.00  0.00     0.293 HD
ENDBRANCH  15  18
BRANCH  17  20
ATOM     20  O   UNL     1      16.875  -5.685 -34.993  1.00  0.00    -0.507 OA
ATOM     21  H   UNL     1      16.005  -5.982 -34.566  1.00  0.00     0.293 HD
ENDBRANCH  17  20
ENDBRANCH   1  12
BRANCH   2  22
ATOM     22  O   UNL     1      17.583  -4.256 -31.805  1.00  0.00    -0.502 OA
ATOM     23  H   UNL     1      17.691  -3.865 -32.734  1.00  0.00     0.293 HD
ENDBRANCH   2  22
BRANCH   6  24
ATOM     24  O   UNL     1      13.377  -5.715 -28.874  1.00  0.00    -0.507 OA
ATOM     25  H   UNL     1      12.389  -5.589 -28.710  1.00  0.00     0.293 HD
ENDBRANCH   6  24
BRANCH   8  26
ATOM     26  O   UNL     1      13.126 -10.364 -29.971  1.00  0.00    -0.508 OA
ATOM     27  H   UNL     1      12.130 -10.423 -29.794  1.00  0.00     0.293 HD
ENDBRANCH   8  26
TORSDOF 6
ENDMDL
MODEL 3
REMARK VINA RESULT:    -5.915      1.282      2.969
REMARK INTER + INTRA:          -7.453
REMARK INTER:                  -7.018
REMARK INTRA:                  -0.435
REMARK UNBOUND:                -0.329
REMARK SMILES O=c1c(O)c(-c2ccc(O)cc2O)oc2cc(O)cc(O)c12
REMARK SMILES IDX 5 1 3 2 2 3 1 4 22 5 20 6 19 7 17 8 16 9 15 10 14 11 6 12
REMARK SMILES IDX 8 13 7 14 9 15 11 16 12 17 10 18 13 20 4 22 21 24 18 26
REMARK H PARENT 10 19 13 21 4 23 21 25 18 27
REMARK Flexibility Score: inf
ROOT
ATOM      1  C   UNL     1      15.978  -7.637 -32.467  1.00  0.00     0.184 A 
ATOM      2  C   UNL     1      17.345  -7.361 -32.319  1.00  0.00     0.208 A 
ATOM      3  C   UNL     1      18.095  -7.009 -33.452  1.00  0.00     0.238 A 
ATOM      4  O   UNL     1      19.303  -6.691 -33.301  1.00  0.00    -0.285 OA
ATOM      5  C   UNL     1      17.479  -6.994 -34.728  1.00  0.00     0.111 A 
ATOM      6  C   UNL     1      18.152  -6.695 -35.951  1.00  0.00     0.134 A 
ATOM      7  C   UNL     1      17.416  -6.605 -37.140  1.00  0.00     0.093 A 
ATOM      8  C   UNL     1      16.047  -6.865 -37.161  1.00  0.00     0.123 A 
ATOM      9  C   UNL     1      15.388  -7.211 -35.981  1.00  0.00     0.094 A 
ATOM     10  C   UNL     1      16.087  -7.271 -34.773  1.00  0.00     0.146 A 
ATOM     11  O   UNL     1      15.417  -7.584 -33.669  1.00  0.00    -0.451 OA
ENDROOT
BRANCH   1  12
ATOM     12  C   UNL     1      15.130  -8.005 -31.315  1.00  0.00     0.063 A 
ATOM     13  C   UNL     1      14.383  -9.705 -29.745  1.00  0.00     0.047 A 
ATOM     14  C   UNL     1      15.176  -9.322 -30.830  1.00  0.00     0.020 A 
ATOM     15  C   UNL     1      13.522  -8.780 -29.141  1.00  0.00     0.119 A 
ATOM     16  C   UNL     1      13.452  -7.473 -29.633  1.00  0.00     0.093 A 
ATOM     17  C   UNL     1      14.240  -7.082 -30.726  1.00  0.00     0.130 A 
BRANCH  15  18
ATOM     18  O   UNL     1      12.729  -9.150 -28.056  1.00  0.00    -0.508 OA
ATOM     19  H   UNL     1      13.055  -9.816 -27.365  1.00  0.00     0.293 HD
ENDBRANCH  15  18
BRANCH  17  20
ATOM     20  O   UNL     1      14.125  -5.789 -31.238  1.00  0.00    -0.507 OA
ATOM     21  H   UNL     1      14.855  -5.098 -31.106  1.00  0.00     0.293 HD
ENDBRANCH  17  20
ENDBRANCH   1  12
BRANCH   2  22
ATOM     22  O   UNL     1      17.944  -7.453 -31.060  1.00  0.00    -0.502 OA
ATOM     23  H   UNL     1      18.946  -7.547 -30.940  1.00  0.00     0.293 HD
ENDBRANCH   2  22
BRANCH   6  24
ATOM     24  O   UNL     1      19.532  -6.504 -36.059  1.00  0.00    -0.507 OA
ATOM     25  H   UNL     1      20.102  -6.008 -35.391  1.00  0.00     0.293 HD
ENDBRANCH   6  24
BRANCH   8  26
ATOM     26  O   UNL     1      15.351  -6.783 -38.365  1.00  0.00    -0.508 OA
ATOM     27  H   UNL     1      14.861  -5.939 -38.638  1.00  0.00     0.293 HD
ENDBRANCH   8  26
TORSDOF 6
ENDMDL
MODEL 4
REMARK VINA RESULT:    -5.717      1.910      6.818
REMARK INTER + INTRA:          -7.216
REMARK INTER:                  -6.800
REMARK INTRA:                  -0.416
REMARK UNBOUND:                -0.329
REMARK SMILES O=c1c(O)c(-c2ccc(O)cc2O)oc2cc(O)cc(O)c12
REMARK SMILES IDX 5 1 3 2 2 3 1 4 22 5 20 6 19 7 17 8 16 9 15 10 14 11 6 12
REMARK SMILES IDX 8 13 7 14 9 15 11 16 12 17 10 18 13 20 4 22 21 24 18 26
REMARK H PARENT 10 19 13 21 4 23 21 25 18 27
REMARK Flexibility Score: inf
ROOT
ATOM      1  C   UNL     1      15.998  -6.607 -31.608  1.00  0.00     0.184 A 
ATOM      2  C   UNL     1      15.347  -7.689 -30.999  1.00  0.00     0.208 A 
ATOM      3  C   UNL     1      14.114  -7.473 -30.366  1.00  0.00     0.238 A 
ATOM      4  O   UNL     1      13.500  -8.461 -29.886  1.00  0.00    -0.285 OA
ATOM      5  C   UNL     1      13.574  -6.164 -30.302  1.00  0.00     0.111 A 
ATOM      6  C   UNL     1      12.353  -5.820 -29.647  1.00  0.00     0.134 A 
ATOM      7  C   UNL     1      11.865  -4.510 -29.741  1.00  0.00     0.093 A 
ATOM      8  C   UNL     1      12.583  -3.520 -30.408  1.00  0.00     0.123 A 
ATOM      9  C   UNL     1      13.805  -3.832 -31.006  1.00  0.00     0.094 A 
ATOM     10  C   UNL     1      14.299  -5.137 -30.963  1.00  0.00     0.146 A 
ATOM     11  O   UNL     1      15.456  -5.396 -31.562  1.00  0.00    -0.451 OA
ENDROOT
BRANCH   1  12
ATOM     12  C   UNL     1      17.295  -6.768 -32.298  1.00  0.00     0.063 A 
ATOM     13  C   UNL     1      19.721  -6.625 -32.220  1.00  0.00     0.047 A 
ATOM     14  C   UNL     1      18.478  -6.489 -31.596  1.00  0.00     0.020 A 
ATOM     15  C   UNL     1      19.795  -7.028 -33.559  1.00  0.00     0.119 A 
ATOM     16  C   UNL     1      18.621  -7.285 -34.273  1.00  0.00     0.093 A 
ATOM     17  C   UNL     1      17.368  -7.144 -33.656  1.00  0.00     0.130 A 
BRANCH  15  18
ATOM     18  O   UNL     1      21.029  -7.171 -34.191  1.00  0.00    -0.508 OA
ATOM     19  H   UNL     1      21.765  -6.485 -34.075  1.00  0.00     0.293 HD
ENDBRANCH  15  18
BRANCH  17  20
ATOM     20  O   UNL     1      16.203  -7.356 -34.393  1.00  0.00    -0.507 OA
ATOM     21  H   UNL     1      15.535  -6.611 -34.558  1.00  0.00     0.293 HD
ENDBRANCH  17  20
ENDBRANCH   1  12
BRANCH   2  22
ATOM     22  O   UNL     1      15.935  -8.957 -31.014  1.00  0.00    -0.502 OA
ATOM     23  H   UNL     1      16.184  -9.430 -31.875  1.00  0.00     0.293 HD
ENDBRANCH   2  22
BRANCH   6  24
ATOM     24  O   UNL     1      11.598  -6.710 -28.878  1.00  0.00    -0.507 OA
ATOM     25  H   UNL     1      10.664  -7.019 -29.101  1.00  0.00     0.293 HD
ENDBRANCH   6  24
BRANCH   8  26
ATOM     26  O   UNL     1      12.075  -2.223 -30.466  1.00  0.00    -0.508 OA
ATOM     27  H   UNL     1      12.596  -1.469 -30.896  1.00  0.00     0.293 HD
ENDBRANCH   8  26
TORSDOF 6
ENDMDL
MODEL 5
REMARK VINA RESULT:    -5.702      2.654      6.824
REMARK INTER + INTRA:          -7.197
REMARK INTER:                  -6.761
REMARK INTRA:                  -0.436
REMARK UNBOUND:                -0.329
REMARK SMILES O=c1c(O)c(-c2ccc(O)cc2O)oc2cc(O)cc(O)c12
REMARK SMILES IDX 5 1 3 2 2 3 1 4 22 5 20 6 19 7 17 8 16 9 15 10 14 11 6 12
REMARK SMILES IDX 8 13 7 14 9 15 11 16 12 17 10 18 13 20 4 22 21 24 18 26
REMARK H PARENT 10 19 13 21 4 23 21 25 18 27
REMARK Flexibility Score: inf
ROOT
ATOM      1  C   UNL     1      16.892  -5.793 -31.679  1.00  0.00     0.184 A 
ATOM      2  C   UNL     1      15.714  -6.545 -31.794  1.00  0.00     0.208 A 
ATOM      3  C   UNL     1      14.638  -6.259 -30.939  1.00  0.00     0.238 A 
ATOM      4  O   UNL     1      13.559  -6.886 -31.096  1.00  0.00    -0.285 OA
ATOM      5  C   UNL     1      14.777  -5.262 -29.942  1.00  0.00     0.111 A 
ATOM      6  C   UNL     1      13.768  -4.918 -28.992  1.00  0.00     0.134 A 
ATOM      7  C   UNL     1      13.978  -3.841 -28.121  1.00  0.00     0.093 A 
ATOM      8  C   UNL     1      15.181  -3.138 -28.121  1.00  0.00     0.123 A 
ATOM      9  C   UNL     1      16.196  -3.500 -29.009  1.00  0.00     0.094 A 
ATOM     10  C   UNL     1      16.002  -4.545 -29.916  1.00  0.00     0.146 A 
ATOM     11  O   UNL     1      16.985  -4.843 -30.758  1.00  0.00    -0.451 OA
ENDROOT
BRANCH   1  12
ATOM     12  C   UNL     1      18.059  -6.038 -32.552  1.00  0.00     0.063 A 
ATOM     13  C   UNL     1      19.994  -7.405 -33.100  1.00  0.00     0.047 A 
ATOM     14  C   UNL     1      18.880  -7.148 -32.296  1.00  0.00     0.020 A 
ATOM     15  C   UNL     1      20.309  -6.547 -34.160  1.00  0.00     0.119 A 
ATOM     16  C   UNL     1      19.511  -5.427 -34.408  1.00  0.00     0.093 A 
ATOM     17  C   UNL     1      18.394  -5.157 -33.602  1.00  0.00     0.130 A 
BRANCH  15  18
ATOM     18  O   UNL     1      21.415  -6.796 -34.970  1.00  0.00    -0.508 OA
ATOM     19  H   UNL     1      22.263  -6.245 -34.893  1.00  0.00     0.293 HD
ENDBRANCH  15  18
BRANCH  17  20
ATOM     20  O   UNL     1      17.634  -4.010 -33.830  1.00  0.00    -0.507 OA
ATOM     21  H   UNL     1      16.700  -3.906 -33.449  1.00  0.00     0.293 HD
ENDBRANCH  17  20
ENDBRANCH   1  12
BRANCH   2  22
ATOM     22  O   UNL     1      15.629  -7.572 -32.738  1.00  0.00    -0.502 OA
ATOM     23  H   UNL     1      16.417  -7.852 -33.309  1.00  0.00     0.293 HD
ENDBRANCH   2  22
BRANCH   6  24
ATOM     24  O   UNL     1      12.562  -5.610 -28.844  1.00  0.00    -0.507 OA
ATOM     25  H   UNL     1      12.480  -6.578 -28.575  1.00  0.00     0.293 HD
ENDBRANCH   6  24
BRANCH   8  26
ATOM     26  O   UNL     1      15.362  -2.084 -27.229  1.00  0.00    -0.508 OA
ATOM     27  H   UNL     1      14.655  -1.841 -26.545  1.00  0.00     0.293 HD
ENDBRANCH   8  26
TORSDOF 6
ENDMDL
MODEL 6
REMARK VINA RESULT:    -5.690      2.203      6.586
REMARK INTER + INTRA:          -7.183
REMARK INTER:                  -6.914
REMARK INTRA:                  -0.269
REMARK UNBOUND:                -0.329
REMARK SMILES O=c1c(O)c(-c2ccc(O)cc2O)oc2cc(O)cc(O)c12
REMARK SMILES IDX 5 1 3 2 2 3 1 4 22 5 20 6 19 7 17 8 16 9 15 10 14 11 6 12
REMARK SMILES IDX 8 13 7 14 9 15 11 16 12 17 10 18 13 20 4 22 21 24 18 26
REMARK H PARENT 10 19 13 21 4 23 21 25 18 27
REMARK Flexibility Score: inf
ROOT
ATOM      1  C   UNL     1      16.149  -7.038 -33.066  1.00  0.00     0.184 A 
ATOM      2  C   UNL     1      15.585  -6.093 -32.198  1.00  0.00     0.208 A 
ATOM      3  C   UNL     1      14.226  -6.200 -31.864  1.00  0.00     0.238 A 
ATOM      4  O   UNL     1      13.744  -5.393 -31.027  1.00  0.00    -0.285 OA
ATOM      5  C   UNL     1      13.435  -7.220 -32.450  1.00  0.00     0.111 A 
ATOM      6  C   UNL     1      12.037  -7.397 -32.220  1.00  0.00     0.134 A 
ATOM      7  C   UNL     1      11.382  -8.506 -32.770  1.00  0.00     0.093 A 
ATOM      8  C   UNL     1      12.056  -9.406 -33.593  1.00  0.00     0.123 A 
ATOM      9  C   UNL     1      13.410  -9.213 -33.870  1.00  0.00     0.094 A 
ATOM     10  C   UNL     1      14.101  -8.138 -33.304  1.00  0.00     0.146 A 
ATOM     11  O   UNL     1      15.394  -8.003 -33.577  1.00  0.00    -0.451 OA
ENDROOT
BRANCH   1  12
ATOM     12  C   UNL     1      17.574  -6.987 -33.452  1.00  0.00     0.063 A 
ATOM     13  C   UNL     1      19.246  -6.756 -35.202  1.00  0.00     0.047 A 
ATOM     14  C   UNL     1      17.908  -6.804 -34.803  1.00  0.00     0.020 A 
ATOM     15  C   UNL     1      20.268  -6.906 -34.256  1.00  0.00     0.119 A 
ATOM     16  C   UNL     1      19.945  -7.113 -32.912  1.00  0.00     0.093 A 
ATOM     17  C   UNL     1      18.603  -7.169 -32.503  1.00  0.00     0.130 A 
BRANCH  15  18
ATOM     18  O   UNL     1      21.606  -6.857 -34.642  1.00  0.00    -0.508 OA
ATOM     19  H   UNL     1      21.899  -6.360 -35.475  1.00  0.00     0.293 HD
ENDBRANCH  15  18
BRANCH  17  20
ATOM     20  O   UNL     1      18.294  -7.424 -31.168  1.00  0.00    -0.507 OA
ATOM     21  H   UNL     1      18.595  -8.275 -30.706  1.00  0.00     0.293 HD
ENDBRANCH  17  20
ENDBRANCH   1  12
BRANCH   2  22
ATOM     22  O   UNL     1      16.370  -5.054 -31.690  1.00  0.00    -0.502 OA
ATOM     23  H   UNL     1      17.382  -5.100 -31.664  1.00  0.00     0.293 HD
ENDBRANCH   2  22
BRANCH   6  24
ATOM     24  O   UNL     1      11.246  -6.509 -31.485  1.00  0.00    -0.507 OA
ATOM     25  H   UNL     1      11.230  -6.445 -30.478  1.00  0.00     0.293 HD
ENDBRANCH   6  24
BRANCH   8  26
ATOM     26  O   UNL     1      11.368 -10.488 -34.138  1.00  0.00    -0.508 OA
ATOM     27  H   UNL     1      10.773 -11.078 -33.568  1.00  0.00     0.293 HD
ENDBRANCH   8  26
TORSDOF 6
ENDMDL
MODEL 7
REMARK VINA RESULT:    -5.477      1.985      6.682
REMARK INTER + INTRA:          -6.926
REMARK INTER:                  -6.506
REMARK INTRA:                  -0.420
REMARK UNBOUND:                -0.329
REMARK SMILES O=c1c(O)c(-c2ccc(O)cc2O)oc2cc(O)cc(O)c12
REMARK SMILES IDX 5 1 3 2 2 3 1 4 22 5 20 6 19 7 17 8 16 9 15 10 14 11 6 12
REMARK SMILES IDX 8 13 7 14 9 15 11 16 12 17 10 18 13 20 4 22 21 24 18 26
REMARK H PARENT 10 19 13 21 4 23 21 25 18 27
REMARK Flexibility Score: inf
ROOT
ATOM      1  C   UNL     1      15.929  -5.898 -32.096  1.00  0.00     0.184 A 
ATOM      2  C   UNL     1      15.231  -4.790 -32.598  1.00  0.00     0.208 A 
ATOM      3  C   UNL     1      13.972  -4.480 -32.063  1.00  0.00     0.238 A 
ATOM      4  O   UNL     1      13.384  -3.442 -32.465  1.00  0.00    -0.285 OA
ATOM      5  C   UNL     1      13.401  -5.317 -31.073  1.00  0.00     0.111 A 
ATOM      6  C   UNL     1      12.112  -5.125 -30.491  1.00  0.00     0.134 A 
ATOM      7  C   UNL     1      11.696  -5.956 -29.442  1.00  0.00     0.093 A 
ATOM      8  C   UNL     1      12.494  -7.009 -28.999  1.00  0.00     0.123 A 
ATOM      9  C   UNL     1      13.733  -7.241 -29.597  1.00  0.00     0.094 A 
ATOM     10  C   UNL     1      14.192  -6.406 -30.618  1.00  0.00     0.146 A 
ATOM     11  O   UNL     1      15.387  -6.648 -31.146  1.00  0.00    -0.451 OA
ENDROOT
BRANCH   1  12
ATOM     12  C   UNL     1      17.263  -6.275 -32.610  1.00  0.00     0.063 A 
ATOM     13  C   UNL     1      18.593  -7.434 -34.283  1.00  0.00     0.047 A 
ATOM     14  C   UNL     1      17.348  -7.056 -33.773  1.00  0.00     0.020 A 
ATOM     15  C   UNL     1      19.768  -7.048 -33.626  1.00  0.00     0.119 A 
ATOM     16  C   UNL     1      19.692  -6.290 -32.454  1.00  0.00     0.093 A 
ATOM     17  C   UNL     1      18.446  -5.911 -31.932  1.00  0.00     0.130 A 
BRANCH  15  18
ATOM     18  O   UNL     1      21.015  -7.416 -34.127  1.00  0.00    -0.508 OA
ATOM     19  H   UNL     1      21.638  -8.022 -33.605  1.00  0.00     0.293 HD
ENDBRANCH  15  18
BRANCH  17  20
ATOM     20  O   UNL     1      18.382  -5.197 -30.736  1.00  0.00    -0.507 OA
ATOM     21  H   UNL     1      18.980  -5.422 -29.949  1.00  0.00     0.293 HD
ENDBRANCH  17  20
ENDBRANCH   1  12
BRANCH   2  22
ATOM     22  O   UNL     1      15.785  -4.021 -33.626  1.00  0.00    -0.502 OA
ATOM     23  H   UNL     1      15.982  -3.033 -33.520  1.00  0.00     0.293 HD
ENDBRANCH   2  22
BRANCH   6  24
ATOM     24  O   UNL     1      11.196  -4.158 -30.917  1.00  0.00    -0.507 OA
ATOM     25  H   UNL     1      10.546  -4.274 -31.679  1.00  0.00     0.293 HD
ENDBRANCH   6  24
BRANCH   8  26
ATOM     26  O   UNL     1      12.041  -7.826 -27.965  1.00  0.00    -0.508 OA
ATOM     27  H   UNL     1      11.275  -8.476 -28.100  1.00  0.00     0.293 HD
ENDBRANCH   8  26
TORSDOF 6
ENDMDL
MODEL 8
REMARK VINA RESULT:    -5.454      2.061      6.689
REMARK INTER + INTRA:          -6.899
REMARK INTER:                  -6.655
REMARK INTRA:                  -0.244
REMARK UNBOUND:                -0.329
REMARK SMILES O=c1c(O)c(-c2ccc(O)cc2O)oc2cc(O)cc(O)c12
REMARK SMILES IDX 5 1 3 2 2 3 1 4 22 5 20 6 19 7 17 8 16 9 15 10 14 11 6 12
REMARK SMILES IDX 8 13 7 14 9 15 11 16 12 17 10 18 13 20 4 22 21 24 18 26
REMARK H PARENT 10 19 13 21 4 23 21 25 18 27
REMARK Flexibility Score: inf
ROOT
ATOM      1  C   UNL     1      16.432  -6.486 -32.061  1.00  0.00     0.184 A 
ATOM      2  C   UNL     1      15.341  -7.367 -32.070  1.00  0.00     0.208 A 
ATOM      3  C   UNL     1      14.280  -7.145 -31.179  1.00  0.00     0.238 A 
ATOM      4  O   UNL     1      13.272  -7.895 -31.242  1.00  0.00    -0.285 OA
ATOM      5  C   UNL     1      14.351  -6.076 -30.251  1.00  0.00     0.111 A 
ATOM      6  C   UNL     1      13.354  -5.783 -29.272  1.00  0.00     0.134 A 
ATOM      7  C   UNL     1      13.482  -4.635 -28.479  1.00  0.00     0.093 A 
ATOM      8  C   UNL     1      14.598  -3.808 -28.584  1.00  0.00     0.123 A 
ATOM      9  C   UNL     1      15.605  -4.114 -29.500  1.00  0.00     0.094 A 
ATOM     10  C   UNL     1      15.488  -5.230 -30.332  1.00  0.00     0.146 A 
ATOM     11  O   UNL     1      16.460  -5.473 -31.204  1.00  0.00    -0.451 OA
ENDROOT
BRANCH   1  12
ATOM     12  C   UNL     1      17.578  -6.659 -32.978  1.00  0.00     0.063 A 
ATOM     13  C   UNL     1      18.396  -6.938 -35.251  1.00  0.00     0.047 A 
ATOM     14  C   UNL     1      17.336  -6.769 -34.356  1.00  0.00     0.020 A 
ATOM     15  C   UNL     1      19.711  -7.015 -34.776  1.00  0.00     0.119 A 
ATOM     16  C   UNL     1      19.960  -6.930 -33.403  1.00  0.00     0.093 A 
ATOM     17  C   UNL     1      18.900  -6.766 -32.497  1.00  0.00     0.130 A 
BRANCH  15  18
ATOM     18  O   UNL     1      20.777  -7.181 -35.659  1.00  0.00    -0.508 OA
ATOM     19  H   UNL     1      21.315  -8.039 -35.684  1.00  0.00     0.293 HD
ENDBRANCH  15  18
BRANCH  17  20
ATOM     20  O   UNL     1      19.157  -6.732 -31.127  1.00  0.00    -0.507 OA
ATOM     21  H   UNL     1      18.727  -7.392 -30.489  1.00  0.00     0.293 HD
ENDBRANCH  17  20
ENDBRANCH   1  12
BRANCH   2  22
ATOM     22  O   UNL     1      15.329  -8.456 -32.946  1.00  0.00    -0.502 OA
ATOM     23  H   UNL     1      15.441  -9.411 -32.627  1.00  0.00     0.293 HD
ENDBRANCH   2  22
BRANCH   6  24
ATOM     24  O   UNL     1      12.241  -6.590 -29.021  1.00  0.00    -0.507 OA
ATOM     25  H   UNL     1      12.273  -7.504 -28.593  1.00  0.00     0.293 HD
ENDBRANCH   6  24
BRANCH   8  26
ATOM     26  O   UNL     1      14.700  -2.684 -27.766  1.00  0.00    -0.508 OA
ATOM     27  H   UNL     1      14.708  -2.762 -26.756  1.00  0.00     0.293 HD
ENDBRANCH   8  26
TORSDOF 6
ENDMDL
MODEL 9
REMARK VINA RESULT:    -5.451      2.768      7.284
REMARK INTER + INTRA:          -6.894
REMARK INTER:                  -6.500
REMARK INTRA:                  -0.394
REMARK UNBOUND:                -0.329
REMARK SMILES O=c1c(O)c(-c2ccc(O)cc2O)oc2cc(O)cc(O)c12
REMARK SMILES IDX 5 1 3 2 2 3 1 4 22 5 20 6 19 7 17 8 16 9 15 10 14 11 6 12
REMARK SMILES IDX 8 13 7 14 9 15 11 16 12 17 10 18 13 20 4 22 21 24 18 26
REMARK H PARENT 10 19 13 21 4 23 21 25 18 27
REMARK Flexibility Score: inf
ROOT
ATOM      1  C   UNL     1      17.476  -5.239 -31.622  1.00  0.00     0.184 A 
ATOM      2  C   UNL     1      17.734  -4.071 -30.889  1.00  0.00     0.208 A 
ATOM      3  C   UNL     1      16.830  -3.680 -29.891  1.00  0.00     0.238 A 
ATOM      4  O   UNL     1      17.104  -2.673 -29.188  1.00  0.00    -0.285 OA
ATOM      5  C   UNL     1      15.648  -4.432 -29.676  1.00  0.00     0.111 A 
ATOM      6  C   UNL     1      14.638  -4.104 -28.722  1.00  0.00     0.134 A 
ATOM      7  C   UNL     1      13.565  -4.981 -28.523  1.00  0.00     0.093 A 
ATOM      8  C   UNL     1      13.429  -6.139 -29.288  1.00  0.00     0.123 A 
ATOM      9  C   UNL     1      14.382  -6.442 -30.262  1.00  0.00     0.094 A 
ATOM     10  C   UNL     1      15.484  -5.607 -30.456  1.00  0.00     0.146 A 
ATOM     11  O   UNL     1      16.378  -5.944 -31.380  1.00  0.00    -0.451 OA
ENDROOT
BRANCH   1  12
ATOM     12  C   UNL     1      18.392  -5.710 -32.681  1.00  0.00     0.063 A 
ATOM     13  C   UNL     1      20.279  -7.100 -33.329  1.00  0.00     0.047 A 
ATOM     14  C   UNL     1      19.393  -6.638 -32.352  1.00  0.00     0.020 A 
ATOM     15  C   UNL     1      20.184  -6.629 -34.644  1.00  0.00     0.119 A 
ATOM     16  C   UNL     1      19.205  -5.687 -34.976  1.00  0.00     0.093 A 
ATOM     17  C   UNL     1      18.315  -5.213 -33.999  1.00  0.00     0.130 A 
BRANCH  15  18
ATOM     18  O   UNL     1      21.059  -7.086 -35.627  1.00  0.00    -0.508 OA
ATOM     19  H   UNL     1      22.062  -6.972 -35.537  1.00  0.00     0.293 HD
ENDBRANCH  15  18
BRANCH  17  20
ATOM     20  O   UNL     1      17.376  -4.237 -34.332  1.00  0.00    -0.507 OA
ATOM     21  H   UNL     1      16.404  -4.318 -34.052  1.00  0.00     0.293 HD
ENDBRANCH  17  20
ENDBRANCH   1  12
BRANCH   2  22
ATOM     22  O   UNL     1      18.871  -3.307 -31.169  1.00  0.00    -0.502 OA
ATOM     23  H   UNL     1      18.838  -2.476 -31.748  1.00  0.00     0.293 HD
ENDBRANCH   2  22
BRANCH   6  24
ATOM     24  O   UNL     1      14.627  -2.929 -27.965  1.00  0.00    -0.507 OA
ATOM     25  H   UNL     1      15.277  -2.164 -28.074  1.00  0.00     0.293 HD
ENDBRANCH   6  24
BRANCH   8  26
ATOM     26  O   UNL     1      12.339  -6.980 -29.075  1.00  0.00    -0.508 OA
ATOM     27  H   UNL     1      12.136  -7.364 -28.160  1.00  0.00     0.293 HD
ENDBRANCH   8  26
TORSDOF 6
ENDMDL
