MODEL 1
REMARK VINA RESULT:    -3.790      0.000      0.000
REMARK INTER + INTRA:          -8.618
REMARK INTER:                  -7.113
REMARK INTRA:                  -1.505
REMARK UNBOUND:                -1.505
REMARK SMILES CCCCCCCCC=CCCCCCCCC(=O)[O-]
REMARK SMILES IDX 10 1 9 2 11 3 12 4 13 5 14 6 15 7 16 8 17 9 18 10 19 11
REMARK SMILES IDX 20 12 8 13 7 14 6 15 5 16 4 17 3 18 2 19 1 20
REMARK H PARENT
REMARK Flexibility Score: inf
ROOT
ATOM      1  C   UNL     1      16.027  -6.231  12.292  1.00  0.00    -0.031 C 
ATOM      2  C   UNL     1      15.642  -5.622  11.162  1.00  0.00    -0.031 C 
ENDROOT
BRANCH   1   3
ATOM      3  C   UNL     1      16.649  -5.443  13.414  1.00  0.00     0.027 C 
BRANCH   3   4
ATOM      4  C   UNL     1      15.717  -5.325  14.629  1.00  0.00     0.004 C 
BRANCH   4   5
ATOM      5  C   UNL     1      15.703  -3.905  15.213  1.00  0.00     0.000 C 
BRANCH   5   6
ATOM      6  C   UNL     1      15.945  -2.858  14.120  1.00  0.00     0.000 C 
BRANCH   6   7
ATOM      7  C   UNL     1      15.306  -1.512  14.495  1.00  0.00     0.000 C 
BRANCH   7   8
ATOM      8  C   UNL     1      16.346  -0.409  14.755  1.00  0.00     0.006 C 
BRANCH   8   9
ATOM      9  C   UNL     1      16.518  -0.037  16.236  1.00  0.00     0.053 C 
BRANCH   9  10
ATOM     10  C   UNL     1      17.823  -0.520  16.788  1.00  0.00     0.041 C 
ATOM     11  O   UNL     1      18.395  -1.522  16.282  1.00  0.00    -0.550 OA
ATOM     12  O   UNL     1      18.393   0.119  17.882  1.00  0.00    -0.550 OA
ENDBRANCH   9  10
ENDBRANCH   8   9
ENDBRANCH   7   8
ENDBRANCH   6   7
ENDBRANCH   5   6
ENDBRANCH   4   5
ENDBRANCH   3   4
ENDBRANCH   1   3
BRANCH   2  13
ATOM     13  C   UNL     1      15.012  -6.385  10.026  1.00  0.00     0.027 C 
BRANCH  13  14
ATOM     14  C   UNL     1      15.971  -6.567   8.837  1.00  0.00     0.004 C 
BRANCH  14  15
ATOM     15  C   UNL     1      16.802  -5.304   8.509  1.00  0.00     0.000 C 
BRANCH  15  16
ATOM     16  C   UNL     1      18.310  -5.577   8.358  1.00  0.00     0.000 C 
BRANCH  16  17
ATOM     17  C   UNL     1      18.857  -6.704   9.254  1.00  0.00    -0.000 C 
BRANCH  17  18
ATOM     18  C   UNL     1      19.207  -6.282  10.696  1.00  0.00    -0.000 C 
BRANCH  18  19
ATOM     19  C   UNL     1      20.712  -6.184  10.999  1.00  0.00    -0.003 C 
ATOM     20  C   UNL     1      21.539  -5.758   9.787  1.00  0.00     0.004 C 
ENDBRANCH  18  19
ENDBRANCH  17  18
ENDBRANCH  16  17
ENDBRANCH  15  16
ENDBRANCH  14  15
ENDBRANCH  13  14
ENDBRANCH   2  13
TORSDOF 15
ENDMDL
MODEL 2
REMARK VINA RESULT:    -3.772      3.102      8.025
REMARK INTER + INTRA:          -8.586
REMARK INTER:                  -7.354
REMARK INTRA:                  -1.232
REMARK UNBOUND:                -1.505
REMARK SMILES CCCCCCCCC=CCCCCCCCC(=O)[O-]
REMARK SMILES IDX 10 1 9 2 11 3 12 4 13 5 14 6 15 7 16 8 17 9 18 10 19 11
REMARK SMILES IDX 20 12 8 13 7 14 6 15 5 16 4 17 3 18 2 19 1 20
REMARK H PARENT
REMARK Flexibility Score: inf
ROOT
ATOM      1  C   UNL     1      15.850  -4.717  12.882  1.00  0.00    -0.031 C 
ATOM      2  C   UNL     1      16.248  -4.602  14.156  1.00  0.00    -0.031 C 
ENDROOT
BRANCH   1   3
ATOM      3  C   UNL     1      16.107  -5.982  12.109  1.00  0.00     0.027 C 
BRANCH   3   4
ATOM      4  C   UNL     1      15.796  -5.825  10.613  1.00  0.00     0.004 C 
BRANCH   4   5
ATOM      5  C   UNL     1      17.051  -5.982   9.741  1.00  0.00     0.000 C 
BRANCH   5   6
ATOM      6  C   UNL     1      16.923  -5.176   8.444  1.00  0.00     0.000 C 
BRANCH   6   7
ATOM      7  C   UNL     1      18.243  -5.185   7.658  1.00  0.00     0.000 C 
BRANCH   7   8
ATOM      8  C   UNL     1      19.481  -5.254   8.570  1.00  0.00     0.006 C 
BRANCH   8   9
ATOM      9  C   UNL     1      20.752  -4.642   7.960  1.00  0.00     0.053 C 
BRANCH   9  10
ATOM     10  C   UNL     1      20.969  -3.232   8.412  1.00  0.00     0.041 C 
ATOM     11  O   UNL     1      21.872  -2.965   9.249  1.00  0.00    -0.550 OA
ATOM     12  O   UNL     1      20.153  -2.215   7.933  1.00  0.00    -0.550 OA
ENDBRANCH   9  10
ENDBRANCH   8   9
ENDBRANCH   7   8
ENDBRANCH   6   7
ENDBRANCH   5   6
ENDBRANCH   4   5
ENDBRANCH   3   4
ENDBRANCH   1   3
BRANCH   2  13
ATOM     13  C   UNL     1      15.998  -3.350  14.954  1.00  0.00     0.027 C 
BRANCH  13  14
ATOM     14  C   UNL     1      15.549  -2.171  14.074  1.00  0.00     0.004 C 
BRANCH  14  15
ATOM     15  C   UNL     1      16.228  -0.829  14.437  1.00  0.00     0.000 C 
BRANCH  15  16
ATOM     16  C   UNL     1      17.315  -0.957  15.520  1.00  0.00     0.000 C 
BRANCH  16  17
ATOM     17  C   UNL     1      17.057  -0.134  16.796  1.00  0.00    -0.000 C 
BRANCH  17  18
ATOM     18  C   UNL     1      15.827   0.796  16.737  1.00  0.00    -0.000 C 
BRANCH  18  19
ATOM     19  C   UNL     1      14.688   0.431  17.706  1.00  0.00    -0.003 C 
ATOM     20  C   UNL     1      13.967  -0.860  17.320  1.00  0.00     0.004 C 
ENDBRANCH  18  19
ENDBRANCH  17  18
ENDBRANCH  16  17
ENDBRANCH  15  16
ENDBRANCH  14  15
ENDBRANCH  13  14
ENDBRANCH   2  13
TORSDOF 15
ENDMDL
MODEL 3
REMARK VINA RESULT:    -3.683     11.062     13.359
REMARK INTER + INTRA:          -8.419
REMARK INTER:                  -5.497
REMARK INTRA:                  -2.922
REMARK UNBOUND:                -1.505
REMARK SMILES CCCCCCCCC=CCCCCCCCC(=O)[O-]
REMARK SMILES IDX 10 1 9 2 11 3 12 4 13 5 14 6 15 7 16 8 17 9 18 10 19 11
REMARK SMILES IDX 20 12 8 13 7 14 6 15 5 16 4 17 3 18 2 19 1 20
REMARK H PARENT
REMARK Flexibility Score: inf
ROOT
ATOM      1  C   UNL     1      28.802   0.727  11.008  1.00  0.00    -0.031 C 
ATOM      2  C   UNL     1      28.710   1.926  10.417  1.00  0.00    -0.031 C 
ENDROOT
BRANCH   1   3
ATOM      3  C   UNL     1      27.669  -0.260  10.921  1.00  0.00     0.027 C 
BRANCH   3   4
ATOM      4  C   UNL     1      26.548   0.221   9.989  1.00  0.00     0.004 C 
BRANCH   4   5
ATOM      5  C   UNL     1      26.166  -0.840   8.946  1.00  0.00     0.000 C 
BRANCH   5   6
ATOM      6  C   UNL     1      25.804  -0.189   7.607  1.00  0.00     0.000 C 
BRANCH   6   7
ATOM      7  C   UNL     1      26.117   1.315   7.623  1.00  0.00     0.000 C 
BRANCH   7   8
ATOM      8  C   UNL     1      25.810   2.004   6.282  1.00  0.00     0.006 C 
BRANCH   8   9
ATOM      9  C   UNL     1      24.568   2.909   6.304  1.00  0.00     0.053 C 
BRANCH   9  10
ATOM     10  C   UNL     1      23.313   2.146   6.012  1.00  0.00     0.041 C 
ATOM     11  O   UNL     1      22.201   2.571   6.425  1.00  0.00    -0.550 OA
ATOM     12  O   UNL     1      23.375   0.949   5.310  1.00  0.00    -0.550 OA
ENDBRANCH   9  10
ENDBRANCH   8   9
ENDBRANCH   7   8
ENDBRANCH   6   7
ENDBRANCH   5   6
ENDBRANCH   4   5
ENDBRANCH   3   4
ENDBRANCH   1   3
BRANCH   2  13
ATOM     13  C   UNL     1      29.831   2.930  10.482  1.00  0.00     0.027 C 
BRANCH  13  14
ATOM     14  C   UNL     1      30.585   3.057   9.147  1.00  0.00     0.004 C 
BRANCH  14  15
ATOM     15  C   UNL     1      29.746   2.639   7.916  1.00  0.00     0.000 C 
BRANCH  15  16
ATOM     16  C   UNL     1      30.365   1.484   7.108  1.00  0.00     0.000 C 
BRANCH  16  17
ATOM     17  C   UNL     1      29.490   0.219   7.013  1.00  0.00    -0.000 C 
BRANCH  17  18
ATOM     18  C   UNL     1      29.887  -0.924   7.970  1.00  0.00    -0.000 C 
BRANCH  18  19
ATOM     19  C   UNL     1      29.287  -2.299   7.626  1.00  0.00    -0.003 C 
ATOM     20  C   UNL     1      29.126  -3.202   8.848  1.00  0.00     0.004 C 
ENDBRANCH  18  19
ENDBRANCH  17  18
ENDBRANCH  16  17
ENDBRANCH  15  16
ENDBRANCH  14  15
ENDBRANCH  13  14
ENDBRANCH   2  13
TORSDOF 15
ENDMDL
MODEL 4
REMARK VINA RESULT:    -3.617      3.440      8.046
REMARK INTER + INTRA:          -8.294
REMARK INTER:                  -6.703
REMARK INTRA:                  -1.592
REMARK UNBOUND:                -1.505
REMARK SMILES CCCCCCCCC=CCCCCCCCC(=O)[O-]
REMARK SMILES IDX 10 1 9 2 11 3 12 4 13 5 14 6 15 7 16 8 17 9 18 10 19 11
REMARK SMILES IDX 20 12 8 13 7 14 6 15 5 16 4 17 3 18 2 19 1 20
REMARK H PARENT
REMARK Flexibility Score: inf
ROOT
ATOM      1  C   UNL     1      15.861  -3.905  13.571  1.00  0.00    -0.031 C 
ATOM      2  C   UNL     1      15.798  -2.969  14.528  1.00  0.00    -0.031 C 
ENDROOT
BRANCH   1   3
ATOM      3  C   UNL     1      16.136  -5.343  13.922  1.00  0.00     0.027 C 
BRANCH   3   4
ATOM      4  C   UNL     1      15.865  -6.291  12.745  1.00  0.00     0.004 C 
BRANCH   4   5
ATOM      5  C   UNL     1      15.664  -5.533  11.424  1.00  0.00     0.000 C 
BRANCH   5   6
ATOM      6  C   UNL     1      14.937  -6.406  10.395  1.00  0.00     0.000 C 
BRANCH   6   7
ATOM      7  C   UNL     1      15.818  -6.654   9.162  1.00  0.00     0.000 C 
BRANCH   7   8
ATOM      8  C   UNL     1      17.120  -5.833   9.184  1.00  0.00     0.006 C 
BRANCH   8   9
ATOM      9  C   UNL     1      17.267  -4.847   8.014  1.00  0.00     0.053 C 
BRANCH   9  10
ATOM     10  C   UNL     1      18.684  -4.744   7.541  1.00  0.00     0.041 C 
ATOM     11  O   UNL     1      18.938  -4.661   6.310  1.00  0.00    -0.550 OA
ATOM     12  O   UNL     1      19.726  -4.772   8.459  1.00  0.00    -0.550 OA
ENDBRANCH   9  10
ENDBRANCH   8   9
ENDBRANCH   7   8
ENDBRANCH   6   7
ENDBRANCH   5   6
ENDBRANCH   4   5
ENDBRANCH   3   4
ENDBRANCH   1   3
BRANCH   2  13
ATOM     13  C   UNL     1      15.519  -1.525  14.206  1.00  0.00     0.027 C 
BRANCH  13  14
ATOM     14  C   UNL     1      16.240  -0.559  15.161  1.00  0.00     0.004 C 
BRANCH  14  15
ATOM     15  C   UNL     1      17.573  -1.112  15.717  1.00  0.00     0.000 C 
BRANCH  15  16
ATOM     16  C   UNL     1      17.948  -0.552  17.101  1.00  0.00     0.000 C 
BRANCH  16  17
ATOM     17  C   UNL     1      17.466  -1.400  18.294  1.00  0.00    -0.000 C 
BRANCH  17  18
ATOM     18  C   UNL     1      17.101  -2.860  17.954  1.00  0.00    -0.000 C 
BRANCH  18  19
ATOM     19  C   UNL     1      15.736  -3.331  18.486  1.00  0.00    -0.003 C 
ATOM     20  C   UNL     1      14.565  -2.536  17.912  1.00  0.00     0.004 C 
ENDBRANCH  18  19
ENDBRANCH  17  18
ENDBRANCH  16  17
ENDBRANCH  15  16
ENDBRANCH  14  15
ENDBRANCH  13  14
ENDBRANCH   2  13
TORSDOF 15
ENDMDL
MODEL 5
REMARK VINA RESULT:    -3.572     15.900     18.311
REMARK INTER + INTRA:          -8.210
REMARK INTER:                  -6.130
REMARK INTRA:                  -2.080
REMARK UNBOUND:                -1.505
REMARK SMILES CCCCCCCCC=CCCCCCCCC(=O)[O-]
REMARK SMILES IDX 10 1 9 2 11 3 12 4 13 5 14 6 15 7 16 8 17 9 18 10 19 11
REMARK SMILES IDX 20 12 8 13 7 14 6 15 5 16 4 17 3 18 2 19 1 20
REMARK H PARENT
REMARK Flexibility Score: inf
ROOT
ATOM      1  C   UNL     1      22.570  10.626   7.095  1.00  0.00    -0.031 C 
ATOM      2  C   UNL     1      22.076  11.819   7.455  1.00  0.00    -0.031 C 
ENDROOT
BRANCH   1   3
ATOM      3  C   UNL     1      23.758  10.534   6.175  1.00  0.00     0.027 C 
BRANCH   3   4
ATOM      4  C   UNL     1      23.559  11.342   4.884  1.00  0.00     0.004 C 
BRANCH   4   5
ATOM      5  C   UNL     1      24.765  12.241   4.572  1.00  0.00     0.000 C 
BRANCH   5   6
ATOM      6  C   UNL     1      25.369  12.817   5.857  1.00  0.00     0.000 C 
BRANCH   6   7
ATOM      7  C   UNL     1      26.902  12.721   5.837  1.00  0.00     0.000 C 
BRANCH   7   8
ATOM      8  C   UNL     1      27.417  11.310   6.172  1.00  0.00     0.006 C 
BRANCH   8   9
ATOM      9  C   UNL     1      27.966  10.532   4.965  1.00  0.00     0.053 C 
BRANCH   9  10
ATOM     10  C   UNL     1      27.467   9.121   4.933  1.00  0.00     0.041 C 
ATOM     11  O   UNL     1      26.625   8.726   5.783  1.00  0.00    -0.550 OA
ATOM     12  O   UNL     1      27.955   8.233   3.983  1.00  0.00    -0.550 OA
ENDBRANCH   9  10
ENDBRANCH   8   9
ENDBRANCH   7   8
ENDBRANCH   6   7
ENDBRANCH   5   6
ENDBRANCH   4   5
ENDBRANCH   3   4
ENDBRANCH   1   3
BRANCH   2  13
ATOM     13  C   UNL     1      20.893  11.940   8.378  1.00  0.00     0.027 C 
BRANCH  13  14
ATOM     14  C   UNL     1      20.522  10.601   9.039  1.00  0.00     0.004 C 
BRANCH  14  15
ATOM     15  C   UNL     1      19.014  10.268   8.965  1.00  0.00     0.000 C 
BRANCH  15  16
ATOM     16  C   UNL     1      18.717   8.857   8.424  1.00  0.00     0.000 C 
BRANCH  16  17
ATOM     17  C   UNL     1      18.251   8.812   6.956  1.00  0.00    -0.000 C 
BRANCH  17  18
ATOM     18  C   UNL     1      18.756   9.972   6.073  1.00  0.00    -0.000 C 
BRANCH  18  19
ATOM     19  C   UNL     1      19.881   9.600   5.091  1.00  0.00    -0.003 C 
ATOM     20  C   UNL     1      20.071  10.634   3.982  1.00  0.00     0.004 C 
ENDBRANCH  18  19
ENDBRANCH  17  18
ENDBRANCH  16  17
ENDBRANCH  15  16
ENDBRANCH  14  15
ENDBRANCH  13  14
ENDBRANCH   2  13
TORSDOF 15
ENDMDL
MODEL 6
REMARK VINA RESULT:    -3.534     11.108     13.268
REMARK INTER + INTRA:          -8.139
REMARK INTER:                  -6.101
REMARK INTRA:                  -2.038
REMARK UNBOUND:                -1.505
REMARK SMILES CCCCCCCCC=CCCCCCCCC(=O)[O-]
REMARK SMILES IDX 10 1 9 2 11 3 12 4 13 5 14 6 15 7 16 8 17 9 18 10 19 11
REMARK SMILES IDX 20 12 8 13 7 14 6 15 5 16 4 17 3 18 2 19 1 20
REMARK H PARENT
REMARK Flexibility Score: inf
ROOT
ATOM      1  C   UNL     1      23.412   2.605   6.181  1.00  0.00    -0.031 C 
ATOM      2  C   UNL     1      24.715   2.641   5.868  1.00  0.00    -0.031 C 
ENDROOT
BRANCH   1   3
ATOM      3  C   UNL     1      22.414   3.420   5.404  1.00  0.00     0.027 C 
BRANCH   3   4
ATOM      4  C   UNL     1      21.111   2.651   5.143  1.00  0.00     0.004 C 
BRANCH   4   5
ATOM      5  C   UNL     1      21.233   1.164   5.508  1.00  0.00     0.000 C 
BRANCH   5   6
ATOM      6  C   UNL     1      21.688   0.337   4.301  1.00  0.00     0.000 C 
BRANCH   6   7
ATOM      7  C   UNL     1      21.096   0.895   2.997  1.00  0.00     0.000 C 
BRANCH   7   8
ATOM      8  C   UNL     1      22.171   1.234   1.950  1.00  0.00     0.006 C 
BRANCH   8   9
ATOM      9  C   UNL     1      23.594   1.357   2.520  1.00  0.00     0.053 C 
BRANCH   9  10
ATOM     10  C   UNL     1      24.214   2.681   2.200  1.00  0.00     0.041 C 
ATOM     11  O   UNL     1      23.504   3.721   2.158  1.00  0.00    -0.550 OA
ATOM     12  O   UNL     1      25.571   2.762   1.917  1.00  0.00    -0.550 OA
ENDBRANCH   9  10
ENDBRANCH   8   9
ENDBRANCH   7   8
ENDBRANCH   6   7
ENDBRANCH   5   6
ENDBRANCH   4   5
ENDBRANCH   3   4
ENDBRANCH   1   3
BRANCH   2  13
ATOM     13  C   UNL     1      25.734   1.830   6.624  1.00  0.00     0.027 C 
BRANCH  13  14
ATOM     14  C   UNL     1      25.201   0.446   7.030  1.00  0.00     0.004 C 
BRANCH  14  15
ATOM     15  C   UNL     1      26.185  -0.369   7.903  1.00  0.00     0.000 C 
BRANCH  15  16
ATOM     16  C   UNL     1      26.184   0.045   9.386  1.00  0.00     0.000 C 
BRANCH  16  17
ATOM     17  C   UNL     1      27.561   0.454   9.945  1.00  0.00    -0.000 C 
BRANCH  17  18
ATOM     18  C   UNL     1      27.922   1.943   9.766  1.00  0.00    -0.000 C 
BRANCH  18  19
ATOM     19  C   UNL     1      29.268   2.208   9.068  1.00  0.00    -0.003 C 
ATOM     20  C   UNL     1      29.242   1.874   7.577  1.00  0.00     0.004 C 
ENDBRANCH  18  19
ENDBRANCH  17  18
ENDBRANCH  16  17
ENDBRANCH  15  16
ENDBRANCH  14  15
ENDBRANCH  13  14
ENDBRANCH   2  13
TORSDOF 15
ENDMDL
MODEL 7
REMARK VINA RESULT:    -3.522     10.622     12.836
REMARK INTER + INTRA:          -8.116
REMARK INTER:                  -5.275
REMARK INTRA:                  -2.841
REMARK UNBOUND:                -1.505
REMARK SMILES CCCCCCCCC=CCCCCCCCC(=O)[O-]
REMARK SMILES IDX 10 1 9 2 11 3 12 4 13 5 14 6 15 7 16 8 17 9 18 10 19 11
REMARK SMILES IDX 20 12 8 13 7 14 6 15 5 16 4 17 3 18 2 19 1 20
REMARK H PARENT
REMARK Flexibility Score: inf
ROOT
ATOM      1  C   UNL     1      26.945   1.897   6.598  1.00  0.00    -0.031 C 
ATOM      2  C   UNL     1      28.239   1.554   6.656  1.00  0.00    -0.031 C 
ENDROOT
BRANCH   1   3
ATOM      3  C   UNL     1      26.199   1.858   5.291  1.00  0.00     0.027 C 
BRANCH   3   4
ATOM      4  C   UNL     1      26.369   0.517   4.564  1.00  0.00     0.004 C 
BRANCH   4   5
ATOM      5  C   UNL     1      25.033  -0.034   4.044  1.00  0.00     0.000 C 
BRANCH   5   6
ATOM      6  C   UNL     1      24.423  -1.027   5.040  1.00  0.00     0.000 C 
BRANCH   6   7
ATOM      7  C   UNL     1      23.432  -0.324   5.981  1.00  0.00     0.000 C 
BRANCH   7   8
ATOM      8  C   UNL     1      22.569   0.728   5.261  1.00  0.00     0.006 C 
BRANCH   8   9
ATOM      9  C   UNL     1      22.117   1.894   6.154  1.00  0.00     0.053 C 
BRANCH   9  10
ATOM     10  C   UNL     1      22.116   3.197   5.417  1.00  0.00     0.041 C 
ATOM     11  O   UNL     1      23.204   3.741   5.087  1.00  0.00    -0.550 OA
ATOM     12  O   UNL     1      20.914   3.828   5.123  1.00  0.00    -0.550 OA
ENDBRANCH   9  10
ENDBRANCH   8   9
ENDBRANCH   7   8
ENDBRANCH   6   7
ENDBRANCH   5   6
ENDBRANCH   4   5
ENDBRANCH   3   4
ENDBRANCH   1   3
BRANCH   2  13
ATOM     13  C   UNL     1      29.008   1.578   7.950  1.00  0.00     0.027 C 
BRANCH  13  14
ATOM     14  C   UNL     1      28.124   1.952   9.152  1.00  0.00     0.004 C 
BRANCH  14  15
ATOM     15  C   UNL     1      28.363   1.068  10.399  1.00  0.00     0.000 C 
BRANCH  15  16
ATOM     16  C   UNL     1      27.413  -0.140  10.494  1.00  0.00     0.000 C 
BRANCH  16  17
ATOM     17  C   UNL     1      26.092   0.013   9.718  1.00  0.00    -0.000 C 
BRANCH  17  18
ATOM     18  C   UNL     1      25.889  -0.995   8.567  1.00  0.00    -0.000 C 
BRANCH  18  19
ATOM     19  C   UNL     1      27.031  -2.009   8.382  1.00  0.00    -0.003 C 
ATOM     20  C   UNL     1      27.559  -2.060   6.949  1.00  0.00     0.004 C 
ENDBRANCH  18  19
ENDBRANCH  17  18
ENDBRANCH  16  17
ENDBRANCH  15  16
ENDBRANCH  14  15
ENDBRANCH  13  14
ENDBRANCH   2  13
TORSDOF 15
ENDMDL
MODEL 8
REMARK VINA RESULT:    -3.513      1.860      2.309
REMARK INTER + INTRA:          -8.098
REMARK INTER:                  -7.180
REMARK INTRA:                  -0.918
REMARK UNBOUND:                -1.505
REMARK SMILES CCCCCCCCC=CCCCCCCCC(=O)[O-]
REMARK SMILES IDX 10 1 9 2 11 3 12 4 13 5 14 6 15 7 16 8 17 9 18 10 19 11
REMARK SMILES IDX 20 12 8 13 7 14 6 15 5 16 4 17 3 18 2 19 1 20
REMARK H PARENT
REMARK Flexibility Score: inf
ROOT
ATOM      1  C   UNL     1      16.048  -6.220  11.426  1.00  0.00    -0.031 C 
ATOM      2  C   UNL     1      15.311  -5.961  10.337  1.00  0.00    -0.031 C 
ENDROOT
BRANCH   1   3
ATOM      3  C   UNL     1      15.959  -5.335  12.640  1.00  0.00     0.027 C 
BRANCH   3   4
ATOM      4  C   UNL     1      15.642  -6.127  13.916  1.00  0.00     0.004 C 
BRANCH   4   5
ATOM      5  C   UNL     1      15.650  -5.237  15.168  1.00  0.00     0.000 C 
BRANCH   5   6
ATOM      6  C   UNL     1      16.364  -3.908  14.893  1.00  0.00     0.000 C 
BRANCH   6   7
ATOM      7  C   UNL     1      15.523  -2.720  15.384  1.00  0.00     0.000 C 
BRANCH   7   8
ATOM      8  C   UNL     1      15.592  -1.508  14.438  1.00  0.00     0.006 C 
BRANCH   8   9
ATOM      9  C   UNL     1      16.630  -0.449  14.841  1.00  0.00     0.053 C 
BRANCH   9  10
ATOM     10  C   UNL     1      15.991   0.759  15.452  1.00  0.00     0.041 C 
ATOM     11  O   UNL     1      15.976   1.854  14.828  1.00  0.00    -0.550 OA
ATOM     12  O   UNL     1      15.439   0.684  16.725  1.00  0.00    -0.550 OA
ENDBRANCH   9  10
ENDBRANCH   8   9
ENDBRANCH   7   8
ENDBRANCH   6   7
ENDBRANCH   5   6
ENDBRANCH   4   5
ENDBRANCH   3   4
ENDBRANCH   1   3
BRANCH   2  13
ATOM     13  C   UNL     1      15.375  -6.834   9.111  1.00  0.00     0.027 C 
BRANCH  13  14
ATOM     14  C   UNL     1      16.814  -7.032   8.605  1.00  0.00     0.004 C 
BRANCH  14  15
ATOM     15  C   UNL     1      17.538  -5.711   8.255  1.00  0.00     0.000 C 
BRANCH  15  16
ATOM     16  C   UNL     1      18.933  -5.581   8.894  1.00  0.00     0.000 C 
BRANCH  16  17
ATOM     17  C   UNL     1      20.052  -5.157   7.924  1.00  0.00    -0.000 C 
BRANCH  17  18
ATOM     18  C   UNL     1      21.290  -4.523   8.591  1.00  0.00    -0.000 C 
BRANCH  18  19
ATOM     19  C   UNL     1      21.519  -3.038   8.260  1.00  0.00    -0.003 C 
ATOM     20  C   UNL     1      20.226  -2.292   7.936  1.00  0.00     0.004 C 
ENDBRANCH  18  19
ENDBRANCH  17  18
ENDBRANCH  16  17
ENDBRANCH  15  16
ENDBRANCH  14  15
ENDBRANCH  13  14
ENDBRANCH   2  13
TORSDOF 15
ENDMDL
MODEL 9
REMARK VINA RESULT:    -3.469     12.899     15.704
REMARK INTER + INTRA:          -8.016
REMARK INTER:                  -6.370
REMARK INTRA:                  -1.646
REMARK UNBOUND:                -1.505
REMARK SMILES CCCCCCCCC=CCCCCCCCC(=O)[O-]
REMARK SMILES IDX 10 1 9 2 11 3 12 4 13 5 14 6 15 7 16 8 17 9 18 10 19 11
REMARK SMILES IDX 20 12 8 13 7 14 6 15 5 16 4 17 3 18 2 19 1 20
REMARK H PARENT
REMARK Flexibility Score: inf
ROOT
ATOM      1  C   UNL     1      19.606   9.170   5.649  1.00  0.00    -0.031 C 
ATOM      2  C   UNL     1      19.951  10.163   4.818  1.00  0.00    -0.031 C 
ENDROOT
BRANCH   1   3
ATOM      3  C   UNL     1      18.548   8.174   5.256  1.00  0.00     0.027 C 
BRANCH   3   4
ATOM      4  C   UNL     1      19.002   7.267   4.103  1.00  0.00     0.004 C 
BRANCH   4   5
ATOM      5  C   UNL     1      18.395   5.860   4.200  1.00  0.00     0.000 C 
BRANCH   5   6
ATOM      6  C   UNL     1      19.253   4.951   5.086  1.00  0.00     0.000 C 
BRANCH   6   7
ATOM      7  C   UNL     1      19.027   3.471   4.740  1.00  0.00     0.000 C 
BRANCH   7   8
ATOM      8  C   UNL     1      20.341   2.707   4.497  1.00  0.00     0.006 C 
BRANCH   8   9
ATOM      9  C   UNL     1      21.447   3.009   5.520  1.00  0.00     0.053 C 
BRANCH   9  10
ATOM     10  C   UNL     1      22.739   3.377   4.858  1.00  0.00     0.041 C 
ATOM     11  O   UNL     1      23.812   3.379   5.517  1.00  0.00    -0.550 OA
ATOM     12  O   UNL     1      22.752   3.748   3.520  1.00  0.00    -0.550 OA
ENDBRANCH   9  10
ENDBRANCH   8   9
ENDBRANCH   7   8
ENDBRANCH   6   7
ENDBRANCH   5   6
ENDBRANCH   4   5
ENDBRANCH   3   4
ENDBRANCH   1   3
BRANCH   2  13
ATOM     13  C   UNL     1      21.011  11.169   5.183  1.00  0.00     0.027 C 
BRANCH  13  14
ATOM     14  C   UNL     1      22.207  10.528   5.906  1.00  0.00     0.004 C 
BRANCH  14  15
ATOM     15  C   UNL     1      22.365  10.987   7.375  1.00  0.00     0.000 C 
BRANCH  15  16
ATOM     16  C   UNL     1      21.414  12.130   7.773  1.00  0.00     0.000 C 
BRANCH  16  17
ATOM     17  C   UNL     1      20.374  11.761   8.848  1.00  0.00    -0.000 C 
BRANCH  17  18
ATOM     18  C   UNL     1      20.218  10.250   9.117  1.00  0.00    -0.000 C 
BRANCH  18  19
ATOM     19  C   UNL     1      18.767   9.765   9.286  1.00  0.00    -0.003 C 
ATOM     20  C   UNL     1      18.656   8.247   9.421  1.00  0.00     0.004 C 
ENDBRANCH  18  19
ENDBRANCH  17  18
ENDBRANCH  16  17
ENDBRANCH  15  16
ENDBRANCH  14  15
ENDBRANCH  13  14
ENDBRANCH   2  13
TORSDOF 15
ENDMDL
