MODEL 1
REMARK VINA RESULT:    -7.694      0.000      0.000
REMARK INTER + INTRA:         -14.984
REMARK INTER:                 -13.991
REMARK INTRA:                  -0.994
REMARK UNBOUND:                -0.994
REMARK SMILES CCCCCC=CCC=CCCCCCCCC(=O)[O-]
REMARK SMILES IDX 11 1 12 2 13 3 14 4 15 5 16 6 17 7 18 8 19 9 20 10 10 11
REMARK SMILES IDX 9 12 8 13 7 14 6 15 5 16 4 17 3 18 2 19 1 20
REMARK H PARENT
REMARK Flexibility Score: inf
ROOT
ATOM      1  C   UNL     1      -6.626 -12.121 -36.503  1.00  0.00     0.027 C 
ENDROOT
BRANCH   1   2
ATOM      2  C   UNL     1      -6.183 -11.144 -37.603  1.00  0.00     0.004 C 
BRANCH   2   3
ATOM      3  C   UNL     1      -4.705 -10.746 -37.479  1.00  0.00     0.000 C 
BRANCH   3   4
ATOM      4  C   UNL     1      -4.250  -9.809 -38.608  1.00  0.00     0.000 C 
BRANCH   4   5
ATOM      5  C   UNL     1      -3.609  -8.536 -38.041  1.00  0.00     0.000 C 
BRANCH   5   6
ATOM      6  C   UNL     1      -2.428  -8.874 -37.122  1.00  0.00     0.006 C 
BRANCH   6   7
ATOM      7  C   UNL     1      -2.190  -7.795 -36.058  1.00  0.00     0.053 C 
BRANCH   7   8
ATOM      8  C   UNL     1      -2.899  -8.111 -34.776  1.00  0.00     0.041 C 
ATOM      9  O   UNL     1      -3.520  -9.199 -34.648  1.00  0.00    -0.550 OA
ATOM     10  O   UNL     1      -2.900  -7.190 -33.736  1.00  0.00    -0.550 OA
ENDBRANCH   7   8
ENDBRANCH   6   7
ENDBRANCH   5   6
ENDBRANCH   4   5
ENDBRANCH   3   4
ENDBRANCH   2   3
ENDBRANCH   1   2
BRANCH   1  11
ATOM     11  C   UNL     1      -5.922 -11.830 -35.207  1.00  0.00    -0.031 C 
ATOM     12  C   UNL     1      -5.782 -12.768 -34.257  1.00  0.00    -0.027 C 
BRANCH  12  13
ATOM     13  C   UNL     1      -5.085 -12.472 -32.960  1.00  0.00     0.054 C 
BRANCH  13  14
ATOM     14  C   UNL     1      -5.515 -13.458 -31.903  1.00  0.00    -0.027 C 
ATOM     15  C   UNL     1      -5.528 -13.218 -30.579  1.00  0.00    -0.031 C 
BRANCH  15  16
ATOM     16  C   UNL     1      -5.162 -11.904 -29.936  1.00  0.00     0.027 C 
BRANCH  16  17
ATOM     17  C   UNL     1      -5.296 -11.979 -28.411  1.00  0.00     0.004 C 
BRANCH  17  18
ATOM     18  C   UNL     1      -4.833 -10.669 -27.755  1.00  0.00     0.000 C 
BRANCH  18  19
ATOM     19  C   UNL     1      -4.212  -9.691 -28.764  1.00  0.00    -0.003 C 
ATOM     20  C   UNL     1      -3.189  -8.752 -28.124  1.00  0.00     0.004 C 
ENDBRANCH  18  19
ENDBRANCH  17  18
ENDBRANCH  16  17
ENDBRANCH  15  16
ENDBRANCH  13  14
ENDBRANCH  12  13
ENDBRANCH   1  11
TORSDOF 14
ENDMDL
MODEL 2
REMARK VINA RESULT:    -7.622      2.097      4.682
REMARK INTER + INTRA:         -14.855
REMARK INTER:                 -13.951
REMARK INTRA:                  -0.903
REMARK UNBOUND:                -0.994
REMARK SMILES CCCCCC=CCC=CCCCCCCCC(=O)[O-]
REMARK SMILES IDX 11 1 12 2 13 3 14 4 15 5 16 6 17 7 18 8 19 9 20 10 10 11
REMARK SMILES IDX 9 12 8 13 7 14 6 15 5 16 4 17 3 18 2 19 1 20
REMARK H PARENT
REMARK Flexibility Score: inf
ROOT
ATOM      1  C   UNL     1      -2.400  -7.449 -35.402  1.00  0.00     0.027 C 
ENDROOT
BRANCH   1   2
ATOM      2  C   UNL     1      -2.446  -8.682 -36.317  1.00  0.00     0.004 C 
BRANCH   2   3
ATOM      3  C   UNL     1      -3.210  -8.422 -37.624  1.00  0.00     0.000 C 
BRANCH   3   4
ATOM      4  C   UNL     1      -3.426  -9.700 -38.446  1.00  0.00     0.000 C 
BRANCH   4   5
ATOM      5  C   UNL     1      -4.904 -10.113 -38.441  1.00  0.00     0.000 C 
BRANCH   5   6
ATOM      6  C   UNL     1      -5.114 -11.400 -37.632  1.00  0.00     0.006 C 
BRANCH   6   7
ATOM      7  C   UNL     1      -5.509 -11.114 -36.177  1.00  0.00     0.053 C 
BRANCH   7   8
ATOM      8  C   UNL     1      -6.118 -12.314 -35.519  1.00  0.00     0.041 C 
ATOM      9  O   UNL     1      -6.964 -13.014 -36.137  1.00  0.00    -0.550 OA
ATOM     10  O   UNL     1      -5.776 -12.641 -34.213  1.00  0.00    -0.550 OA
ENDBRANCH   7   8
ENDBRANCH   6   7
ENDBRANCH   5   6
ENDBRANCH   4   5
ENDBRANCH   3   4
ENDBRANCH   2   3
ENDBRANCH   1   2
BRANCH   1  11
ATOM     11  C   UNL     1      -3.083  -7.723 -34.091  1.00  0.00    -0.031 C 
ATOM     12  C   UNL     1      -2.834  -6.981 -33.001  1.00  0.00    -0.027 C 
BRANCH  12  13
ATOM     13  C   UNL     1      -3.511  -7.263 -31.690  1.00  0.00     0.054 C 
BRANCH  13  14
ATOM     14  C   UNL     1      -2.510  -7.195 -30.564  1.00  0.00    -0.027 C 
ATOM     15  C   UNL     1      -2.560  -7.929 -29.436  1.00  0.00    -0.031 C 
BRANCH  15  16
ATOM     16  C   UNL     1      -3.600  -8.978 -29.136  1.00  0.00     0.027 C 
BRANCH  16  17
ATOM     17  C   UNL     1      -3.638  -9.305 -27.639  1.00  0.00     0.004 C 
BRANCH  17  18
ATOM     18  C   UNL     1      -4.632 -10.441 -27.351  1.00  0.00     0.000 C 
BRANCH  18  19
ATOM     19  C   UNL     1      -5.421 -10.865 -28.599  1.00  0.00    -0.003 C 
ATOM     20  C   UNL     1      -5.149 -12.313 -29.007  1.00  0.00     0.004 C 
ENDBRANCH  18  19
ENDBRANCH  17  18
ENDBRANCH  16  17
ENDBRANCH  15  16
ENDBRANCH  13  14
ENDBRANCH  12  13
ENDBRANCH   1  11
TORSDOF 14
ENDMDL
MODEL 3
REMARK VINA RESULT:    -7.462      1.905      7.068
REMARK INTER + INTRA:         -14.563
REMARK INTER:                 -13.245
REMARK INTRA:                  -1.318
REMARK UNBOUND:                -0.994
REMARK SMILES CCCCCC=CCC=CCCCCCCCC(=O)[O-]
REMARK SMILES IDX 11 1 12 2 13 3 14 4 15 5 16 6 17 7 18 8 19 9 20 10 10 11
REMARK SMILES IDX 9 12 8 13 7 14 6 15 5 16 4 17 3 18 2 19 1 20
REMARK H PARENT
REMARK Flexibility Score: inf
ROOT
ATOM      1  C   UNL     1      -5.113 -12.404 -33.331  1.00  0.00     0.027 C 
ENDROOT
BRANCH   1   2
ATOM      2  C   UNL     1      -5.888 -13.535 -32.639  1.00  0.00     0.004 C 
BRANCH   2   3
ATOM      3  C   UNL     1      -5.528 -13.676 -31.153  1.00  0.00     0.000 C 
BRANCH   3   4
ATOM      4  C   UNL     1      -5.115 -12.341 -30.516  1.00  0.00     0.000 C 
BRANCH   4   5
ATOM      5  C   UNL     1      -5.510 -12.292 -29.035  1.00  0.00     0.000 C 
BRANCH   5   6
ATOM      6  C   UNL     1      -4.888 -11.074 -28.338  1.00  0.00     0.006 C 
BRANCH   6   7
ATOM      7  C   UNL     1      -4.379 -10.028 -29.340  1.00  0.00     0.053 C 
BRANCH   7   8
ATOM      8  C   UNL     1      -3.439  -9.055 -28.697  1.00  0.00     0.041 C 
ATOM      9  O   UNL     1      -3.297  -9.042 -27.446  1.00  0.00    -0.550 OA
ATOM     10  O   UNL     1      -2.743  -8.140 -29.479  1.00  0.00    -0.550 OA
ENDBRANCH   7   8
ENDBRANCH   6   7
ENDBRANCH   5   6
ENDBRANCH   4   5
ENDBRANCH   3   4
ENDBRANCH   2   3
ENDBRANCH   1   2
BRANCH   1  11
ATOM     11  C   UNL     1      -5.525 -12.270 -34.771  1.00  0.00    -0.031 C 
ATOM     12  C   UNL     1      -5.841 -11.079 -35.304  1.00  0.00    -0.027 C 
BRANCH  12  13
ATOM     13  C   UNL     1      -6.260 -10.949 -36.740  1.00  0.00     0.054 C 
BRANCH  13  14
ATOM     14  C   UNL     1      -5.189 -11.501 -37.646  1.00  0.00    -0.027 C 
ATOM     15  C   UNL     1      -4.223 -10.774 -38.238  1.00  0.00    -0.031 C 
BRANCH  15  16
ATOM     16  C   UNL     1      -4.023  -9.291 -38.052  1.00  0.00     0.027 C 
BRANCH  16  17
ATOM     17  C   UNL     1      -2.536  -8.949 -37.907  1.00  0.00     0.004 C 
BRANCH  17  18
ATOM     18  C   UNL     1      -2.289  -8.103 -36.648  1.00  0.00     0.000 C 
BRANCH  18  19
ATOM     19  C   UNL     1      -2.757  -8.804 -35.364  1.00  0.00    -0.003 C 
ATOM     20  C   UNL     1      -3.037  -7.824 -34.224  1.00  0.00     0.004 C 
ENDBRANCH  18  19
ENDBRANCH  17  18
ENDBRANCH  16  17
ENDBRANCH  15  16
ENDBRANCH  13  14
ENDBRANCH  12  13
ENDBRANCH   1  11
TORSDOF 14
ENDMDL
MODEL 4
REMARK VINA RESULT:    -7.416      2.613      7.497
REMARK INTER + INTRA:         -14.480
REMARK INTER:                 -13.127
REMARK INTRA:                  -1.353
REMARK UNBOUND:                -0.994
REMARK SMILES CCCCCC=CCC=CCCCCCCCC(=O)[O-]
REMARK SMILES IDX 11 1 12 2 13 3 14 4 15 5 16 6 17 7 18 8 19 9 20 10 10 11
REMARK SMILES IDX 9 12 8 13 7 14 6 15 5 16 4 17 3 18 2 19 1 20
REMARK H PARENT
REMARK Flexibility Score: inf
ROOT
ATOM      1  C   UNL     1      -3.622  -8.174 -33.529  1.00  0.00     0.027 C 
ENDROOT
BRANCH   1   2
ATOM      2  C   UNL     1      -2.789  -6.908 -33.271  1.00  0.00     0.004 C 
BRANCH   2   3
ATOM      3  C   UNL     1      -2.704  -6.550 -31.780  1.00  0.00     0.000 C 
BRANCH   3   4
ATOM      4  C   UNL     1      -3.350  -7.613 -30.880  1.00  0.00     0.000 C 
BRANCH   4   5
ATOM      5  C   UNL     1      -2.536  -7.813 -29.595  1.00  0.00     0.000 C 
BRANCH   5   6
ATOM      6  C   UNL     1      -3.298  -8.689 -28.591  1.00  0.00     0.006 C 
BRANCH   6   7
ATOM      7  C   UNL     1      -4.229  -9.694 -29.284  1.00  0.00     0.053 C 
BRANCH   7   8
ATOM      8  C   UNL     1      -4.777 -10.701 -28.320  1.00  0.00     0.041 C 
ATOM      9  O   UNL     1      -4.897 -10.410 -27.100  1.00  0.00    -0.550 OA
ATOM     10  O   UNL     1      -5.123 -11.972 -28.763  1.00  0.00    -0.550 OA
ENDBRANCH   7   8
ENDBRANCH   6   7
ENDBRANCH   5   6
ENDBRANCH   4   5
ENDBRANCH   3   4
ENDBRANCH   2   3
ENDBRANCH   1   2
BRANCH   1  11
ATOM     11  C   UNL     1      -3.170  -8.871 -34.783  1.00  0.00    -0.031 C 
ATOM     12  C   UNL     1      -2.755  -8.183 -35.858  1.00  0.00    -0.027 C 
BRANCH  12  13
ATOM     13  C   UNL     1      -2.312  -8.881 -37.112  1.00  0.00     0.054 C 
BRANCH  13  14
ATOM     14  C   UNL     1      -3.347  -8.708 -38.195  1.00  0.00    -0.027 C 
ATOM     15  C   UNL     1      -4.341  -9.575 -38.464  1.00  0.00    -0.031 C 
BRANCH  15  16
ATOM     16  C   UNL     1      -4.616 -10.839 -37.689  1.00  0.00     0.027 C 
BRANCH  16  17
ATOM     17  C   UNL     1      -6.112 -11.176 -37.695  1.00  0.00     0.004 C 
BRANCH  17  18
ATOM     18  C   UNL     1      -6.651 -11.302 -36.262  1.00  0.00     0.000 C 
BRANCH  18  19
ATOM     19  C   UNL     1      -5.537 -11.241 -35.204  1.00  0.00    -0.003 C 
ATOM     20  C   UNL     1      -5.570 -12.429 -34.242  1.00  0.00     0.004 C 
ENDBRANCH  18  19
ENDBRANCH  17  18
ENDBRANCH  16  17
ENDBRANCH  15  16
ENDBRANCH  13  14
ENDBRANCH  12  13
ENDBRANCH   1  11
TORSDOF 14
ENDMDL
MODEL 5
REMARK VINA RESULT:    -7.207      2.340      8.140
REMARK INTER + INTRA:         -14.099
REMARK INTER:                 -12.932
REMARK INTRA:                  -1.167
REMARK UNBOUND:                -0.994
REMARK SMILES CCCCCC=CCC=CCCCCCCCC(=O)[O-]
REMARK SMILES IDX 11 1 12 2 13 3 14 4 15 5 16 6 17 7 18 8 19 9 20 10 10 11
REMARK SMILES IDX 9 12 8 13 7 14 6 15 5 16 4 17 3 18 2 19 1 20
REMARK H PARENT
REMARK Flexibility Score: inf
ROOT
ATOM      1  C   UNL     1      -3.100  -6.506 -32.035  1.00  0.00     0.027 C 
ENDROOT
BRANCH   1   2
ATOM      2  C   UNL     1      -2.561  -7.082 -30.717  1.00  0.00     0.004 C 
BRANCH   2   3
ATOM      3  C   UNL     1      -3.522  -8.096 -30.079  1.00  0.00     0.000 C 
BRANCH   3   4
ATOM      4  C   UNL     1      -3.126  -8.462 -28.641  1.00  0.00     0.000 C 
BRANCH   4   5
ATOM      5  C   UNL     1      -3.941  -9.658 -28.133  1.00  0.00     0.000 C 
BRANCH   5   6
ATOM      6  C   UNL     1      -4.632 -10.387 -29.293  1.00  0.00     0.006 C 
BRANCH   6   7
ATOM      7  C   UNL     1      -5.126 -11.783 -28.890  1.00  0.00     0.053 C 
BRANCH   7   8
ATOM      8  C   UNL     1      -5.505 -12.605 -30.084  1.00  0.00     0.041 C 
ATOM      9  O   UNL     1      -4.827 -12.533 -31.143  1.00  0.00    -0.550 OA
ATOM     10  O   UNL     1      -6.626 -13.425 -30.038  1.00  0.00    -0.550 OA
ENDBRANCH   7   8
ENDBRANCH   6   7
ENDBRANCH   5   6
ENDBRANCH   4   5
ENDBRANCH   3   4
ENDBRANCH   2   3
ENDBRANCH   1   2
BRANCH   1  11
ATOM     11  C   UNL     1      -3.408  -7.602 -33.017  1.00  0.00    -0.031 C 
ATOM     12  C   UNL     1      -2.838  -7.639 -34.231  1.00  0.00    -0.027 C 
BRANCH  12  13
ATOM     13  C   UNL     1      -3.154  -8.731 -35.213  1.00  0.00     0.054 C 
BRANCH  13  14
ATOM     14  C   UNL     1      -2.162  -8.711 -36.348  1.00  0.00    -0.027 C 
ATOM     15  C   UNL     1      -2.474  -8.833 -37.652  1.00  0.00    -0.031 C 
BRANCH  15  16
ATOM     16  C   UNL     1      -3.874  -8.957 -38.196  1.00  0.00     0.027 C 
BRANCH  16  17
ATOM     17  C   UNL     1      -4.264 -10.427 -38.390  1.00  0.00     0.004 C 
BRANCH  17  18
ATOM     18  C   UNL     1      -5.603 -10.734 -37.703  1.00  0.00     0.000 C 
BRANCH  18  19
ATOM     19  C   UNL     1      -5.484 -11.843 -36.645  1.00  0.00    -0.003 C 
ATOM     20  C   UNL     1      -5.980 -11.401 -35.268  1.00  0.00     0.004 C 
ENDBRANCH  18  19
ENDBRANCH  17  18
ENDBRANCH  16  17
ENDBRANCH  15  16
ENDBRANCH  13  14
ENDBRANCH  12  13
ENDBRANCH   1  11
TORSDOF 14
ENDMDL
MODEL 6
REMARK VINA RESULT:    -7.202      1.460      7.111
REMARK INTER + INTRA:         -14.091
REMARK INTER:                 -13.009
REMARK INTRA:                  -1.082
REMARK UNBOUND:                -0.994
REMARK SMILES CCCCCC=CCC=CCCCCCCCC(=O)[O-]
REMARK SMILES IDX 11 1 12 2 13 3 14 4 15 5 16 6 17 7 18 8 19 9 20 10 10 11
REMARK SMILES IDX 9 12 8 13 7 14 6 15 5 16 4 17 3 18 2 19 1 20
REMARK H PARENT
REMARK Flexibility Score: inf
ROOT
ATOM      1  C   UNL     1      -5.859 -13.829 -32.433  1.00  0.00     0.027 C 
ENDROOT
BRANCH   1   2
ATOM      2  C   UNL     1      -5.174 -13.799 -31.057  1.00  0.00     0.004 C 
BRANCH   2   3
ATOM      3  C   UNL     1      -5.134 -12.391 -30.447  1.00  0.00     0.000 C 
BRANCH   3   4
ATOM      4  C   UNL     1      -5.554 -12.374 -28.971  1.00  0.00     0.000 C 
BRANCH   4   5
ATOM      5  C   UNL     1      -4.998 -11.137 -28.254  1.00  0.00     0.000 C 
BRANCH   5   6
ATOM      6  C   UNL     1      -4.379 -10.151 -29.255  1.00  0.00     0.006 C 
BRANCH   6   7
ATOM      7  C   UNL     1      -3.656  -8.991 -28.558  1.00  0.00     0.053 C 
BRANCH   7   8
ATOM      8  C   UNL     1      -2.979  -8.086 -29.542  1.00  0.00     0.041 C 
ATOM      9  O   UNL     1      -1.802  -7.690 -29.333  1.00  0.00    -0.550 OA
ATOM     10  O   UNL     1      -3.661  -7.654 -30.673  1.00  0.00    -0.550 OA
ENDBRANCH   7   8
ENDBRANCH   6   7
ENDBRANCH   5   6
ENDBRANCH   4   5
ENDBRANCH   3   4
ENDBRANCH   2   3
ENDBRANCH   1   2
BRANCH   1  11
ATOM     11  C   UNL     1      -5.469 -12.632 -33.255  1.00  0.00    -0.031 C 
ATOM     12  C   UNL     1      -5.855 -12.503 -34.533  1.00  0.00    -0.027 C 
BRANCH  12  13
ATOM     13  C   UNL     1      -5.458 -11.310 -35.355  1.00  0.00     0.054 C 
BRANCH  13  14
ATOM     14  C   UNL     1      -6.262 -11.268 -36.631  1.00  0.00    -0.027 C 
ATOM     15  C   UNL     1      -5.766 -10.991 -37.851  1.00  0.00    -0.031 C 
BRANCH  15  16
ATOM     16  C   UNL     1      -4.312 -10.728 -38.152  1.00  0.00     0.027 C 
BRANCH  16  17
ATOM     17  C   UNL     1      -4.014  -9.223 -38.161  1.00  0.00     0.004 C 
BRANCH  17  18
ATOM     18  C   UNL     1      -2.664  -8.928 -37.489  1.00  0.00     0.000 C 
BRANCH  18  19
ATOM     19  C   UNL     1      -2.776  -8.828 -35.960  1.00  0.00    -0.003 C 
ATOM     20  C   UNL     1      -2.347  -7.462 -35.424  1.00  0.00     0.004 C 
ENDBRANCH  18  19
ENDBRANCH  17  18
ENDBRANCH  16  17
ENDBRANCH  15  16
ENDBRANCH  13  14
ENDBRANCH  12  13
ENDBRANCH   1  11
TORSDOF 14
ENDMDL
MODEL 7
REMARK VINA RESULT:    -7.102      2.385      5.276
REMARK INTER + INTRA:         -13.908
REMARK INTER:                 -12.644
REMARK INTRA:                  -1.264
REMARK UNBOUND:                -0.994
REMARK SMILES CCCCCC=CCC=CCCCCCCCC(=O)[O-]
REMARK SMILES IDX 11 1 12 2 13 3 14 4 15 5 16 6 17 7 18 8 19 9 20 10 10 11
REMARK SMILES IDX 9 12 8 13 7 14 6 15 5 16 4 17 3 18 2 19 1 20
REMARK H PARENT
REMARK Flexibility Score: inf
ROOT
ATOM      1  C   UNL     1      -4.026  -9.746 -38.590  1.00  0.00     0.027 C 
ENDROOT
BRANCH   1   2
ATOM      2  C   UNL     1      -5.407 -10.415 -38.520  1.00  0.00     0.004 C 
BRANCH   2   3
ATOM      3  C   UNL     1      -5.451 -11.575 -37.513  1.00  0.00     0.000 C 
BRANCH   3   4
ATOM      4  C   UNL     1      -6.480 -11.348 -36.396  1.00  0.00     0.000 C 
BRANCH   4   5
ATOM      5  C   UNL     1      -5.792 -11.241 -35.029  1.00  0.00     0.000 C 
BRANCH   5   6
ATOM      6  C   UNL     1      -5.804 -12.591 -34.298  1.00  0.00     0.006 C 
BRANCH   6   7
ATOM      7  C   UNL     1      -4.923 -12.581 -33.042  1.00  0.00     0.053 C 
BRANCH   7   8
ATOM      8  C   UNL     1      -5.538 -13.366 -31.925  1.00  0.00     0.041 C 
ATOM      9  O   UNL     1      -6.259 -14.368 -32.176  1.00  0.00    -0.550 OA
ATOM     10  O   UNL     1      -5.343 -12.971 -30.607  1.00  0.00    -0.550 OA
ENDBRANCH   7   8
ENDBRANCH   6   7
ENDBRANCH   5   6
ENDBRANCH   4   5
ENDBRANCH   3   4
ENDBRANCH   2   3
ENDBRANCH   1   2
BRANCH   1  11
ATOM     11  C   UNL     1      -3.637  -9.170 -37.257  1.00  0.00    -0.031 C 
ATOM     12  C   UNL     1      -2.601  -8.327 -37.131  1.00  0.00    -0.027 C 
BRANCH  12  13
ATOM     13  C   UNL     1      -2.208  -7.760 -35.797  1.00  0.00     0.054 C 
BRANCH  13  14
ATOM     14  C   UNL     1      -3.098  -8.317 -34.714  1.00  0.00    -0.027 C 
ATOM     15  C   UNL     1      -3.280  -7.764 -33.500  1.00  0.00    -0.031 C 
BRANCH  15  16
ATOM     16  C   UNL     1      -2.664  -6.467 -33.042  1.00  0.00     0.027 C 
BRANCH  16  17
ATOM     17  C   UNL     1      -2.475  -6.453 -31.520  1.00  0.00     0.004 C 
BRANCH  17  18
ATOM     18  C   UNL     1      -3.399  -7.478 -30.844  1.00  0.00     0.000 C 
BRANCH  18  19
ATOM     19  C   UNL     1      -2.876  -7.928 -29.471  1.00  0.00    -0.003 C 
ATOM     20  C   UNL     1      -3.592  -9.173 -28.945  1.00  0.00     0.004 C 
ENDBRANCH  18  19
ENDBRANCH  17  18
ENDBRANCH  16  17
ENDBRANCH  15  16
ENDBRANCH  13  14
ENDBRANCH  12  13
ENDBRANCH   1  11
TORSDOF 14
ENDMDL
MODEL 8
REMARK VINA RESULT:    -7.083      1.492      3.345
REMARK INTER + INTRA:         -13.874
REMARK INTER:                 -12.553
REMARK INTRA:                  -1.321
REMARK UNBOUND:                -0.994
REMARK SMILES CCCCCC=CCC=CCCCCCCCC(=O)[O-]
REMARK SMILES IDX 11 1 12 2 13 3 14 4 15 5 16 6 17 7 18 8 19 9 20 10 10 11
REMARK SMILES IDX 9 12 8 13 7 14 6 15 5 16 4 17 3 18 2 19 1 20
REMARK H PARENT
REMARK Flexibility Score: inf
ROOT
ATOM      1  C   UNL     1      -4.215 -10.174 -38.486  1.00  0.00     0.027 C 
ENDROOT
BRANCH   1   2
ATOM      2  C   UNL     1      -3.568  -8.796 -38.274  1.00  0.00     0.004 C 
BRANCH   2   3
ATOM      3  C   UNL     1      -2.281  -8.869 -37.440  1.00  0.00     0.000 C 
BRANCH   3   4
ATOM      4  C   UNL     1      -2.363  -8.035 -36.154  1.00  0.00     0.000 C 
BRANCH   4   5
ATOM      5  C   UNL     1      -2.827  -8.892 -34.970  1.00  0.00     0.000 C 
BRANCH   5   6
ATOM      6  C   UNL     1      -3.460  -8.024 -33.874  1.00  0.00     0.006 C 
BRANCH   6   7
ATOM      7  C   UNL     1      -2.630  -6.768 -33.575  1.00  0.00     0.053 C 
BRANCH   7   8
ATOM      8  C   UNL     1      -2.536  -6.500 -32.105  1.00  0.00     0.041 C 
ATOM      9  O   UNL     1      -3.291  -7.108 -31.300  1.00  0.00    -0.550 OA
ATOM     10  O   UNL     1      -1.638  -5.554 -31.625  1.00  0.00    -0.550 OA
ENDBRANCH   7   8
ENDBRANCH   6   7
ENDBRANCH   5   6
ENDBRANCH   4   5
ENDBRANCH   3   4
ENDBRANCH   2   3
ENDBRANCH   1   2
BRANCH   1  11
ATOM     11  C   UNL     1      -4.863 -10.665 -37.221  1.00  0.00    -0.031 C 
ATOM     12  C   UNL     1      -5.523 -11.833 -37.178  1.00  0.00    -0.027 C 
BRANCH  12  13
ATOM     13  C   UNL     1      -6.177 -12.318 -35.916  1.00  0.00     0.054 C 
BRANCH  13  14
ATOM     14  C   UNL     1      -5.496 -11.715 -34.713  1.00  0.00    -0.027 C 
ATOM     15  C   UNL     1      -5.378 -12.308 -33.510  1.00  0.00    -0.031 C 
BRANCH  15  16
ATOM     16  C   UNL     1      -5.864 -13.697 -33.182  1.00  0.00     0.027 C 
BRANCH  16  17
ATOM     17  C   UNL     1      -5.966 -13.903 -31.666  1.00  0.00     0.004 C 
BRANCH  17  18
ATOM     18  C   UNL     1      -5.122 -12.862 -30.914  1.00  0.00     0.000 C 
BRANCH  18  19
ATOM     19  C   UNL     1      -5.840 -12.303 -29.676  1.00  0.00    -0.003 C 
ATOM     20  C   UNL     1      -4.932 -11.430 -28.810  1.00  0.00     0.004 C 
ENDBRANCH  18  19
ENDBRANCH  17  18
ENDBRANCH  16  17
ENDBRANCH  15  16
ENDBRANCH  13  14
ENDBRANCH  12  13
ENDBRANCH   1  11
TORSDOF 14
ENDMDL
MODEL 9
REMARK VINA RESULT:    -7.068      2.697      8.555
REMARK INTER + INTRA:         -13.847
REMARK INTER:                 -12.827
REMARK INTRA:                  -1.020
REMARK UNBOUND:                -0.994
REMARK SMILES CCCCCC=CCC=CCCCCCCCC(=O)[O-]
REMARK SMILES IDX 11 1 12 2 13 3 14 4 15 5 16 6 17 7 18 8 19 9 20 10 10 11
REMARK SMILES IDX 9 12 8 13 7 14 6 15 5 16 4 17 3 18 2 19 1 20
REMARK H PARENT
REMARK Flexibility Score: inf
ROOT
ATOM      1  C   UNL     1      -3.297  -7.760 -29.406  1.00  0.00     0.027 C 
ENDROOT
BRANCH   1   2
ATOM      2  C   UNL     1      -3.153  -9.188 -28.858  1.00  0.00     0.004 C 
BRANCH   2   3
ATOM      3  C   UNL     1      -4.057  -9.449 -27.643  1.00  0.00     0.000 C 
BRANCH   3   4
ATOM      4  C   UNL     1      -4.733 -10.826 -27.696  1.00  0.00     0.000 C 
BRANCH   4   5
ATOM      5  C   UNL     1      -5.500 -11.013 -29.010  1.00  0.00     0.000 C 
BRANCH   5   6
ATOM      6  C   UNL     1      -5.515 -12.488 -29.436  1.00  0.00     0.006 C 
BRANCH   6   7
ATOM      7  C   UNL     1      -5.030 -12.681 -30.880  1.00  0.00     0.053 C 
BRANCH   7   8
ATOM      8  C   UNL     1      -5.344 -14.053 -31.392  1.00  0.00     0.041 C 
ATOM      9  O   UNL     1      -4.423 -14.900 -31.539  1.00  0.00    -0.550 OA
ATOM     10  O   UNL     1      -6.647 -14.386 -31.740  1.00  0.00    -0.550 OA
ENDBRANCH   7   8
ENDBRANCH   6   7
ENDBRANCH   5   6
ENDBRANCH   4   5
ENDBRANCH   3   4
ENDBRANCH   2   3
ENDBRANCH   1   2
BRANCH   1  11
ATOM     11  C   UNL     1      -3.352  -7.762 -30.909  1.00  0.00    -0.031 C 
ATOM     12  C   UNL     1      -2.810  -6.771 -31.633  1.00  0.00    -0.027 C 
BRANCH  12  13
ATOM     13  C   UNL     1      -2.874  -6.771 -33.133  1.00  0.00     0.054 C 
BRANCH  13  14
ATOM     14  C   UNL     1      -3.308  -8.125 -33.635  1.00  0.00    -0.027 C 
ATOM     15  C   UNL     1      -3.120  -8.585 -34.886  1.00  0.00    -0.031 C 
BRANCH  15  16
ATOM     16  C   UNL     1      -2.397  -7.840 -35.979  1.00  0.00     0.027 C 
BRANCH  16  17
ATOM     17  C   UNL     1      -2.280  -8.696 -37.246  1.00  0.00     0.004 C 
BRANCH  17  18
ATOM     18  C   UNL     1      -3.618  -8.748 -37.998  1.00  0.00     0.000 C 
BRANCH  18  19
ATOM     19  C   UNL     1      -3.944 -10.153 -38.528  1.00  0.00    -0.003 C 
ATOM     20  C   UNL     1      -5.061 -10.838 -37.740  1.00  0.00     0.004 C 
ENDBRANCH  18  19
ENDBRANCH  17  18
ENDBRANCH  16  17
ENDBRANCH  15  16
ENDBRANCH  13  14
ENDBRANCH  12  13
ENDBRANCH   1  11
TORSDOF 14
ENDMDL
