MODEL 1
REMARK VINA RESULT:    -4.401      0.000      0.000
REMARK INTER + INTRA:          -5.519
REMARK INTER:                  -5.302
REMARK INTRA:                  -0.217
REMARK UNBOUND:                -0.217
REMARK SMILES NC(=O)C[C@H]([NH3+])C(=O)[O-]
REMARK SMILES IDX 4 1 5 2 6 3 7 7 8 8 9 9 2 10 3 11 1 12
REMARK H PARENT 6 4 6 5 6 6 1 13 1 14
REMARK Flexibility Score: inf
ROOT
ATOM      1  C   UNL     1     161.606 161.627 166.632  1.00  0.00     0.171 C 
ENDROOT
BRANCH   1   2
ATOM      2  C   UNL     1     162.305 162.895 167.161  1.00  0.00     0.237 C 
BRANCH   2   3
ATOM      3  N   UNL     1     162.047 164.032 166.272  1.00  0.00    -0.350 N 
ATOM      4  H   UNL     1     161.179 163.857 165.714  1.00  0.00     0.345 HD
ATOM      5  H   UNL     1     161.931 164.915 166.822  1.00  0.00     0.345 HD
ATOM      6  H   UNL     1     162.845 164.148 165.605  1.00  0.00     0.345 HD
ENDBRANCH   2   3
BRANCH   2   7
ATOM      7  C   UNL     1     163.790 162.671 167.296  1.00  0.00     0.100 C 
ATOM      8  O   UNL     1     164.227 161.738 168.019  1.00  0.00    -0.544 OA
ATOM      9  O   UNL     1     164.687 163.488 166.617  1.00  0.00    -0.544 OA
ENDBRANCH   2   7
ENDBRANCH   1   2
BRANCH   1  10
ATOM     10  C   UNL     1     160.112 161.725 166.759  1.00  0.00     0.223 C 
ATOM     11  O   UNL     1     159.531 162.813 166.501  1.00  0.00    -0.275 OA
ATOM     12  N   UNL     1     159.343 160.584 167.136  1.00  0.00    -0.369 N 
ATOM     13  H   UNL     1     158.304 160.649 167.210  1.00  0.00     0.159 HD
ATOM     14  H   UNL     1     159.808 159.671 167.338  1.00  0.00     0.159 HD
ENDBRANCH   1  10
TORSDOF 4
ENDMDL
MODEL 2
REMARK VINA RESULT:    -4.292     11.841     14.068
REMARK INTER + INTRA:          -5.387
REMARK INTER:                  -5.145
REMARK INTRA:                  -0.242
REMARK UNBOUND:                -0.217
REMARK SMILES NC(=O)C[C@H]([NH3+])C(=O)[O-]
REMARK SMILES IDX 4 1 5 2 6 3 7 7 8 8 9 9 2 10 3 11 1 12
REMARK H PARENT 6 4 6 5 6 6 1 13 1 14
REMARK Flexibility Score: inf
ROOT
ATOM      1  C   UNL     1     153.176 153.407 167.008  1.00  0.00     0.171 C 
ENDROOT
BRANCH   1   2
ATOM      2  C   UNL     1     152.612 151.979 167.145  1.00  0.00     0.237 C 
BRANCH   2   3
ATOM      3  N   UNL     1     153.155 151.110 166.095  1.00  0.00    -0.350 N 
ATOM      4  H   UNL     1     153.462 150.200 166.511  1.00  0.00     0.345 HD
ATOM      5  H   UNL     1     152.436 150.927 165.357  1.00  0.00     0.345 HD
ATOM      6  H   UNL     1     153.988 151.565 165.654  1.00  0.00     0.345 HD
ENDBRANCH   2   3
BRANCH   2   7
ATOM      7  C   UNL     1     151.106 151.989 167.079  1.00  0.00     0.100 C 
ATOM      8  O   UNL     1     150.498 151.154 166.360  1.00  0.00    -0.544 OA
ATOM      9  O   UNL     1     150.378 152.914 167.820  1.00  0.00    -0.544 OA
ENDBRANCH   2   7
ENDBRANCH   1   2
BRANCH   1  10
ATOM     10  C   UNL     1     154.482 153.418 166.264  1.00  0.00     0.223 C 
ATOM     11  O   UNL     1     155.421 152.664 166.636  1.00  0.00    -0.275 OA
ATOM     12  N   UNL     1     154.653 154.250 165.117  1.00  0.00    -0.369 N 
ATOM     13  H   UNL     1     155.556 154.246 164.593  1.00  0.00     0.159 HD
ATOM     14  H   UNL     1     153.879 154.868 164.788  1.00  0.00     0.159 HD
ENDBRANCH   1  10
TORSDOF 4
ENDMDL
MODEL 3
REMARK VINA RESULT:    -4.108      9.463     10.057
REMARK INTER + INTRA:          -5.166
REMARK INTER:                  -4.818
REMARK INTRA:                  -0.349
REMARK UNBOUND:                -0.217
REMARK SMILES NC(=O)C[C@H]([NH3+])C(=O)[O-]
REMARK SMILES IDX 4 1 5 2 6 3 7 7 8 8 9 9 2 10 3 11 1 12
REMARK H PARENT 6 4 6 5 6 6 1 13 1 14
REMARK Flexibility Score: inf
ROOT
ATOM      1  C   UNL     1     165.192 159.384 157.490  1.00  0.00     0.171 C 
ENDROOT
BRANCH   1   2
ATOM      2  C   UNL     1     165.357 158.317 158.590  1.00  0.00     0.237 C 
BRANCH   2   3
ATOM      3  N   UNL     1     164.795 158.796 159.857  1.00  0.00    -0.350 N 
ATOM      4  H   UNL     1     164.189 159.632 159.684  1.00  0.00     0.345 HD
ATOM      5  H   UNL     1     164.226 158.048 160.317  1.00  0.00     0.345 HD
ATOM      6  H   UNL     1     165.568 159.082 160.503  1.00  0.00     0.345 HD
ENDBRANCH   2   3
BRANCH   2   7
ATOM      7  C   UNL     1     166.809 157.956 158.773  1.00  0.00     0.100 C 
ATOM      8  O   UNL     1     167.695 158.529 158.088  1.00  0.00    -0.544 OA
ATOM      9  O   UNL     1     167.180 156.994 159.706  1.00  0.00    -0.544 OA
ENDBRANCH   2   7
ENDBRANCH   1   2
BRANCH   1  10
ATOM     10  C   UNL     1     164.940 160.746 158.072  1.00  0.00     0.223 C 
ATOM     11  O   UNL     1     165.848 161.325 158.726  1.00  0.00    -0.275 OA
ATOM     12  N   UNL     1     163.692 161.403 157.859  1.00  0.00    -0.369 N 
ATOM     13  H   UNL     1     163.523 162.355 158.253  1.00  0.00     0.159 HD
ATOM     14  H   UNL     1     162.935 160.943 157.306  1.00  0.00     0.159 HD
ENDBRANCH   1  10
TORSDOF 4
ENDMDL
MODEL 4
REMARK VINA RESULT:    -4.058     12.754     13.117
REMARK INTER + INTRA:          -5.105
REMARK INTER:                  -4.764
REMARK INTRA:                  -0.341
REMARK UNBOUND:                -0.217
REMARK SMILES NC(=O)C[C@H]([NH3+])C(=O)[O-]
REMARK SMILES IDX 4 1 5 2 6 3 7 7 8 8 9 9 2 10 3 11 1 12
REMARK H PARENT 6 4 6 5 6 6 1 13 1 14
REMARK Flexibility Score: inf
ROOT
ATOM      1  C   UNL     1     165.481 155.609 157.568  1.00  0.00     0.171 C 
ENDROOT
BRANCH   1   2
ATOM      2  C   UNL     1     165.599 156.787 156.581  1.00  0.00     0.237 C 
BRANCH   2   3
ATOM      3  N   UNL     1     164.902 156.478 155.328  1.00  0.00    -0.350 N 
ATOM      4  H   UNL     1     165.209 155.543 154.972  1.00  0.00     0.345 HD
ATOM      5  H   UNL     1     163.866 156.469 155.473  1.00  0.00     0.345 HD
ATOM      6  H   UNL     1     165.140 157.197 154.604  1.00  0.00     0.345 HD
ENDBRANCH   2   3
BRANCH   2   7
ATOM      7  C   UNL     1     167.045 157.110 156.302  1.00  0.00     0.100 C 
ATOM      8  O   UNL     1     167.347 157.933 155.398  1.00  0.00    -0.544 OA
ATOM      9  O   UNL     1     168.054 156.509 157.045  1.00  0.00    -0.544 OA
ENDBRANCH   2   7
ENDBRANCH   1   2
BRANCH   1  10
ATOM     10  C   UNL     1     165.057 154.345 156.874  1.00  0.00     0.223 C 
ATOM     11  O   UNL     1     165.795 153.840 155.987  1.00  0.00    -0.275 OA
ATOM     12  N   UNL     1     163.840 153.695 157.238  1.00  0.00    -0.369 N 
ATOM     13  H   UNL     1     163.554 152.810 156.765  1.00  0.00     0.159 HD
ATOM     14  H   UNL     1     163.225 154.093 157.983  1.00  0.00     0.159 HD
ENDBRANCH   1  10
TORSDOF 4
ENDMDL
MODEL 5
REMARK VINA RESULT:    -4.054     12.344     12.828
REMARK INTER + INTRA:          -5.101
REMARK INTER:                  -4.739
REMARK INTRA:                  -0.362
REMARK UNBOUND:                -0.217
REMARK SMILES NC(=O)C[C@H]([NH3+])C(=O)[O-]
REMARK SMILES IDX 4 1 5 2 6 3 7 7 8 8 9 9 2 10 3 11 1 12
REMARK H PARENT 6 4 6 5 6 6 1 13 1 14
REMARK Flexibility Score: inf
ROOT
ATOM      1  C   UNL     1     165.148 156.735 156.303  1.00  0.00     0.171 C 
ENDROOT
BRANCH   1   2
ATOM      2  C   UNL     1     165.383 155.902 157.579  1.00  0.00     0.237 C 
BRANCH   2   3
ATOM      3  N   UNL     1     166.000 156.726 158.624  1.00  0.00    -0.350 N 
ATOM      4  H   UNL     1     166.635 157.435 158.188  1.00  0.00     0.345 HD
ATOM      5  H   UNL     1     165.270 157.217 159.189  1.00  0.00     0.345 HD
ATOM      6  H   UNL     1     166.574 156.122 159.258  1.00  0.00     0.345 HD
ENDBRANCH   2   3
BRANCH   2   7
ATOM      7  C   UNL     1     166.250 154.704 157.286  1.00  0.00     0.100 C 
ATOM      8  O   UNL     1     167.398 154.614 157.795  1.00  0.00    -0.544 OA
ATOM      9  O   UNL     1     165.786 153.688 156.459  1.00  0.00    -0.544 OA
ENDBRANCH   2   7
ENDBRANCH   1   2
BRANCH   1  10
ATOM     10  C   UNL     1     166.155 157.843 156.173  1.00  0.00     0.223 C 
ATOM     11  O   UNL     1     165.940 158.953 156.729  1.00  0.00    -0.275 OA
ATOM     12  N   UNL     1     167.369 157.634 155.453  1.00  0.00    -0.369 N 
ATOM     13  H   UNL     1     168.074 158.400 155.375  1.00  0.00     0.159 HD
ATOM     14  H   UNL     1     167.568 156.714 155.000  1.00  0.00     0.159 HD
ENDBRANCH   1  10
TORSDOF 4
ENDMDL
MODEL 6
REMARK VINA RESULT:    -4.051     10.310     10.877
REMARK INTER + INTRA:          -5.097
REMARK INTER:                  -4.634
REMARK INTRA:                  -0.463
REMARK UNBOUND:                -0.217
REMARK SMILES NC(=O)C[C@H]([NH3+])C(=O)[O-]
REMARK SMILES IDX 4 1 5 2 6 3 7 7 8 8 9 9 2 10 3 11 1 12
REMARK H PARENT 6 4 6 5 6 6 1 13 1 14
REMARK Flexibility Score: inf
ROOT
ATOM      1  C   UNL     1     165.518 158.125 159.083  1.00  0.00     0.171 C 
ENDROOT
BRANCH   1   2
ATOM      2  C   UNL     1     165.284 159.014 157.845  1.00  0.00     0.237 C 
BRANCH   2   3
ATOM      3  N   UNL     1     165.530 158.254 156.614  1.00  0.00    -0.350 N 
ATOM      4  H   UNL     1     166.550 158.283 156.377  1.00  0.00     0.345 HD
ATOM      5  H   UNL     1     165.230 157.258 156.727  1.00  0.00     0.345 HD
ATOM      6  H   UNL     1     164.999 158.683 155.821  1.00  0.00     0.345 HD
ENDBRANCH   2   3
BRANCH   2   7
ATOM      7  C   UNL     1     166.170 160.233 157.885  1.00  0.00     0.100 C 
ATOM      8  O   UNL     1     167.297 160.215 157.325  1.00  0.00    -0.544 OA
ATOM      9  O   UNL     1     165.745 161.388 158.531  1.00  0.00    -0.544 OA
ENDBRANCH   2   7
ENDBRANCH   1   2
BRANCH   1  10
ATOM     10  C   UNL     1     166.626 157.136 158.853  1.00  0.00     0.223 C 
ATOM     11  O   UNL     1     166.357 155.984 158.418  1.00  0.00    -0.275 OA
ATOM     12  N   UNL     1     167.984 157.505 159.091  1.00  0.00    -0.369 N 
ATOM     13  H   UNL     1     168.754 156.822 158.918  1.00  0.00     0.159 HD
ATOM     14  H   UNL     1     168.223 158.461 159.436  1.00  0.00     0.159 HD
ENDBRANCH   1  10
TORSDOF 4
ENDMDL
MODEL 7
REMARK VINA RESULT:    -4.037     11.807     12.261
REMARK INTER + INTRA:          -5.080
REMARK INTER:                  -4.797
REMARK INTRA:                  -0.283
REMARK UNBOUND:                -0.217
REMARK SMILES NC(=O)C[C@H]([NH3+])C(=O)[O-]
REMARK SMILES IDX 4 1 5 2 6 3 7 7 8 8 9 9 2 10 3 11 1 12
REMARK H PARENT 6 4 6 5 6 6 1 13 1 14
REMARK Flexibility Score: inf
ROOT
ATOM      1  C   UNL     1     165.454 156.999 157.964  1.00  0.00     0.171 C 
ENDROOT
BRANCH   1   2
ATOM      2  C   UNL     1     166.265 156.324 156.840  1.00  0.00     0.237 C 
BRANCH   2   3
ATOM      3  N   UNL     1     165.575 156.464 155.553  1.00  0.00    -0.350 N 
ATOM      4  H   UNL     1     165.103 155.564 155.303  1.00  0.00     0.345 HD
ATOM      5  H   UNL     1     164.860 157.228 155.597  1.00  0.00     0.345 HD
ATOM      6  H   UNL     1     166.268 156.689 154.802  1.00  0.00     0.345 HD
ENDBRANCH   2   3
BRANCH   2   7
ATOM      7  C   UNL     1     166.494 154.866 157.146  1.00  0.00     0.100 C 
ATOM      8  O   UNL     1     167.335 154.526 158.019  1.00  0.00    -0.544 OA
ATOM      9  O   UNL     1     165.773 153.886 156.474  1.00  0.00    -0.544 OA
ENDBRANCH   2   7
ENDBRANCH   1   2
BRANCH   1  10
ATOM     10  C   UNL     1     166.330 157.830 158.857  1.00  0.00     0.223 C 
ATOM     11  O   UNL     1     166.192 159.082 158.882  1.00  0.00    -0.275 OA
ATOM     12  N   UNL     1     167.295 157.207 159.704  1.00  0.00    -0.369 N 
ATOM     13  H   UNL     1     167.894 157.784 160.334  1.00  0.00     0.159 HD
ATOM     14  H   UNL     1     167.411 156.169 159.706  1.00  0.00     0.159 HD
ENDBRANCH   1  10
TORSDOF 4
ENDMDL
MODEL 8
REMARK VINA RESULT:    -4.010     10.957     11.515
REMARK INTER + INTRA:          -5.048
REMARK INTER:                  -4.763
REMARK INTRA:                  -0.285
REMARK UNBOUND:                -0.217
REMARK SMILES NC(=O)C[C@H]([NH3+])C(=O)[O-]
REMARK SMILES IDX 4 1 5 2 6 3 7 7 8 8 9 9 2 10 3 11 1 12
REMARK H PARENT 6 4 6 5 6 6 1 13 1 14
REMARK Flexibility Score: inf
ROOT
ATOM      1  C   UNL     1     165.398 158.035 157.025  1.00  0.00     0.171 C 
ENDROOT
BRANCH   1   2
ATOM      2  C   UNL     1     166.083 158.661 158.257  1.00  0.00     0.237 C 
BRANCH   2   3
ATOM      3  N   UNL     1     165.247 158.490 159.450  1.00  0.00    -0.350 N 
ATOM      4  H   UNL     1     164.279 158.839 159.258  1.00  0.00     0.345 HD
ATOM      5  H   UNL     1     165.202 157.482 159.730  1.00  0.00     0.345 HD
ATOM      6  H   UNL     1     165.643 159.047 160.243  1.00  0.00     0.345 HD
ENDBRANCH   2   3
BRANCH   2   7
ATOM      7  C   UNL     1     166.364 160.124 158.028  1.00  0.00     0.100 C 
ATOM      8  O   UNL     1     167.213 160.480 157.170  1.00  0.00    -0.544 OA
ATOM      9  O   UNL     1     165.681 161.091 158.757  1.00  0.00    -0.544 OA
ENDBRANCH   2   7
ENDBRANCH   1   2
BRANCH   1  10
ATOM     10  C   UNL     1     166.369 157.246 156.193  1.00  0.00     0.223 C 
ATOM     11  O   UNL     1     166.361 155.986 156.247  1.00  0.00    -0.275 OA
ATOM     12  N   UNL     1     167.276 157.911 155.316  1.00  0.00    -0.369 N 
ATOM     13  H   UNL     1     167.941 157.360 154.729  1.00  0.00     0.159 HD
ATOM     14  H   UNL     1     167.284 158.953 155.248  1.00  0.00     0.159 HD
ENDBRANCH   1  10
TORSDOF 4
ENDMDL
MODEL 9
REMARK VINA RESULT:    -3.921     11.810     12.324
REMARK INTER + INTRA:          -4.941
REMARK INTER:                  -4.446
REMARK INTRA:                  -0.495
REMARK UNBOUND:                -0.217
REMARK SMILES NC(=O)C[C@H]([NH3+])C(=O)[O-]
REMARK SMILES IDX 4 1 5 2 6 3 7 7 8 8 9 9 2 10 3 11 1 12
REMARK H PARENT 6 4 6 5 6 6 1 13 1 14
REMARK Flexibility Score: inf
ROOT
ATOM      1  C   UNL     1     165.804 158.037 156.695  1.00  0.00     0.171 C 
ENDROOT
BRANCH   1   2
ATOM      2  C   UNL     1     167.037 158.082 155.770  1.00  0.00     0.237 C 
BRANCH   2   3
ATOM      3  N   UNL     1     168.077 157.170 156.257  1.00  0.00    -0.350 N 
ATOM      4  H   UNL     1     167.643 156.267 156.563  1.00  0.00     0.345 HD
ATOM      5  H   UNL     1     168.782 156.978 155.508  1.00  0.00     0.345 HD
ATOM      6  H   UNL     1     168.562 157.594 157.082  1.00  0.00     0.345 HD
ENDBRANCH   2   3
BRANCH   2   7
ATOM      7  C   UNL     1     167.583 159.484 155.674  1.00  0.00     0.100 C 
ATOM      8  O   UNL     1     167.834 159.990 154.548  1.00  0.00    -0.544 OA
ATOM      9  O   UNL     1     167.806 160.230 156.825  1.00  0.00    -0.544 OA
ENDBRANCH   2   7
ENDBRANCH   1   2
BRANCH   1  10
ATOM     10  C   UNL     1     166.152 157.509 158.058  1.00  0.00     0.223 C 
ATOM     11  O   UNL     1     166.105 156.269 158.280  1.00  0.00    -0.275 OA
ATOM     12  N   UNL     1     166.571 158.398 159.091  1.00  0.00    -0.369 N 
ATOM     13  H   UNL     1     166.827 158.029 160.033  1.00  0.00     0.159 HD
ATOM     14  H   UNL     1     166.631 159.427 158.917  1.00  0.00     0.159 HD
ENDBRANCH   1  10
TORSDOF 4
ENDMDL
