MODEL 1
REMARK VINA RESULT:    -3.990      0.000      0.000
REMARK INTER + INTRA:          -4.106
REMARK INTER:                  -4.106
REMARK INTRA:                   0.000
REMARK UNBOUND:                 0.000
REMARK SMILES C[C@@H]1CC[C@@H]2C(C)(C)[C@H]3C[C@@]12CC[C@@]3(C)O
REMARK SMILES IDX 1 1 2 2 3 3 4 4 5 5 11 6 12 7 13 8 14 9 9 10 10 11 6 12 7 13
REMARK SMILES IDX 8 14 15 15 16 16
REMARK H PARENT 16 17
REMARK Flexibility Score: inf
ROOT
ATOM      1  C   UNL     1     154.734 144.661 135.381  1.00  0.00     0.008 C 
ATOM      2  C   UNL     1     154.739 143.488 136.371  1.00  0.00    -0.008 C 
ATOM      3  C   UNL     1     154.335 142.129 135.710  1.00  0.00     0.004 C 
ATOM      4  C   UNL     1     153.550 141.324 136.785  1.00  0.00     0.005 C 
ATOM      5  C   UNL     1     153.820 142.139 138.032  1.00  0.00     0.001 C 
ATOM      6  C   UNL     1     153.759 143.584 137.561  1.00  0.00    -0.023 C 
ATOM      7  C   UNL     1     152.356 144.131 137.083  1.00  0.00     0.010 C 
ATOM      8  C   UNL     1     151.217 144.206 138.127  1.00  0.00     0.036 C 
ATOM      9  C   UNL     1     151.674 144.288 139.617  1.00  0.00     0.065 C 
ATOM     10  C   UNL     1     153.075 143.615 139.811  1.00  0.00     0.027 C 
ATOM     11  C   UNL     1     154.111 144.286 138.855  1.00  0.00     0.014 C 
ATOM     12  C   UNL     1     153.149 142.072 139.425  1.00  0.00    -0.026 C 
ATOM     13  C   UNL     1     154.086 141.372 140.449  1.00  0.00     0.012 C 
ATOM     14  C   UNL     1     151.850 141.229 139.396  1.00  0.00     0.012 C 
ATOM     15  C   UNL     1     151.715 145.771 140.073  1.00  0.00     0.042 C 
ENDROOT
BRANCH   9  16
ATOM     16  O   UNL     1     150.746 143.629 140.445  1.00  0.00    -0.390 OA
ATOM     17  H   UNL     1     150.081 143.169 139.867  1.00  0.00     0.211 HD
ENDBRANCH   9  16
TORSDOF 1
ENDMDL
MODEL 2
REMARK VINA RESULT:    -3.977      9.690     11.315
REMARK INTER + INTRA:          -4.093
REMARK INTER:                  -4.093
REMARK INTRA:                   0.000
REMARK UNBOUND:                 0.000
REMARK SMILES C[C@@H]1CC[C@@H]2C(C)(C)[C@H]3C[C@@]12CC[C@@]3(C)O
REMARK SMILES IDX 1 1 2 2 3 3 4 4 5 5 11 6 12 7 13 8 14 9 9 10 10 11 6 12 7 13
REMARK SMILES IDX 8 14 15 15 16 16
REMARK H PARENT 16 17
REMARK Flexibility Score: inf
ROOT
ATOM      1  C   UNL     1     156.661 154.738 135.351  1.00  0.00     0.008 C 
ATOM      2  C   UNL     1     157.836 154.737 136.339  1.00  0.00    -0.008 C 
ATOM      3  C   UNL     1     159.189 154.315 135.679  1.00  0.00     0.004 C 
ATOM      4  C   UNL     1     159.988 153.529 136.758  1.00  0.00     0.005 C 
ATOM      5  C   UNL     1     159.177 153.815 138.005  1.00  0.00     0.001 C 
ATOM      6  C   UNL     1     157.731 153.765 137.536  1.00  0.00    -0.023 C 
ATOM      7  C   UNL     1     157.170 152.365 137.066  1.00  0.00     0.010 C 
ATOM      8  C   UNL     1     157.084 151.233 138.118  1.00  0.00     0.036 C 
ATOM      9  C   UNL     1     157.009 151.701 139.605  1.00  0.00     0.065 C 
ATOM     10  C   UNL     1     157.696 153.095 139.790  1.00  0.00     0.027 C 
ATOM     11  C   UNL     1     157.034 154.132 138.828  1.00  0.00     0.014 C 
ATOM     12  C   UNL     1     159.240 153.151 139.401  1.00  0.00    -0.026 C 
ATOM     13  C   UNL     1     159.950 154.087 140.418  1.00  0.00     0.012 C 
ATOM     14  C   UNL     1     160.069 151.843 139.380  1.00  0.00     0.012 C 
ATOM     15  C   UNL     1     155.527 151.759 140.063  1.00  0.00     0.042 C 
ENDROOT
BRANCH   9  16
ATOM     16  O   UNL     1     157.659 150.770 140.438  1.00  0.00    -0.390 OA
ATOM     17  H   UNL     1     158.259 151.268 141.055  1.00  0.00     0.211 HD
ENDBRANCH   9  16
TORSDOF 1
ENDMDL
MODEL 3
REMARK VINA RESULT:    -3.971      9.670     11.320
REMARK INTER + INTRA:          -4.087
REMARK INTER:                  -4.087
REMARK INTRA:                   0.000
REMARK UNBOUND:                 0.000
REMARK SMILES C[C@@H]1CC[C@@H]2C(C)(C)[C@H]3C[C@@]12CC[C@@]3(C)O
REMARK SMILES IDX 1 1 2 2 3 3 4 4 5 5 11 6 12 7 13 8 14 9 9 10 10 11 6 12 7 13
REMARK SMILES IDX 8 14 15 15 16 16
REMARK H PARENT 16 17
REMARK Flexibility Score: inf
ROOT
ATOM      1  C   UNL     1     144.686 146.502 135.394  1.00  0.00     0.008 C 
ATOM      2  C   UNL     1     143.487 146.513 136.353  1.00  0.00    -0.008 C 
ATOM      3  C   UNL     1     142.151 146.932 135.656  1.00  0.00     0.004 C 
ATOM      4  C   UNL     1     141.327 147.730 136.706  1.00  0.00     0.005 C 
ATOM      5  C   UNL     1     142.106 147.454 137.975  1.00  0.00     0.001 C 
ATOM      6  C   UNL     1     143.564 147.497 137.543  1.00  0.00    -0.023 C 
ATOM      7  C   UNL     1     144.139 148.891 137.074  1.00  0.00     0.010 C 
ATOM      8  C   UNL     1     144.201 150.033 138.116  1.00  0.00     0.036 C 
ATOM      9  C   UNL     1     144.238 149.580 139.609  1.00  0.00     0.065 C 
ATOM     10  C   UNL     1     143.544 148.188 139.790  1.00  0.00     0.027 C 
ATOM     11  C   UNL     1     144.227 147.141 138.855  1.00  0.00     0.014 C 
ATOM     12  C   UNL     1     142.010 148.131 139.364  1.00  0.00    -0.026 C 
ATOM     13  C   UNL     1     141.273 147.206 140.371  1.00  0.00     0.012 C 
ATOM     14  C   UNL     1     141.184 149.440 139.309  1.00  0.00     0.012 C 
ATOM     15  C   UNL     1     145.708 149.524 140.105  1.00  0.00     0.042 C 
ENDROOT
BRANCH   9  16
ATOM     16  O   UNL     1     143.568 150.519 140.417  1.00  0.00    -0.390 OA
ATOM     17  H   UNL     1     143.339 150.083 141.281  1.00  0.00     0.211 HD
ENDBRANCH   9  16
TORSDOF 1
ENDMDL
MODEL 4
REMARK VINA RESULT:    -3.967     13.301     16.000
REMARK INTER + INTRA:          -4.083
REMARK INTER:                  -4.083
REMARK INTRA:                   0.000
REMARK UNBOUND:                 0.000
REMARK SMILES C[C@@H]1CC[C@@H]2C(C)(C)[C@H]3C[C@@]12CC[C@@]3(C)O
REMARK SMILES IDX 1 1 2 2 3 3 4 4 5 5 11 6 12 7 13 8 14 9 9 10 10 11 6 12 7 13
REMARK SMILES IDX 8 14 15 15 16 16
REMARK H PARENT 16 17
REMARK Flexibility Score: inf
ROOT
ATOM      1  C   UNL     1     146.508 156.555 135.399  1.00  0.00     0.008 C 
ATOM      2  C   UNL     1     146.514 157.759 136.352  1.00  0.00    -0.008 C 
ATOM      3  C   UNL     1     146.926 159.093 135.647  1.00  0.00     0.004 C 
ATOM      4  C   UNL     1     147.721 159.926 136.692  1.00  0.00     0.005 C 
ATOM      5  C   UNL     1     147.450 159.153 137.966  1.00  0.00     0.001 C 
ATOM      6  C   UNL     1     147.499 157.693 137.541  1.00  0.00    -0.023 C 
ATOM      7  C   UNL     1     148.896 157.122 137.075  1.00  0.00     0.010 C 
ATOM      8  C   UNL     1     150.038 157.071 138.117  1.00  0.00     0.036 C 
ATOM      9  C   UNL     1     149.586 157.039 139.610  1.00  0.00     0.065 C 
ATOM     10  C   UNL     1     148.191 157.728 139.788  1.00  0.00     0.027 C 
ATOM     11  C   UNL     1     147.147 157.035 138.858  1.00  0.00     0.014 C 
ATOM     12  C   UNL     1     148.127 159.259 139.354  1.00  0.00    -0.026 C 
ATOM     13  C   UNL     1     147.199 159.998 140.358  1.00  0.00     0.012 C 
ATOM     14  C   UNL     1     149.432 160.091 139.294  1.00  0.00     0.012 C 
ATOM     15  C   UNL     1     149.537 155.572 140.113  1.00  0.00     0.042 C 
ENDROOT
BRANCH   9  16
ATOM     16  O   UNL     1     150.523 157.717 140.414  1.00  0.00    -0.390 OA
ATOM     17  H   UNL     1     150.264 158.677 140.456  1.00  0.00     0.211 HD
ENDBRANCH   9  16
TORSDOF 1
ENDMDL
MODEL 5
REMARK VINA RESULT:    -3.738      9.574     11.308
REMARK INTER + INTRA:          -3.847
REMARK INTER:                  -3.847
REMARK INTRA:                   0.000
REMARK UNBOUND:                 0.000
REMARK SMILES C[C@@H]1CC[C@@H]2C(C)(C)[C@H]3C[C@@]12CC[C@@]3(C)O
REMARK SMILES IDX 1 1 2 2 3 3 4 4 5 5 11 6 12 7 13 8 14 9 9 10 10 11 6 12 7 13
REMARK SMILES IDX 8 14 15 15 16 16
REMARK H PARENT 16 17
REMARK Flexibility Score: inf
ROOT
ATOM      1  C   UNL     1     161.025 153.651 140.547  1.00  0.00     0.008 C 
ATOM      2  C   UNL     1     160.528 153.220 139.160  1.00  0.00    -0.008 C 
ATOM      3  C   UNL     1     160.776 154.304 138.059  1.00  0.00     0.004 C 
ATOM      4  C   UNL     1     159.579 154.219 137.069  1.00  0.00     0.005 C 
ATOM      5  C   UNL     1     158.916 152.929 137.505  1.00  0.00     0.001 C 
ATOM      6  C   UNL     1     159.014 152.946 139.023  1.00  0.00    -0.023 C 
ATOM      7  C   UNL     1     158.179 154.047 139.790  1.00  0.00     0.010 C 
ATOM      8  C   UNL     1     156.636 153.985 139.684  1.00  0.00     0.036 C 
ATOM      9  C   UNL     1     156.041 152.585 139.336  1.00  0.00     0.065 C 
ATOM     10  C   UNL     1     157.067 151.726 138.522  1.00  0.00     0.027 C 
ATOM     11  C   UNL     1     158.396 151.600 139.331  1.00  0.00     0.014 C 
ATOM     12  C   UNL     1     157.529 152.353 137.132  1.00  0.00    -0.026 C 
ATOM     13  C   UNL     1     157.678 151.188 136.115  1.00  0.00     0.012 C 
ATOM     14  C   UNL     1     156.635 153.409 136.437  1.00  0.00     0.012 C 
ATOM     15  C   UNL     1     155.629 151.851 140.640  1.00  0.00     0.042 C 
ENDROOT
BRANCH   9  16
ATOM     16  O   UNL     1     154.873 152.734 138.563  1.00  0.00    -0.390 OA
ATOM     17  H   UNL     1     154.366 153.516 138.909  1.00  0.00     0.211 HD
ENDBRANCH   9  16
TORSDOF 1
ENDMDL
MODEL 6
REMARK VINA RESULT:    -3.661     13.703     15.775
REMARK INTER + INTRA:          -3.768
REMARK INTER:                  -3.768
REMARK INTRA:                   0.000
REMARK UNBOUND:                 0.000
REMARK SMILES C[C@@H]1CC[C@@H]2C(C)(C)[C@H]3C[C@@]12CC[C@@]3(C)O
REMARK SMILES IDX 1 1 2 2 3 3 4 4 5 5 11 6 12 7 13 8 14 9 9 10 10 11 6 12 7 13
REMARK SMILES IDX 8 14 15 15 16 16
REMARK H PARENT 16 17
REMARK Flexibility Score: inf
ROOT
ATOM      1  C   UNL     1     151.489 156.440 136.606  1.00  0.00     0.008 C 
ATOM      2  C   UNL     1     150.790 157.783 136.863  1.00  0.00    -0.008 C 
ATOM      3  C   UNL     1     151.643 158.755 137.742  1.00  0.00     0.004 C 
ATOM      4  C   UNL     1     150.642 159.560 138.620  1.00  0.00     0.005 C 
ATOM      5  C   UNL     1     149.319 159.204 137.976  1.00  0.00     0.001 C 
ATOM      6  C   UNL     1     149.450 157.728 137.630  1.00  0.00    -0.023 C 
ATOM      7  C   UNL     1     149.540 156.708 138.833  1.00  0.00     0.010 C 
ATOM      8  C   UNL     1     148.316 156.591 139.772  1.00  0.00     0.036 C 
ATOM      9  C   UNL     1     146.951 157.028 139.155  1.00  0.00     0.065 C 
ATOM     10  C   UNL     1     147.160 158.091 138.025  1.00  0.00     0.027 C 
ATOM     11  C   UNL     1     148.121 157.512 136.939  1.00  0.00     0.014 C 
ATOM     12  C   UNL     1     147.875 159.439 138.482  1.00  0.00    -0.026 C 
ATOM     13  C   UNL     1     147.211 160.612 137.708  1.00  0.00     0.012 C 
ATOM     14  C   UNL     1     147.849 159.849 139.975  1.00  0.00     0.012 C 
ATOM     15  C   UNL     1     146.202 155.785 138.603  1.00  0.00     0.042 C 
ENDROOT
BRANCH   9  16
ATOM     16  O   UNL     1     146.129 157.593 140.150  1.00  0.00    -0.390 OA
ATOM     17  H   UNL     1     145.833 156.867 140.761  1.00  0.00     0.211 HD
ENDBRANCH   9  16
TORSDOF 1
ENDMDL
MODEL 7
REMARK VINA RESULT:    -3.656      9.383     11.008
REMARK INTER + INTRA:          -3.763
REMARK INTER:                  -3.763
REMARK INTRA:                   0.000
REMARK UNBOUND:                 0.000
REMARK SMILES C[C@@H]1CC[C@@H]2C(C)(C)[C@H]3C[C@@]12CC[C@@]3(C)O
REMARK SMILES IDX 1 1 2 2 3 3 4 4 5 5 11 6 12 7 13 8 14 9 9 10 10 11 6 12 7 13
REMARK SMILES IDX 8 14 15 15 16 16
REMARK H PARENT 16 17
REMARK Flexibility Score: inf
ROOT
ATOM      1  C   UNL     1     156.538 149.727 136.616  1.00  0.00     0.008 C 
ATOM      2  C   UNL     1     157.856 150.476 136.861  1.00  0.00    -0.008 C 
ATOM      3  C   UNL     1     158.860 149.669 137.748  1.00  0.00     0.004 C 
ATOM      4  C   UNL     1     159.630 150.708 138.612  1.00  0.00     0.005 C 
ATOM      5  C   UNL     1     159.226 152.011 137.952  1.00  0.00     0.001 C 
ATOM      6  C   UNL     1     157.755 151.822 137.612  1.00  0.00    -0.023 C 
ATOM      7  C   UNL     1     156.742 151.711 138.819  1.00  0.00     0.010 C 
ATOM      8  C   UNL     1     156.583 152.941 139.743  1.00  0.00     0.036 C 
ATOM      9  C   UNL     1     156.969 154.314 139.109  1.00  0.00     0.065 C 
ATOM     10  C   UNL     1     158.036 154.128 137.978  1.00  0.00     0.027 C 
ATOM     11  C   UNL     1     157.489 153.134 136.906  1.00  0.00     0.014 C 
ATOM     12  C   UNL     1     159.410 153.468 138.440  1.00  0.00    -0.026 C 
ATOM     13  C   UNL     1     160.557 154.164 137.655  1.00  0.00     0.012 C 
ATOM     14  C   UNL     1     159.822 153.527 139.931  1.00  0.00     0.012 C 
ATOM     15  C   UNL     1     155.700 155.010 138.551  1.00  0.00     0.042 C 
ENDROOT
BRANCH   9  16
ATOM     16  O   UNL     1     157.507 155.167 140.092  1.00  0.00    -0.390 OA
ATOM     17  H   UNL     1     156.926 155.971 140.160  1.00  0.00     0.211 HD
ENDBRANCH   9  16
TORSDOF 1
ENDMDL
MODEL 8
REMARK VINA RESULT:    -3.656     12.712     15.124
REMARK INTER + INTRA:          -3.763
REMARK INTER:                  -3.763
REMARK INTRA:                   0.000
REMARK UNBOUND:                 0.000
REMARK SMILES C[C@@H]1CC[C@@H]2C(C)(C)[C@H]3C[C@@]12CC[C@@]3(C)O
REMARK SMILES IDX 1 1 2 2 3 3 4 4 5 5 11 6 12 7 13 8 14 9 9 10 10 11 6 12 7 13
REMARK SMILES IDX 8 14 15 15 16 16
REMARK H PARENT 16 17
REMARK Flexibility Score: inf
ROOT
ATOM      1  C   UNL     1     147.023 160.677 138.142  1.00  0.00     0.008 C 
ATOM      2  C   UNL     1     148.101 159.741 138.706  1.00  0.00    -0.008 C 
ATOM      3  C   UNL     1     149.451 159.819 137.920  1.00  0.00     0.004 C 
ATOM      4  C   UNL     1     150.061 158.389 137.932  1.00  0.00     0.005 C 
ATOM      5  C   UNL     1     149.183 157.693 138.951  1.00  0.00     0.001 C 
ATOM      6  C   UNL     1     147.786 158.228 138.676  1.00  0.00    -0.023 C 
ATOM      7  C   UNL     1     147.115 157.828 137.303  1.00  0.00     0.010 C 
ATOM      8  C   UNL     1     146.813 156.331 137.056  1.00  0.00     0.036 C 
ATOM      9  C   UNL     1     146.662 155.455 138.339  1.00  0.00     0.065 C 
ATOM     10  C   UNL     1     147.482 156.058 139.529  1.00  0.00     0.027 C 
ATOM     11  C   UNL     1     147.025 157.530 139.782  1.00  0.00     0.014 C 
ATOM     12  C   UNL     1     149.050 156.187 139.281  1.00  0.00    -0.026 C 
ATOM     13  C   UNL     1     149.770 155.856 140.618  1.00  0.00     0.012 C 
ATOM     14  C   UNL     1     149.727 155.301 138.206  1.00  0.00     0.012 C 
ATOM     15  C   UNL     1     145.162 155.333 138.718  1.00  0.00     0.042 C 
ENDROOT
BRANCH   9  16
ATOM     16  O   UNL     1     147.131 154.150 138.093  1.00  0.00    -0.390 OA
ATOM     17  H   UNL     1     147.970 154.214 137.564  1.00  0.00     0.211 HD
ENDBRANCH   9  16
TORSDOF 1
ENDMDL
MODEL 9
REMARK VINA RESULT:    -3.530      9.433     11.915
REMARK INTER + INTRA:          -3.633
REMARK INTER:                  -3.633
REMARK INTRA:                   0.000
REMARK UNBOUND:                 0.000
REMARK SMILES C[C@@H]1CC[C@@H]2C(C)(C)[C@H]3C[C@@]12CC[C@@]3(C)O
REMARK SMILES IDX 1 1 2 2 3 3 4 4 5 5 11 6 12 7 13 8 14 9 9 10 10 11 6 12 7 13
REMARK SMILES IDX 8 14 15 15 16 16
REMARK H PARENT 16 17
REMARK Flexibility Score: inf
ROOT
ATOM      1  C   UNL     1     144.025 152.153 137.309  1.00  0.00     0.008 C 
ATOM      2  C   UNL     1     142.882 151.131 137.397  1.00  0.00    -0.008 C 
ATOM      3  C   UNL     1     141.757 151.558 138.395  1.00  0.00     0.004 C 
ATOM      4  C   UNL     1     141.219 150.254 139.050  1.00  0.00     0.005 C 
ATOM      5  C   UNL     1     141.857 149.191 138.179  1.00  0.00     0.001 C 
ATOM      6  C   UNL     1     143.257 149.719 137.901  1.00  0.00    -0.023 C 
ATOM      7  C   UNL     1     144.251 149.812 139.125  1.00  0.00     0.010 C 
ATOM      8  C   UNL     1     144.663 148.493 139.821  1.00  0.00     0.036 C 
ATOM      9  C   UNL     1     144.538 147.204 138.950  1.00  0.00     0.065 C 
ATOM     10  C   UNL     1     143.435 147.375 137.852  1.00  0.00     0.027 C 
ATOM     11  C   UNL     1     143.758 148.628 136.980  1.00  0.00     0.014 C 
ATOM     12  C   UNL     1     141.968 147.664 138.400  1.00  0.00    -0.026 C 
ATOM     13  C   UNL     1     140.964 146.907 137.486  1.00  0.00     0.012 C 
ATOM     14  C   UNL     1     141.603 147.265 139.851  1.00  0.00     0.012 C 
ATOM     15  C   UNL     1     145.909 146.877 138.299  1.00  0.00     0.042 C 
ENDROOT
BRANCH   9  16
ATOM     16  O   UNL     1     144.195 146.104 139.758  1.00  0.00    -0.390 OA
ATOM     17  H   UNL     1     144.554 146.263 140.672  1.00  0.00     0.211 HD
ENDBRANCH   9  16
TORSDOF 1
ENDMDL
