MODEL 1
REMARK VINA RESULT:    -3.199      0.000      0.000
REMARK INTER + INTRA:          -4.264
REMARK INTER:                  -3.854
REMARK INTRA:                  -0.410
REMARK UNBOUND:                -0.410
REMARK SMILES O=c1c(O)c(-c2ccc(O)cc2O)oc2cc(O)cc(O)c12
REMARK SMILES IDX 5 1 3 2 2 3 1 4 22 5 20 6 19 7 17 8 16 9 15 10 14 11 6 12
REMARK SMILES IDX 8 13 7 14 9 15 11 16 12 17 10 18 13 20 4 22 21 24 18 26
REMARK H PARENT 10 19 13 21 4 23 21 25 18 27
REMARK Flexibility Score: inf
ROOT
ATOM      1  C   UNL     1      12.114   8.058  28.451  1.00  0.00     0.184 A 
ATOM      2  C   UNL     1      10.786   8.169  28.003  1.00  0.00     0.208 A 
ATOM      3  C   UNL     1      10.003   9.238  28.466  1.00  0.00     0.238 A 
ATOM      4  O   UNL     1       8.813   9.356  28.064  1.00  0.00    -0.285 OA
ATOM      5  C   UNL     1      10.553  10.160  29.381  1.00  0.00     0.111 A 
ATOM      6  C   UNL     1       9.831  11.263  29.898  1.00  0.00     0.134 A 
ATOM      7  C   UNL     1      10.447  12.130  30.812  1.00  0.00     0.093 A 
ATOM      8  C   UNL     1      11.769  11.917  31.217  1.00  0.00     0.123 A 
ATOM      9  C   UNL     1      12.486  10.832  30.709  1.00  0.00     0.094 A 
ATOM     10  C   UNL     1      11.890   9.957  29.797  1.00  0.00     0.146 A 
ATOM     11  O   UNL     1      12.597   8.935  29.325  1.00  0.00    -0.451 OA
ENDROOT
BRANCH   1  12
ATOM     12  C   UNL     1      12.997   6.964  27.995  1.00  0.00     0.063 A 
ATOM     13  C   UNL     1      14.274   5.938  26.199  1.00  0.00     0.047 A 
ATOM     14  C   UNL     1      13.444   6.960  26.665  1.00  0.00     0.020 A 
ATOM     15  C   UNL     1      14.657   4.898  27.055  1.00  0.00     0.119 A 
ATOM     16  C   UNL     1      14.197   4.881  28.376  1.00  0.00     0.093 A 
ATOM     17  C   UNL     1      13.359   5.901  28.850  1.00  0.00     0.130 A 
BRANCH  15  18
ATOM     18  O   UNL     1      15.488   3.876  26.603  1.00  0.00    -0.508 OA
ATOM     19  H   UNL     1      15.242   2.900  26.725  1.00  0.00     0.293 HD
ENDBRANCH  15  18
BRANCH  17  20
ATOM     20  O   UNL     1      12.869   5.846  30.154  1.00  0.00    -0.507 OA
ATOM     21  H   UNL     1      12.003   6.304  30.416  1.00  0.00     0.293 HD
ENDBRANCH  17  20
ENDBRANCH   1  12
BRANCH   2  22
ATOM     22  O   UNL     1      10.255   7.214  27.133  1.00  0.00    -0.502 OA
ATOM     23  H   UNL     1       9.554   7.443  26.440  1.00  0.00     0.293 HD
ENDBRANCH   2  22
BRANCH   6  24
ATOM     24  O   UNL     1       8.511  11.499  29.514  1.00  0.00    -0.507 OA
ATOM     25  H   UNL     1       7.727  11.169  30.067  1.00  0.00     0.293 HD
ENDBRANCH   6  24
BRANCH   8  26
ATOM     26  O   UNL     1      12.381  12.779  32.125  1.00  0.00    -0.508 OA
ATOM     27  H   UNL     1      11.842  13.433  32.680  1.00  0.00     0.293 HD
ENDBRANCH   8  26
TORSDOF 6
ENDMDL
MODEL 2
REMARK VINA RESULT:    -3.066      1.094      2.837
REMARK INTER + INTRA:          -4.102
REMARK INTER:                  -3.783
REMARK INTRA:                  -0.319
REMARK UNBOUND:                -0.410
REMARK SMILES O=c1c(O)c(-c2ccc(O)cc2O)oc2cc(O)cc(O)c12
REMARK SMILES IDX 5 1 3 2 2 3 1 4 22 5 20 6 19 7 17 8 16 9 15 10 14 11 6 12
REMARK SMILES IDX 8 13 7 14 9 15 11 16 12 17 10 18 13 20 4 22 21 24 18 26
REMARK H PARENT 10 19 13 21 4 23 21 25 18 27
REMARK Flexibility Score: inf
ROOT
ATOM      1  C   UNL     1      12.754   8.270  28.965  1.00  0.00     0.184 A 
ATOM      2  C   UNL     1      13.460   9.046  29.902  1.00  0.00     0.208 A 
ATOM      3  C   UNL     1      12.805  10.123  30.520  1.00  0.00     0.238 A 
ATOM      4  O   UNL     1      13.423  10.820  31.370  1.00  0.00    -0.285 OA
ATOM      5  C   UNL     1      11.469  10.416  30.177  1.00  0.00     0.111 A 
ATOM      6  C   UNL     1      10.738  11.484  30.750  1.00  0.00     0.134 A 
ATOM      7  C   UNL     1       9.414  11.716  30.348  1.00  0.00     0.093 A 
ATOM      8  C   UNL     1       8.808  10.900  29.386  1.00  0.00     0.123 A 
ATOM      9  C   UNL     1       9.524   9.845  28.818  1.00  0.00     0.094 A 
ATOM     10  C   UNL     1      10.844   9.597  29.206  1.00  0.00     0.146 A 
ATOM     11  O   UNL     1      11.501   8.582  28.653  1.00  0.00    -0.451 OA
ENDROOT
BRANCH   1  12
ATOM     12  C   UNL     1      13.380   7.117  28.287  1.00  0.00     0.063 A 
ATOM     13  C   UNL     1      14.329   6.163  26.262  1.00  0.00     0.047 A 
ATOM     14  C   UNL     1      13.741   7.236  26.936  1.00  0.00     0.020 A 
ATOM     15  C   UNL     1      14.550   4.951  26.927  1.00  0.00     0.119 A 
ATOM     16  C   UNL     1      14.172   4.815  28.266  1.00  0.00     0.093 A 
ATOM     17  C   UNL     1      13.576   5.887  28.949  1.00  0.00     0.130 A 
BRANCH  15  18
ATOM     18  O   UNL     1      15.139   3.875  26.267  1.00  0.00    -0.508 OA
ATOM     19  H   UNL     1      14.605   3.276  25.649  1.00  0.00     0.293 HD
ENDBRANCH  15  18
BRANCH  17  20
ATOM     20  O   UNL     1      13.159   5.722  30.270  1.00  0.00    -0.507 OA
ATOM     21  H   UNL     1      13.788   5.379  30.987  1.00  0.00     0.293 HD
ENDBRANCH  17  20
ENDBRANCH   1  12
BRANCH   2  22
ATOM     22  O   UNL     1      14.797   8.759  30.187  1.00  0.00    -0.502 OA
ATOM     23  H   UNL     1      15.563   9.222  29.713  1.00  0.00     0.293 HD
ENDBRANCH   2  22
BRANCH   6  24
ATOM     24  O   UNL     1      11.316  12.314  31.711  1.00  0.00    -0.507 OA
ATOM     25  H   UNL     1      12.320  12.353  31.847  1.00  0.00     0.293 HD
ENDBRANCH   6  24
BRANCH   8  26
ATOM     26  O   UNL     1       7.493  11.131  28.986  1.00  0.00    -0.508 OA
ATOM     27  H   UNL     1       7.082  10.632  28.205  1.00  0.00     0.293 HD
ENDBRANCH   8  26
TORSDOF 6
ENDMDL
MODEL 3
REMARK VINA RESULT:    -0.651     16.779     18.797
REMARK INTER + INTRA:          -1.194
REMARK INTER:                  -1.645
REMARK INTRA:                   0.451
REMARK UNBOUND:                -0.410
REMARK SMILES O=c1c(O)c(-c2ccc(O)cc2O)oc2cc(O)cc(O)c12
REMARK SMILES IDX 5 1 3 2 2 3 1 4 22 5 20 6 19 7 17 8 16 9 15 10 14 11 6 12
REMARK SMILES IDX 8 13 7 14 9 15 11 16 12 17 10 18 13 20 4 22 21 24 18 26
REMARK H PARENT 10 19 13 21 4 23 21 25 18 27
REMARK Flexibility Score: inf
ROOT
ATOM      1  C   UNL     1      23.777  11.248  14.186  1.00  0.00     0.184 A 
ATOM      2  C   UNL     1      23.928  12.256  13.216  1.00  0.00     0.208 A 
ATOM      3  C   UNL     1      23.852  13.598  13.617  1.00  0.00     0.238 A 
ATOM      4  O   UNL     1      23.996  14.512  12.760  1.00  0.00    -0.285 OA
ATOM      5  C   UNL     1      23.606  13.908  14.971  1.00  0.00     0.111 A 
ATOM      6  C   UNL     1      23.511  15.235  15.458  1.00  0.00     0.134 A 
ATOM      7  C   UNL     1      23.255  15.460  16.818  1.00  0.00     0.093 A 
ATOM      8  C   UNL     1      23.093  14.386  17.701  1.00  0.00     0.123 A 
ATOM      9  C   UNL     1      23.187  13.076  17.226  1.00  0.00     0.094 A 
ATOM     10  C   UNL     1      23.442  12.831  15.874  1.00  0.00     0.146 A 
ATOM     11  O   UNL     1      23.532  11.574  15.451  1.00  0.00    -0.451 OA
ENDROOT
BRANCH   1  12
ATOM     12  C   UNL     1      23.858   9.816  13.834  1.00  0.00     0.063 A 
ATOM     13  C   UNL     1      23.766   8.088  12.126  1.00  0.00     0.047 A 
ATOM     14  C   UNL     1      23.701   9.434  12.492  1.00  0.00     0.020 A 
ATOM     15  C   UNL     1      23.974   7.104  13.099  1.00  0.00     0.119 A 
ATOM     16  C   UNL     1      24.108   7.472  14.441  1.00  0.00     0.093 A 
ATOM     17  C   UNL     1      24.039   8.822  14.819  1.00  0.00     0.130 A 
BRANCH  15  18
ATOM     18  O   UNL     1      24.044   5.759  12.745  1.00  0.00    -0.508 OA
ATOM     19  H   UNL     1      24.875   5.207  12.921  1.00  0.00     0.293 HD
ENDBRANCH  15  18
BRANCH  17  20
ATOM     20  O   UNL     1      24.125   9.171  16.166  1.00  0.00    -0.507 OA
ATOM     21  H   UNL     1      23.445   9.785  16.601  1.00  0.00     0.293 HD
ENDBRANCH  17  20
ENDBRANCH   1  12
BRANCH   2  22
ATOM     22  O   UNL     1      24.125  11.916  11.875  1.00  0.00    -0.502 OA
ATOM     23  H   UNL     1      23.366  11.898  11.205  1.00  0.00     0.293 HD
ENDBRANCH   2  22
BRANCH   6  24
ATOM     24  O   UNL     1      23.667  16.325  14.602  1.00  0.00    -0.507 OA
ATOM     25  H   UNL     1      24.169  17.159  14.886  1.00  0.00     0.293 HD
ENDBRANCH   6  24
BRANCH   8  26
ATOM     26  O   UNL     1      22.838  14.610  19.052  1.00  0.00    -0.508 OA
ATOM     27  H   UNL     1      21.895  14.734  19.400  1.00  0.00     0.293 HD
ENDBRANCH   8  26
TORSDOF 6
ENDMDL
