MODEL 1
REMARK VINA RESULT:    -0.832      0.000      0.000
REMARK INTER + INTRA:          -1.464
REMARK INTER:                  -1.026
REMARK INTRA:                  -0.438
REMARK UNBOUND:                -0.438
REMARK SMILES CC(C)=CCC[C@@H](C)c1ccc(C)cc1
REMARK SMILES IDX 6 1 7 2 8 3 9 4 13 5 12 6 11 7 14 8 10 9 15 10 5 11 4 12
REMARK SMILES IDX 2 13 1 14 3 15
REMARK H PARENT
REMARK Flexibility Score: inf
ROOT
ATOM      1  C   UNL     1      -9.678  -1.204  12.635  1.00  0.00     0.012 C 
ENDROOT
BRANCH   1   2
ATOM      2  C   UNL     1      -9.969  -2.698  12.359  1.00  0.00     0.016 C 
ATOM      3  C   UNL     1     -11.111  -3.241  13.232  1.00  0.00     0.013 C 
BRANCH   2   4
ATOM      4  C   UNL     1     -10.282  -2.912  10.889  1.00  0.00    -0.045 A 
ATOM      5  C   UNL     1     -11.125  -3.547   6.700  1.00  0.00     0.044 C 
ATOM      6  C   UNL     1     -10.862  -3.331   8.160  1.00  0.00    -0.051 A 
ATOM      7  C   UNL     1     -10.458  -4.402   8.972  1.00  0.00     0.004 A 
ATOM      8  C   UNL     1     -10.950  -2.045   8.712  1.00  0.00     0.004 A 
ATOM      9  C   UNL     1     -10.176  -4.195  10.325  1.00  0.00     0.004 A 
ATOM     10  C   UNL     1     -10.669  -1.837  10.066  1.00  0.00     0.004 A 
ENDBRANCH   2   4
ENDBRANCH   1   2
BRANCH   1  11
ATOM     11  C   UNL     1     -10.143  -0.757  14.029  1.00  0.00     0.028 C 
BRANCH  11  12
ATOM     12  C   UNL     1      -9.199  -1.245  15.101  1.00  0.00    -0.028 C 
ATOM     13  C   UNL     1      -9.618  -1.862  16.227  1.00  0.00    -0.080 C 
ATOM     14  C   UNL     1      -8.591  -2.308  17.233  1.00  0.00     0.039 C 
ATOM     15  C   UNL     1     -11.085  -2.109  16.493  1.00  0.00     0.039 C 
ENDBRANCH  11  12
ENDBRANCH   1  11
TORSDOF 4
ENDMDL
MODEL 2
REMARK VINA RESULT:    -0.359      1.543      6.308
REMARK INTER + INTRA:          -0.881
REMARK INTER:                  -1.587
REMARK INTRA:                   0.707
REMARK UNBOUND:                -0.438
REMARK SMILES CC(C)=CCC[C@@H](C)c1ccc(C)cc1
REMARK SMILES IDX 6 1 7 2 8 3 9 4 13 5 12 6 11 7 14 8 10 9 15 10 5 11 4 12
REMARK SMILES IDX 2 13 1 14 3 15
REMARK H PARENT
REMARK Flexibility Score: inf
ROOT
ATOM      1  C   UNL     1     -10.504  -2.455   9.433  1.00  0.00     0.012 C 
ENDROOT
BRANCH   1   2
ATOM      2  C   UNL     1     -10.672  -3.739  10.278  1.00  0.00     0.016 C 
ATOM      3  C   UNL     1      -9.520  -4.733  10.064  1.00  0.00     0.013 C 
BRANCH   2   4
ATOM      4  C   UNL     1     -10.802  -3.390  11.749  1.00  0.00    -0.045 A 
ATOM      5  C   UNL     1     -11.123  -2.368  15.935  1.00  0.00     0.044 C 
ATOM      6  C   UNL     1     -11.041  -2.721  14.479  1.00  0.00    -0.051 A 
ATOM      7  C   UNL     1     -10.813  -1.721  13.521  1.00  0.00     0.004 A 
ATOM      8  C   UNL     1     -11.123  -4.059  14.069  1.00  0.00     0.004 A 
ATOM      9  C   UNL     1     -10.700  -2.052  12.168  1.00  0.00     0.004 A 
ATOM     10  C   UNL     1     -11.011  -4.392  12.716  1.00  0.00     0.004 A 
ENDBRANCH   2   4
ENDBRANCH   1   2
BRANCH   1  11
ATOM     11  C   UNL     1     -11.104  -2.588   8.025  1.00  0.00     0.028 C 
BRANCH  11  12
ATOM     12  C   UNL     1     -11.120  -1.258   7.311  1.00  0.00    -0.028 C 
ATOM     13  C   UNL     1     -11.106  -0.073   7.958  1.00  0.00    -0.080 C 
ATOM     14  C   UNL     1     -11.125   1.196   7.148  1.00  0.00     0.039 C 
ATOM     15  C   UNL     1     -11.071   0.002   9.467  1.00  0.00     0.039 C 
ENDBRANCH  11  12
ENDBRANCH   1  11
TORSDOF 4
ENDMDL
MODEL 3
REMARK VINA RESULT:    -0.135     15.858     17.055
REMARK INTER + INTRA:          -0.604
REMARK INTER:                  -0.178
REMARK INTRA:                  -0.426
REMARK UNBOUND:                -0.438
REMARK SMILES CC(C)=CCC[C@@H](C)c1ccc(C)cc1
REMARK SMILES IDX 6 1 7 2 8 3 9 4 13 5 12 6 11 7 14 8 10 9 15 10 5 11 4 12
REMARK SMILES IDX 2 13 1 14 3 15
REMARK H PARENT
REMARK Flexibility Score: inf
ROOT
ATOM      1  C   UNL     1      -5.055 -14.437  22.235  1.00  0.00     0.012 C 
ENDROOT
BRANCH   1   2
ATOM      2  C   UNL     1      -6.320 -15.135  21.685  1.00  0.00     0.016 C 
ATOM      3  C   UNL     1      -6.277 -16.659  21.881  1.00  0.00     0.013 C 
BRANCH   2   4
ATOM      4  C   UNL     1      -7.566 -14.556  22.331  1.00  0.00    -0.045 A 
ATOM      5  C   UNL     1     -11.124 -12.884  24.121  1.00  0.00     0.044 C 
ATOM      6  C   UNL     1      -9.893 -13.490  23.516  1.00  0.00    -0.051 A 
ATOM      7  C   UNL     1      -9.972 -14.188  22.302  1.00  0.00     0.004 A 
ATOM      8  C   UNL     1      -8.642 -13.305  24.122  1.00  0.00     0.004 A 
ATOM      9  C   UNL     1      -8.819 -14.721  21.717  1.00  0.00     0.004 A 
ATOM     10  C   UNL     1      -7.489 -13.838  23.539  1.00  0.00     0.004 A 
ENDBRANCH   2   4
ENDBRANCH   1   2
BRANCH   1  11
ATOM     11  C   UNL     1      -3.781 -15.272  22.034  1.00  0.00     0.028 C 
BRANCH  11  12
ATOM     12  C   UNL     1      -2.736 -14.930  23.068  1.00  0.00    -0.028 C 
ATOM     13  C   UNL     1      -1.934 -13.848  22.976  1.00  0.00    -0.080 C 
ATOM     14  C   UNL     1      -0.923 -13.600  24.064  1.00  0.00     0.039 C 
ATOM     15  C   UNL     1      -2.031 -12.889  21.811  1.00  0.00     0.039 C 
ENDBRANCH  11  12
ENDBRANCH   1  11
TORSDOF 4
ENDMDL
MODEL 4
REMARK VINA RESULT:     0.212     14.990     16.666
REMARK INTER + INTRA:          -0.176
REMARK INTER:                   0.397
REMARK INTRA:                  -0.573
REMARK UNBOUND:                -0.438
REMARK SMILES CC(C)=CCC[C@@H](C)c1ccc(C)cc1
REMARK SMILES IDX 6 1 7 2 8 3 9 4 13 5 12 6 11 7 14 8 10 9 15 10 5 11 4 12
REMARK SMILES IDX 2 13 1 14 3 15
REMARK H PARENT
REMARK Flexibility Score: inf
ROOT
ATOM      1  C   UNL     1      -6.948 -14.721  24.124  1.00  0.00     0.012 C 
ENDROOT
BRANCH   1   2
ATOM      2  C   UNL     1      -6.381 -15.215  22.773  1.00  0.00     0.016 C 
ATOM      3  C   UNL     1      -7.348 -14.960  21.605  1.00  0.00     0.013 C 
BRANCH   2   4
ATOM      4  C   UNL     1      -5.037 -14.564  22.495  1.00  0.00    -0.045 A 
ATOM      5  C   UNL     1      -1.191 -12.746  21.744  1.00  0.00     0.044 C 
ATOM      6  C   UNL     1      -2.533 -13.376  21.975  1.00  0.00    -0.051 A 
ATOM      7  C   UNL     1      -2.661 -14.772  22.008  1.00  0.00     0.004 A 
ATOM      8  C   UNL     1      -3.656 -12.576  22.228  1.00  0.00     0.004 A 
ATOM      9  C   UNL     1      -3.904 -15.362  22.260  1.00  0.00     0.004 A 
ATOM     10  C   UNL     1      -4.899 -13.164  22.480  1.00  0.00     0.004 A 
ENDBRANCH   2   4
ENDBRANCH   1   2
BRANCH   1  11
ATOM     11  C   UNL     1      -8.433 -14.337  24.039  1.00  0.00     0.028 C 
BRANCH  11  12
ATOM     12  C   UNL     1      -8.612 -12.839  24.085  1.00  0.00    -0.028 C 
ATOM     13  C   UNL     1      -9.822 -12.240  24.077  1.00  0.00    -0.080 C 
ATOM     14  C   UNL     1      -9.887 -10.736  24.125  1.00  0.00     0.039 C 
ATOM     15  C   UNL     1     -11.101 -13.044  24.020  1.00  0.00     0.039 C 
ENDBRANCH  11  12
ENDBRANCH   1  11
TORSDOF 4
ENDMDL
MODEL 5
REMARK VINA RESULT:     0.356      2.158      2.866
REMARK INTER + INTRA:           0.002
REMARK INTER:                   0.616
REMARK INTRA:                  -0.615
REMARK UNBOUND:                -0.438
REMARK SMILES CC(C)=CCC[C@@H](C)c1ccc(C)cc1
REMARK SMILES IDX 6 1 7 2 8 3 9 4 13 5 12 6 11 7 14 8 10 9 15 10 5 11 4 12
REMARK SMILES IDX 2 13 1 14 3 15
REMARK H PARENT
REMARK Flexibility Score: inf
ROOT
ATOM      1  C   UNL     1     -10.095  -3.379  13.743  1.00  0.00     0.012 C 
ENDROOT
BRANCH   1   2
ATOM      2  C   UNL     1     -10.641  -2.141  12.994  1.00  0.00     0.016 C 
ATOM      3  C   UNL     1      -9.776  -0.891  13.225  1.00  0.00     0.013 C 
BRANCH   2   4
ATOM      4  C   UNL     1     -10.761  -2.432  11.509  1.00  0.00    -0.045 A 
ATOM      5  C   UNL     1     -11.053  -3.287   7.285  1.00  0.00     0.044 C 
ATOM      6  C   UNL     1     -10.982  -2.995   8.754  1.00  0.00    -0.051 A 
ATOM      7  C   UNL     1     -10.702  -4.022   9.667  1.00  0.00     0.004 A 
ATOM      8  C   UNL     1     -11.125  -1.680   9.221  1.00  0.00     0.004 A 
ATOM      9  C   UNL     1     -10.598  -3.745  11.033  1.00  0.00     0.004 A 
ATOM     10  C   UNL     1     -11.022  -1.401  10.587  1.00  0.00     0.004 A 
ENDBRANCH   2   4
ENDBRANCH   1   2
BRANCH   1  11
ATOM     11  C   UNL     1     -11.095  -3.944  14.763  1.00  0.00     0.028 C 
BRANCH  11  12
ATOM     12  C   UNL     1     -11.125  -5.453  14.719  1.00  0.00    -0.028 C 
ATOM     13  C   UNL     1     -10.454  -6.229  15.596  1.00  0.00    -0.080 C 
ATOM     14  C   UNL     1     -10.553  -7.726  15.462  1.00  0.00     0.039 C 
ATOM     15  C   UNL     1      -9.615  -5.630  16.701  1.00  0.00     0.039 C 
ENDBRANCH  11  12
ENDBRANCH   1  11
TORSDOF 4
ENDMDL
MODEL 6
REMARK VINA RESULT:     0.582     15.760     17.102
REMARK INTER + INTRA:           0.280
REMARK INTER:                   0.705
REMARK INTRA:                  -0.425
REMARK UNBOUND:                -0.438
REMARK SMILES CC(C)=CCC[C@@H](C)c1ccc(C)cc1
REMARK SMILES IDX 6 1 7 2 8 3 9 4 13 5 12 6 11 7 14 8 10 9 15 10 5 11 4 12
REMARK SMILES IDX 2 13 1 14 3 15
REMARK H PARENT
REMARK Flexibility Score: inf
ROOT
ATOM      1  C   UNL     1      -4.409 -14.879  21.357  1.00  0.00     0.012 C 
ENDROOT
BRANCH   1   2
ATOM      2  C   UNL     1      -5.097 -15.481  22.604  1.00  0.00     0.016 C 
ATOM      3  C   UNL     1      -4.298 -15.227  23.892  1.00  0.00     0.013 C 
BRANCH   2   4
ATOM      4  C   UNL     1      -6.508 -14.938  22.743  1.00  0.00    -0.045 A 
ATOM      5  C   UNL     1     -10.531 -13.426  23.183  1.00  0.00     0.044 C 
ATOM      6  C   UNL     1      -9.125 -13.923  23.022  1.00  0.00    -0.051 A 
ATOM      7  C   UNL     1      -8.254 -13.948  24.121  1.00  0.00     0.004 A 
ATOM      8  C   UNL     1      -8.691 -14.431  21.789  1.00  0.00     0.004 A 
ATOM      9  C   UNL     1      -6.955 -14.447  23.982  1.00  0.00     0.004 A 
ATOM     10  C   UNL     1      -7.392 -14.929  21.648  1.00  0.00     0.004 A 
ENDBRANCH   2   4
ENDBRANCH   1   2
BRANCH   1  11
ATOM     11  C   UNL     1      -2.887 -14.757  21.520  1.00  0.00     0.028 C 
BRANCH  11  12
ATOM     12  C   UNL     1      -2.472 -13.320  21.718  1.00  0.00    -0.028 C 
ATOM     13  C   UNL     1      -1.733 -12.903  22.768  1.00  0.00    -0.080 C 
ATOM     14  C   UNL     1      -1.375 -11.444  22.869  1.00  0.00     0.039 C 
ATOM     15  C   UNL     1      -1.263 -13.865  23.834  1.00  0.00     0.039 C 
ENDBRANCH  11  12
ENDBRANCH   1  11
TORSDOF 4
ENDMDL
MODEL 7
REMARK VINA RESULT:     1.118     15.628     16.643
REMARK INTER + INTRA:           0.942
REMARK INTER:                   0.550
REMARK INTRA:                   0.392
REMARK UNBOUND:                -0.438
REMARK SMILES CC(C)=CCC[C@@H](C)c1ccc(C)cc1
REMARK SMILES IDX 6 1 7 2 8 3 9 4 13 5 12 6 11 7 14 8 10 9 15 10 5 11 4 12
REMARK SMILES IDX 2 13 1 14 3 15
REMARK H PARENT
REMARK Flexibility Score: inf
ROOT
ATOM      1  C   UNL     1      -4.608 -15.132  21.929  1.00  0.00     0.012 C 
ENDROOT
BRANCH   1   2
ATOM      2  C   UNL     1      -5.492 -14.158  22.742  1.00  0.00     0.016 C 
ATOM      3  C   UNL     1      -5.112 -12.688  22.504  1.00  0.00     0.013 C 
BRANCH   2   4
ATOM      4  C   UNL     1      -6.959 -14.382  22.421  1.00  0.00    -0.045 A 
ATOM      5  C   UNL     1     -11.125 -14.995  21.457  1.00  0.00     0.044 C 
ATOM      6  C   UNL     1      -9.678 -14.810  21.806  1.00  0.00    -0.051 A 
ATOM      7  C   UNL     1      -8.678 -15.205  20.906  1.00  0.00     0.004 A 
ATOM      8  C   UNL     1      -9.315 -14.176  23.003  1.00  0.00     0.004 A 
ATOM      9  C   UNL     1      -7.329 -14.999  21.213  1.00  0.00     0.004 A 
ATOM     10  C   UNL     1      -7.967 -13.969  23.311  1.00  0.00     0.004 A 
ENDBRANCH   2   4
ENDBRANCH   1   2
BRANCH   1  11
ATOM     11  C   UNL     1      -3.276 -15.448  22.626  1.00  0.00     0.028 C 
BRANCH  11  12
ATOM     12  C   UNL     1      -2.598 -14.187  23.104  1.00  0.00    -0.028 C 
ATOM     13  C   UNL     1      -2.036 -13.290  22.267  1.00  0.00    -0.080 C 
ATOM     14  C   UNL     1      -1.384 -12.064  22.851  1.00  0.00     0.039 C 
ATOM     15  C   UNL     1      -2.048 -13.490  20.770  1.00  0.00     0.039 C 
ENDBRANCH  11  12
ENDBRANCH   1  11
TORSDOF 4
ENDMDL
MODEL 8
REMARK VINA RESULT:     1.380     15.821     17.078
REMARK INTER + INTRA:           1.264
REMARK INTER:                   0.984
REMARK INTRA:                   0.280
REMARK UNBOUND:                -0.438
REMARK SMILES CC(C)=CCC[C@@H](C)c1ccc(C)cc1
REMARK SMILES IDX 6 1 7 2 8 3 9 4 13 5 12 6 11 7 14 8 10 9 15 10 5 11 4 12
REMARK SMILES IDX 2 13 1 14 3 15
REMARK H PARENT
REMARK Flexibility Score: inf
ROOT
ATOM      1  C   UNL     1      -6.920 -14.756  23.556  1.00  0.00     0.012 C 
ENDROOT
BRANCH   1   2
ATOM      2  C   UNL     1      -5.781 -15.553  22.879  1.00  0.00     0.016 C 
ATOM      3  C   UNL     1      -6.198 -16.123  21.514  1.00  0.00     0.013 C 
BRANCH   2   4
ATOM      4  C   UNL     1      -4.544 -14.685  22.732  1.00  0.00    -0.045 A 
ATOM      5  C   UNL     1      -1.010 -12.228  22.365  1.00  0.00     0.044 C 
ATOM      6  C   UNL     1      -2.233 -13.090  22.463  1.00  0.00    -0.051 A 
ATOM      7  C   UNL     1      -2.136 -14.401  22.951  1.00  0.00     0.004 A 
ATOM      8  C   UNL     1      -3.493 -12.570  22.135  1.00  0.00     0.004 A 
ATOM      9  C   UNL     1      -3.280 -15.194  23.079  1.00  0.00     0.004 A 
ATOM     10  C   UNL     1      -4.639 -13.362  22.261  1.00  0.00     0.004 A 
ENDBRANCH   2   4
ENDBRANCH   1   2
BRANCH   1  11
ATOM     11  C   UNL     1      -7.631 -13.799  22.588  1.00  0.00     0.028 C 
BRANCH  11  12
ATOM     12  C   UNL     1      -8.732 -14.504  21.833  1.00  0.00    -0.028 C 
ATOM     13  C   UNL     1     -10.021 -14.500  22.235  1.00  0.00    -0.080 C 
ATOM     14  C   UNL     1     -11.040 -15.237  21.408  1.00  0.00     0.039 C 
ATOM     15  C   UNL     1     -10.455 -13.777  23.489  1.00  0.00     0.039 C 
ENDBRANCH  11  12
ENDBRANCH   1  11
TORSDOF 4
ENDMDL
