MODEL 1
REMARK VINA RESULT:    -5.321      0.000      0.000
REMARK INTER + INTRA:          -5.321
REMARK INTER:                  -5.321
REMARK INTRA:                   0.000
REMARK UNBOUND:                 0.000
REMARK SMILES CC1=CC[C@@]2(C)CCCC(C)(C)[C@@]23C[C@@H]13
REMARK SMILES IDX 1 1 2 2 3 3 4 4 5 5 7 6 8 7 9 8 10 9 13 10 15 11 14 12 11 13
REMARK SMILES IDX 12 14 6 15
REMARK H PARENT
REMARK Flexibility Score: inf
ROOT
ATOM      1  C   UNL     1       5.763  -1.666  19.000  1.00  0.00     0.039 C 
ATOM      2  C   UNL     1       4.624  -2.631  18.826  1.00  0.00    -0.074 C 
ATOM      3  C   UNL     1       3.948  -2.685  17.657  1.00  0.00    -0.027 C 
ATOM      4  C   UNL     1       2.788  -3.628  17.453  1.00  0.00     0.034 C 
ATOM      5  C   UNL     1       1.968  -3.800  18.765  1.00  0.00    -0.022 C 
ATOM      6  C   UNL     1       0.904  -4.904  18.551  1.00  0.00     0.008 C 
ATOM      7  C   UNL     1       0.133  -5.261  19.835  1.00  0.00     0.001 C 
ATOM      8  C   UNL     1       1.063  -5.686  20.981  1.00  0.00     0.007 C 
ATOM      9  C   UNL     1       2.182  -4.663  21.328  1.00  0.00    -0.029 C 
ATOM     10  C   UNL     1       2.892  -4.230  19.975  1.00  0.00    -0.012 C 
ATOM     11  C   UNL     1       4.238  -3.491  20.018  1.00  0.00     0.022 C 
ATOM     12  C   UNL     1       4.219  -4.978  19.669  1.00  0.00     0.017 C 
ATOM     13  C   UNL     1       1.592  -3.430  22.060  1.00  0.00     0.012 C 
ATOM     14  C   UNL     1       3.116  -5.364  22.358  1.00  0.00     0.012 C 
ATOM     15  C   UNL     1       1.276  -2.426  19.032  1.00  0.00     0.012 C 
ENDROOT
TORSDOF 0
ENDMDL
MODEL 2
REMARK VINA RESULT:    -5.115      1.817      4.532
REMARK INTER + INTRA:          -5.115
REMARK INTER:                  -5.115
REMARK INTRA:                   0.000
REMARK UNBOUND:                 0.000
REMARK SMILES CC1=CC[C@@]2(C)CCCC(C)(C)[C@@]23C[C@@H]13
REMARK SMILES IDX 1 1 2 2 3 3 4 4 5 5 7 6 8 7 9 8 10 9 13 10 15 11 14 12 11 13
REMARK SMILES IDX 12 14 6 15
REMARK H PARENT
REMARK Flexibility Score: inf
ROOT
ATOM      1  C   UNL     1       4.899  -5.230  19.375  1.00  0.00     0.039 C 
ATOM      2  C   UNL     1       3.860  -4.177  19.107  1.00  0.00    -0.074 C 
ATOM      3  C   UNL     1       2.793  -4.048  19.926  1.00  0.00    -0.027 C 
ATOM      4  C   UNL     1       1.721  -3.016  19.678  1.00  0.00     0.034 C 
ATOM      5  C   UNL     1       1.485  -2.809  18.153  1.00  0.00    -0.022 C 
ATOM      6  C   UNL     1       0.510  -1.623  17.952  1.00  0.00     0.008 C 
ATOM      7  C   UNL     1       0.322  -1.235  16.474  1.00  0.00     0.001 C 
ATOM      8  C   UNL     1       1.652  -0.905  15.779  1.00  0.00     0.007 C 
ATOM      9  C   UNL     1       2.735  -2.018  15.879  1.00  0.00    -0.029 C 
ATOM     10  C   UNL     1       2.833  -2.475  17.397  1.00  0.00    -0.012 C 
ATOM     11  C   UNL     1       4.031  -3.315  17.868  1.00  0.00     0.022 C 
ATOM     12  C   UNL     1       3.995  -1.824  18.198  1.00  0.00     0.017 C 
ATOM     13  C   UNL     1       2.377  -3.217  14.964  1.00  0.00     0.012 C 
ATOM     14  C   UNL     1       4.045  -1.411  15.295  1.00  0.00     0.012 C 
ATOM     15  C   UNL     1       0.843  -4.131  17.626  1.00  0.00     0.012 C 
ENDROOT
TORSDOF 0
ENDMDL
MODEL 3
REMARK VINA RESULT:    -5.049      1.214      3.664
REMARK INTER + INTRA:          -5.049
REMARK INTER:                  -5.049
REMARK INTRA:                   0.000
REMARK UNBOUND:                 0.000
REMARK SMILES CC1=CC[C@@]2(C)CCCC(C)(C)[C@@]23C[C@@H]13
REMARK SMILES IDX 1 1 2 2 3 3 4 4 5 5 7 6 8 7 9 8 10 9 13 10 15 11 14 12 11 13
REMARK SMILES IDX 12 14 6 15
REMARK H PARENT
REMARK Flexibility Score: inf
ROOT
ATOM      1  C   UNL     1       0.126  -1.735  18.509  1.00  0.00     0.039 C 
ATOM      2  C   UNL     1       0.750  -2.936  19.164  1.00  0.00    -0.074 C 
ATOM      3  C   UNL     1      -0.007  -3.787  19.892  1.00  0.00    -0.027 C 
ATOM      4  C   UNL     1       0.588  -4.991  20.579  1.00  0.00     0.034 C 
ATOM      5  C   UNL     1       2.026  -4.690  21.093  1.00  0.00    -0.022 C 
ATOM      6  C   UNL     1       2.653  -6.000  21.627  1.00  0.00     0.008 C 
ATOM      7  C   UNL     1       4.133  -5.848  22.026  1.00  0.00     0.001 C 
ATOM      8  C   UNL     1       5.000  -5.318  20.874  1.00  0.00     0.007 C 
ATOM      9  C   UNL     1       4.504  -3.986  20.241  1.00  0.00    -0.029 C 
ATOM     10  C   UNL     1       2.952  -4.133  19.938  1.00  0.00    -0.012 C 
ATOM     11  C   UNL     1       2.251  -3.120  19.018  1.00  0.00     0.022 C 
ATOM     12  C   UNL     1       2.608  -4.499  18.467  1.00  0.00     0.017 C 
ATOM     13  C   UNL     1       4.769  -2.792  21.194  1.00  0.00     0.012 C 
ATOM     14  C   UNL     1       5.392  -3.737  18.987  1.00  0.00     0.012 C 
ATOM     15  C   UNL     1       1.868  -3.654  22.251  1.00  0.00     0.012 C 
ENDROOT
TORSDOF 0
ENDMDL
MODEL 4
REMARK VINA RESULT:    -5.016      1.287      1.931
REMARK INTER + INTRA:          -5.016
REMARK INTER:                  -5.016
REMARK INTRA:                   0.000
REMARK UNBOUND:                 0.000
REMARK SMILES CC1=CC[C@@]2(C)CCCC(C)(C)[C@@]23C[C@@H]13
REMARK SMILES IDX 1 1 2 2 3 3 4 4 5 5 7 6 8 7 9 8 10 9 13 10 15 11 14 12 11 13
REMARK SMILES IDX 12 14 6 15
REMARK H PARENT
REMARK Flexibility Score: inf
ROOT
ATOM      1  C   UNL     1       3.473  -1.607  17.246  1.00  0.00     0.039 C 
ATOM      2  C   UNL     1       2.833  -2.754  17.977  1.00  0.00    -0.074 C 
ATOM      3  C   UNL     1       1.556  -3.105  17.710  1.00  0.00    -0.027 C 
ATOM      4  C   UNL     1       0.875  -4.238  18.437  1.00  0.00     0.034 C 
ATOM      5  C   UNL     1       1.347  -4.319  19.918  1.00  0.00    -0.022 C 
ATOM      6  C   UNL     1       0.758  -5.596  20.564  1.00  0.00     0.008 C 
ATOM      7  C   UNL     1       1.283  -5.854  21.989  1.00  0.00     0.001 C 
ATOM      8  C   UNL     1       2.816  -5.933  22.045  1.00  0.00     0.007 C 
ATOM      9  C   UNL     1       3.557  -4.704  21.444  1.00  0.00    -0.029 C 
ATOM     10  C   UNL     1       2.924  -4.394  20.021  1.00  0.00    -0.012 C 
ATOM     11  C   UNL     1       3.653  -3.456  19.046  1.00  0.00     0.022 C 
ATOM     12  C   UNL     1       3.723  -4.965  18.816  1.00  0.00     0.017 C 
ATOM     13  C   UNL     1       3.433  -3.476  22.382  1.00  0.00     0.012 C 
ATOM     14  C   UNL     1       5.070  -5.070  21.418  1.00  0.00     0.012 C 
ATOM     15  C   UNL     1       0.786  -3.046  20.626  1.00  0.00     0.012 C 
ENDROOT
TORSDOF 0
ENDMDL
MODEL 5
REMARK VINA RESULT:    -5.002      4.967      7.110
REMARK INTER + INTRA:          -5.002
REMARK INTER:                  -5.002
REMARK INTRA:                   0.000
REMARK UNBOUND:                 0.000
REMARK SMILES CC1=CC[C@@]2(C)CCCC(C)(C)[C@@]23C[C@@H]13
REMARK SMILES IDX 1 1 2 2 3 3 4 4 5 5 7 6 8 7 9 8 10 9 13 10 15 11 14 12 11 13
REMARK SMILES IDX 12 14 6 15
REMARK H PARENT
REMARK Flexibility Score: inf
ROOT
ATOM      1  C   UNL     1       5.221  -1.895  14.854  1.00  0.00     0.039 C 
ATOM      2  C   UNL     1       3.780  -1.516  14.655  1.00  0.00    -0.074 C 
ATOM      3  C   UNL     1       3.121  -0.820  15.608  1.00  0.00    -0.027 C 
ATOM      4  C   UNL     1       1.670  -0.437  15.453  1.00  0.00     0.034 C 
ATOM      5  C   UNL     1       0.879  -1.541  14.692  1.00  0.00    -0.022 C 
ATOM      6  C   UNL     1      -0.552  -1.025  14.405  1.00  0.00     0.008 C 
ATOM      7  C   UNL     1      -1.378  -1.980  13.524  1.00  0.00     0.001 C 
ATOM      8  C   UNL     1      -0.687  -2.292  12.188  1.00  0.00     0.007 C 
ATOM      9  C   UNL     1       0.763  -2.842  12.314  1.00  0.00    -0.029 C 
ATOM     10  C   UNL     1       1.562  -1.899  13.311  1.00  0.00    -0.012 C 
ATOM     11  C   UNL     1       3.095  -1.984  13.383  1.00  0.00     0.022 C 
ATOM     12  C   UNL     1       2.451  -0.827  12.620  1.00  0.00     0.017 C 
ATOM     13  C   UNL     1       0.753  -4.305  12.827  1.00  0.00     0.012 C 
ATOM     14  C   UNL     1       1.339  -2.899  10.869  1.00  0.00     0.012 C 
ATOM     15  C   UNL     1       0.826  -2.777  15.644  1.00  0.00     0.012 C 
ENDROOT
TORSDOF 0
ENDMDL
MODEL 6
REMARK VINA RESULT:    -4.917      4.842      7.386
REMARK INTER + INTRA:          -4.917
REMARK INTER:                  -4.917
REMARK INTRA:                   0.000
REMARK UNBOUND:                 0.000
REMARK SMILES CC1=CC[C@@]2(C)CCCC(C)(C)[C@@]23C[C@@H]13
REMARK SMILES IDX 1 1 2 2 3 3 4 4 5 5 7 6 8 7 9 8 10 9 13 10 15 11 14 12 11 13
REMARK SMILES IDX 12 14 6 15
REMARK H PARENT
REMARK Flexibility Score: inf
ROOT
ATOM      1  C   UNL     1      -2.048  -4.340  12.629  1.00  0.00     0.039 C 
ATOM      2  C   UNL     1      -0.960  -3.306  12.714  1.00  0.00    -0.074 C 
ATOM      3  C   UNL     1      -0.212  -3.012  11.627  1.00  0.00    -0.027 C 
ATOM      4  C   UNL     1       0.900  -1.993  11.679  1.00  0.00     0.034 C 
ATOM      5  C   UNL     1       1.618  -2.018  13.059  1.00  0.00    -0.022 C 
ATOM      6  C   UNL     1       2.625  -0.844  13.123  1.00  0.00     0.008 C 
ATOM      7  C   UNL     1       3.287  -0.684  14.504  1.00  0.00     0.001 C 
ATOM      8  C   UNL     1       2.258  -0.515  15.632  1.00  0.00     0.007 C 
ATOM      9  C   UNL     1       1.182  -1.637  15.710  1.00  0.00    -0.029 C 
ATOM     10  C   UNL     1       0.592  -1.855  14.252  1.00  0.00    -0.012 C 
ATOM     11  C   UNL     1      -0.707  -2.653  14.063  1.00  0.00     0.022 C 
ATOM     12  C   UNL     1      -0.755  -1.129  13.980  1.00  0.00     0.017 C 
ATOM     13  C   UNL     1       1.797  -2.950  16.258  1.00  0.00     0.012 C 
ATOM     14  C   UNL     1       0.141  -1.176  16.771  1.00  0.00     0.012 C 
ATOM     15  C   UNL     1       2.374  -3.383  13.135  1.00  0.00     0.012 C 
ENDROOT
TORSDOF 0
ENDMDL
MODEL 7
REMARK VINA RESULT:    -4.841      1.199      3.947
REMARK INTER + INTRA:          -4.841
REMARK INTER:                  -4.841
REMARK INTRA:                   0.000
REMARK UNBOUND:                 0.000
REMARK SMILES CC1=CC[C@@]2(C)CCCC(C)(C)[C@@]23C[C@@H]13
REMARK SMILES IDX 1 1 2 2 3 3 4 4 5 5 7 6 8 7 9 8 10 9 13 10 15 11 14 12 11 13
REMARK SMILES IDX 12 14 6 15
REMARK H PARENT
REMARK Flexibility Score: inf
ROOT
ATOM      1  C   UNL     1      -0.246  -5.996  20.128  1.00  0.00     0.039 C 
ATOM      2  C   UNL     1       0.791  -4.923  19.945  1.00  0.00    -0.074 C 
ATOM      3  C   UNL     1       0.825  -4.196  18.807  1.00  0.00    -0.027 C 
ATOM      4  C   UNL     1       1.863  -3.123  18.580  1.00  0.00     0.034 C 
ATOM      5  C   UNL     1       3.224  -3.516  19.224  1.00  0.00    -0.022 C 
ATOM      6  C   UNL     1       4.195  -2.315  19.118  1.00  0.00     0.008 C 
ATOM      7  C   UNL     1       5.526  -2.542  19.857  1.00  0.00     0.001 C 
ATOM      8  C   UNL     1       5.324  -2.884  21.341  1.00  0.00     0.007 C 
ATOM      9  C   UNL     1       4.380  -4.092  21.610  1.00  0.00    -0.029 C 
ATOM     10  C   UNL     1       3.059  -3.885  20.753  1.00  0.00    -0.012 C 
ATOM     11  C   UNL     1       1.811  -4.729  21.054  1.00  0.00     0.022 C 
ATOM     12  C   UNL     1       1.862  -3.282  21.540  1.00  0.00     0.017 C 
ATOM     13  C   UNL     1       5.076  -5.426  21.238  1.00  0.00     0.012 C 
ATOM     14  C   UNL     1       4.157  -4.141  23.150  1.00  0.00     0.012 C 
ATOM     15  C   UNL     1       3.767  -4.724  18.397  1.00  0.00     0.012 C 
ENDROOT
TORSDOF 0
ENDMDL
MODEL 8
REMARK VINA RESULT:    -4.762      1.396      3.530
REMARK INTER + INTRA:          -4.762
REMARK INTER:                  -4.762
REMARK INTRA:                   0.000
REMARK UNBOUND:                 0.000
REMARK SMILES CC1=CC[C@@]2(C)CCCC(C)(C)[C@@]23C[C@@H]13
REMARK SMILES IDX 1 1 2 2 3 3 4 4 5 5 7 6 8 7 9 8 10 9 13 10 15 11 14 12 11 13
REMARK SMILES IDX 12 14 6 15
REMARK H PARENT
REMARK Flexibility Score: inf
ROOT
ATOM      1  C   UNL     1       6.504  -2.605  15.943  1.00  0.00     0.039 C 
ATOM      2  C   UNL     1       5.865  -2.654  17.303  1.00  0.00    -0.074 C 
ATOM      3  C   UNL     1       6.617  -2.893  18.401  1.00  0.00    -0.027 C 
ATOM      4  C   UNL     1       6.008  -2.968  19.780  1.00  0.00     0.034 C 
ATOM      5  C   UNL     1       4.586  -3.599  19.731  1.00  0.00    -0.022 C 
ATOM      6  C   UNL     1       3.940  -3.490  21.133  1.00  0.00     0.008 C 
ATOM      7  C   UNL     1       2.471  -3.951  21.163  1.00  0.00     0.001 C 
ATOM      8  C   UNL     1       1.596  -3.190  20.156  1.00  0.00     0.007 C 
ATOM      9  C   UNL     1       2.110  -3.224  18.687  1.00  0.00    -0.029 C 
ATOM     10  C   UNL     1       3.653  -2.849  18.697  1.00  0.00    -0.012 C 
ATOM     11  C   UNL     1       4.359  -2.477  17.384  1.00  0.00     0.022 C 
ATOM     12  C   UNL     1       3.963  -1.365  18.354  1.00  0.00     0.017 C 
ATOM     13  C   UNL     1       1.886  -4.624  18.059  1.00  0.00     0.012 C 
ATOM     14  C   UNL     1       1.206  -2.245  17.882  1.00  0.00     0.012 C 
ATOM     15  C   UNL     1       4.785  -5.098  19.342  1.00  0.00     0.012 C 
ENDROOT
TORSDOF 0
ENDMDL
MODEL 9
REMARK VINA RESULT:    -4.756     10.162     12.866
REMARK INTER + INTRA:          -4.756
REMARK INTER:                  -4.756
REMARK INTRA:                   0.000
REMARK UNBOUND:                 0.000
REMARK SMILES CC1=CC[C@@]2(C)CCCC(C)(C)[C@@]23C[C@@H]13
REMARK SMILES IDX 1 1 2 2 3 3 4 4 5 5 7 6 8 7 9 8 10 9 13 10 15 11 14 12 11 13
REMARK SMILES IDX 12 14 6 15
REMARK H PARENT
REMARK Flexibility Score: inf
ROOT
ATOM      1  C   UNL     1       9.574   1.494  23.939  1.00  0.00     0.039 C 
ATOM      2  C   UNL     1      10.319   0.739  25.004  1.00  0.00    -0.074 C 
ATOM      3  C   UNL     1       9.774   0.574  26.230  1.00  0.00    -0.027 C 
ATOM      4  C   UNL     1      10.500  -0.162  27.330  1.00  0.00     0.034 C 
ATOM      5  C   UNL     1      12.034   0.087  27.252  1.00  0.00    -0.022 C 
ATOM      6  C   UNL     1      12.744  -0.824  28.283  1.00  0.00     0.008 C 
ATOM      7  C   UNL     1      14.279  -0.769  28.189  1.00  0.00     0.001 C 
ATOM      8  C   UNL     1      14.795  -1.117  26.785  1.00  0.00     0.007 C 
ATOM      9  C   UNL     1      14.184  -0.266  25.634  1.00  0.00    -0.029 C 
ATOM     10  C   UNL     1      12.606  -0.253  25.817  1.00  0.00    -0.012 C 
ATOM     11  C   UNL     1      11.706   0.221  24.665  1.00  0.00     0.022 C 
ATOM     12  C   UNL     1      11.841  -1.277  24.933  1.00  0.00     0.017 C 
ATOM     13  C   UNL     1      14.754   1.175  25.654  1.00  0.00     0.012 C 
ATOM     14  C   UNL     1      14.680  -0.904  24.304  1.00  0.00     0.012 C 
ATOM     15  C   UNL     1      12.254   1.589  27.617  1.00  0.00     0.012 C 
ENDROOT
TORSDOF 0
ENDMDL
