MODEL 1
REMARK VINA RESULT:    -5.889      0.000      0.000
REMARK INTER + INTRA:          -7.603
REMARK INTER:                  -7.267
REMARK INTRA:                  -0.336
REMARK UNBOUND:                -0.336
REMARK SMILES O=c1c(O)c(-c2cc(O)c(O)c(O)c2)oc2cc(O)cc(O)c12
REMARK SMILES IDX 5 1 3 2 2 3 1 4 23 5 21 6 20 7 18 8 17 9 16 10 15 11 6 12
REMARK SMILES IDX 7 13 8 14 14 15 10 16 12 17 9 18 11 20 13 22 4 24 22 26
REMARK SMILES IDX 19 28
REMARK H PARENT 9 19 11 21 13 23 4 25 22 27 19 29
REMARK Flexibility Score: inf
ROOT
ATOM      1  C   UNL     1      69.334  47.745   7.740  1.00  0.00     0.180 A 
ATOM      2  C   UNL     1      69.722  48.348   6.531  1.00  0.00     0.208 A 
ATOM      3  C   UNL     1      71.090  48.451   6.231  1.00  0.00     0.238 A 
ATOM      4  O   UNL     1      71.434  49.041   5.172  1.00  0.00    -0.285 OA
ATOM      5  C   UNL     1      72.051  47.937   7.134  1.00  0.00     0.111 A 
ATOM      6  C   UNL     1      73.460  47.951   6.912  1.00  0.00     0.134 A 
ATOM      7  C   UNL     1      74.325  47.532   7.932  1.00  0.00     0.093 A 
ATOM      8  C   UNL     1      73.829  47.040   9.138  1.00  0.00     0.123 A 
ATOM      9  C   UNL     1      72.451  46.966   9.343  1.00  0.00     0.094 A 
ATOM     10  C   UNL     1      71.564  47.410   8.359  1.00  0.00     0.146 A 
ATOM     11  O   UNL     1      70.261  47.331   8.596  1.00  0.00    -0.452 OA
ENDROOT
BRANCH   1  12
ATOM     12  C   UNL     1      67.911  47.577   8.115  1.00  0.00     0.029 A 
ATOM     13  C   UNL     1      67.262  48.497   8.952  1.00  0.00     0.062 A 
ATOM     14  C   UNL     1      65.909  48.332   9.275  1.00  0.00     0.162 A 
ATOM     15  C   UNL     1      67.177  46.509   7.576  1.00  0.00     0.062 A 
ATOM     16  C   UNL     1      65.183  47.251   8.755  1.00  0.00     0.200 A 
ATOM     17  C   UNL     1      65.825  46.332   7.891  1.00  0.00     0.162 A 
BRANCH  14  18
ATOM     18  O   UNL     1      65.274  49.246  10.114  1.00  0.00    -0.504 OA
ATOM     19  H   UNL     1      64.821  48.955  10.973  1.00  0.00     0.293 HD
ENDBRANCH  14  18
BRANCH  16  20
ATOM     20  O   UNL     1      63.838  47.130   9.115  1.00  0.00    -0.502 OA
ATOM     21  H   UNL     1      63.335  47.814   9.661  1.00  0.00     0.293 HD
ENDBRANCH  16  20
BRANCH  17  22
ATOM     22  O   UNL     1      65.165  45.239   7.326  1.00  0.00    -0.504 OA
ATOM     23  H   UNL     1      65.580  44.325   7.212  1.00  0.00     0.293 HD
ENDBRANCH  17  22
ENDBRANCH   1  12
BRANCH   2  24
ATOM     24  O   UNL     1      68.758  48.869   5.664  1.00  0.00    -0.502 OA
ATOM     25  H   UNL     1      68.524  49.854   5.641  1.00  0.00     0.293 HD
ENDBRANCH   2  24
BRANCH   6  26
ATOM     26  O   UNL     1      74.058  48.339   5.709  1.00  0.00    -0.507 OA
ATOM     27  H   UNL     1      73.605  48.312   4.808  1.00  0.00     0.293 HD
ENDBRANCH   6  26
BRANCH   8  28
ATOM     28  O   UNL     1      74.717  46.617  10.125  1.00  0.00    -0.508 OA
ATOM     29  H   UNL     1      74.878  45.634  10.309  1.00  0.00     0.293 HD
ENDBRANCH   8  28
TORSDOF 7
ENDMDL
MODEL 2
REMARK VINA RESULT:    -5.836      1.380      7.175
REMARK INTER + INTRA:          -7.537
REMARK INTER:                  -7.341
REMARK INTRA:                  -0.196
REMARK UNBOUND:                -0.336
REMARK SMILES O=c1c(O)c(-c2cc(O)c(O)c(O)c2)oc2cc(O)cc(O)c12
REMARK SMILES IDX 5 1 3 2 2 3 1 4 23 5 21 6 20 7 18 8 17 9 16 10 15 11 6 12
REMARK SMILES IDX 7 13 8 14 14 15 10 16 12 17 9 18 11 20 13 22 4 24 22 26
REMARK SMILES IDX 19 28
REMARK H PARENT 9 19 11 21 13 23 4 25 22 27 19 29
REMARK Flexibility Score: inf
ROOT
ATOM      1  C   UNL     1      68.821  47.937   8.541  1.00  0.00     0.180 A 
ATOM      2  C   UNL     1      68.147  48.923   9.284  1.00  0.00     0.208 A 
ATOM      3  C   UNL     1      66.768  48.784   9.507  1.00  0.00     0.238 A 
ATOM      4  O   UNL     1      66.160  49.697  10.125  1.00  0.00    -0.285 OA
ATOM      5  C   UNL     1      66.083  47.654   9.000  1.00  0.00     0.111 A 
ATOM      6  C   UNL     1      64.695  47.390   9.202  1.00  0.00     0.134 A 
ATOM      7  C   UNL     1      64.095  46.308   8.545  1.00  0.00     0.093 A 
ATOM      8  C   UNL     1      64.844  45.444   7.749  1.00  0.00     0.123 A 
ATOM      9  C   UNL     1      66.214  45.657   7.593  1.00  0.00     0.094 A 
ATOM     10  C   UNL     1      66.834  46.749   8.206  1.00  0.00     0.146 A 
ATOM     11  O   UNL     1      68.138  46.922   8.024  1.00  0.00    -0.452 OA
ENDROOT
BRANCH   1  12
ATOM     12  C   UNL     1      70.278  48.002   8.286  1.00  0.00     0.029 A 
ATOM     13  C   UNL     1      71.206  47.966   9.338  1.00  0.00     0.062 A 
ATOM     14  C   UNL     1      72.581  48.005   9.073  1.00  0.00     0.162 A 
ATOM     15  C   UNL     1      70.746  48.041   6.964  1.00  0.00     0.062 A 
ATOM     16  C   UNL     1      73.047  48.069   7.753  1.00  0.00     0.200 A 
ATOM     17  C   UNL     1      72.117  48.082   6.686  1.00  0.00     0.162 A 
BRANCH  14  18
ATOM     18  O   UNL     1      73.496  47.978  10.125  1.00  0.00    -0.504 OA
ATOM     19  H   UNL     1      74.490  47.866   9.963  1.00  0.00     0.293 HD
ENDBRANCH  14  18
BRANCH  16  20
ATOM     20  O   UNL     1      74.428  48.114   7.546  1.00  0.00    -0.502 OA
ATOM     21  H   UNL     1      75.114  48.025   8.281  1.00  0.00     0.293 HD
ENDBRANCH  16  20
BRANCH  17  22
ATOM     22  O   UNL     1      72.506  48.132   5.346  1.00  0.00    -0.504 OA
ATOM     23  H   UNL     1      71.871  48.023   4.568  1.00  0.00     0.293 HD
ENDBRANCH  17  22
ENDBRANCH   1  12
BRANCH   2  24
ATOM     24  O   UNL     1      68.839  50.042   9.755  1.00  0.00    -0.502 OA
ATOM     25  H   UNL     1      69.329  50.044  10.641  1.00  0.00     0.293 HD
ENDBRANCH   2  24
BRANCH   6  26
ATOM     26  O   UNL     1      63.873  48.138  10.050  1.00  0.00    -0.507 OA
ATOM     27  H   UNL     1      63.345  48.950   9.769  1.00  0.00     0.293 HD
ENDBRANCH   6  26
BRANCH   8  28
ATOM     28  O   UNL     1      64.218  44.369   7.123  1.00  0.00    -0.508 OA
ATOM     29  H   UNL     1      63.232  44.175   7.259  1.00  0.00     0.293 HD
ENDBRANCH   8  28
TORSDOF 7
ENDMDL
MODEL 3
REMARK VINA RESULT:    -5.762      1.311      3.293
REMARK INTER + INTRA:          -7.446
REMARK INTER:                  -7.092
REMARK INTRA:                  -0.354
REMARK UNBOUND:                -0.336
REMARK SMILES O=c1c(O)c(-c2cc(O)c(O)c(O)c2)oc2cc(O)cc(O)c12
REMARK SMILES IDX 5 1 3 2 2 3 1 4 23 5 21 6 20 7 18 8 17 9 16 10 15 11 6 12
REMARK SMILES IDX 7 13 8 14 14 15 10 16 12 17 9 18 11 20 13 22 4 24 22 26
REMARK SMILES IDX 19 28
REMARK H PARENT 9 19 11 21 13 23 4 25 22 27 19 29
REMARK Flexibility Score: inf
ROOT
ATOM      1  C   UNL     1      69.285  47.015   7.877  1.00  0.00     0.180 A 
ATOM      2  C   UNL     1      70.037  46.620   8.998  1.00  0.00     0.208 A 
ATOM      3  C   UNL     1      71.436  46.723   8.948  1.00  0.00     0.238 A 
ATOM      4  O   UNL     1      72.107  46.317   9.934  1.00  0.00    -0.285 OA
ATOM      5  C   UNL     1      72.065  47.233   7.787  1.00  0.00     0.111 A 
ATOM      6  C   UNL     1      73.473  47.418   7.644  1.00  0.00     0.134 A 
ATOM      7  C   UNL     1      73.995  47.808   6.403  1.00  0.00     0.093 A 
ATOM      8  C   UNL     1      73.158  48.081   5.324  1.00  0.00     0.123 A 
ATOM      9  C   UNL     1      71.776  47.960   5.470  1.00  0.00     0.094 A 
ATOM     10  C   UNL     1      71.227  47.539   6.684  1.00  0.00     0.146 A 
ATOM     11  O   UNL     1      69.907  47.427   6.779  1.00  0.00    -0.452 OA
ENDROOT
BRANCH   1  12
ATOM     12  C   UNL     1      67.805  46.960   7.863  1.00  0.00     0.029 A 
ATOM     13  C   UNL     1      67.120  45.791   7.498  1.00  0.00     0.062 A 
ATOM     14  C   UNL     1      65.720  45.753   7.514  1.00  0.00     0.162 A 
ATOM     15  C   UNL     1      67.069  48.079   8.279  1.00  0.00     0.062 A 
ATOM     16  C   UNL     1      64.985  46.880   7.907  1.00  0.00     0.200 A 
ATOM     17  C   UNL     1      65.670  48.055   8.299  1.00  0.00     0.162 A 
BRANCH  14  18
ATOM     18  O   UNL     1      65.048  44.590   7.142  1.00  0.00    -0.504 OA
ATOM     19  H   UNL     1      65.524  43.826   6.676  1.00  0.00     0.293 HD
ENDBRANCH  14  18
BRANCH  16  20
ATOM     20  O   UNL     1      63.591  46.791   7.898  1.00  0.00    -0.502 OA
ATOM     21  H   UNL     1      62.981  47.499   7.516  1.00  0.00     0.293 HD
ENDBRANCH  16  20
BRANCH  17  22
ATOM     22  O   UNL     1      65.007  49.213   8.713  1.00  0.00    -0.504 OA
ATOM     23  H   UNL     1      64.119  49.520   8.341  1.00  0.00     0.293 HD
ENDBRANCH  17  22
ENDBRANCH   1  12
BRANCH   2  24
ATOM     24  O   UNL     1      69.396  46.099  10.125  1.00  0.00    -0.502 OA
ATOM     25  H   UNL     1      69.747  46.242  11.064  1.00  0.00     0.293 HD
ENDBRANCH   2  24
BRANCH   6  26
ATOM     26  O   UNL     1      74.392  47.261   8.686  1.00  0.00    -0.507 OA
ATOM     27  H   UNL     1      74.426  46.467   9.306  1.00  0.00     0.293 HD
ENDBRANCH   6  26
BRANCH   8  28
ATOM     28  O   UNL     1      73.711  48.481   4.109  1.00  0.00    -0.508 OA
ATOM     29  H   UNL     1      73.402  49.323   3.637  1.00  0.00     0.293 HD
ENDBRANCH   8  28
TORSDOF 7
ENDMDL
MODEL 4
REMARK VINA RESULT:    -5.596      1.677      7.466
REMARK INTER + INTRA:          -7.241
REMARK INTER:                  -6.959
REMARK INTRA:                  -0.282
REMARK UNBOUND:                -0.336
REMARK SMILES O=c1c(O)c(-c2cc(O)c(O)c(O)c2)oc2cc(O)cc(O)c12
REMARK SMILES IDX 5 1 3 2 2 3 1 4 23 5 21 6 20 7 18 8 17 9 16 10 15 11 6 12
REMARK SMILES IDX 7 13 8 14 14 15 10 16 12 17 9 18 11 20 13 22 4 24 22 26
REMARK SMILES IDX 19 28
REMARK H PARENT 9 19 11 21 13 23 4 25 22 27 19 29
REMARK Flexibility Score: inf
ROOT
ATOM      1  C   UNL     1      67.550  47.767   8.421  1.00  0.00     0.180 A 
ATOM      2  C   UNL     1      66.739  48.700   9.093  1.00  0.00     0.208 A 
ATOM      3  C   UNL     1      65.410  48.357   9.390  1.00  0.00     0.238 A 
ATOM      4  O   UNL     1      64.674  49.217   9.942  1.00  0.00    -0.285 OA
ATOM      5  C   UNL     1      64.913  47.083   9.027  1.00  0.00     0.111 A 
ATOM      6  C   UNL     1      63.596  46.615   9.316  1.00  0.00     0.134 A 
ATOM      7  C   UNL     1      63.170  45.386   8.795  1.00  0.00     0.093 A 
ATOM      8  C   UNL     1      64.033  44.580   8.055  1.00  0.00     0.123 A 
ATOM      9  C   UNL     1      65.343  45.001   7.818  1.00  0.00     0.094 A 
ATOM     10  C   UNL     1      65.785  46.238   8.293  1.00  0.00     0.146 A 
ATOM     11  O   UNL     1      67.035  46.605   8.037  1.00  0.00    -0.452 OA
ENDROOT
BRANCH   1  12
ATOM     12  C   UNL     1      68.967  48.046   8.097  1.00  0.00     0.029 A 
ATOM     13  C   UNL     1      69.369  48.360   6.790  1.00  0.00     0.062 A 
ATOM     14  C   UNL     1      70.712  48.644   6.508  1.00  0.00     0.162 A 
ATOM     15  C   UNL     1      69.922  48.055   9.125  1.00  0.00     0.062 A 
ATOM     16  C   UNL     1      71.669  48.628   7.532  1.00  0.00     0.200 A 
ATOM     17  C   UNL     1      71.267  48.335   8.857  1.00  0.00     0.162 A 
BRANCH  14  18
ATOM     18  O   UNL     1      71.104  48.946   5.205  1.00  0.00    -0.504 OA
ATOM     19  H   UNL     1      70.685  49.710   4.687  1.00  0.00     0.293 HD
ENDBRANCH  14  18
BRANCH  16  20
ATOM     20  O   UNL     1      72.995  48.911   7.195  1.00  0.00    -0.502 OA
ATOM     21  H   UNL     1      73.609  49.489   7.751  1.00  0.00     0.293 HD
ENDBRANCH  16  20
BRANCH  17  22
ATOM     22  O   UNL     1      72.160  48.313   9.930  1.00  0.00    -0.504 OA
ATOM     23  H   UNL     1      72.913  47.646  10.025  1.00  0.00     0.293 HD
ENDBRANCH  17  22
ENDBRANCH   1  12
BRANCH   2  24
ATOM     24  O   UNL     1      67.244  49.961   9.421  1.00  0.00    -0.502 OA
ATOM     25  H   UNL     1      67.934  50.097  10.151  1.00  0.00     0.293 HD
ENDBRANCH   2  24
BRANCH   6  26
ATOM     26  O   UNL     1      62.683  47.300  10.122  1.00  0.00    -0.507 OA
ATOM     27  H   UNL     1      62.181  46.890  10.896  1.00  0.00     0.293 HD
ENDBRANCH   6  26
BRANCH   8  28
ATOM     28  O   UNL     1      63.582  43.357   7.565  1.00  0.00    -0.508 OA
ATOM     29  H   UNL     1      63.336  43.232   6.590  1.00  0.00     0.293 HD
ENDBRANCH   8  28
TORSDOF 7
ENDMDL
MODEL 5
REMARK VINA RESULT:    -5.408      4.874      6.050
REMARK INTER + INTRA:          -7.009
REMARK INTER:                  -6.712
REMARK INTRA:                  -0.298
REMARK UNBOUND:                -0.336
REMARK SMILES O=c1c(O)c(-c2cc(O)c(O)c(O)c2)oc2cc(O)cc(O)c12
REMARK SMILES IDX 5 1 3 2 2 3 1 4 23 5 21 6 20 7 18 8 17 9 16 10 15 11 6 12
REMARK SMILES IDX 7 13 8 14 14 15 10 16 12 17 9 18 11 20 13 22 4 24 22 26
REMARK SMILES IDX 19 28
REMARK H PARENT 9 19 11 21 13 23 4 25 22 27 19 29
REMARK Flexibility Score: inf
ROOT
ATOM      1  C   UNL     1      71.702  43.820   5.757  1.00  0.00     0.180 A 
ATOM      2  C   UNL     1      71.804  44.714   4.677  1.00  0.00     0.208 A 
ATOM      3  C   UNL     1      72.456  45.942   4.869  1.00  0.00     0.238 A 
ATOM      4  O   UNL     1      72.495  46.761   3.913  1.00  0.00    -0.285 OA
ATOM      5  C   UNL     1      73.012  46.255   6.132  1.00  0.00     0.111 A 
ATOM      6  C   UNL     1      73.731  47.453   6.426  1.00  0.00     0.134 A 
ATOM      7  C   UNL     1      74.125  47.715   7.745  1.00  0.00     0.093 A 
ATOM      8  C   UNL     1      73.885  46.796   8.764  1.00  0.00     0.123 A 
ATOM      9  C   UNL     1      73.237  45.594   8.476  1.00  0.00     0.094 A 
ATOM     10  C   UNL     1      72.799  45.320   7.178  1.00  0.00     0.146 A 
ATOM     11  O   UNL     1      72.178  44.170   6.947  1.00  0.00    -0.452 OA
ENDROOT
BRANCH   1  12
ATOM     12  C   UNL     1      71.052  42.496   5.626  1.00  0.00     0.029 A 
ATOM     13  C   UNL     1      71.666  41.447   4.925  1.00  0.00     0.062 A 
ATOM     14  C   UNL     1      71.044  40.195   4.832  1.00  0.00     0.162 A 
ATOM     15  C   UNL     1      69.824  42.265   6.262  1.00  0.00     0.062 A 
ATOM     16  C   UNL     1      69.805  39.972   5.448  1.00  0.00     0.200 A 
ATOM     17  C   UNL     1      69.191  41.019   6.176  1.00  0.00     0.162 A 
BRANCH  14  18
ATOM     18  O   UNL     1      71.657  39.161   4.127  1.00  0.00    -0.504 OA
ATOM     19  H   UNL     1      71.119  38.487   3.595  1.00  0.00     0.293 HD
ENDBRANCH  14  18
BRANCH  16  20
ATOM     20  O   UNL     1      69.225  38.708   5.318  1.00  0.00    -0.502 OA
ATOM     21  H   UNL     1      68.772  38.213   6.072  1.00  0.00     0.293 HD
ENDBRANCH  16  20
BRANCH  17  22
ATOM     22  O   UNL     1      67.964  40.868   6.826  1.00  0.00    -0.504 OA
ATOM     23  H   UNL     1      67.638  41.474   7.566  1.00  0.00     0.293 HD
ENDBRANCH  17  22
ENDBRANCH   1  12
BRANCH   2  24
ATOM     24  O   UNL     1      71.227  44.394   3.445  1.00  0.00    -0.502 OA
ATOM     25  H   UNL     1      70.523  43.673   3.345  1.00  0.00     0.293 HD
ENDBRANCH   2  24
BRANCH   6  26
ATOM     26  O   UNL     1      74.103  48.397   5.465  1.00  0.00    -0.507 OA
ATOM     27  H   UNL     1      73.656  49.293   5.338  1.00  0.00     0.293 HD
ENDBRANCH   6  26
BRANCH   8  28
ATOM     28  O   UNL     1      74.304  47.082  10.061  1.00  0.00    -0.508 OA
ATOM     29  H   UNL     1      75.104  47.678  10.242  1.00  0.00     0.293 HD
ENDBRANCH   8  28
TORSDOF 7
ENDMDL
MODEL 6
REMARK VINA RESULT:    -5.394      2.312      6.955
REMARK INTER + INTRA:          -6.992
REMARK INTER:                  -6.734
REMARK INTRA:                  -0.258
REMARK UNBOUND:                -0.336
REMARK SMILES O=c1c(O)c(-c2cc(O)c(O)c(O)c2)oc2cc(O)cc(O)c12
REMARK SMILES IDX 5 1 3 2 2 3 1 4 23 5 21 6 20 7 18 8 17 9 16 10 15 11 6 12
REMARK SMILES IDX 7 13 8 14 14 15 10 16 12 17 9 18 11 20 13 22 4 24 22 26
REMARK SMILES IDX 19 28
REMARK H PARENT 9 19 11 21 13 23 4 25 22 27 19 29
REMARK Flexibility Score: inf
ROOT
ATOM      1  C   UNL     1      70.909  47.272   7.402  1.00  0.00     0.180 A 
ATOM      2  C   UNL     1      71.131  48.500   8.049  1.00  0.00     0.208 A 
ATOM      3  C   UNL     1      70.051  49.148   8.670  1.00  0.00     0.238 A 
ATOM      4  O   UNL     1      70.245  50.273   9.200  1.00  0.00    -0.285 OA
ATOM      5  C   UNL     1      68.767  48.553   8.650  1.00  0.00     0.111 A 
ATOM      6  C   UNL     1      67.610  49.101   9.282  1.00  0.00     0.134 A 
ATOM      7  C   UNL     1      66.363  48.493   9.087  1.00  0.00     0.093 A 
ATOM      8  C   UNL     1      66.242  47.323   8.340  1.00  0.00     0.123 A 
ATOM      9  C   UNL     1      67.376  46.745   7.768  1.00  0.00     0.094 A 
ATOM     10  C   UNL     1      68.628  47.348   7.913  1.00  0.00     0.146 A 
ATOM     11  O   UNL     1      69.680  46.772   7.345  1.00  0.00    -0.452 OA
ENDROOT
BRANCH   1  12
ATOM     12  C   UNL     1      72.002  46.518   6.748  1.00  0.00     0.029 A 
ATOM     13  C   UNL     1      73.032  45.928   7.496  1.00  0.00     0.062 A 
ATOM     14  C   UNL     1      74.044  45.198   6.859  1.00  0.00     0.162 A 
ATOM     15  C   UNL     1      71.980  46.337   5.357  1.00  0.00     0.062 A 
ATOM     16  C   UNL     1      74.034  45.040   5.466  1.00  0.00     0.200 A 
ATOM     17  C   UNL     1      72.986  45.612   4.707  1.00  0.00     0.162 A 
BRANCH  14  18
ATOM     18  O   UNL     1      75.069  44.623   7.609  1.00  0.00    -0.504 OA
ATOM     19  H   UNL     1      76.039  44.692   7.326  1.00  0.00     0.293 HD
ENDBRANCH  14  18
BRANCH  16  20
ATOM     20  O   UNL     1      75.072  44.309   4.881  1.00  0.00    -0.502 OA
ATOM     21  H   UNL     1      76.023  44.639   4.805  1.00  0.00     0.293 HD
ENDBRANCH  16  20
BRANCH  17  22
ATOM     22  O   UNL     1      72.902  45.486   3.319  1.00  0.00    -0.504 OA
ATOM     23  H   UNL     1      73.638  45.756   2.682  1.00  0.00     0.293 HD
ENDBRANCH  17  22
ENDBRANCH   1  12
BRANCH   2  24
ATOM     24  O   UNL     1      72.402  49.080   8.037  1.00  0.00    -0.502 OA
ATOM     25  H   UNL     1      73.166  48.727   8.601  1.00  0.00     0.293 HD
ENDBRANCH   2  24
BRANCH   6  26
ATOM     26  O   UNL     1      67.635  50.216  10.125  1.00  0.00    -0.507 OA
ATOM     27  H   UNL     1      67.747  50.175  11.127  1.00  0.00     0.293 HD
ENDBRANCH   6  26
BRANCH   8  28
ATOM     28  O   UNL     1      64.989  46.736   8.180  1.00  0.00    -0.508 OA
ATOM     29  H   UNL     1      64.565  46.631   7.265  1.00  0.00     0.293 HD
ENDBRANCH   8  28
TORSDOF 7
ENDMDL
MODEL 7
REMARK VINA RESULT:    -5.385      1.717      2.338
REMARK INTER + INTRA:          -6.981
REMARK INTER:                  -7.359
REMARK INTRA:                   0.378
REMARK UNBOUND:                -0.336
REMARK SMILES O=c1c(O)c(-c2cc(O)c(O)c(O)c2)oc2cc(O)cc(O)c12
REMARK SMILES IDX 5 1 3 2 2 3 1 4 23 5 21 6 20 7 18 8 17 9 16 10 15 11 6 12
REMARK SMILES IDX 7 13 8 14 14 15 10 16 12 17 9 18 11 20 13 22 4 24 22 26
REMARK SMILES IDX 19 28
REMARK H PARENT 9 19 11 21 13 23 4 25 22 27 19 29
REMARK Flexibility Score: inf
ROOT
ATOM      1  C   UNL     1      68.708  47.632   8.351  1.00  0.00     0.180 A 
ATOM      2  C   UNL     1      69.327  48.586   9.178  1.00  0.00     0.208 A 
ATOM      3  C   UNL     1      70.712  48.787   9.066  1.00  0.00     0.238 A 
ATOM      4  O   UNL     1      71.269  49.603   9.847  1.00  0.00    -0.285 OA
ATOM      5  C   UNL     1      71.458  48.045   8.119  1.00  0.00     0.111 A 
ATOM      6  C   UNL     1      72.858  48.197   7.893  1.00  0.00     0.134 A 
ATOM      7  C   UNL     1      73.517  47.318   7.022  1.00  0.00     0.093 A 
ATOM      8  C   UNL     1      72.815  46.338   6.323  1.00  0.00     0.123 A 
ATOM      9  C   UNL     1      71.435  46.219   6.492  1.00  0.00     0.094 A 
ATOM     10  C   UNL     1      70.756  47.057   7.380  1.00  0.00     0.146 A 
ATOM     11  O   UNL     1      69.445  46.906   7.519  1.00  0.00    -0.452 OA
ENDROOT
BRANCH   1  12
ATOM     12  C   UNL     1      67.249  47.382   8.394  1.00  0.00     0.029 A 
ATOM     13  C   UNL     1      66.372  48.278   9.024  1.00  0.00     0.062 A 
ATOM     14  C   UNL     1      64.993  48.035   9.032  1.00  0.00     0.162 A 
ATOM     15  C   UNL     1      66.722  46.257   7.741  1.00  0.00     0.062 A 
ATOM     16  C   UNL     1      64.470  46.898   8.400  1.00  0.00     0.200 A 
ATOM     17  C   UNL     1      65.346  46.002   7.743  1.00  0.00     0.162 A 
BRANCH  14  18
ATOM     18  O   UNL     1      64.129  48.927   9.668  1.00  0.00    -0.504 OA
ATOM     19  H   UNL     1      63.559  48.644  10.456  1.00  0.00     0.293 HD
ENDBRANCH  14  18
BRANCH  16  20
ATOM     20  O   UNL     1      63.087  46.699   8.445  1.00  0.00    -0.502 OA
ATOM     21  H   UNL     1      62.647  45.792   8.467  1.00  0.00     0.293 HD
ENDBRANCH  16  20
BRANCH  17  22
ATOM     22  O   UNL     1      64.898  44.855   7.083  1.00  0.00    -0.504 OA
ATOM     23  H   UNL     1      63.986  44.444   7.220  1.00  0.00     0.293 HD
ENDBRANCH  17  22
ENDBRANCH   1  12
BRANCH   2  24
ATOM     24  O   UNL     1      68.575  49.292  10.121  1.00  0.00    -0.502 OA
ATOM     25  H   UNL     1      67.585  49.471  10.003  1.00  0.00     0.293 HD
ENDBRANCH   2  24
BRANCH   6  26
ATOM     26  O   UNL     1      73.639  49.202   8.471  1.00  0.00    -0.507 OA
ATOM     27  H   UNL     1      73.823  49.289   9.459  1.00  0.00     0.293 HD
ENDBRANCH   6  26
BRANCH   8  28
ATOM     28  O   UNL     1      73.498  45.491   5.453  1.00  0.00    -0.508 OA
ATOM     29  H   UNL     1      74.509  45.412   5.473  1.00  0.00     0.293 HD
ENDBRANCH   8  28
TORSDOF 7
ENDMDL
MODEL 8
REMARK VINA RESULT:    -5.287      3.808      8.097
REMARK INTER + INTRA:          -6.859
REMARK INTER:                  -6.491
REMARK INTRA:                  -0.369
REMARK UNBOUND:                -0.336
REMARK SMILES O=c1c(O)c(-c2cc(O)c(O)c(O)c2)oc2cc(O)cc(O)c12
REMARK SMILES IDX 5 1 3 2 2 3 1 4 23 5 21 6 20 7 18 8 17 9 16 10 15 11 6 12
REMARK SMILES IDX 7 13 8 14 14 15 10 16 12 17 9 18 11 20 13 22 4 24 22 26
REMARK SMILES IDX 19 28
REMARK H PARENT 9 19 11 21 13 23 4 25 22 27 19 29
REMARK Flexibility Score: inf
ROOT
ATOM      1  C   UNL     1      67.334  44.329   7.695  1.00  0.00     0.180 A 
ATOM      2  C   UNL     1      67.028  45.690   7.522  1.00  0.00     0.208 A 
ATOM      3  C   UNL     1      65.711  46.125   7.746  1.00  0.00     0.238 A 
ATOM      4  O   UNL     1      65.431  47.334   7.536  1.00  0.00    -0.285 OA
ATOM      5  C   UNL     1      64.724  45.198   8.157  1.00  0.00     0.111 A 
ATOM      6  C   UNL     1      63.369  45.536   8.452  1.00  0.00     0.134 A 
ATOM      7  C   UNL     1      62.446  44.517   8.723  1.00  0.00     0.093 A 
ATOM      8  C   UNL     1      62.842  43.183   8.775  1.00  0.00     0.123 A 
ATOM      9  C   UNL     1      64.177  42.846   8.547  1.00  0.00     0.094 A 
ATOM     10  C   UNL     1      65.113  43.836   8.238  1.00  0.00     0.146 A 
ATOM     11  O   UNL     1      66.372  43.473   8.017  1.00  0.00    -0.452 OA
ENDROOT
BRANCH   1  12
ATOM     12  C   UNL     1      68.704  43.800   7.502  1.00  0.00     0.029 A 
ATOM     13  C   UNL     1      69.632  43.773   8.554  1.00  0.00     0.062 A 
ATOM     14  C   UNL     1      70.915  43.247   8.356  1.00  0.00     0.162 A 
ATOM     15  C   UNL     1      69.066  43.260   6.259  1.00  0.00     0.062 A 
ATOM     16  C   UNL     1      71.284  42.730   7.106  1.00  0.00     0.200 A 
ATOM     17  C   UNL     1      70.345  42.733   6.047  1.00  0.00     0.162 A 
BRANCH  14  18
ATOM     18  O   UNL     1      71.834  43.231   9.404  1.00  0.00    -0.504 OA
ATOM     19  H   UNL     1      71.538  43.159  10.371  1.00  0.00     0.293 HD
ENDBRANCH  14  18
BRANCH  16  20
ATOM     20  O   UNL     1      72.579  42.224   6.961  1.00  0.00    -0.502 OA
ATOM     21  H   UNL     1      73.362  42.764   6.623  1.00  0.00     0.293 HD
ENDBRANCH  16  20
BRANCH  17  22
ATOM     22  O   UNL     1      70.636  42.225   4.779  1.00  0.00    -0.504 OA
ATOM     23  H   UNL     1      70.045  41.575   4.281  1.00  0.00     0.293 HD
ENDBRANCH  17  22
ENDBRANCH   1  12
BRANCH   2  24
ATOM     24  O   UNL     1      68.014  46.583   7.094  1.00  0.00    -0.502 OA
ATOM     25  H   UNL     1      68.174  47.474   7.549  1.00  0.00     0.293 HD
ENDBRANCH   2  24
BRANCH   6  26
ATOM     26  O   UNL     1      62.887  46.847   8.518  1.00  0.00    -0.507 OA
ATOM     27  H   UNL     1      62.027  47.120   8.969  1.00  0.00     0.293 HD
ENDBRANCH   6  26
BRANCH   8  28
ATOM     28  O   UNL     1      61.902  42.196   9.063  1.00  0.00    -0.508 OA
ATOM     29  H   UNL     1      62.053  41.517   9.800  1.00  0.00     0.293 HD
ENDBRANCH   8  28
TORSDOF 7
ENDMDL
MODEL 9
REMARK VINA RESULT:    -5.275      3.897      6.424
REMARK INTER + INTRA:          -6.845
REMARK INTER:                  -6.603
REMARK INTRA:                  -0.243
REMARK UNBOUND:                -0.336
REMARK SMILES O=c1c(O)c(-c2cc(O)c(O)c(O)c2)oc2cc(O)cc(O)c12
REMARK SMILES IDX 5 1 3 2 2 3 1 4 23 5 21 6 20 7 18 8 17 9 16 10 15 11 6 12
REMARK SMILES IDX 7 13 8 14 14 15 10 16 12 17 9 18 11 20 13 22 4 24 22 26
REMARK SMILES IDX 19 28
REMARK H PARENT 9 19 11 21 13 23 4 25 22 27 19 29
REMARK Flexibility Score: inf
ROOT
ATOM      1  C   UNL     1      68.128  44.526   7.900  1.00  0.00     0.180 A 
ATOM      2  C   UNL     1      66.756  44.832   7.902  1.00  0.00     0.208 A 
ATOM      3  C   UNL     1      66.345  46.112   8.308  1.00  0.00     0.238 A 
ATOM      4  O   UNL     1      65.112  46.363   8.360  1.00  0.00    -0.285 OA
ATOM      5  C   UNL     1      67.310  47.074   8.690  1.00  0.00     0.111 A 
ATOM      6  C   UNL     1      67.009  48.413   9.079  1.00  0.00     0.134 A 
ATOM      7  C   UNL     1      68.033  49.240   9.562  1.00  0.00     0.093 A 
ATOM      8  C   UNL     1      69.353  48.797   9.608  1.00  0.00     0.123 A 
ATOM      9  C   UNL     1      69.668  47.509   9.174  1.00  0.00     0.094 A 
ATOM     10  C   UNL     1      68.664  46.649   8.721  1.00  0.00     0.146 A 
ATOM     11  O   UNL     1      69.004  45.428   8.326  1.00  0.00    -0.452 OA
ENDROOT
BRANCH   1  12
ATOM     12  C   UNL     1      68.640  43.207   7.461  1.00  0.00     0.029 A 
ATOM     13  C   UNL     1      68.415  42.048   8.218  1.00  0.00     0.062 A 
ATOM     14  C   UNL     1      68.887  40.806   7.773  1.00  0.00     0.162 A 
ATOM     15  C   UNL     1      69.313  43.102   6.235  1.00  0.00     0.062 A 
ATOM     16  C   UNL     1      69.581  40.706   6.559  1.00  0.00     0.200 A 
ATOM     17  C   UNL     1      69.791  41.867   5.779  1.00  0.00     0.162 A 
BRANCH  14  18
ATOM     18  O   UNL     1      68.666  39.660   8.536  1.00  0.00    -0.504 OA
ATOM     19  H   UNL     1      69.238  39.440   9.343  1.00  0.00     0.293 HD
ENDBRANCH  14  18
BRANCH  16  20
ATOM     20  O   UNL     1      70.037  39.445   6.166  1.00  0.00    -0.502 OA
ATOM     21  H   UNL     1      70.169  38.669   6.798  1.00  0.00     0.293 HD
ENDBRANCH  16  20
BRANCH  17  22
ATOM     22  O   UNL     1      70.463  41.844   4.555  1.00  0.00    -0.504 OA
ATOM     23  H   UNL     1      70.300  42.503   3.808  1.00  0.00     0.293 HD
ENDBRANCH  17  22
ENDBRANCH   1  12
BRANCH   2  24
ATOM     24  O   UNL     1      65.819  43.860   7.542  1.00  0.00    -0.502 OA
ATOM     25  H   UNL     1      65.076  43.564   8.164  1.00  0.00     0.293 HD
ENDBRANCH   2  24
BRANCH   6  26
ATOM     26  O   UNL     1      65.737  48.987   8.987  1.00  0.00    -0.507 OA
ATOM     27  H   UNL     1      65.557  49.979   8.943  1.00  0.00     0.293 HD
ENDBRANCH   6  26
BRANCH   8  28
ATOM     28  O   UNL     1      70.348  49.650  10.080  1.00  0.00    -0.508 OA
ATOM     29  H   UNL     1      70.164  50.330  10.809  1.00  0.00     0.293 HD
ENDBRANCH   8  28
TORSDOF 7
ENDMDL
