MODEL 1
REMARK VINA RESULT:    -5.401      0.000      0.000
REMARK INTER + INTRA:          -5.874
REMARK INTER:                  -5.874
REMARK INTRA:                   0.000
REMARK UNBOUND:                 0.000
REMARK SMILES Cc1cc(O)c2c(c1)C(=O)c1cc(O)cc(O)c1C2=O
REMARK SMILES IDX 1 1 2 2 8 3 7 4 6 5 4 6 3 7 19 8 20 9 18 10 11 11 9 12 10 13
REMARK SMILES IDX 12 14 13 15 15 16 16 17 5 18 17 20 14 22
REMARK H PARENT 5 19 17 21 14 23
REMARK Flexibility Score: inf
ROOT
ATOM      1  C   UNL     1      14.959  28.048  39.743  1.00  0.00     0.044 C 
ATOM      2  C   UNL     1      16.293  27.779  40.376  1.00  0.00    -0.047 A 
ATOM      3  C   UNL     1      16.668  26.471  40.699  1.00  0.00     0.016 A 
ATOM      4  C   UNL     1      17.932  26.204  41.252  1.00  0.00     0.038 A 
ATOM      5  C   UNL     1      18.847  27.260  41.458  1.00  0.00     0.076 A 
ATOM      6  C   UNL     1      18.445  28.590  41.171  1.00  0.00     0.127 A 
ATOM      7  C   UNL     1      17.189  28.829  40.604  1.00  0.00     0.050 A 
ATOM      8  C   UNL     1      20.223  26.921  41.904  1.00  0.00     0.201 C 
ATOM      9  O   UNL     1      21.191  27.654  41.569  1.00  0.00    -0.288 OA
ATOM     10  C   UNL     1      20.480  25.622  42.579  1.00  0.00     0.076 A 
ATOM     11  C   UNL     1      19.563  24.568  42.370  1.00  0.00     0.041 A 
ATOM     12  C   UNL     1      18.309  24.819  41.622  1.00  0.00     0.194 C 
ATOM     13  O   UNL     1      17.550  23.856  41.321  1.00  0.00    -0.289 OA
ATOM     14  C   UNL     1      19.842  23.287  42.877  1.00  0.00     0.059 A 
ATOM     15  C   UNL     1      21.014  23.051  43.601  1.00  0.00     0.120 A 
ATOM     16  C   UNL     1      21.901  24.098  43.845  1.00  0.00     0.093 A 
ATOM     17  C   UNL     1      21.637  25.386  43.368  1.00  0.00     0.131 A 
ENDROOT
BRANCH   6  18
ATOM     18  O   UNL     1      19.242  29.700  41.461  1.00  0.00    -0.507 OA
ATOM     19  H   UNL     1      19.298  30.518  40.870  1.00  0.00     0.293 HD
ENDBRANCH   6  18
BRANCH  17  20
ATOM     20  O   UNL     1      22.526  26.402  43.729  1.00  0.00    -0.507 OA
ATOM     21  H   UNL     1      22.999  26.993  43.059  1.00  0.00     0.293 HD
ENDBRANCH  17  20
BRANCH  15  22
ATOM     22  O   UNL     1      21.299  21.780  44.095  1.00  0.00    -0.508 OA
ATOM     23  H   UNL     1      20.569  21.094  44.246  1.00  0.00     0.293 HD
ENDBRANCH  15  22
TORSDOF 3
ENDMDL
MODEL 2
REMARK VINA RESULT:    -5.009      1.983      6.071
REMARK INTER + INTRA:          -5.448
REMARK INTER:                  -5.448
REMARK INTRA:                   0.000
REMARK UNBOUND:                 0.000
REMARK SMILES Cc1cc(O)c2c(c1)C(=O)c1cc(O)cc(O)c1C2=O
REMARK SMILES IDX 1 1 2 2 8 3 7 4 6 5 4 6 3 7 19 8 20 9 18 10 11 11 9 12 10 13
REMARK SMILES IDX 12 14 13 15 15 16 16 17 5 18 17 20 14 22
REMARK H PARENT 5 19 17 21 14 23
REMARK Flexibility Score: inf
ROOT
ATOM      1  C   UNL     1      18.969  21.036  43.121  1.00  0.00     0.044 C 
ATOM      2  C   UNL     1      18.345  22.228  42.458  1.00  0.00    -0.047 A 
ATOM      3  C   UNL     1      19.008  23.460  42.457  1.00  0.00     0.016 A 
ATOM      4  C   UNL     1      18.452  24.572  41.801  1.00  0.00     0.038 A 
ATOM      5  C   UNL     1      17.227  24.441  41.110  1.00  0.00     0.076 A 
ATOM      6  C   UNL     1      16.538  23.202  41.152  1.00  0.00     0.127 A 
ATOM      7  C   UNL     1      17.119  22.105  41.795  1.00  0.00     0.050 A 
ATOM      8  C   UNL     1      16.748  25.595  40.306  1.00  0.00     0.201 C 
ATOM      9  O   UNL     1      16.052  25.397  39.275  1.00  0.00    -0.288 OA
ATOM     10  C   UNL     1      17.245  26.962  40.609  1.00  0.00     0.076 A 
ATOM     11  C   UNL     1      18.471  27.089  41.301  1.00  0.00     0.041 A 
ATOM     12  C   UNL     1      19.145  25.882  41.833  1.00  0.00     0.194 C 
ATOM     13  O   UNL     1      20.299  25.974  42.336  1.00  0.00    -0.289 OA
ATOM     14  C   UNL     1      19.042  28.359  41.485  1.00  0.00     0.059 A 
ATOM     15  C   UNL     1      18.399  29.503  41.002  1.00  0.00     0.120 A 
ATOM     16  C   UNL     1      17.169  29.386  40.356  1.00  0.00     0.093 A 
ATOM     17  C   UNL     1      16.570  28.135  40.177  1.00  0.00     0.131 A 
ENDROOT
BRANCH   6  18
ATOM     18  O   UNL     1      15.267  23.025  40.600  1.00  0.00    -0.507 OA
ATOM     19  H   UNL     1      14.612  23.780  40.451  1.00  0.00     0.293 HD
ENDBRANCH   6  18
BRANCH  17  20
ATOM     20  O   UNL     1      15.297  28.106  39.603  1.00  0.00    -0.507 OA
ATOM     21  H   UNL     1      15.094  28.461  38.678  1.00  0.00     0.293 HD
ENDBRANCH  17  20
BRANCH  15  22
ATOM     22  O   UNL     1      18.968  30.763  41.172  1.00  0.00    -0.508 OA
ATOM     23  H   UNL     1      19.724  30.919  41.828  1.00  0.00     0.293 HD
ENDBRANCH  15  22
TORSDOF 3
ENDMDL
MODEL 3
REMARK VINA RESULT:    -4.998      2.389      4.399
REMARK INTER + INTRA:          -5.436
REMARK INTER:                  -5.436
REMARK INTRA:                   0.000
REMARK UNBOUND:                 0.000
REMARK SMILES Cc1cc(O)c2c(c1)C(=O)c1cc(O)cc(O)c1C2=O
REMARK SMILES IDX 1 1 2 2 8 3 7 4 6 5 4 6 3 7 19 8 20 9 18 10 11 11 9 12 10 13
REMARK SMILES IDX 12 14 13 15 15 16 16 17 5 18 17 20 14 22
REMARK H PARENT 5 19 17 21 14 23
REMARK Flexibility Score: inf
ROOT
ATOM      1  C   UNL     1      12.726  25.376  36.911  1.00  0.00     0.044 C 
ATOM      2  C   UNL     1      13.632  26.209  37.768  1.00  0.00    -0.047 A 
ATOM      3  C   UNL     1      14.826  25.672  38.260  1.00  0.00     0.016 A 
ATOM      4  C   UNL     1      15.703  26.458  39.027  1.00  0.00     0.038 A 
ATOM      5  C   UNL     1      15.393  27.813  39.282  1.00  0.00     0.076 A 
ATOM      6  C   UNL     1      14.159  28.339  38.819  1.00  0.00     0.127 A 
ATOM      7  C   UNL     1      13.312  27.544  38.042  1.00  0.00     0.050 A 
ATOM      8  C   UNL     1      16.411  28.649  39.968  1.00  0.00     0.201 C 
ATOM      9  O   UNL     1      16.475  29.884  39.728  1.00  0.00    -0.288 OA
ATOM     10  C   UNL     1      17.468  28.001  40.787  1.00  0.00     0.076 A 
ATOM     11  C   UNL     1      17.776  26.646  40.528  1.00  0.00     0.041 A 
ATOM     12  C   UNL     1      16.950  25.871  39.571  1.00  0.00     0.194 C 
ATOM     13  O   UNL     1      17.297  24.704  39.240  1.00  0.00    -0.289 OA
ATOM     14  C   UNL     1      18.860  26.037  41.183  1.00  0.00     0.059 A 
ATOM     15  C   UNL     1      19.629  26.758  42.102  1.00  0.00     0.120 A 
ATOM     16  C   UNL     1      19.303  28.082  42.390  1.00  0.00     0.093 A 
ATOM     17  C   UNL     1      18.217  28.705  41.766  1.00  0.00     0.131 A 
ENDROOT
BRANCH   6  18
ATOM     18  O   UNL     1      13.722  29.628  39.134  1.00  0.00    -0.507 OA
ATOM     19  H   UNL     1      13.329  29.883  40.029  1.00  0.00     0.293 HD
ENDBRANCH   6  18
BRANCH  17  20
ATOM     20  O   UNL     1      17.897  30.002  42.173  1.00  0.00    -0.507 OA
ATOM     21  H   UNL     1      18.254  30.833  41.721  1.00  0.00     0.293 HD
ENDBRANCH  17  20
BRANCH  15  22
ATOM     22  O   UNL     1      20.711  26.162  42.744  1.00  0.00    -0.508 OA
ATOM     23  H   UNL     1      20.642  25.237  43.152  1.00  0.00     0.293 HD
ENDBRANCH  15  22
TORSDOF 3
ENDMDL
MODEL 4
REMARK VINA RESULT:    -4.937      1.859      5.878
REMARK INTER + INTRA:          -5.370
REMARK INTER:                  -5.370
REMARK INTRA:                   0.000
REMARK UNBOUND:                 0.000
REMARK SMILES Cc1cc(O)c2c(c1)C(=O)c1cc(O)cc(O)c1C2=O
REMARK SMILES IDX 1 1 2 2 8 3 7 4 6 5 4 6 3 7 19 8 20 9 18 10 11 11 9 12 10 13
REMARK SMILES IDX 12 14 13 15 15 16 16 17 5 18 17 20 14 22
REMARK H PARENT 5 19 17 21 14 23
REMARK Flexibility Score: inf
ROOT
ATOM      1  C   UNL     1      20.493  22.529  42.244  1.00  0.00     0.044 C 
ATOM      2  C   UNL     1      19.930  23.886  41.943  1.00  0.00    -0.047 A 
ATOM      3  C   UNL     1      18.618  24.016  41.474  1.00  0.00     0.016 A 
ATOM      4  C   UNL     1      18.066  25.285  41.230  1.00  0.00     0.038 A 
ATOM      5  C   UNL     1      18.830  26.445  41.486  1.00  0.00     0.076 A 
ATOM      6  C   UNL     1      20.175  26.307  41.918  1.00  0.00     0.127 A 
ATOM      7  C   UNL     1      20.696  25.035  42.172  1.00  0.00     0.050 A 
ATOM      8  C   UNL     1      18.164  27.767  41.358  1.00  0.00     0.201 C 
ATOM      9  O   UNL     1      18.541  28.732  42.074  1.00  0.00    -0.288 OA
ATOM     10  C   UNL     1      16.939  27.898  40.528  1.00  0.00     0.076 A 
ATOM     11  C   UNL     1      16.177  26.736  40.274  1.00  0.00     0.041 A 
ATOM     12  C   UNL     1      16.687  25.411  40.702  1.00  0.00     0.194 C 
ATOM     13  O   UNL     1      15.955  24.389  40.595  1.00  0.00    -0.289 OA
ATOM     14  C   UNL     1      14.942  26.839  39.612  1.00  0.00     0.059 A 
ATOM     15  C   UNL     1      14.467  28.083  39.188  1.00  0.00     0.120 A 
ATOM     16  C   UNL     1      15.234  29.227  39.400  1.00  0.00     0.093 A 
ATOM     17  C   UNL     1      16.476  29.149  40.039  1.00  0.00     0.131 A 
ENDROOT
BRANCH   6  18
ATOM     18  O   UNL     1      21.034  27.397  42.075  1.00  0.00    -0.507 OA
ATOM     19  H   UNL     1      21.818  27.404  42.713  1.00  0.00     0.293 HD
ENDBRANCH   6  18
BRANCH  17  20
ATOM     20  O   UNL     1      17.227  30.322  40.134  1.00  0.00    -0.507 OA
ATOM     21  H   UNL     1      16.962  31.192  39.694  1.00  0.00     0.293 HD
ENDBRANCH  17  20
BRANCH  15  22
ATOM     22  O   UNL     1      13.237  28.191  38.542  1.00  0.00    -0.508 OA
ATOM     23  H   UNL     1      13.167  28.526  37.588  1.00  0.00     0.293 HD
ENDBRANCH  15  22
TORSDOF 3
ENDMDL
MODEL 5
REMARK VINA RESULT:    -4.919      4.743      7.330
REMARK INTER + INTRA:          -5.350
REMARK INTER:                  -5.350
REMARK INTRA:                   0.000
REMARK UNBOUND:                 0.000
REMARK SMILES Cc1cc(O)c2c(c1)C(=O)c1cc(O)cc(O)c1C2=O
REMARK SMILES IDX 1 1 2 2 8 3 7 4 6 5 4 6 3 7 19 8 20 9 18 10 11 11 9 12 10 13
REMARK SMILES IDX 12 14 13 15 15 16 16 17 5 18 17 20 14 22
REMARK H PARENT 5 19 17 21 14 23
REMARK Flexibility Score: inf
ROOT
ATOM      1  C   UNL     1      22.268  30.861  38.344  1.00  0.00     0.044 C 
ATOM      2  C   UNL     1      20.889  30.412  38.725  1.00  0.00    -0.047 A 
ATOM      3  C   UNL     1      19.994  29.977  37.742  1.00  0.00     0.016 A 
ATOM      4  C   UNL     1      18.714  29.513  38.093  1.00  0.00     0.038 A 
ATOM      5  C   UNL     1      18.334  29.458  39.452  1.00  0.00     0.076 A 
ATOM      6  C   UNL     1      19.229  29.943  40.441  1.00  0.00     0.127 A 
ATOM      7  C   UNL     1      20.503  30.381  40.070  1.00  0.00     0.050 A 
ATOM      8  C   UNL     1      17.034  28.825  39.793  1.00  0.00     0.201 C 
ATOM      9  O   UNL     1      16.891  28.240  40.899  1.00  0.00    -0.288 OA
ATOM     10  C   UNL     1      15.972  28.718  38.758  1.00  0.00     0.076 A 
ATOM     11  C   UNL     1      16.356  28.773  37.400  1.00  0.00     0.041 A 
ATOM     12  C   UNL     1      17.761  29.085  37.042  1.00  0.00     0.194 C 
ATOM     13  O   UNL     1      18.137  29.009  35.840  1.00  0.00    -0.289 OA
ATOM     14  C   UNL     1      15.404  28.538  36.393  1.00  0.00     0.059 A 
ATOM     15  C   UNL     1      14.074  28.264  36.726  1.00  0.00     0.120 A 
ATOM     16  C   UNL     1      13.683  28.249  38.063  1.00  0.00     0.093 A 
ATOM     17  C   UNL     1      14.607  28.499  39.083  1.00  0.00     0.131 A 
ENDROOT
BRANCH   6  18
ATOM     18  O   UNL     1      18.884  30.037  41.791  1.00  0.00    -0.507 OA
ATOM     19  H   UNL     1      18.892  30.904  42.311  1.00  0.00     0.293 HD
ENDBRANCH   6  18
BRANCH  17  20
ATOM     20  O   UNL     1      14.123  28.558  40.392  1.00  0.00    -0.507 OA
ATOM     21  H   UNL     1      13.786  27.751  40.898  1.00  0.00     0.293 HD
ENDBRANCH  17  20
BRANCH  15  22
ATOM     22  O   UNL     1      13.130  28.019  35.731  1.00  0.00    -0.508 OA
ATOM     23  H   UNL     1      12.385  28.677  35.534  1.00  0.00     0.293 HD
ENDBRANCH  15  22
TORSDOF 3
ENDMDL
MODEL 6
REMARK VINA RESULT:    -4.916      2.194      5.002
REMARK INTER + INTRA:          -5.347
REMARK INTER:                  -5.347
REMARK INTRA:                   0.000
REMARK UNBOUND:                 0.000
REMARK SMILES Cc1cc(O)c2c(c1)C(=O)c1cc(O)cc(O)c1C2=O
REMARK SMILES IDX 1 1 2 2 8 3 7 4 6 5 4 6 3 7 19 8 20 9 18 10 11 11 9 12 10 13
REMARK SMILES IDX 12 14 13 15 15 16 16 17 5 18 17 20 14 22
REMARK H PARENT 5 19 17 21 14 23
REMARK Flexibility Score: inf
ROOT
ATOM      1  C   UNL     1      14.739  21.898  39.835  1.00  0.00     0.044 C 
ATOM      2  C   UNL     1      15.890  22.757  40.266  1.00  0.00    -0.047 A 
ATOM      3  C   UNL     1      15.765  24.151  40.271  1.00  0.00     0.016 A 
ATOM      4  C   UNL     1      16.822  24.963  40.715  1.00  0.00     0.038 A 
ATOM      5  C   UNL     1      18.013  24.371  41.190  1.00  0.00     0.076 A 
ATOM      6  C   UNL     1      18.151  22.959  41.141  1.00  0.00     0.127 A 
ATOM      7  C   UNL     1      17.079  22.171  40.713  1.00  0.00     0.050 A 
ATOM      8  C   UNL     1      19.047  25.254  41.788  1.00  0.00     0.201 C 
ATOM      9  O   UNL     1      19.802  24.813  42.694  1.00  0.00    -0.288 OA
ATOM     10  C   UNL     1      19.064  26.702  41.453  1.00  0.00     0.076 A 
ATOM     11  C   UNL     1      17.870  27.291  40.978  1.00  0.00     0.041 A 
ATOM     12  C   UNL     1      16.693  26.440  40.685  1.00  0.00     0.194 C 
ATOM     13  O   UNL     1      15.588  26.971  40.387  1.00  0.00    -0.289 OA
ATOM     14  C   UNL     1      17.806  28.681  40.782  1.00  0.00     0.059 A 
ATOM     15  C   UNL     1      18.920  29.485  41.038  1.00  0.00     0.120 A 
ATOM     16  C   UNL     1      20.112  28.903  41.466  1.00  0.00     0.093 A 
ATOM     17  C   UNL     1      20.208  27.520  41.651  1.00  0.00     0.131 A 
ENDROOT
BRANCH   6  18
ATOM     18  O   UNL     1      19.339  22.304  41.474  1.00  0.00    -0.507 OA
ATOM     19  H   UNL     1      19.858  21.725  40.830  1.00  0.00     0.293 HD
ENDBRANCH   6  18
BRANCH  17  20
ATOM     20  O   UNL     1      21.458  27.000  41.993  1.00  0.00    -0.507 OA
ATOM     21  H   UNL     1      22.005  27.331  42.776  1.00  0.00     0.293 HD
ENDBRANCH  17  20
BRANCH  15  22
ATOM     22  O   UNL     1      18.857  30.865  40.856  1.00  0.00    -0.508 OA
ATOM     23  H   UNL     1      18.094  31.298  40.349  1.00  0.00     0.293 HD
ENDBRANCH  15  22
TORSDOF 3
ENDMDL
MODEL 7
REMARK VINA RESULT:    -4.690      3.168      6.811
REMARK INTER + INTRA:          -5.102
REMARK INTER:                  -5.102
REMARK INTRA:                   0.000
REMARK UNBOUND:                 0.000
REMARK SMILES Cc1cc(O)c2c(c1)C(=O)c1cc(O)cc(O)c1C2=O
REMARK SMILES IDX 1 1 2 2 8 3 7 4 6 5 4 6 3 7 19 8 20 9 18 10 11 11 9 12 10 13
REMARK SMILES IDX 12 14 13 15 15 16 16 17 5 18 17 20 14 22
REMARK H PARENT 5 19 17 21 14 23
REMARK Flexibility Score: inf
ROOT
ATOM      1  C   UNL     1      19.844  26.162  42.640  1.00  0.00     0.044 C 
ATOM      2  C   UNL     1      18.767  26.698  41.743  1.00  0.00    -0.047 A 
ATOM      3  C   UNL     1      17.940  25.821  41.034  1.00  0.00     0.016 A 
ATOM      4  C   UNL     1      16.901  26.313  40.225  1.00  0.00     0.038 A 
ATOM      5  C   UNL     1      16.667  27.704  40.148  1.00  0.00     0.076 A 
ATOM      6  C   UNL     1      17.537  28.591  40.834  1.00  0.00     0.127 A 
ATOM      7  C   UNL     1      18.552  28.078  41.647  1.00  0.00     0.050 A 
ATOM      8  C   UNL     1      15.471  28.175  39.404  1.00  0.00     0.201 C 
ATOM      9  O   UNL     1      14.896  29.241  39.749  1.00  0.00    -0.288 OA
ATOM     10  C   UNL     1      14.845  27.296  38.382  1.00  0.00     0.076 A 
ATOM     11  C   UNL     1      15.081  25.905  38.462  1.00  0.00     0.041 A 
ATOM     12  C   UNL     1      16.051  25.378  39.451  1.00  0.00     0.194 C 
ATOM     13  O   UNL     1      16.169  24.132  39.616  1.00  0.00    -0.289 OA
ATOM     14  C   UNL     1      14.399  25.029  37.602  1.00  0.00     0.059 A 
ATOM     15  C   UNL     1      13.499  25.524  36.653  1.00  0.00     0.120 A 
ATOM     16  C   UNL     1      13.294  26.899  36.543  1.00  0.00     0.093 A 
ATOM     17  C   UNL     1      13.976  27.793  37.375  1.00  0.00     0.131 A 
ENDROOT
BRANCH   6  18
ATOM     18  O   UNL     1      17.451  29.979  40.711  1.00  0.00    -0.507 OA
ATOM     19  H   UNL     1      17.630  30.477  39.850  1.00  0.00     0.293 HD
ENDBRANCH   6  18
BRANCH  17  20
ATOM     20  O   UNL     1      13.788  29.158  37.145  1.00  0.00    -0.507 OA
ATOM     21  H   UNL     1      14.060  29.622  36.289  1.00  0.00     0.293 HD
ENDBRANCH  17  20
BRANCH  15  22
ATOM     22  O   UNL     1      12.812  24.658  35.806  1.00  0.00    -0.508 OA
ATOM     23  H   UNL     1      13.181  24.401  34.898  1.00  0.00     0.293 HD
ENDBRANCH  15  22
TORSDOF 3
ENDMDL
MODEL 8
REMARK VINA RESULT:    -4.652      3.142      5.426
REMARK INTER + INTRA:          -5.060
REMARK INTER:                  -5.060
REMARK INTRA:                   0.000
REMARK UNBOUND:                 0.000
REMARK SMILES Cc1cc(O)c2c(c1)C(=O)c1cc(O)cc(O)c1C2=O
REMARK SMILES IDX 1 1 2 2 8 3 7 4 6 5 4 6 3 7 19 8 20 9 18 10 11 11 9 12 10 13
REMARK SMILES IDX 12 14 13 15 15 16 16 17 5 18 17 20 14 22
REMARK H PARENT 5 19 17 21 14 23
REMARK Flexibility Score: inf
ROOT
ATOM      1  C   UNL     1      14.404  28.539  39.735  1.00  0.00     0.044 C 
ATOM      2  C   UNL     1      15.877  28.278  39.835  1.00  0.00    -0.047 A 
ATOM      3  C   UNL     1      16.786  29.112  39.174  1.00  0.00     0.016 A 
ATOM      4  C   UNL     1      18.171  28.902  39.297  1.00  0.00     0.038 A 
ATOM      5  C   UNL     1      18.654  27.860  40.118  1.00  0.00     0.076 A 
ATOM      6  C   UNL     1      17.728  26.990  40.750  1.00  0.00     0.127 A 
ATOM      7  C   UNL     1      16.356  27.230  40.629  1.00  0.00     0.050 A 
ATOM      8  C   UNL     1      20.120  27.763  40.341  1.00  0.00     0.201 C 
ATOM      9  O   UNL     1      20.561  27.295  41.424  1.00  0.00    -0.288 OA
ATOM     10  C   UNL     1      21.056  28.390  39.372  1.00  0.00     0.076 A 
ATOM     11  C   UNL     1      20.569  29.433  38.552  1.00  0.00     0.041 A 
ATOM     12  C   UNL     1      19.125  29.770  38.567  1.00  0.00     0.194 C 
ATOM     13  O   UNL     1      18.706  30.780  37.937  1.00  0.00    -0.289 OA
ATOM     14  C   UNL     1      21.453  30.143  37.723  1.00  0.00     0.059 A 
ATOM     15  C   UNL     1      22.812  29.816  37.691  1.00  0.00     0.120 A 
ATOM     16  C   UNL     1      23.289  28.761  38.467  1.00  0.00     0.093 A 
ATOM     17  C   UNL     1      22.426  28.026  39.285  1.00  0.00     0.131 A 
ENDROOT
BRANCH   6  18
ATOM     18  O   UNL     1      18.123  25.865  41.477  1.00  0.00    -0.507 OA
ATOM     19  H   UNL     1      18.974  25.820  42.019  1.00  0.00     0.293 HD
ENDBRANCH   6  18
BRANCH  17  20
ATOM     20  O   UNL     1      22.959  26.927  39.963  1.00  0.00    -0.507 OA
ATOM     21  H   UNL     1      23.740  26.990  40.601  1.00  0.00     0.293 HD
ENDBRANCH  17  20
BRANCH  15  22
ATOM     22  O   UNL     1      23.694  30.525  36.879  1.00  0.00    -0.508 OA
ATOM     23  H   UNL     1      24.566  30.894  37.239  1.00  0.00     0.293 HD
ENDBRANCH  15  22
TORSDOF 3
ENDMDL
MODEL 9
REMARK VINA RESULT:    -4.650      1.642      5.337
REMARK INTER + INTRA:          -5.058
REMARK INTER:                  -5.058
REMARK INTRA:                   0.000
REMARK UNBOUND:                 0.000
REMARK SMILES Cc1cc(O)c2c(c1)C(=O)c1cc(O)cc(O)c1C2=O
REMARK SMILES IDX 1 1 2 2 8 3 7 4 6 5 4 6 3 7 19 8 20 9 18 10 11 11 9 12 10 13
REMARK SMILES IDX 12 14 13 15 15 16 16 17 5 18 17 20 14 22
REMARK H PARENT 5 19 17 21 14 23
REMARK Flexibility Score: inf
ROOT
ATOM      1  C   UNL     1      18.441  20.762  41.440  1.00  0.00     0.044 C 
ATOM      2  C   UNL     1      18.898  22.189  41.510  1.00  0.00    -0.047 A 
ATOM      3  C   UNL     1      17.996  23.229  41.260  1.00  0.00     0.016 A 
ATOM      4  C   UNL     1      18.403  24.571  41.366  1.00  0.00     0.038 A 
ATOM      5  C   UNL     1      19.726  24.875  41.756  1.00  0.00     0.076 A 
ATOM      6  C   UNL     1      20.648  23.817  41.963  1.00  0.00     0.127 A 
ATOM      7  C   UNL     1      20.215  22.491  41.871  1.00  0.00     0.050 A 
ATOM      8  C   UNL     1      20.076  26.299  42.000  1.00  0.00     0.201 C 
ATOM      9  O   UNL     1      20.962  26.591  42.846  1.00  0.00    -0.288 OA
ATOM     10  C   UNL     1      19.254  27.376  41.390  1.00  0.00     0.076 A 
ATOM     11  C   UNL     1      17.931  27.067  41.001  1.00  0.00     0.041 A 
ATOM     12  C   UNL     1      17.450  25.666  41.068  1.00  0.00     0.194 C 
ATOM     13  O   UNL     1      16.236  25.404  40.848  1.00  0.00    -0.289 OA
ATOM     14  C   UNL     1      17.078  28.087  40.549  1.00  0.00     0.059 A 
ATOM     15  C   UNL     1      17.533  29.406  40.465  1.00  0.00     0.120 A 
ATOM     16  C   UNL     1      18.850  29.708  40.808  1.00  0.00     0.093 A 
ATOM     17  C   UNL     1      19.725  28.707  41.242  1.00  0.00     0.131 A 
ENDROOT
BRANCH   6  18
ATOM     18  O   UNL     1      22.002  24.035  42.229  1.00  0.00    -0.507 OA
ATOM     19  H   UNL     1      22.507  23.573  42.972  1.00  0.00     0.293 HD
ENDBRANCH   6  18
BRANCH  17  20
ATOM     20  O   UNL     1      21.052  29.070  41.480  1.00  0.00    -0.507 OA
ATOM     21  H   UNL     1      21.839  28.462  41.295  1.00  0.00     0.293 HD
ENDBRANCH  17  20
BRANCH  15  22
ATOM     22  O   UNL     1      16.687  30.423  40.029  1.00  0.00    -0.508 OA
ATOM     23  H   UNL     1      15.686  30.384  40.184  1.00  0.00     0.293 HD
ENDBRANCH  15  22
TORSDOF 3
ENDMDL
