MODEL 1
REMARK VINA RESULT:    -3.709      0.000      0.000
REMARK INTER + INTRA:          -5.602
REMARK INTER:                  -5.661
REMARK INTRA:                   0.059
REMARK UNBOUND:                 0.059
REMARK SMILES CC1=CCC[C@H](C)C(=O)C[C@H](C(C)C)C(=O)C1
REMARK SMILES IDX 8 1 9 2 6 3 7 4 5 5 4 6 3 7 2 8 1 9 10 11 11 12 15 13 16 14
REMARK SMILES IDX 17 15 12 17 13 18 14 19
REMARK H PARENT
REMARK Flexibility Score: 70.00
ROOT
ATOM      1  C   UNL     1      -7.350  71.115  23.580  1.00  0.00     0.136 C 
ATOM      2  O   UNL     1      -7.457  70.371  22.616  1.00  0.00    -0.299 OA
ENDROOT
BRANCH   1   3
ATOM      3  C   UNL     1      -5.976  71.611  24.007  1.00  0.00     0.053 C 
ATOM      4  C   UNL     1      -5.260  70.555  24.863  1.00  0.00     0.016 C 
BRANCH   3   5
ATOM      5  C   UNL     1      -5.123  71.992  22.773  1.00  0.00     0.015 C 
BRANCH   5   6
ATOM      6  C   UNL     1      -5.363  73.446  22.318  1.00  0.00     0.028 C 
BRANCH   6   7
ATOM      7  C   UNL     1      -6.305  73.506  21.142  1.00  0.00    -0.028 C 
ATOM      8  C   UNL     1      -7.562  74.007  21.187  1.00  0.00    -0.070 CG0
ATOM      9  C   UNL     1      -8.393  73.944  19.930  1.00  0.00     0.039 C 
ATOM     10  G   UNL     1      -8.164  74.623  22.442  1.00  0.00     0.000 G0
ENDBRANCH   6   7
ENDBRANCH   5   6
ENDBRANCH   3   5
ENDBRANCH   1   3
BRANCH   1  11
ATOM     11  C   UNL     1      -8.595  71.546  24.320  1.00  0.00     0.087 C 
BRANCH  11  12
ATOM     12  C   UNL     1      -8.738  73.087  24.485  1.00  0.00     0.066 C 
BRANCH  12  13
ATOM     13  C   UNL     1      -9.113  73.732  23.157  1.00  0.00     0.140 C 
ATOM     14  O   UNL     1     -10.231  73.556  22.693  1.00  0.00    -0.299 OA
BRANCH  13  15
ATOM     15  C   UNL     1      -8.146  74.639  22.441  1.00  0.00     0.106 CG0
ATOM     16  G   UNL     1      -7.592  74.004  21.172  1.00  0.00     0.000 G0
ENDBRANCH  13  15
ENDBRANCH  12  13
BRANCH  12  17
ATOM     17  C   UNL     1      -9.706  73.533  25.632  1.00  0.00    -0.006 C 
ATOM     18  C   UNL     1     -10.194  74.977  25.404  1.00  0.00     0.008 C 
ATOM     19  C   UNL     1      -9.059  73.445  27.026  1.00  0.00     0.008 C 
ENDBRANCH  12  17
ENDBRANCH  11  12
ENDBRANCH   1  11
TORSDOF 1
ENDMDL
MODEL 2
REMARK VINA RESULT:    -3.633      2.131      4.358
REMARK INTER + INTRA:          -5.485
REMARK INTER:                  -5.342
REMARK INTRA:                  -0.143
REMARK UNBOUND:                 0.059
REMARK SMILES CC1=CCC[C@H](C)C(=O)C[C@H](C(C)C)C(=O)C1
REMARK SMILES IDX 8 1 9 2 6 3 7 4 5 5 4 6 3 7 2 8 1 9 10 11 11 12 15 13 16 14
REMARK SMILES IDX 17 15 12 17 13 18 14 19
REMARK H PARENT
REMARK Flexibility Score: 70.00
ROOT
ATOM      1  C   UNL     1      -8.052  72.397  24.105  1.00  0.00     0.136 C 
ATOM      2  O   UNL     1      -8.626  72.626  25.161  1.00  0.00    -0.299 OA
ENDROOT
BRANCH   1   3
ATOM      3  C   UNL     1      -8.720  72.751  22.785  1.00  0.00     0.053 C 
ATOM      4  C   UNL     1     -10.202  73.091  23.002  1.00  0.00     0.016 C 
BRANCH   3   5
ATOM      5  C   UNL     1      -7.981  73.921  22.092  1.00  0.00     0.015 C 
BRANCH   5   6
ATOM      6  C   UNL     1      -7.713  73.645  20.598  1.00  0.00     0.028 C 
BRANCH   6   7
ATOM      7  C   UNL     1      -6.291  73.982  20.224  1.00  0.00    -0.028 C 
ATOM      8  C   UNL     1      -5.259  73.106  20.253  1.00  0.00    -0.070 CG0
ATOM      9  C   UNL     1      -3.886  73.619  19.896  1.00  0.00     0.039 C 
ATOM     10  G   UNL     1      -5.426  71.640  20.629  1.00  0.00     0.000 G0
ENDBRANCH   6   7
ENDBRANCH   5   6
ENDBRANCH   3   5
ENDBRANCH   1   3
BRANCH   1  11
ATOM     11  C   UNL     1      -6.672  71.781  24.136  1.00  0.00     0.087 C 
BRANCH  11  12
ATOM     12  C   UNL     1      -6.374  70.825  22.945  1.00  0.00     0.066 C 
BRANCH  12  13
ATOM     13  C   UNL     1      -5.226  71.364  22.102  1.00  0.00     0.140 C 
ATOM     14  O   UNL     1      -4.132  71.551  22.617  1.00  0.00    -0.299 OA
BRANCH  13  15
ATOM     15  C   UNL     1      -5.404  71.610  20.625  1.00  0.00     0.106 CG0
ATOM     16  G   UNL     1      -5.282  73.085  20.268  1.00  0.00     0.000 G0
ENDBRANCH  13  15
ENDBRANCH  12  13
BRANCH  12  17
ATOM     17  C   UNL     1      -6.132  69.332  23.352  1.00  0.00    -0.006 C 
ATOM     18  C   UNL     1      -7.441  68.523  23.266  1.00  0.00     0.008 C 
ATOM     19  C   UNL     1      -5.556  69.188  24.773  1.00  0.00     0.008 C 
ENDBRANCH  12  17
ENDBRANCH  11  12
ENDBRANCH   1  11
TORSDOF 1
ENDMDL
MODEL 3
REMARK VINA RESULT:    -3.457      1.779      2.591
REMARK INTER + INTRA:          -5.216
REMARK INTER:                  -5.457
REMARK INTRA:                   0.241
REMARK UNBOUND:                 0.059
REMARK SMILES CC1=CCC[C@H](C)C(=O)C[C@H](C(C)C)C(=O)C1
REMARK SMILES IDX 8 1 9 2 6 3 7 4 5 5 4 6 3 7 2 8 1 9 10 11 11 12 15 13 16 14
REMARK SMILES IDX 17 15 12 17 13 18 14 19
REMARK H PARENT
REMARK Flexibility Score: 70.00
ROOT
ATOM      1  C   UNL     1      -6.988  71.800  24.604  1.00  0.00     0.136 C 
ATOM      2  O   UNL     1      -7.155  72.256  25.727  1.00  0.00    -0.299 OA
ENDROOT
BRANCH   1   3
ATOM      3  C   UNL     1      -5.719  71.026  24.281  1.00  0.00     0.053 C 
ATOM      4  C   UNL     1      -4.999  70.602  25.570  1.00  0.00     0.016 C 
BRANCH   3   5
ATOM      5  C   UNL     1      -6.038  69.795  23.397  1.00  0.00     0.015 C 
BRANCH   5   6
ATOM      6  C   UNL     1      -5.637  70.010  21.923  1.00  0.00     0.028 C 
BRANCH   6   7
ATOM      7  C   UNL     1      -4.950  71.338  21.728  1.00  0.00    -0.028 C 
ATOM      8  C   UNL     1      -5.555  72.458  21.267  1.00  0.00    -0.070 CG0
ATOM      9  C   UNL     1      -4.710  73.693  21.081  1.00  0.00     0.039 C 
ATOM     10  G   UNL     1      -7.038  72.519  20.929  1.00  0.00     0.000 G0
ENDBRANCH   6   7
ENDBRANCH   5   6
ENDBRANCH   3   5
ENDBRANCH   1   3
BRANCH   1  11
ATOM     11  C   UNL     1      -8.062  72.000  23.560  1.00  0.00     0.087 C 
BRANCH  11  12
ATOM     12  C   UNL     1      -8.242  73.477  23.106  1.00  0.00     0.066 C 
BRANCH  12  13
ATOM     13  C   UNL     1      -7.750  73.658  21.676  1.00  0.00     0.140 C 
ATOM     14  O   UNL     1      -7.869  74.746  21.127  1.00  0.00    -0.299 OA
BRANCH  13  15
ATOM     15  C   UNL     1      -7.060  72.532  20.950  1.00  0.00     0.106 CG0
ATOM     16  G   UNL     1      -5.573  72.465  21.272  1.00  0.00     0.000 G0
ENDBRANCH  13  15
ENDBRANCH  12  13
BRANCH  12  17
ATOM     17  C   UNL     1      -9.691  74.043  23.288  1.00  0.00    -0.006 C 
ATOM     18  C   UNL     1      -9.899  74.561  24.724  1.00  0.00     0.008 C 
ATOM     19  C   UNL     1     -10.781  73.001  22.977  1.00  0.00     0.008 C 
ENDBRANCH  12  17
ENDBRANCH  11  12
ENDBRANCH   1  11
TORSDOF 1
ENDMDL
MODEL 4
REMARK VINA RESULT:    -3.314     11.588     12.939
REMARK INTER + INTRA:          -4.998
REMARK INTER:                  -4.921
REMARK INTRA:                  -0.077
REMARK UNBOUND:                 0.059
REMARK SMILES CC1=CCC[C@H](C)C(=O)C[C@H](C(C)C)C(=O)C1
REMARK SMILES IDX 8 1 9 2 6 3 7 4 5 5 4 6 3 7 2 8 1 9 10 11 11 12 15 13 16 14
REMARK SMILES IDX 17 15 12 17 13 18 14 19
REMARK H PARENT
REMARK Flexibility Score: 70.00
ROOT
ATOM      1  C   UNL     1      -5.047  69.548  36.359  1.00  0.00     0.136 C 
ATOM      2  O   UNL     1      -5.623  70.535  36.793  1.00  0.00    -0.299 OA
ENDROOT
BRANCH   1   3
ATOM      3  C   UNL     1      -3.559  69.611  36.048  1.00  0.00     0.053 C 
ATOM      4  C   UNL     1      -2.737  69.685  37.343  1.00  0.00     0.016 C 
BRANCH   3   5
ATOM      5  C   UNL     1      -3.126  68.399  35.188  1.00  0.00     0.015 C 
BRANCH   5   6
ATOM      6  C   UNL     1      -3.366  68.631  33.682  1.00  0.00     0.028 C 
BRANCH   6   7
ATOM      7  C   UNL     1      -3.564  67.328  32.950  1.00  0.00    -0.028 C 
ATOM      8  C   UNL     1      -4.761  66.853  32.532  1.00  0.00    -0.070 CG0
ATOM      9  C   UNL     1      -4.791  65.504  31.858  1.00  0.00     0.039 C 
ATOM     10  G   UNL     1      -6.065  67.617  32.715  1.00  0.00     0.000 G0
ENDBRANCH   6   7
ENDBRANCH   5   6
ENDBRANCH   3   5
ENDBRANCH   1   3
BRANCH   1  11
ATOM     11  C   UNL     1      -5.828  68.269  36.159  1.00  0.00     0.087 C 
BRANCH  11  12
ATOM     12  C   UNL     1      -6.949  68.369  35.084  1.00  0.00     0.066 C 
BRANCH  12  13
ATOM     13  C   UNL     1      -6.763  67.297  34.018  1.00  0.00     0.140 C 
ATOM     14  O   UNL     1      -7.226  66.178  34.197  1.00  0.00    -0.299 OA
BRANCH  13  15
ATOM     15  C   UNL     1      -6.072  67.616  32.717  1.00  0.00     0.106 CG0
ATOM     16  G   UNL     1      -4.760  66.859  32.561  1.00  0.00     0.000 G0
ENDBRANCH  13  15
ENDBRANCH  12  13
BRANCH  12  17
ATOM     17  C   UNL     1      -8.406  68.357  35.659  1.00  0.00    -0.006 C 
ATOM     18  C   UNL     1      -8.992  69.782  35.690  1.00  0.00     0.008 C 
ATOM     19  C   UNL     1      -8.482  67.761  37.076  1.00  0.00     0.008 C 
ENDBRANCH  12  17
ENDBRANCH  11  12
ENDBRANCH   1  11
TORSDOF 1
ENDMDL
MODEL 5
REMARK VINA RESULT:    -3.294      4.273      6.869
REMARK INTER + INTRA:          -4.968
REMARK INTER:                  -4.832
REMARK INTRA:                  -0.136
REMARK UNBOUND:                 0.059
REMARK SMILES CC1=CCC[C@H](C)C(=O)C[C@H](C(C)C)C(=O)C1
REMARK SMILES IDX 8 1 9 2 6 3 7 4 5 5 4 6 3 7 2 8 1 9 10 11 11 12 15 13 16 14
REMARK SMILES IDX 17 15 12 17 13 18 14 19
REMARK H PARENT
REMARK Flexibility Score: 70.00
ROOT
ATOM      1  C   UNL     1      -5.980  70.744  24.558  1.00  0.00     0.136 C 
ATOM      2  O   UNL     1      -6.067  71.725  25.283  1.00  0.00    -0.299 OA
ENDROOT
BRANCH   1   3
ATOM      3  C   UNL     1      -7.036  70.493  23.492  1.00  0.00     0.053 C 
ATOM      4  C   UNL     1      -7.254  71.750  22.636  1.00  0.00     0.016 C 
BRANCH   3   5
ATOM      5  C   UNL     1      -6.644  69.285  22.606  1.00  0.00     0.015 C 
BRANCH   5   6
ATOM      6  C   UNL     1      -7.505  68.038  22.897  1.00  0.00     0.028 C 
BRANCH   6   7
ATOM      7  C   UNL     1      -6.728  66.767  22.667  1.00  0.00    -0.028 C 
ATOM      8  C   UNL     1      -6.029  66.107  23.621  1.00  0.00    -0.070 CG0
ATOM      9  C   UNL     1      -5.262  64.875  23.211  1.00  0.00     0.039 C 
ATOM     10  G   UNL     1      -5.986  66.556  25.075  1.00  0.00     0.000 G0
ENDBRANCH   6   7
ENDBRANCH   5   6
ENDBRANCH   3   5
ENDBRANCH   1   3
BRANCH   1  11
ATOM     11  C   UNL     1      -4.806  69.807  24.724  1.00  0.00     0.087 C 
BRANCH  11  12
ATOM     12  C   UNL     1      -4.949  68.811  25.910  1.00  0.00     0.066 C 
BRANCH  12  13
ATOM     13  C   UNL     1      -4.780  67.377  25.425  1.00  0.00     0.140 C 
ATOM     14  O   UNL     1      -3.660  66.888  25.357  1.00  0.00    -0.299 OA
BRANCH  13  15
ATOM     15  C   UNL     1      -5.981  66.530  25.090  1.00  0.00     0.106 CG0
ATOM     16  G   UNL     1      -6.008  66.126  23.622  1.00  0.00     0.000 G0
ENDBRANCH  13  15
ENDBRANCH  12  13
BRANCH  12  17
ATOM     17  C   UNL     1      -4.018  69.115  27.133  1.00  0.00    -0.006 C 
ATOM     18  C   UNL     1      -4.846  69.565  28.352  1.00  0.00     0.008 C 
ATOM     19  C   UNL     1      -2.965  70.194  26.825  1.00  0.00     0.008 C 
ENDBRANCH  12  17
ENDBRANCH  11  12
ENDBRANCH   1  11
TORSDOF 1
ENDMDL
MODEL 6
REMARK VINA RESULT:    -3.250      1.794      3.997
REMARK INTER + INTRA:          -4.901
REMARK INTER:                  -5.019
REMARK INTRA:                   0.118
REMARK UNBOUND:                 0.059
REMARK SMILES CC1=CCC[C@H](C)C(=O)C[C@H](C(C)C)C(=O)C1
REMARK SMILES IDX 8 1 9 2 6 3 7 4 5 5 4 6 3 7 2 8 1 9 10 11 11 12 15 13 16 14
REMARK SMILES IDX 17 15 12 17 13 18 14 19
REMARK H PARENT
REMARK Flexibility Score: 70.00
ROOT
ATOM      1  C   UNL     1      -8.914  72.542  23.845  1.00  0.00     0.136 C 
ATOM      2  O   UNL     1     -10.082  72.507  24.204  1.00  0.00    -0.299 OA
ENDROOT
BRANCH   1   3
ATOM      3  C   UNL     1      -7.819  72.857  24.852  1.00  0.00     0.053 C 
ATOM      4  C   UNL     1      -8.425  73.252  26.207  1.00  0.00     0.016 C 
BRANCH   3   5
ATOM      5  C   UNL     1      -6.855  71.656  25.008  1.00  0.00     0.015 C 
BRANCH   5   6
ATOM      6  C   UNL     1      -5.377  72.061  24.838  1.00  0.00     0.028 C 
BRANCH   6   7
ATOM      7  C   UNL     1      -4.731  71.318  23.695  1.00  0.00    -0.028 C 
ATOM      8  C   UNL     1      -4.695  71.756  22.414  1.00  0.00    -0.070 CG0
ATOM      9  C   UNL     1      -4.054  70.865  21.380  1.00  0.00     0.039 C 
ATOM     10  G   UNL     1      -5.272  73.096  21.980  1.00  0.00     0.000 G0
ENDBRANCH   6   7
ENDBRANCH   5   6
ENDBRANCH   3   5
ENDBRANCH   1   3
BRANCH   1  11
ATOM     11  C   UNL     1      -8.579  72.250  22.400  1.00  0.00     0.087 C 
BRANCH  11  12
ATOM     12  C   UNL     1      -7.865  73.419  21.662  1.00  0.00     0.066 C 
BRANCH  12  13
ATOM     13  C   UNL     1      -6.512  72.965  21.129  1.00  0.00     0.140 C 
ATOM     14  O   UNL     1      -6.425  72.530  19.989  1.00  0.00    -0.299 OA
BRANCH  13  15
ATOM     15  C   UNL     1      -5.267  73.107  21.967  1.00  0.00     0.106 CG0
ATOM     16  G   UNL     1      -4.713  71.759  22.408  1.00  0.00     0.000 G0
ENDBRANCH  13  15
ENDBRANCH  12  13
BRANCH  12  17
ATOM     17  C   UNL     1      -8.721  74.102  20.543  1.00  0.00    -0.006 C 
ATOM     18  C   UNL     1      -7.934  75.248  19.876  1.00  0.00     0.008 C 
ATOM     19  C   UNL     1     -10.054  74.661  21.071  1.00  0.00     0.008 C 
ENDBRANCH  12  17
ENDBRANCH  11  12
ENDBRANCH   1  11
TORSDOF 1
ENDMDL
MODEL 7
REMARK VINA RESULT:    -3.209      3.127      5.075
REMARK INTER + INTRA:          -4.838
REMARK INTER:                  -5.078
REMARK INTRA:                   0.240
REMARK UNBOUND:                 0.059
REMARK SMILES CC1=CCC[C@H](C)C(=O)C[C@H](C(C)C)C(=O)C1
REMARK SMILES IDX 8 1 9 2 6 3 7 4 5 5 4 6 3 7 2 8 1 9 10 11 11 12 15 13 16 14
REMARK SMILES IDX 17 15 12 17 13 18 14 19
REMARK H PARENT
REMARK Flexibility Score: 70.00
ROOT
ATOM      1  C   UNL     1      -4.529  71.301  25.170  1.00  0.00     0.136 C 
ATOM      2  O   UNL     1      -3.822  72.224  24.789  1.00  0.00    -0.299 OA
ENDROOT
BRANCH   1   3
ATOM      3  C   UNL     1      -3.907  70.121  25.902  1.00  0.00     0.053 C 
ATOM      4  C   UNL     1      -4.650  69.846  27.218  1.00  0.00     0.016 C 
BRANCH   3   5
ATOM      5  C   UNL     1      -3.895  68.861  25.001  1.00  0.00     0.015 C 
BRANCH   5   6
ATOM      6  C   UNL     1      -5.061  67.902  25.316  1.00  0.00     0.028 C 
BRANCH   6   7
ATOM      7  C   UNL     1      -5.499  67.147  24.087  1.00  0.00    -0.028 C 
ATOM      8  C   UNL     1      -6.443  67.573  23.215  1.00  0.00    -0.070 CG0
ATOM      9  C   UNL     1      -6.801  66.671  22.061  1.00  0.00     0.039 C 
ATOM     10  G   UNL     1      -7.153  68.913  23.354  1.00  0.00     0.000 G0
ENDBRANCH   6   7
ENDBRANCH   5   6
ENDBRANCH   3   5
ENDBRANCH   1   3
BRANCH   1  11
ATOM     11  C   UNL     1      -6.019  71.363  24.922  1.00  0.00     0.087 C 
BRANCH  11  12
ATOM     12  C   UNL     1      -6.411  71.445  23.418  1.00  0.00     0.066 C 
BRANCH  12  13
ATOM     13  C   UNL     1      -6.353  70.065  22.776  1.00  0.00     0.140 C 
ATOM     14  O   UNL     1      -5.607  69.870  21.826  1.00  0.00    -0.299 OA
BRANCH  13  15
ATOM     15  C   UNL     1      -7.157  68.920  23.337  1.00  0.00     0.106 CG0
ATOM     16  G   UNL     1      -6.440  67.586  23.189  1.00  0.00     0.000 G0
ENDBRANCH  13  15
ENDBRANCH  12  13
BRANCH  12  17
ATOM     17  C   UNL     1      -7.782  72.149  23.140  1.00  0.00    -0.006 C 
ATOM     18  C   UNL     1      -7.605  73.323  22.158  1.00  0.00     0.008 C 
ATOM     19  C   UNL     1      -8.452  72.675  24.423  1.00  0.00     0.008 C 
ENDBRANCH  12  17
ENDBRANCH  11  12
ENDBRANCH   1  11
TORSDOF 1
ENDMDL
MODEL 8
REMARK VINA RESULT:    -3.084      1.686      3.786
REMARK INTER + INTRA:          -4.647
REMARK INTER:                  -4.953
REMARK INTRA:                   0.306
REMARK UNBOUND:                 0.059
REMARK SMILES CC1=CCC[C@H](C)C(=O)C[C@H](C(C)C)C(=O)C1
REMARK SMILES IDX 8 1 9 2 6 3 7 4 5 5 4 6 3 7 2 8 1 9 10 11 11 12 15 13 16 14
REMARK SMILES IDX 17 15 12 17 13 18 14 19
REMARK H PARENT
REMARK Flexibility Score: 70.00
ROOT
ATOM      1  C   UNL     1      -8.667  74.039  21.352  1.00  0.00     0.136 C 
ATOM      2  O   UNL     1      -9.870  74.244  21.269  1.00  0.00    -0.299 OA
ENDROOT
BRANCH   1   3
ATOM      3  C   UNL     1      -7.813  74.014  20.094  1.00  0.00     0.053 C 
ATOM      4  C   UNL     1      -7.035  75.330  19.940  1.00  0.00     0.016 C 
BRANCH   3   5
ATOM      5  C   UNL     1      -6.849  72.802  20.109  1.00  0.00     0.015 C 
BRANCH   5   6
ATOM      6  C   UNL     1      -5.432  73.183  20.585  1.00  0.00     0.028 C 
BRANCH   6   7
ATOM      7  C   UNL     1      -4.723  72.002  21.198  1.00  0.00    -0.028 C 
ATOM      8  C   UNL     1      -4.834  71.624  22.493  1.00  0.00    -0.070 CG0
ATOM      9  C   UNL     1      -4.014  70.447  22.960  1.00  0.00     0.039 C 
ATOM     10  G   UNL     1      -5.742  72.334  23.489  1.00  0.00     0.000 G0
ENDBRANCH   6   7
ENDBRANCH   5   6
ENDBRANCH   3   5
ENDBRANCH   1   3
BRANCH   1  11
ATOM     11  C   UNL     1      -8.048  73.832  22.715  1.00  0.00     0.087 C 
BRANCH  11  12
ATOM     12  C   UNL     1      -8.375  72.455  23.362  1.00  0.00     0.066 C 
BRANCH  12  13
ATOM     13  C   UNL     1      -7.096  71.668  23.616  1.00  0.00     0.140 C 
ATOM     14  O   UNL     1      -7.160  70.473  23.871  1.00  0.00    -0.299 OA
BRANCH  13  15
ATOM     15  C   UNL     1      -5.747  72.330  23.494  1.00  0.00     0.106 CG0
ATOM     16  G   UNL     1      -4.839  71.609  22.507  1.00  0.00     0.000 G0
ENDBRANCH  13  15
ENDBRANCH  12  13
BRANCH  12  17
ATOM     17  C   UNL     1      -9.263  72.534  24.650  1.00  0.00    -0.006 C 
ATOM     18  C   UNL     1     -10.514  73.397  24.398  1.00  0.00     0.008 C 
ATOM     19  C   UNL     1      -8.505  73.105  25.862  1.00  0.00     0.008 C 
ENDBRANCH  12  17
ENDBRANCH  11  12
ENDBRANCH   1  11
TORSDOF 1
ENDMDL
MODEL 9
REMARK VINA RESULT:    -2.855     12.321     14.155
REMARK INTER + INTRA:          -4.298
REMARK INTER:                  -3.967
REMARK INTRA:                  -0.330
REMARK UNBOUND:                 0.059
REMARK SMILES CC1=CCC[C@H](C)C(=O)C[C@H](C(C)C)C(=O)C1
REMARK SMILES IDX 8 1 9 2 6 3 7 4 5 5 4 6 3 7 2 8 1 9 10 11 11 12 15 13 16 14
REMARK SMILES IDX 17 15 12 17 13 18 14 19
REMARK H PARENT
REMARK Flexibility Score: 70.00
ROOT
ATOM      1  C   UNL     1      -6.240  68.381  37.252  1.00  0.00     0.136 C 
ATOM      2  O   UNL     1      -5.950  68.241  38.432  1.00  0.00    -0.299 OA
ENDROOT
BRANCH   1   3
ATOM      3  C   UNL     1      -7.485  67.711  36.693  1.00  0.00     0.053 C 
ATOM      4  C   UNL     1      -8.147  68.598  35.628  1.00  0.00     0.016 C 
BRANCH   3   5
ATOM      5  C   UNL     1      -7.145  66.315  36.114  1.00  0.00     0.015 C 
BRANCH   5   6
ATOM      6  C   UNL     1      -7.068  66.320  34.574  1.00  0.00     0.028 C 
BRANCH   6   7
ATOM      7  C   UNL     1      -5.761  65.748  34.087  1.00  0.00    -0.028 C 
ATOM      8  C   UNL     1      -4.724  66.484  33.621  1.00  0.00    -0.070 CG0
ATOM      9  C   UNL     1      -3.503  65.751  33.123  1.00  0.00     0.039 C 
ATOM     10  G   UNL     1      -4.742  68.006  33.577  1.00  0.00     0.000 G0
ENDBRANCH   6   7
ENDBRANCH   5   6
ENDBRANCH   3   5
ENDBRANCH   1   3
BRANCH   1  11
ATOM     11  C   UNL     1      -5.359  69.239  36.374  1.00  0.00     0.087 C 
BRANCH  11  12
ATOM     12  C   UNL     1      -3.984  68.597  36.029  1.00  0.00     0.066 C 
BRANCH  12  13
ATOM     13  C   UNL     1      -3.745  68.626  34.525  1.00  0.00     0.140 C 
ATOM     14  O   UNL     1      -2.709  69.106  34.085  1.00  0.00    -0.299 OA
BRANCH  13  15
ATOM     15  C   UNL     1      -4.740  68.011  33.575  1.00  0.00     0.106 CG0
ATOM     16  G   UNL     1      -4.724  66.490  33.629  1.00  0.00     0.000 G0
ENDBRANCH  13  15
ENDBRANCH  12  13
BRANCH  12  17
ATOM     17  C   UNL     1      -2.769  69.198  36.813  1.00  0.00    -0.006 C 
ATOM     18  C   UNL     1      -2.221  68.182  37.834  1.00  0.00     0.008 C 
ATOM     19  C   UNL     1      -3.123  70.500  37.554  1.00  0.00     0.008 C 
ENDBRANCH  12  17
ENDBRANCH  11  12
ENDBRANCH   1  11
TORSDOF 1
ENDMDL
