MODEL 1
REMARK VINA RESULT:    -4.327      0.000      0.000
REMARK INTER + INTRA:          -5.734
REMARK INTER:                  -5.339
REMARK INTRA:                  -0.396
REMARK UNBOUND:                -0.396
REMARK SMILES COC(=O)c1ccccc1C(=O)OC
REMARK SMILES IDX 5 1 6 2 7 3 8 4 9 5 10 6 3 7 4 8 2 9 1 10 11 11 12 12 13 13
REMARK SMILES IDX 14 14
REMARK H PARENT
REMARK Flexibility Score: inf
ROOT
ATOM      1  C   UNL     1     -17.412  -9.703   1.129  1.00  0.00     0.074 A 
ATOM      2  C   UNL     1     -17.885  -9.671  -0.196  1.00  0.00     0.016 A 
ATOM      3  C   UNL     1     -17.149 -10.250  -1.230  1.00  0.00     0.001 A 
ATOM      4  C   UNL     1     -15.931 -10.870  -0.959  1.00  0.00     0.001 A 
ATOM      5  C   UNL     1     -15.433 -10.892   0.344  1.00  0.00     0.016 A 
ATOM      6  C   UNL     1     -16.148 -10.295   1.399  1.00  0.00     0.074 A 
ENDROOT
BRANCH   1   7
ATOM      7  C   UNL     1     -18.295  -9.171   2.193  1.00  0.00     0.338 C 
ATOM      8  O   UNL     1     -18.458  -7.927   2.322  1.00  0.00    -0.246 OA
BRANCH   7   9
ATOM      9  O   UNL     1     -18.904 -10.056   3.089  1.00  0.00    -0.465 OA
ATOM     10  C   UNL     1     -19.493 -11.283   2.676  1.00  0.00     0.282 C 
ENDBRANCH   7   9
ENDBRANCH   1   7
BRANCH   6  11
ATOM     11  C   UNL     1     -15.514 -10.248   2.736  1.00  0.00     0.338 C 
ATOM     12  O   UNL     1     -14.701  -9.323   3.013  1.00  0.00    -0.246 OA
BRANCH  11  13
ATOM     13  O   UNL     1     -15.857 -11.195   3.708  1.00  0.00    -0.465 OA
ATOM     14  C   UNL     1     -15.975 -10.870   5.087  1.00  0.00     0.282 C 
ENDBRANCH  11  13
ENDBRANCH   6  11
TORSDOF 4
ENDMDL
MODEL 2
REMARK VINA RESULT:    -4.311      0.107      3.086
REMARK INTER + INTRA:          -5.715
REMARK INTER:                  -5.304
REMARK INTRA:                  -0.411
REMARK UNBOUND:                -0.396
REMARK SMILES COC(=O)c1ccccc1C(=O)OC
REMARK SMILES IDX 5 1 6 2 7 3 8 4 9 5 10 6 3 7 4 8 2 9 1 10 11 11 12 12 13 13
REMARK SMILES IDX 14 14
REMARK H PARENT
REMARK Flexibility Score: inf
ROOT
ATOM      1  C   UNL     1     -16.168 -10.213   1.418  1.00  0.00     0.074 A 
ATOM      2  C   UNL     1     -15.457 -10.835   0.376  1.00  0.00     0.016 A 
ATOM      3  C   UNL     1     -15.949 -10.826  -0.929  1.00  0.00     0.001 A 
ATOM      4  C   UNL     1     -17.159 -10.196  -1.214  1.00  0.00     0.001 A 
ATOM      5  C   UNL     1     -17.892  -9.593  -0.192  1.00  0.00     0.016 A 
ATOM      6  C   UNL     1     -17.424  -9.609   1.135  1.00  0.00     0.074 A 
ENDROOT
BRANCH   1   7
ATOM      7  C   UNL     1     -15.534 -10.160   2.756  1.00  0.00     0.338 C 
ATOM      8  O   UNL     1     -14.653  -9.294   3.009  1.00  0.00    -0.246 OA
BRANCH   7   9
ATOM      9  O   UNL     1     -15.877 -11.115   3.719  1.00  0.00    -0.465 OA
ATOM     10  C   UNL     1     -16.153 -10.774   5.072  1.00  0.00     0.282 C 
ENDBRANCH   7   9
ENDBRANCH   1   7
BRANCH   6  11
ATOM     11  C   UNL     1     -18.301  -9.057   2.193  1.00  0.00     0.338 C 
ATOM     12  O   UNL     1     -18.510  -7.814   2.249  1.00  0.00    -0.246 OA
BRANCH  11  13
ATOM     13  O   UNL     1     -18.941  -9.918   3.092  1.00  0.00    -0.465 OA
ATOM     14  C   UNL     1     -19.451 -11.188   2.707  1.00  0.00     0.282 C 
ENDBRANCH  11  13
ENDBRANCH   6  11
TORSDOF 4
ENDMDL
MODEL 3
REMARK VINA RESULT:    -4.205     10.927     12.634
REMARK INTER + INTRA:          -5.584
REMARK INTER:                  -5.237
REMARK INTRA:                  -0.347
REMARK UNBOUND:                -0.396
REMARK SMILES COC(=O)c1ccccc1C(=O)OC
REMARK SMILES IDX 5 1 6 2 7 3 8 4 9 5 10 6 3 7 4 8 2 9 1 10 11 11 12 12 13 13
REMARK SMILES IDX 14 14
REMARK H PARENT
REMARK Flexibility Score: inf
ROOT
ATOM      1  C   UNL     1      -6.571 -12.064  -2.935  1.00  0.00     0.074 A 
ATOM      2  C   UNL     1      -6.939 -10.896  -2.242  1.00  0.00     0.016 A 
ATOM      3  C   UNL     1      -6.117  -9.770  -2.254  1.00  0.00     0.001 A 
ATOM      4  C   UNL     1      -4.915  -9.790  -2.958  1.00  0.00     0.001 A 
ATOM      5  C   UNL     1      -4.519 -10.945  -3.633  1.00  0.00     0.016 A 
ATOM      6  C   UNL     1      -5.323 -12.100  -3.616  1.00  0.00     0.074 A 
ENDROOT
BRANCH   1   7
ATOM      7  C   UNL     1      -7.543 -13.181  -2.975  1.00  0.00     0.338 C 
ATOM      8  O   UNL     1      -7.526 -14.071  -2.082  1.00  0.00    -0.246 OA
BRANCH   7   9
ATOM      9  O   UNL     1      -8.442 -13.275  -4.042  1.00  0.00    -0.465 OA
ATOM     10  C   UNL     1      -9.175 -14.460  -4.327  1.00  0.00     0.282 C 
ENDBRANCH   7   9
ENDBRANCH   1   7
BRANCH   6  11
ATOM     11  C   UNL     1      -4.796 -13.330  -4.251  1.00  0.00     0.338 C 
ATOM     12  O   UNL     1      -5.140 -13.624  -5.428  1.00  0.00    -0.246 OA
BRANCH  11  13
ATOM     13  O   UNL     1      -3.875 -14.131  -3.567  1.00  0.00    -0.465 OA
ATOM     14  C   UNL     1      -4.012 -14.450  -2.187  1.00  0.00     0.282 C 
ENDBRANCH  11  13
ENDBRANCH   6  11
TORSDOF 4
ENDMDL
MODEL 4
REMARK VINA RESULT:    -4.025     10.745     12.021
REMARK INTER + INTRA:          -5.362
REMARK INTER:                  -4.901
REMARK INTRA:                  -0.461
REMARK UNBOUND:                -0.396
REMARK SMILES COC(=O)c1ccccc1C(=O)OC
REMARK SMILES IDX 5 1 6 2 7 3 8 4 9 5 10 6 3 7 4 8 2 9 1 10 11 11 12 12 13 13
REMARK SMILES IDX 14 14
REMARK H PARENT
REMARK Flexibility Score: inf
ROOT
ATOM      1  C   UNL     1      -7.544 -13.065  -3.211  1.00  0.00     0.074 A 
ATOM      2  C   UNL     1      -8.121 -14.161  -2.546  1.00  0.00     0.016 A 
ATOM      3  C   UNL     1      -9.132 -14.910  -3.149  1.00  0.00     0.001 A 
ATOM      4  C   UNL     1      -9.582 -14.577  -4.425  1.00  0.00     0.001 A 
ATOM      5  C   UNL     1      -9.039 -13.479  -5.093  1.00  0.00     0.016 A 
ATOM      6  C   UNL     1      -8.034 -12.696  -4.494  1.00  0.00     0.074 A 
ENDROOT
BRANCH   1   7
ATOM      7  C   UNL     1      -6.398 -12.385  -2.562  1.00  0.00     0.338 C 
ATOM      8  O   UNL     1      -5.253 -12.912  -2.580  1.00  0.00    -0.246 OA
BRANCH   7   9
ATOM      9  O   UNL     1      -6.608 -11.182  -1.881  1.00  0.00    -0.465 OA
ATOM     10  C   UNL     1      -5.976  -9.965  -2.260  1.00  0.00     0.282 C 
ENDBRANCH   7   9
ENDBRANCH   1   7
BRANCH   6  11
ATOM     11  C   UNL     1      -7.582 -11.477  -5.202  1.00  0.00     0.338 C 
ATOM     12  O   UNL     1      -8.171 -10.380  -5.000  1.00  0.00    -0.246 OA
BRANCH  11  13
ATOM     13  O   UNL     1      -6.469 -11.531  -6.049  1.00  0.00    -0.465 OA
ATOM     14  C   UNL     1      -5.278 -10.796  -5.798  1.00  0.00     0.282 C 
ENDBRANCH  11  13
ENDBRANCH   6  11
TORSDOF 4
ENDMDL
MODEL 5
REMARK VINA RESULT:    -3.974      7.159      7.925
REMARK INTER + INTRA:          -5.299
REMARK INTER:                  -4.907
REMARK INTRA:                  -0.393
REMARK UNBOUND:                -0.396
REMARK SMILES COC(=O)c1ccccc1C(=O)OC
REMARK SMILES IDX 5 1 6 2 7 3 8 4 9 5 10 6 3 7 4 8 2 9 1 10 11 11 12 12 13 13
REMARK SMILES IDX 14 14
REMARK H PARENT
REMARK Flexibility Score: inf
ROOT
ATOM      1  C   UNL     1     -13.007  -3.797   1.573  1.00  0.00     0.074 A 
ATOM      2  C   UNL     1     -13.969  -3.559   0.574  1.00  0.00     0.016 A 
ATOM      3  C   UNL     1     -13.638  -3.675  -0.776  1.00  0.00     0.001 A 
ATOM      4  C   UNL     1     -12.344  -4.032  -1.150  1.00  0.00     0.001 A 
ATOM      5  C   UNL     1     -11.369  -4.249  -0.176  1.00  0.00     0.016 A 
ATOM      6  C   UNL     1     -11.675  -4.116   1.191  1.00  0.00     0.074 A 
ENDROOT
BRANCH   1   7
ATOM      7  C   UNL     1     -13.454  -3.768   2.986  1.00  0.00     0.338 C 
ATOM      8  O   UNL     1     -13.264  -2.740   3.692  1.00  0.00    -0.246 OA
BRANCH   7   9
ATOM      9  O   UNL     1     -14.036  -4.909   3.548  1.00  0.00    -0.465 OA
ATOM     10  C   UNL     1     -13.273  -5.919   4.196  1.00  0.00     0.282 C 
ENDBRANCH   7   9
ENDBRANCH   1   7
BRANCH   6  11
ATOM     11  C   UNL     1     -10.572  -4.244   2.171  1.00  0.00     0.338 C 
ATOM     12  O   UNL     1     -10.295  -5.374   2.658  1.00  0.00    -0.246 OA
BRANCH  11  13
ATOM     13  O   UNL     1      -9.804  -3.124   2.510  1.00  0.00    -0.465 OA
ATOM     14  C   UNL     1      -9.714  -2.631   3.841  1.00  0.00     0.282 C 
ENDBRANCH  11  13
ENDBRANCH   6  11
TORSDOF 4
ENDMDL
MODEL 6
REMARK VINA RESULT:    -3.968      7.119      8.370
REMARK INTER + INTRA:          -5.291
REMARK INTER:                  -4.861
REMARK INTRA:                  -0.430
REMARK UNBOUND:                -0.396
REMARK SMILES COC(=O)c1ccccc1C(=O)OC
REMARK SMILES IDX 5 1 6 2 7 3 8 4 9 5 10 6 3 7 4 8 2 9 1 10 11 11 12 12 13 13
REMARK SMILES IDX 14 14
REMARK H PARENT
REMARK Flexibility Score: inf
ROOT
ATOM      1  C   UNL     1     -11.675  -4.128   1.225  1.00  0.00     0.074 A 
ATOM      2  C   UNL     1     -11.347  -4.253  -0.138  1.00  0.00     0.016 A 
ATOM      3  C   UNL     1     -12.306  -4.029  -1.126  1.00  0.00     0.001 A 
ATOM      4  C   UNL     1     -13.607  -3.677  -0.770  1.00  0.00     0.001 A 
ATOM      5  C   UNL     1     -13.959  -3.571   0.575  1.00  0.00     0.016 A 
ATOM      6  C   UNL     1     -13.013  -3.814   1.589  1.00  0.00     0.074 A 
ENDROOT
BRANCH   1   7
ATOM      7  C   UNL     1     -10.583  -4.267   2.216  1.00  0.00     0.338 C 
ATOM      8  O   UNL     1     -10.259  -5.406   2.651  1.00  0.00    -0.246 OA
BRANCH   7   9
ATOM      9  O   UNL     1      -9.951  -3.121   2.710  1.00  0.00    -0.465 OA
ATOM     10  C   UNL     1      -9.834  -2.849   4.101  1.00  0.00     0.282 C 
ENDBRANCH   7   9
ENDBRANCH   1   7
BRANCH   6  11
ATOM     11  C   UNL     1     -13.476  -3.801   2.996  1.00  0.00     0.338 C 
ATOM     12  O   UNL     1     -13.390  -2.741   3.674  1.00  0.00    -0.246 OA
BRANCH  11  13
ATOM     13  O   UNL     1     -14.057  -4.946   3.552  1.00  0.00    -0.465 OA
ATOM     14  C   UNL     1     -13.290  -5.977   4.161  1.00  0.00     0.282 C 
ENDBRANCH  11  13
ENDBRANCH   6  11
TORSDOF 4
ENDMDL
MODEL 7
REMARK VINA RESULT:    -3.958     10.651     11.680
REMARK INTER + INTRA:          -5.279
REMARK INTER:                  -4.784
REMARK INTRA:                  -0.496
REMARK UNBOUND:                -0.396
REMARK SMILES COC(=O)c1ccccc1C(=O)OC
REMARK SMILES IDX 5 1 6 2 7 3 8 4 9 5 10 6 3 7 4 8 2 9 1 10 11 11 12 12 13 13
REMARK SMILES IDX 14 14
REMARK H PARENT
REMARK Flexibility Score: inf
ROOT
ATOM      1  C   UNL     1      -9.846  -2.002  -2.276  1.00  0.00     0.074 A 
ATOM      2  C   UNL     1      -8.522  -2.233  -2.691  1.00  0.00     0.016 A 
ATOM      3  C   UNL     1      -8.008  -1.598  -3.822  1.00  0.00     0.001 A 
ATOM      4  C   UNL     1      -8.807  -0.722  -4.555  1.00  0.00     0.001 A 
ATOM      5  C   UNL     1     -10.130  -0.497  -4.175  1.00  0.00     0.016 A 
ATOM      6  C   UNL     1     -10.675  -1.144  -3.050  1.00  0.00     0.074 A 
ENDROOT
BRANCH   1   7
ATOM      7  C   UNL     1     -10.292  -2.618  -1.004  1.00  0.00     0.338 C 
ATOM      8  O   UNL     1     -10.040  -2.057   0.097  1.00  0.00    -0.246 OA
BRANCH   7   9
ATOM      9  O   UNL     1     -10.943  -3.855  -1.029  1.00  0.00    -0.465 OA
ATOM     10  C   UNL     1     -12.306  -4.012  -0.655  1.00  0.00     0.282 C 
ENDBRANCH   7   9
ENDBRANCH   1   7
BRANCH   6  11
ATOM     11  C   UNL     1     -12.117  -0.956  -2.765  1.00  0.00     0.338 C 
ATOM     12  O   UNL     1     -12.968  -1.706  -3.317  1.00  0.00    -0.246 OA
BRANCH  11  13
ATOM     13  O   UNL     1     -12.528   0.015  -1.845  1.00  0.00    -0.465 OA
ATOM     14  C   UNL     1     -13.219  -0.309  -0.645  1.00  0.00     0.282 C 
ENDBRANCH  11  13
ENDBRANCH   6  11
TORSDOF 4
ENDMDL
MODEL 8
REMARK VINA RESULT:    -3.950     10.680     11.443
REMARK INTER + INTRA:          -5.270
REMARK INTER:                  -4.777
REMARK INTRA:                  -0.493
REMARK UNBOUND:                -0.396
REMARK SMILES COC(=O)c1ccccc1C(=O)OC
REMARK SMILES IDX 5 1 6 2 7 3 8 4 9 5 10 6 3 7 4 8 2 9 1 10 11 11 12 12 13 13
REMARK SMILES IDX 14 14
REMARK H PARENT
REMARK Flexibility Score: inf
ROOT
ATOM      1  C   UNL     1     -10.680  -1.146  -3.057  1.00  0.00     0.074 A 
ATOM      2  C   UNL     1     -10.127  -0.506  -4.181  1.00  0.00     0.016 A 
ATOM      3  C   UNL     1      -8.799  -0.725  -4.546  1.00  0.00     0.001 A 
ATOM      4  C   UNL     1      -8.001  -1.587  -3.795  1.00  0.00     0.001 A 
ATOM      5  C   UNL     1      -8.522  -2.214  -2.663  1.00  0.00     0.016 A 
ATOM      6  C   UNL     1      -9.853  -1.990  -2.264  1.00  0.00     0.074 A 
ENDROOT
BRANCH   1   7
ATOM      7  C   UNL     1     -12.125  -0.959  -2.793  1.00  0.00     0.338 C 
ATOM      8  O   UNL     1     -12.974  -1.721  -3.331  1.00  0.00    -0.246 OA
BRANCH   7   9
ATOM      9  O   UNL     1     -12.546   0.105  -1.988  1.00  0.00    -0.465 OA
ATOM     10  C   UNL     1     -13.119  -0.088  -0.700  1.00  0.00     0.282 C 
ENDBRANCH   7   9
ENDBRANCH   1   7
BRANCH   6  11
ATOM     11  C   UNL     1     -10.312  -2.590  -0.990  1.00  0.00     0.338 C 
ATOM     12  O   UNL     1     -10.145  -1.965   0.093  1.00  0.00    -0.246 OA
BRANCH  11  13
ATOM     13  O   UNL     1     -10.979  -3.820  -0.996  1.00  0.00    -0.465 OA
ATOM     14  C   UNL     1     -12.341  -3.956  -0.612  1.00  0.00     0.282 C 
ENDBRANCH  11  13
ENDBRANCH   6  11
TORSDOF 4
ENDMDL
