MODEL 1
REMARK VINA RESULT:    -3.476      0.000      0.000
REMARK INTER + INTRA:          -4.753
REMARK INTER:                  -4.492
REMARK INTRA:                  -0.261
REMARK UNBOUND:                -0.261
REMARK SMILES CCCCCCC(=O)[O-]
REMARK SMILES IDX 5 1 6 2 7 3 8 4 9 5 4 6 3 7 2 8 1 9
REMARK H PARENT
REMARK Flexibility Score: inf
ROOT
ATOM      1  C   UNL     1      25.108   3.168  41.737  1.00  0.00     0.006 C 
ENDROOT
BRANCH   1   2
ATOM      2  C   UNL     1      26.215   2.711  42.695  1.00  0.00     0.053 C 
BRANCH   2   3
ATOM      3  C   UNL     1      25.855   1.402  43.324  1.00  0.00     0.041 C 
ATOM      4  O   UNL     1      24.937   1.343  44.184  1.00  0.00    -0.550 OA
ATOM      5  O   UNL     1      26.498   0.239  42.923  1.00  0.00    -0.550 OA
ENDBRANCH   2   3
ENDBRANCH   1   2
BRANCH   1   6
ATOM      6  C   UNL     1      25.249   2.565  40.328  1.00  0.00     0.000 C 
BRANCH   6   7
ATOM      7  C   UNL     1      26.656   2.678  39.708  1.00  0.00    -0.000 C 
BRANCH   7   8
ATOM      8  C   UNL     1      27.139   1.423  38.960  1.00  0.00    -0.003 C 
ATOM      9  C   UNL     1      26.000   0.647  38.300  1.00  0.00     0.004 C 
ENDBRANCH   7   8
ENDBRANCH   6   7
ENDBRANCH   1   6
TORSDOF 5
ENDMDL
MODEL 2
REMARK VINA RESULT:    -3.421      6.545      8.434
REMARK INTER + INTRA:          -4.682
REMARK INTER:                  -4.387
REMARK INTRA:                  -0.295
REMARK UNBOUND:                -0.261
REMARK SMILES CCCCCCC(=O)[O-]
REMARK SMILES IDX 5 1 6 2 7 3 8 4 9 5 4 6 3 7 2 8 1 9
REMARK H PARENT
REMARK Flexibility Score: inf
ROOT
ATOM      1  C   UNL     1      22.982  -2.978  36.705  1.00  0.00     0.006 C 
ENDROOT
BRANCH   1   2
ATOM      2  C   UNL     1      24.131  -2.657  35.740  1.00  0.00     0.053 C 
BRANCH   2   3
ATOM      3  C   UNL     1      25.365  -2.289  36.501  1.00  0.00     0.041 C 
ATOM      4  O   UNL     1      26.317  -3.108  36.599  1.00  0.00    -0.550 OA
ATOM      5  O   UNL     1      25.486  -1.023  37.059  1.00  0.00    -0.550 OA
ENDBRANCH   2   3
ENDBRANCH   1   2
BRANCH   1   6
ATOM      6  C   UNL     1      22.259  -4.292  36.358  1.00  0.00     0.000 C 
BRANCH   6   7
ATOM      7  C   UNL     1      22.567  -4.856  34.956  1.00  0.00    -0.000 C 
BRANCH   7   8
ATOM      8  C   UNL     1      23.283  -6.218  34.947  1.00  0.00    -0.003 C 
ATOM      9  C   UNL     1      24.253  -6.390  36.116  1.00  0.00     0.004 C 
ENDBRANCH   7   8
ENDBRANCH   6   7
ENDBRANCH   1   6
TORSDOF 5
ENDMDL
MODEL 3
REMARK VINA RESULT:    -3.398      2.296      3.963
REMARK INTER + INTRA:          -4.652
REMARK INTER:                  -4.333
REMARK INTRA:                  -0.320
REMARK UNBOUND:                -0.261
REMARK SMILES CCCCCCC(=O)[O-]
REMARK SMILES IDX 5 1 6 2 7 3 8 4 9 5 4 6 3 7 2 8 1 9
REMARK H PARENT
REMARK Flexibility Score: inf
ROOT
ATOM      1  C   UNL     1      25.031   2.614  40.122  1.00  0.00     0.006 C 
ENDROOT
BRANCH   1   2
ATOM      2  C   UNL     1      26.483   2.383  39.687  1.00  0.00     0.053 C 
BRANCH   2   3
ATOM      3  C   UNL     1      26.629   1.038  39.048  1.00  0.00     0.041 C 
ATOM      4  O   UNL     1      27.599   0.294  39.352  1.00  0.00    -0.550 OA
ATOM      5  O   UNL     1      25.667   0.585  38.155  1.00  0.00    -0.550 OA
ENDBRANCH   2   3
ENDBRANCH   1   2
BRANCH   1   6
ATOM      6  C   UNL     1      24.905   2.999  41.608  1.00  0.00     0.000 C 
BRANCH   6   7
ATOM      7  C   UNL     1      26.092   2.572  42.495  1.00  0.00    -0.000 C 
BRANCH   7   8
ATOM      8  C   UNL     1      25.793   1.420  43.469  1.00  0.00    -0.003 C 
ATOM      9  C   UNL     1      26.420   0.095  43.036  1.00  0.00     0.004 C 
ENDBRANCH   7   8
ENDBRANCH   6   7
ENDBRANCH   1   6
TORSDOF 5
ENDMDL
MODEL 4
REMARK VINA RESULT:    -3.372      7.829      9.399
REMARK INTER + INTRA:          -4.619
REMARK INTER:                  -4.185
REMARK INTRA:                  -0.434
REMARK UNBOUND:                -0.261
REMARK SMILES CCCCCCC(=O)[O-]
REMARK SMILES IDX 5 1 6 2 7 3 8 4 9 5 4 6 3 7 2 8 1 9
REMARK H PARENT
REMARK Flexibility Score: inf
ROOT
ATOM      1  C   UNL     1      22.611  -4.741  34.875  1.00  0.00     0.006 C 
ENDROOT
BRANCH   1   2
ATOM      2  C   UNL     1      23.007  -6.221  34.947  1.00  0.00     0.053 C 
BRANCH   2   3
ATOM      3  C   UNL     1      24.375  -6.368  35.534  1.00  0.00     0.041 C 
ATOM      4  O   UNL     1      24.520  -6.841  36.693  1.00  0.00    -0.550 OA
ATOM      5  O   UNL     1      25.494  -6.031  34.784  1.00  0.00    -0.550 OA
ENDBRANCH   2   3
ENDBRANCH   1   2
BRANCH   1   6
ATOM      6  C   UNL     1      22.198  -4.165  36.242  1.00  0.00     0.000 C 
BRANCH   6   7
ATOM      7  C   UNL     1      23.044  -2.972  36.730  1.00  0.00    -0.000 C 
BRANCH   7   8
ATOM      8  C   UNL     1      24.204  -2.575  35.801  1.00  0.00    -0.003 C 
ATOM      9  C   UNL     1      25.577  -2.885  36.395  1.00  0.00     0.004 C 
ENDBRANCH   7   8
ENDBRANCH   6   7
ENDBRANCH   1   6
TORSDOF 5
ENDMDL
MODEL 5
REMARK VINA RESULT:    -3.330      7.426      9.073
REMARK INTER + INTRA:          -4.564
REMARK INTER:                  -4.280
REMARK INTRA:                  -0.284
REMARK UNBOUND:                -0.261
REMARK SMILES CCCCCCC(=O)[O-]
REMARK SMILES IDX 5 1 6 2 7 3 8 4 9 5 4 6 3 7 2 8 1 9
REMARK H PARENT
REMARK Flexibility Score: inf
ROOT
ATOM      1  C   UNL     1      23.051  -3.275  36.422  1.00  0.00     0.006 C 
ENDROOT
BRANCH   1   2
ATOM      2  C   UNL     1      24.231  -3.013  35.478  1.00  0.00     0.053 C 
BRANCH   2   3
ATOM      3  C   UNL     1      25.527  -3.284  36.174  1.00  0.00     0.041 C 
ATOM      4  O   UNL     1      26.201  -2.333  36.650  1.00  0.00    -0.550 OA
ATOM      5  O   UNL     1      25.966  -4.591  36.342  1.00  0.00    -0.550 OA
ENDBRANCH   2   3
ENDBRANCH   1   2
BRANCH   1   6
ATOM      6  C   UNL     1      22.480  -4.699  36.287  1.00  0.00     0.000 C 
BRANCH   6   7
ATOM      7  C   UNL     1      22.600  -5.319  34.880  1.00  0.00    -0.000 C 
BRANCH   7   8
ATOM      8  C   UNL     1      23.420  -6.619  34.810  1.00  0.00    -0.003 C 
ATOM      9  C   UNL     1      23.644  -7.106  33.379  1.00  0.00     0.004 C 
ENDBRANCH   7   8
ENDBRANCH   6   7
ENDBRANCH   1   6
TORSDOF 5
ENDMDL
MODEL 6
REMARK VINA RESULT:    -3.240      7.770      9.909
REMARK INTER + INTRA:          -4.447
REMARK INTER:                  -4.079
REMARK INTRA:                  -0.369
REMARK UNBOUND:                -0.261
REMARK SMILES CCCCCCC(=O)[O-]
REMARK SMILES IDX 5 1 6 2 7 3 8 4 9 5 4 6 3 7 2 8 1 9
REMARK H PARENT
REMARK Flexibility Score: inf
ROOT
ATOM      1  C   UNL     1      23.046  -6.367  34.780  1.00  0.00     0.006 C 
ENDROOT
BRANCH   1   2
ATOM      2  C   UNL     1      24.437  -6.505  34.150  1.00  0.00     0.053 C 
BRANCH   2   3
ATOM      3  C   UNL     1      25.457  -5.777  34.967  1.00  0.00     0.041 C 
ATOM      4  O   UNL     1      26.154  -4.866  34.446  1.00  0.00    -0.550 OA
ATOM      5  O   UNL     1      25.601  -6.067  36.317  1.00  0.00    -0.550 OA
ENDBRANCH   2   3
ENDBRANCH   1   2
BRANCH   1   6
ATOM      6  C   UNL     1      22.605  -4.901  34.942  1.00  0.00     0.000 C 
BRANCH   6   7
ATOM      7  C   UNL     1      22.196  -4.496  36.373  1.00  0.00    -0.000 C 
BRANCH   7   8
ATOM      8  C   UNL     1      22.555  -3.053  36.768  1.00  0.00    -0.003 C 
ATOM      9  C   UNL     1      24.031  -2.724  36.548  1.00  0.00     0.004 C 
ENDBRANCH   7   8
ENDBRANCH   6   7
ENDBRANCH   1   6
TORSDOF 5
ENDMDL
MODEL 7
REMARK VINA RESULT:    -3.219      2.421      4.003
REMARK INTER + INTRA:          -4.420
REMARK INTER:                  -4.193
REMARK INTRA:                  -0.227
REMARK UNBOUND:                -0.261
REMARK SMILES CCCCCCC(=O)[O-]
REMARK SMILES IDX 5 1 6 2 7 3 8 4 9 5 4 6 3 7 2 8 1 9
REMARK H PARENT
REMARK Flexibility Score: inf
ROOT
ATOM      1  C   UNL     1      26.020   2.669  42.230  1.00  0.00     0.006 C 
ENDROOT
BRANCH   1   2
ATOM      2  C   UNL     1      25.036   2.865  41.070  1.00  0.00     0.053 C 
BRANCH   2   3
ATOM      3  C   UNL     1      25.518   2.150  39.848  1.00  0.00     0.041 C 
ATOM      4  O   UNL     1      25.008   2.400  38.724  1.00  0.00    -0.550 OA
ATOM      5  O   UNL     1      26.567   1.244  39.942  1.00  0.00    -0.550 OA
ENDBRANCH   2   3
ENDBRANCH   1   2
BRANCH   1   6
ATOM      6  C   UNL     1      25.441   1.807  43.367  1.00  0.00     0.000 C 
BRANCH   6   7
ATOM      7  C   UNL     1      26.388   0.714  43.902  1.00  0.00    -0.000 C 
BRANCH   7   8
ATOM      8  C   UNL     1      26.467  -0.557  43.038  1.00  0.00    -0.003 C 
ATOM      9  C   UNL     1      27.675  -1.431  43.372  1.00  0.00     0.004 C 
ENDBRANCH   7   8
ENDBRANCH   6   7
ENDBRANCH   1   6
TORSDOF 5
ENDMDL
MODEL 8
REMARK VINA RESULT:    -3.160      2.034      3.263
REMARK INTER + INTRA:          -4.344
REMARK INTER:                  -4.106
REMARK INTRA:                  -0.238
REMARK UNBOUND:                -0.261
REMARK SMILES CCCCCCC(=O)[O-]
REMARK SMILES IDX 5 1 6 2 7 3 8 4 9 5 4 6 3 7 2 8 1 9
REMARK H PARENT
REMARK Flexibility Score: inf
ROOT
ATOM      1  C   UNL     1      26.141   0.593  43.856  1.00  0.00     0.006 C 
ENDROOT
BRANCH   1   2
ATOM      2  C   UNL     1      26.758  -0.395  42.858  1.00  0.00     0.053 C 
BRANCH   2   3
ATOM      3  C   UNL     1      27.525  -1.458  43.579  1.00  0.00     0.041 C 
ATOM      4  O   UNL     1      28.161  -1.178  44.630  1.00  0.00    -0.550 OA
ATOM      5  O   UNL     1      27.495  -2.768  43.121  1.00  0.00    -0.550 OA
ENDBRANCH   2   3
ENDBRANCH   1   2
BRANCH   1   6
ATOM      6  C   UNL     1      26.358   2.063  43.455  1.00  0.00     0.000 C 
BRANCH   6   7
ATOM      7  C   UNL     1      25.408   2.587  42.359  1.00  0.00    -0.000 C 
BRANCH   7   8
ATOM      8  C   UNL     1      26.100   3.317  41.195  1.00  0.00    -0.003 C 
ATOM      9  C   UNL     1      26.321   2.422  39.976  1.00  0.00     0.004 C 
ENDBRANCH   7   8
ENDBRANCH   6   7
ENDBRANCH   1   6
TORSDOF 5
ENDMDL
MODEL 9
REMARK VINA RESULT:    -3.159      7.933      9.066
REMARK INTER + INTRA:          -4.343
REMARK INTER:                  -3.918
REMARK INTRA:                  -0.425
REMARK UNBOUND:                -0.261
REMARK SMILES CCCCCCC(=O)[O-]
REMARK SMILES IDX 5 1 6 2 7 3 8 4 9 5 4 6 3 7 2 8 1 9
REMARK H PARENT
REMARK Flexibility Score: inf
ROOT
ATOM      1  C   UNL     1      25.692  -3.239  36.229  1.00  0.00     0.006 C 
ENDROOT
BRANCH   1   2
ATOM      2  C   UNL     1      26.286  -4.334  35.335  1.00  0.00     0.053 C 
BRANCH   2   3
ATOM      3  C   UNL     1      25.504  -5.602  35.471  1.00  0.00     0.041 C 
ATOM      4  O   UNL     1      25.504  -6.233  36.561  1.00  0.00    -0.550 OA
ATOM      5  O   UNL     1      24.734  -6.060  34.411  1.00  0.00    -0.550 OA
ENDBRANCH   2   3
ENDBRANCH   1   2
BRANCH   1   6
ATOM      6  C   UNL     1      24.369  -2.672  35.682  1.00  0.00     0.000 C 
BRANCH   6   7
ATOM      7  C   UNL     1      23.120  -3.004  36.523  1.00  0.00    -0.000 C 
BRANCH   7   8
ATOM      8  C   UNL     1      22.168  -4.037  35.893  1.00  0.00    -0.003 C 
ATOM      9  C   UNL     1      21.870  -5.215  36.819  1.00  0.00     0.004 C 
ENDBRANCH   7   8
ENDBRANCH   6   7
ENDBRANCH   1   6
TORSDOF 5
ENDMDL
