MODEL 1
REMARK VINA RESULT:    -4.494      0.000      0.000
REMARK INTER + INTRA:          -5.692
REMARK INTER:                  -5.545
REMARK INTRA:                  -0.147
REMARK UNBOUND:                -0.147
REMARK SMILES CCCCC=CC(C)=O
REMARK SMILES IDX 4 1 3 2 2 3 1 4 5 5 6 6 7 7 9 8 8 9
REMARK H PARENT
REMARK Flexibility Score: inf
ROOT
ATOM      1  C   UNL     1     -12.476 -15.461  28.601  1.00  0.00     0.027 C 
ENDROOT
BRANCH   1   2
ATOM      2  C   UNL     1     -12.915 -16.545  27.599  1.00  0.00     0.004 C 
BRANCH   2   3
ATOM      3  C   UNL     1     -11.823 -17.582  27.284  1.00  0.00    -0.003 C 
ATOM      4  C   UNL     1     -11.116 -17.330  25.952  1.00  0.00     0.004 C 
ENDBRANCH   2   3
ENDBRANCH   1   2
BRANCH   1   5
ATOM      5  C   UNL     1     -13.367 -15.386  29.808  1.00  0.00    -0.023 C 
ATOM      6  C   UNL     1     -13.082 -16.055  30.932  1.00  0.00     0.042 C 
BRANCH   6   7
ATOM      7  C   UNL     1     -13.932 -16.012  32.138  1.00  0.00     0.152 C 
ATOM      8  O   UNL     1     -14.137 -17.083  32.770  1.00  0.00    -0.295 OA
ATOM      9  C   UNL     1     -14.563 -14.745  32.634  1.00  0.00     0.093 C 
ENDBRANCH   6   7
ENDBRANCH   1   5
TORSDOF 4
ENDMDL
MODEL 2
REMARK VINA RESULT:    -4.426      1.164      1.304
REMARK INTER + INTRA:          -5.607
REMARK INTER:                  -5.415
REMARK INTRA:                  -0.192
REMARK UNBOUND:                -0.147
REMARK SMILES CCCCC=CC(C)=O
REMARK SMILES IDX 4 1 3 2 2 3 1 4 5 5 6 6 7 7 9 8 8 9
REMARK H PARENT
REMARK Flexibility Score: inf
ROOT
ATOM      1  C   UNL     1     -12.949 -15.370  28.321  1.00  0.00     0.027 C 
ENDROOT
BRANCH   1   2
ATOM      2  C   UNL     1     -13.154 -16.405  27.200  1.00  0.00     0.004 C 
BRANCH   2   3
ATOM      3  C   UNL     1     -12.032 -17.456  27.109  1.00  0.00    -0.003 C 
ATOM      4  C   UNL     1     -11.100 -17.244  25.917  1.00  0.00     0.004 C 
ENDBRANCH   2   3
ENDBRANCH   1   2
BRANCH   1   5
ATOM      5  C   UNL     1     -12.454 -15.983  29.599  1.00  0.00    -0.023 C 
ATOM      6  C   UNL     1     -13.247 -16.105  30.671  1.00  0.00     0.042 C 
BRANCH   6   7
ATOM      7  C   UNL     1     -12.798 -16.696  31.948  1.00  0.00     0.152 C 
ATOM      8  O   UNL     1     -13.414 -17.699  32.398  1.00  0.00    -0.295 OA
ATOM      9  C   UNL     1     -11.642 -16.144  32.727  1.00  0.00     0.093 C 
ENDBRANCH   6   7
ENDBRANCH   1   5
TORSDOF 4
ENDMDL
MODEL 3
REMARK VINA RESULT:    -4.399      3.019      5.095
REMARK INTER + INTRA:          -5.574
REMARK INTER:                  -5.364
REMARK INTRA:                  -0.210
REMARK UNBOUND:                -0.147
REMARK SMILES CCCCC=CC(C)=O
REMARK SMILES IDX 4 1 3 2 2 3 1 4 5 5 6 6 7 7 9 8 8 9
REMARK H PARENT
REMARK Flexibility Score: inf
ROOT
ATOM      1  C   UNL     1     -13.024 -16.516  32.296  1.00  0.00     0.027 C 
ENDROOT
BRANCH   1   2
ATOM      2  C   UNL     1     -13.488 -15.622  31.132  1.00  0.00     0.004 C 
BRANCH   2   3
ATOM      3  C   UNL     1     -14.598 -14.626  31.514  1.00  0.00    -0.003 C 
ATOM      4  C   UNL     1     -15.259 -14.944  32.855  1.00  0.00     0.004 C 
ENDBRANCH   2   3
ENDBRANCH   1   2
BRANCH   1   5
ATOM      5  C   UNL     1     -13.125 -17.982  31.983  1.00  0.00    -0.023 C 
ATOM      6  C   UNL     1     -12.826 -18.462  30.770  1.00  0.00     0.042 C 
BRANCH   6   7
ATOM      7  C   UNL     1     -12.917 -19.894  30.421  1.00  0.00     0.152 C 
ATOM      8  O   UNL     1     -12.506 -20.746  31.253  1.00  0.00    -0.295 OA
ATOM      9  C   UNL     1     -13.477 -20.368  29.113  1.00  0.00     0.093 C 
ENDBRANCH   6   7
ENDBRANCH   1   5
TORSDOF 4
ENDMDL
MODEL 4
REMARK VINA RESULT:    -4.397      2.370      5.172
REMARK INTER + INTRA:          -5.572
REMARK INTER:                  -5.313
REMARK INTRA:                  -0.260
REMARK UNBOUND:                -0.147
REMARK SMILES CCCCC=CC(C)=O
REMARK SMILES IDX 4 1 3 2 2 3 1 4 5 5 6 6 7 7 9 8 8 9
REMARK H PARENT
REMARK Flexibility Score: inf
ROOT
ATOM      1  C   UNL     1     -11.886 -16.104  30.743  1.00  0.00     0.027 C 
ENDROOT
BRANCH   1   2
ATOM      2  C   UNL     1     -13.025 -16.997  31.268  1.00  0.00     0.004 C 
BRANCH   2   3
ATOM      3  C   UNL     1     -13.909 -16.320  32.331  1.00  0.00    -0.003 C 
ATOM      4  C   UNL     1     -14.378 -14.923  31.926  1.00  0.00     0.004 C 
ENDBRANCH   2   3
ENDBRANCH   1   2
BRANCH   1   5
ATOM      5  C   UNL     1     -11.765 -16.132  29.246  1.00  0.00    -0.023 C 
ATOM      6  C   UNL     1     -12.657 -16.774  28.482  1.00  0.00     0.042 C 
BRANCH   6   7
ATOM      7  C   UNL     1     -12.571 -16.831  27.009  1.00  0.00     0.152 C 
ATOM      8  O   UNL     1     -13.579 -16.493  26.332  1.00  0.00    -0.295 OA
ATOM      9  C   UNL     1     -11.332 -17.277  26.292  1.00  0.00     0.093 C 
ENDBRANCH   6   7
ENDBRANCH   1   5
TORSDOF 4
ENDMDL
MODEL 5
REMARK VINA RESULT:    -4.386      2.500      3.221
REMARK INTER + INTRA:          -5.559
REMARK INTER:                  -5.292
REMARK INTRA:                  -0.266
REMARK UNBOUND:                -0.147
REMARK SMILES CCCCC=CC(C)=O
REMARK SMILES IDX 4 1 3 2 2 3 1 4 5 5 6 6 7 7 9 8 8 9
REMARK H PARENT
REMARK Flexibility Score: inf
ROOT
ATOM      1  C   UNL     1     -12.062 -18.182  31.564  1.00  0.00     0.027 C 
ENDROOT
BRANCH   1   2
ATOM      2  C   UNL     1     -12.748 -19.560  31.519  1.00  0.00     0.004 C 
BRANCH   2   3
ATOM      3  C   UNL     1     -13.242 -19.966  30.119  1.00  0.00    -0.003 C 
ATOM      4  C   UNL     1     -12.543 -19.210  28.990  1.00  0.00     0.004 C 
ENDBRANCH   2   3
ENDBRANCH   1   2
BRANCH   1   5
ATOM      5  C   UNL     1     -12.974 -17.090  32.046  1.00  0.00    -0.023 C 
ATOM      6  C   UNL     1     -13.292 -16.048  31.268  1.00  0.00     0.042 C 
BRANCH   6   7
ATOM      7  C   UNL     1     -14.179 -14.952  31.705  1.00  0.00     0.152 C 
ATOM      8  O   UNL     1     -14.762 -14.261  30.827  1.00  0.00    -0.295 OA
ATOM      9  C   UNL     1     -14.408 -14.631  33.151  1.00  0.00     0.093 C 
ENDBRANCH   6   7
ENDBRANCH   1   5
TORSDOF 4
ENDMDL
MODEL 6
REMARK VINA RESULT:    -4.375      2.570      5.021
REMARK INTER + INTRA:          -5.545
REMARK INTER:                  -5.267
REMARK INTRA:                  -0.278
REMARK UNBOUND:                -0.147
REMARK SMILES CCCCC=CC(C)=O
REMARK SMILES IDX 4 1 3 2 2 3 1 4 5 5 6 6 7 7 9 8 8 9
REMARK H PARENT
REMARK Flexibility Score: inf
ROOT
ATOM      1  C   UNL     1     -11.703 -16.127  30.559  1.00  0.00     0.027 C 
ENDROOT
BRANCH   1   2
ATOM      2  C   UNL     1     -13.128 -16.330  31.107  1.00  0.00     0.004 C 
BRANCH   2   3
ATOM      3  C   UNL     1     -13.236 -17.441  32.167  1.00  0.00    -0.003 C 
ATOM      4  C   UNL     1     -12.976 -18.838  31.605  1.00  0.00     0.004 C 
ENDBRANCH   2   3
ENDBRANCH   1   2
BRANCH   1   5
ATOM      5  C   UNL     1     -11.649 -16.119  29.058  1.00  0.00    -0.023 C 
ATOM      6  C   UNL     1     -12.537 -16.797  28.321  1.00  0.00     0.042 C 
BRANCH   6   7
ATOM      7  C   UNL     1     -12.515 -16.819  26.845  1.00  0.00     0.152 C 
ATOM      8  O   UNL     1     -13.550 -16.461  26.221  1.00  0.00    -0.295 OA
ATOM      9  C   UNL     1     -11.312 -17.254  26.064  1.00  0.00     0.093 C 
ENDBRANCH   6   7
ENDBRANCH   1   5
TORSDOF 4
ENDMDL
MODEL 7
REMARK VINA RESULT:    -4.344      1.893      2.415
REMARK INTER + INTRA:          -5.507
REMARK INTER:                  -5.239
REMARK INTRA:                  -0.268
REMARK UNBOUND:                -0.147
REMARK SMILES CCCCC=CC(C)=O
REMARK SMILES IDX 4 1 3 2 2 3 1 4 5 5 6 6 7 7 9 8 8 9
REMARK H PARENT
REMARK Flexibility Score: inf
ROOT
ATOM      1  C   UNL     1     -12.041 -15.829  28.648  1.00  0.00     0.027 C 
ENDROOT
BRANCH   1   2
ATOM      2  C   UNL     1     -13.180 -16.070  27.640  1.00  0.00     0.004 C 
BRANCH   2   3
ATOM      3  C   UNL     1     -12.719 -16.713  26.320  1.00  0.00    -0.003 C 
ATOM      4  C   UNL     1     -11.292 -17.255  26.378  1.00  0.00     0.004 C 
ENDBRANCH   2   3
ENDBRANCH   1   2
BRANCH   1   5
ATOM      5  C   UNL     1     -12.256 -16.538  29.954  1.00  0.00    -0.023 C 
ATOM      6  C   UNL     1     -12.690 -17.804  30.002  1.00  0.00     0.042 C 
BRANCH   6   7
ATOM      7  C   UNL     1     -12.919 -18.535  31.264  1.00  0.00     0.152 C 
ATOM      8  O   UNL     1     -13.405 -17.909  32.244  1.00  0.00    -0.295 OA
ATOM      9  C   UNL     1     -12.593 -19.990  31.421  1.00  0.00     0.093 C 
ENDBRANCH   6   7
ENDBRANCH   1   5
TORSDOF 4
ENDMDL
MODEL 8
REMARK VINA RESULT:    -4.249      2.835      5.282
REMARK INTER + INTRA:          -5.389
REMARK INTER:                  -5.154
REMARK INTRA:                  -0.235
REMARK UNBOUND:                -0.147
REMARK SMILES CCCCC=CC(C)=O
REMARK SMILES IDX 4 1 3 2 2 3 1 4 5 5 6 6 7 7 9 8 8 9
REMARK H PARENT
REMARK Flexibility Score: inf
ROOT
ATOM      1  C   UNL     1     -13.166 -19.815  30.212  1.00  0.00     0.027 C 
ENDROOT
BRANCH   1   2
ATOM      2  C   UNL     1     -12.717 -19.350  31.610  1.00  0.00     0.004 C 
BRANCH   2   3
ATOM      3  C   UNL     1     -13.211 -17.942  31.988  1.00  0.00    -0.003 C 
ATOM      4  C   UNL     1     -12.076 -16.959  32.270  1.00  0.00     0.004 C 
ENDBRANCH   2   3
ENDBRANCH   1   2
BRANCH   1   5
ATOM      5  C   UNL     1     -13.203 -18.698  29.209  1.00  0.00    -0.023 C 
ATOM      6  C   UNL     1     -12.170 -18.452  28.394  1.00  0.00     0.042 C 
BRANCH   6   7
ATOM      7  C   UNL     1     -12.164 -17.361  27.399  1.00  0.00     0.152 C 
ATOM      8  O   UNL     1     -12.969 -16.404  27.549  1.00  0.00    -0.295 OA
ATOM      9  C   UNL     1     -11.239 -17.354  26.219  1.00  0.00     0.093 C 
ENDBRANCH   6   7
ENDBRANCH   1   5
TORSDOF 4
ENDMDL
MODEL 9
REMARK VINA RESULT:    -4.105      2.386      5.158
REMARK INTER + INTRA:          -5.212
REMARK INTER:                  -4.996
REMARK INTRA:                  -0.216
REMARK UNBOUND:                -0.147
REMARK SMILES CCCCC=CC(C)=O
REMARK SMILES IDX 4 1 3 2 2 3 1 4 5 5 6 6 7 7 9 8 8 9
REMARK H PARENT
REMARK Flexibility Score: inf
ROOT
ATOM      1  C   UNL     1     -12.941 -17.996  31.758  1.00  0.00     0.027 C 
ENDROOT
BRANCH   1   2
ATOM      2  C   UNL     1     -13.014 -16.534  32.237  1.00  0.00     0.004 C 
BRANCH   2   3
ATOM      3  C   UNL     1     -14.404 -16.115  32.750  1.00  0.00    -0.003 C 
ATOM      4  C   UNL     1     -14.782 -14.685  32.369  1.00  0.00     0.004 C 
ENDBRANCH   2   3
ENDBRANCH   1   2
BRANCH   1   5
ATOM      5  C   UNL     1     -12.664 -18.116  30.287  1.00  0.00    -0.023 C 
ATOM      6  C   UNL     1     -12.888 -17.098  29.446  1.00  0.00     0.042 C 
BRANCH   6   7
ATOM      7  C   UNL     1     -12.635 -17.177  27.994  1.00  0.00     0.152 C 
ATOM      8  O   UNL     1     -11.723 -17.941  27.580  1.00  0.00    -0.295 OA
ATOM      9  C   UNL     1     -13.421 -16.379  26.996  1.00  0.00     0.093 C 
ENDBRANCH   6   7
ENDBRANCH   1   5
TORSDOF 4
ENDMDL
