MODEL 1
REMARK VINA RESULT:    -4.085      0.000      0.000
REMARK INTER + INTRA:          -5.286
REMARK INTER:                  -5.041
REMARK INTRA:                  -0.246
REMARK UNBOUND:                -0.246
REMARK SMILES COC(=O)c1ccccc1C(=O)OC
REMARK SMILES IDX 5 1 6 2 7 3 8 4 9 5 10 6 3 7 4 8 2 9 1 10 11 11 12 12 13 13
REMARK SMILES IDX 14 14
REMARK H PARENT
REMARK Flexibility Score: inf
ROOT
ATOM      1  C   UNL     1      25.227  26.793  28.784  1.00  0.00     0.074 A 
ATOM      2  C   UNL     1      25.086  25.450  28.385  1.00  0.00     0.016 A 
ATOM      3  C   UNL     1      25.831  24.442  28.996  1.00  0.00     0.001 A 
ATOM      4  C   UNL     1      26.727  24.755  30.015  1.00  0.00     0.001 A 
ATOM      5  C   UNL     1      26.899  26.082  30.412  1.00  0.00     0.016 A 
ATOM      6  C   UNL     1      26.175  27.118  29.794  1.00  0.00     0.074 A 
ENDROOT
BRANCH   1   7
ATOM      7  C   UNL     1      24.325  27.801  28.183  1.00  0.00     0.338 C 
ATOM      8  O   UNL     1      24.745  28.541  27.251  1.00  0.00    -0.246 OA
BRANCH   7   9
ATOM      9  O   UNL     1      22.996  27.895  28.608  1.00  0.00    -0.465 OA
ATOM     10  C   UNL     1      21.935  27.189  27.975  1.00  0.00     0.282 C 
ENDBRANCH   7   9
ENDBRANCH   1   7
BRANCH   6  11
ATOM     11  C   UNL     1      26.488  28.511  30.184  1.00  0.00     0.338 C 
ATOM     12  O   UNL     1      25.712  29.149  30.946  1.00  0.00    -0.246 OA
BRANCH  11  13
ATOM     13  O   UNL     1      27.624  29.134  29.656  1.00  0.00    -0.465 OA
ATOM     14  C   UNL     1      28.163  28.796  28.385  1.00  0.00     0.282 C 
ENDBRANCH  11  13
ENDBRANCH   6  11
TORSDOF 4
ENDMDL
MODEL 2
REMARK VINA RESULT:    -4.084      0.284      3.831
REMARK INTER + INTRA:          -5.284
REMARK INTER:                  -5.044
REMARK INTRA:                  -0.240
REMARK UNBOUND:                -0.246
REMARK SMILES COC(=O)c1ccccc1C(=O)OC
REMARK SMILES IDX 5 1 6 2 7 3 8 4 9 5 10 6 3 7 4 8 2 9 1 10 11 11 12 12 13 13
REMARK SMILES IDX 14 14
REMARK H PARENT
REMARK Flexibility Score: inf
ROOT
ATOM      1  C   UNL     1      26.111  27.319  29.934  1.00  0.00     0.074 A 
ATOM      2  C   UNL     1      26.841  26.328  30.617  1.00  0.00     0.016 A 
ATOM      3  C   UNL     1      26.779  24.993  30.219  1.00  0.00     0.001 A 
ATOM      4  C   UNL     1      25.991  24.624  29.131  1.00  0.00     0.001 A 
ATOM      5  C   UNL     1      25.242  25.585  28.452  1.00  0.00     0.016 A 
ATOM      6  C   UNL     1      25.271  26.934  28.851  1.00  0.00     0.074 A 
ENDROOT
BRANCH   1   7
ATOM      7  C   UNL     1      26.308  28.732  30.327  1.00  0.00     0.338 C 
ATOM      8  O   UNL     1      25.531  29.262  31.168  1.00  0.00    -0.246 OA
BRANCH   7   9
ATOM      9  O   UNL     1      27.386  29.459  29.811  1.00  0.00    -0.465 OA
ATOM     10  C   UNL     1      28.309  28.908  28.880  1.00  0.00     0.282 C 
ENDBRANCH   7   9
ENDBRANCH   1   7
BRANCH   6  11
ATOM     11  C   UNL     1      24.366  27.881  28.161  1.00  0.00     0.338 C 
ATOM     12  O   UNL     1      24.795  28.599  27.217  1.00  0.00    -0.246 OA
BRANCH  11  13
ATOM     13  O   UNL     1      23.044  28.014  28.598  1.00  0.00    -0.465 OA
ATOM     14  C   UNL     1      21.971  27.270  28.034  1.00  0.00     0.282 C 
ENDBRANCH  11  13
ENDBRANCH   6  11
TORSDOF 4
ENDMDL
MODEL 3
REMARK VINA RESULT:    -4.077     13.627     15.786
REMARK INTER + INTRA:          -5.276
REMARK INTER:                  -4.945
REMARK INTRA:                  -0.331
REMARK UNBOUND:                -0.246
REMARK SMILES COC(=O)c1ccccc1C(=O)OC
REMARK SMILES IDX 5 1 6 2 7 3 8 4 9 5 10 6 3 7 4 8 2 9 1 10 11 11 12 12 13 13
REMARK SMILES IDX 14 14
REMARK H PARENT
REMARK Flexibility Score: inf
ROOT
ATOM      1  C   UNL     1      27.308  39.960  19.367  1.00  0.00     0.074 A 
ATOM      2  C   UNL     1      27.624  41.273  18.970  1.00  0.00     0.016 A 
ATOM      3  C   UNL     1      27.206  42.368  19.727  1.00  0.00     0.001 A 
ATOM      4  C   UNL     1      26.468  42.171  20.892  1.00  0.00     0.001 A 
ATOM      5  C   UNL     1      26.125  40.879  21.293  1.00  0.00     0.016 A 
ATOM      6  C   UNL     1      26.516  39.762  20.532  1.00  0.00     0.074 A 
ENDROOT
BRANCH   1   7
ATOM      7  C   UNL     1      27.879  38.836  18.590  1.00  0.00     0.338 C 
ATOM      8  O   UNL     1      27.351  38.501  17.494  1.00  0.00    -0.246 OA
BRANCH   7   9
ATOM      9  O   UNL     1      29.032  38.186  19.042  1.00  0.00    -0.465 OA
ATOM     10  C   UNL     1      29.125  36.771  19.146  1.00  0.00     0.282 C 
ENDBRANCH   7   9
ENDBRANCH   1   7
BRANCH   6  11
ATOM     11  C   UNL     1      26.022  38.431  20.952  1.00  0.00     0.338 C 
ATOM     12  O   UNL     1      26.765  37.655  21.614  1.00  0.00    -0.246 OA
BRANCH  11  13
ATOM     13  O   UNL     1      24.745  38.016  20.562  1.00  0.00    -0.465 OA
ATOM     14  C   UNL     1      24.028  36.996  21.247  1.00  0.00     0.282 C 
ENDBRANCH  11  13
ENDBRANCH   6  11
TORSDOF 4
ENDMDL
MODEL 4
REMARK VINA RESULT:    -4.002      1.420      4.389
REMARK INTER + INTRA:          -5.184
REMARK INTER:                  -4.864
REMARK INTRA:                  -0.320
REMARK UNBOUND:                -0.246
REMARK SMILES COC(=O)c1ccccc1C(=O)OC
REMARK SMILES IDX 5 1 6 2 7 3 8 4 9 5 10 6 3 7 4 8 2 9 1 10 11 11 12 12 13 13
REMARK SMILES IDX 14 14
REMARK H PARENT
REMARK Flexibility Score: inf
ROOT
ATOM      1  C   UNL     1      26.759  28.130  29.202  1.00  0.00     0.074 A 
ATOM      2  C   UNL     1      28.045  28.643  28.945  1.00  0.00     0.016 A 
ATOM      3  C   UNL     1      28.481  28.853  27.637  1.00  0.00     0.001 A 
ATOM      4  C   UNL     1      27.642  28.558  26.565  1.00  0.00     0.001 A 
ATOM      5  C   UNL     1      26.372  28.029  26.795  1.00  0.00     0.016 A 
ATOM      6  C   UNL     1      25.920  27.787  28.105  1.00  0.00     0.074 A 
ENDROOT
BRANCH   1   7
ATOM      7  C   UNL     1      26.309  28.040  30.609  1.00  0.00     0.338 C 
ATOM      8  O   UNL     1      25.756  29.035  31.155  1.00  0.00    -0.246 OA
BRANCH   7   9
ATOM      9  O   UNL     1      26.445  26.840  31.314  1.00  0.00    -0.465 OA
ATOM     10  C   UNL     1      27.047  25.682  30.749  1.00  0.00     0.282 C 
ENDBRANCH   7   9
ENDBRANCH   1   7
BRANCH   6  11
ATOM     11  C   UNL     1      24.610  27.119  28.274  1.00  0.00     0.338 C 
ATOM     12  O   UNL     1      24.536  25.860  28.308  1.00  0.00    -0.246 OA
BRANCH  11  13
ATOM     13  O   UNL     1      23.446  27.892  28.340  1.00  0.00    -0.465 OA
ATOM     14  C   UNL     1      22.162  27.374  28.015  1.00  0.00     0.282 C 
ENDBRANCH  11  13
ENDBRANCH   6  11
TORSDOF 4
ENDMDL
MODEL 5
REMARK VINA RESULT:    -3.990      1.412      2.817
REMARK INTER + INTRA:          -5.169
REMARK INTER:                  -4.874
REMARK INTRA:                  -0.295
REMARK UNBOUND:                -0.246
REMARK SMILES COC(=O)c1ccccc1C(=O)OC
REMARK SMILES IDX 5 1 6 2 7 3 8 4 9 5 10 6 3 7 4 8 2 9 1 10 11 11 12 12 13 13
REMARK SMILES IDX 14 14
REMARK H PARENT
REMARK Flexibility Score: inf
ROOT
ATOM      1  C   UNL     1      25.913  27.802  28.071  1.00  0.00     0.074 A 
ATOM      2  C   UNL     1      26.394  28.021  26.766  1.00  0.00     0.016 A 
ATOM      3  C   UNL     1      27.675  28.531  26.554  1.00  0.00     0.001 A 
ATOM      4  C   UNL     1      28.497  28.828  27.638  1.00  0.00     0.001 A 
ATOM      5  C   UNL     1      28.033  28.639  28.941  1.00  0.00     0.016 A 
ATOM      6  C   UNL     1      26.736  28.148  29.179  1.00  0.00     0.074 A 
ENDROOT
BRANCH   1   7
ATOM      7  C   UNL     1      24.594  27.149  28.231  1.00  0.00     0.338 C 
ATOM      8  O   UNL     1      24.524  25.893  28.327  1.00  0.00    -0.246 OA
BRANCH   7   9
ATOM      9  O   UNL     1      23.435  27.926  28.333  1.00  0.00    -0.465 OA
ATOM     10  C   UNL     1      22.134  27.398  28.106  1.00  0.00     0.282 C 
ENDBRANCH   7   9
ENDBRANCH   1   7
BRANCH   6  11
ATOM     11  C   UNL     1      26.268  28.080  30.581  1.00  0.00     0.338 C 
ATOM     12  O   UNL     1      25.746  29.089  31.128  1.00  0.00    -0.246 OA
BRANCH  11  13
ATOM     13  O   UNL     1      26.458  26.904  31.314  1.00  0.00    -0.465 OA
ATOM     14  C   UNL     1      27.004  25.722  30.741  1.00  0.00     0.282 C 
ENDBRANCH  11  13
ENDBRANCH   6  11
TORSDOF 4
ENDMDL
MODEL 6
REMARK VINA RESULT:    -3.952     10.736     12.584
REMARK INTER + INTRA:          -5.121
REMARK INTER:                  -5.003
REMARK INTRA:                  -0.118
REMARK UNBOUND:                -0.246
REMARK SMILES COC(=O)c1ccccc1C(=O)OC
REMARK SMILES IDX 5 1 6 2 7 3 8 4 9 5 10 6 3 7 4 8 2 9 1 10 11 11 12 12 13 13
REMARK SMILES IDX 14 14
REMARK H PARENT
REMARK Flexibility Score: inf
ROOT
ATOM      1  C   UNL     1      28.379  35.736  21.473  1.00  0.00     0.074 A 
ATOM      2  C   UNL     1      29.125  34.863  22.289  1.00  0.00     0.016 A 
ATOM      3  C   UNL     1      28.671  34.511  23.560  1.00  0.00     0.001 A 
ATOM      4  C   UNL     1      27.467  35.021  24.038  1.00  0.00     0.001 A 
ATOM      5  C   UNL     1      26.722  35.905  23.256  1.00  0.00     0.016 A 
ATOM      6  C   UNL     1      27.172  36.292  21.980  1.00  0.00     0.074 A 
ENDROOT
BRANCH   1   7
ATOM      7  C   UNL     1      28.851  35.978  20.091  1.00  0.00     0.338 C 
ATOM      8  O   UNL     1      28.958  35.011  19.287  1.00  0.00    -0.246 OA
BRANCH   7   9
ATOM      9  O   UNL     1      29.123  37.281  19.662  1.00  0.00    -0.465 OA
ATOM     10  C   UNL     1      28.657  37.794  18.420  1.00  0.00     0.282 C 
ENDBRANCH   7   9
ENDBRANCH   1   7
BRANCH   6  11
ATOM     11  C   UNL     1      26.392  37.318  21.252  1.00  0.00     0.338 C 
ATOM     12  O   UNL     1      26.732  38.532  21.304  1.00  0.00    -0.246 OA
BRANCH  11  13
ATOM     13  O   UNL     1      25.242  36.942  20.551  1.00  0.00    -0.465 OA
ATOM     14  C   UNL     1      23.944  36.977  21.132  1.00  0.00     0.282 C 
ENDBRANCH  11  13
ENDBRANCH   6  11
TORSDOF 4
ENDMDL
MODEL 7
REMARK VINA RESULT:    -3.948     10.707     12.280
REMARK INTER + INTRA:          -5.117
REMARK INTER:                  -4.865
REMARK INTRA:                  -0.252
REMARK UNBOUND:                -0.246
REMARK SMILES COC(=O)c1ccccc1C(=O)OC
REMARK SMILES IDX 5 1 6 2 7 3 8 4 9 5 10 6 3 7 4 8 2 9 1 10 11 11 12 12 13 13
REMARK SMILES IDX 14 14
REMARK H PARENT
REMARK Flexibility Score: inf
ROOT
ATOM      1  C   UNL     1      27.052  36.250  22.034  1.00  0.00     0.074 A 
ATOM      2  C   UNL     1      26.632  35.891  23.329  1.00  0.00     0.016 A 
ATOM      3  C   UNL     1      27.449  35.120  24.156  1.00  0.00     0.001 A 
ATOM      4  C   UNL     1      28.697  34.696  23.707  1.00  0.00     0.001 A 
ATOM      5  C   UNL     1      29.125  35.022  22.420  1.00  0.00     0.016 A 
ATOM      6  C   UNL     1      28.308  35.779  21.560  1.00  0.00     0.074 A 
ENDROOT
BRANCH   1   7
ATOM      7  C   UNL     1      26.196  37.167  21.249  1.00  0.00     0.338 C 
ATOM      8  O   UNL     1      26.468  38.399  21.210  1.00  0.00    -0.246 OA
BRANCH   7   9
ATOM      9  O   UNL     1      25.123  36.662  20.507  1.00  0.00    -0.465 OA
ATOM     10  C   UNL     1      23.766  36.896  20.862  1.00  0.00     0.282 C 
ENDBRANCH   7   9
ENDBRANCH   1   7
BRANCH   6  11
ATOM     11  C   UNL     1      28.774  35.991  20.171  1.00  0.00     0.338 C 
ATOM     12  O   UNL     1      28.901  35.013  19.385  1.00  0.00    -0.246 OA
BRANCH  11  13
ATOM     13  O   UNL     1      29.125  37.279  19.751  1.00  0.00    -0.465 OA
ATOM     14  C   UNL     1      28.830  37.767  18.448  1.00  0.00     0.282 C 
ENDBRANCH  11  13
ENDBRANCH   6  11
TORSDOF 4
ENDMDL
MODEL 8
REMARK VINA RESULT:    -3.895      1.554      2.613
REMARK INTER + INTRA:          -5.051
REMARK INTER:                  -4.619
REMARK INTRA:                  -0.432
REMARK UNBOUND:                -0.246
REMARK SMILES COC(=O)c1ccccc1C(=O)OC
REMARK SMILES IDX 5 1 6 2 7 3 8 4 9 5 10 6 3 7 4 8 2 9 1 10 11 11 12 12 13 13
REMARK SMILES IDX 14 14
REMARK H PARENT
REMARK Flexibility Score: inf
ROOT
ATOM      1  C   UNL     1      26.715  27.205  29.692  1.00  0.00     0.074 A 
ATOM      2  C   UNL     1      26.667  26.173  30.649  1.00  0.00     0.016 A 
ATOM      3  C   UNL     1      27.617  25.152  30.646  1.00  0.00     0.001 A 
ATOM      4  C   UNL     1      28.633  25.145  29.692  1.00  0.00     0.001 A 
ATOM      5  C   UNL     1      28.687  26.146  28.722  1.00  0.00     0.016 A 
ATOM      6  C   UNL     1      27.726  27.172  28.691  1.00  0.00     0.074 A 
ENDROOT
BRANCH   1   7
ATOM      7  C   UNL     1      25.753  28.323  29.818  1.00  0.00     0.338 C 
ATOM      8  O   UNL     1      26.007  29.284  30.595  1.00  0.00    -0.246 OA
BRANCH   7   9
ATOM      9  O   UNL     1      24.592  28.339  29.037  1.00  0.00    -0.465 OA
ATOM     10  C   UNL     1      24.059  27.170  28.428  1.00  0.00     0.282 C 
ENDBRANCH   7   9
ENDBRANCH   1   7
BRANCH   6  11
ATOM     11  C   UNL     1      27.776  28.136  27.568  1.00  0.00     0.338 C 
ATOM     12  O   UNL     1      26.989  28.015  26.590  1.00  0.00    -0.246 OA
BRANCH  11  13
ATOM     13  O   UNL     1      28.740  29.149  27.573  1.00  0.00    -0.465 OA
ATOM     14  C   UNL     1      28.952  30.001  28.692  1.00  0.00     0.282 C 
ENDBRANCH  11  13
ENDBRANCH   6  11
TORSDOF 4
ENDMDL
MODEL 9
REMARK VINA RESULT:    -3.284     13.562     15.579
REMARK INTER + INTRA:          -4.298
REMARK INTER:                  -3.952
REMARK INTRA:                  -0.346
REMARK UNBOUND:                -0.246
REMARK SMILES COC(=O)c1ccccc1C(=O)OC
REMARK SMILES IDX 5 1 6 2 7 3 8 4 9 5 10 6 3 7 4 8 2 9 1 10 11 11 12 12 13 13
REMARK SMILES IDX 14 14
REMARK H PARENT
REMARK Flexibility Score: inf
ROOT
ATOM      1  C   UNL     1      26.604  39.595  20.487  1.00  0.00     0.074 A 
ATOM      2  C   UNL     1      26.143  40.673  21.266  1.00  0.00     0.016 A 
ATOM      3  C   UNL     1      26.411  41.990  20.892  1.00  0.00     0.001 A 
ATOM      4  C   UNL     1      27.139  42.253  19.735  1.00  0.00     0.001 A 
ATOM      5  C   UNL     1      27.624  41.200  18.959  1.00  0.00     0.016 A 
ATOM      6  C   UNL     1      27.387  39.864  19.329  1.00  0.00     0.074 A 
ENDROOT
BRANCH   1   7
ATOM      7  C   UNL     1      26.189  38.226  20.868  1.00  0.00     0.338 C 
ATOM      8  O   UNL     1      26.901  37.554  21.664  1.00  0.00    -0.246 OA
BRANCH   7   9
ATOM      9  O   UNL     1      24.982  37.701  20.393  1.00  0.00    -0.465 OA
ATOM     10  C   UNL     1      24.020  37.092  21.245  1.00  0.00     0.282 C 
ENDBRANCH   7   9
ENDBRANCH   1   7
BRANCH   6  11
ATOM     11  C   UNL     1      28.025  38.797  18.526  1.00  0.00     0.338 C 
ATOM     12  O   UNL     1      27.572  38.499  17.387  1.00  0.00    -0.246 OA
BRANCH  11  13
ATOM     13  O   UNL     1      29.103  38.084  19.061  1.00  0.00    -0.465 OA
ATOM     14  C   UNL     1      29.125  36.663  19.127  1.00  0.00     0.282 C 
ENDBRANCH  11  13
ENDBRANCH   6  11
TORSDOF 4
ENDMDL
