MODEL 1
REMARK VINA RESULT:    -3.417      0.000      0.000
REMARK INTER + INTRA:          -5.280
REMARK INTER:                  -5.215
REMARK INTRA:                  -0.065
REMARK UNBOUND:                -0.065
REMARK SMILES CC1=CCC[C@H](C)C(=O)C[C@@H](C(C)C)C(=O)C1
REMARK SMILES IDX 8 1 9 2 6 3 7 4 5 5 4 6 3 7 2 8 1 9 10 11 11 12 15 13 16 14
REMARK SMILES IDX 17 15 12 17 13 18 14 19
REMARK H PARENT
REMARK Flexibility Score: 70.00
ROOT
ATOM      1  C   UNL     1      11.056 -26.494  39.961  1.00  0.00     0.136 C 
ATOM      2  O   UNL     1      11.291 -27.196  40.934  1.00  0.00    -0.299 OA
ENDROOT
BRANCH   1   3
ATOM      3  C   UNL     1      10.223 -25.239  40.119  1.00  0.00     0.053 C 
ATOM      4  C   UNL     1       8.875 -25.602  40.750  1.00  0.00     0.016 C 
BRANCH   3   5
ATOM      5  C   UNL     1      10.947 -24.175  40.978  1.00  0.00     0.015 C 
BRANCH   5   6
ATOM      6  C   UNL     1      12.460 -24.114  40.718  1.00  0.00     0.028 C 
BRANCH   6   7
ATOM      7  C   UNL     1      12.778 -23.223  39.541  1.00  0.00    -0.028 C 
ATOM      8  C   UNL     1      13.685 -23.489  38.574  1.00  0.00    -0.070 CG0
ATOM      9  C   UNL     1      13.864 -22.473  37.474  1.00  0.00     0.039 C 
ATOM     10  G   UNL     1      14.499 -24.768  38.525  1.00  0.00     0.000 G0
ENDBRANCH   6   7
ENDBRANCH   5   6
ENDBRANCH   3   5
ENDBRANCH   1   3
BRANCH   1  11
ATOM     11  C   UNL     1      11.590 -26.909  38.614  1.00  0.00     0.087 C 
BRANCH  11  12
ATOM     12  C   UNL     1      13.136 -27.005  38.607  1.00  0.00     0.066 C 
BRANCH  12  13
ATOM     13  C   UNL     1      13.752 -25.860  37.817  1.00  0.00     0.140 C 
ATOM     14  O   UNL     1      13.658 -25.843  36.597  1.00  0.00    -0.299 OA
BRANCH  13  15
ATOM     15  C   UNL     1      14.517 -24.758  38.502  1.00  0.00     0.106 CG0
ATOM     16  G   UNL     1      13.689 -23.491  38.581  1.00  0.00     0.000 G0
ENDBRANCH  13  15
ENDBRANCH  12  13
BRANCH  12  17
ATOM     17  C   UNL     1      13.629 -28.397  38.109  1.00  0.00    -0.006 C 
ATOM     18  C   UNL     1      12.655 -29.516  38.509  1.00  0.00     0.008 C 
ATOM     19  C   UNL     1      15.056 -28.751  38.562  1.00  0.00     0.008 C 
ENDBRANCH  12  17
ENDBRANCH  11  12
ENDBRANCH   1  11
TORSDOF 1
ENDMDL
MODEL 2
REMARK VINA RESULT:    -3.267      2.161      3.869
REMARK INTER + INTRA:          -5.050
REMARK INTER:                  -5.111
REMARK INTRA:                   0.060
REMARK UNBOUND:                -0.065
REMARK SMILES CC1=CCC[C@H](C)C(=O)C[C@@H](C(C)C)C(=O)C1
REMARK SMILES IDX 8 1 9 2 6 3 7 4 5 5 4 6 3 7 2 8 1 9 10 11 11 12 15 13 16 14
REMARK SMILES IDX 17 15 12 17 13 18 14 19
REMARK H PARENT
REMARK Flexibility Score: 70.00
ROOT
ATOM      1  C   UNL     1      10.423 -23.007  40.293  1.00  0.00     0.136 C 
ATOM      2  O   UNL     1       9.295 -22.695  40.645  1.00  0.00    -0.299 OA
ENDROOT
BRANCH   1   3
ATOM      3  C   UNL     1      11.615 -22.215  40.791  1.00  0.00     0.053 C 
ATOM      4  C   UNL     1      11.645 -22.253  42.323  1.00  0.00     0.016 C 
BRANCH   3   5
ATOM      5  C   UNL     1      12.944 -22.757  40.216  1.00  0.00     0.015 C 
BRANCH   5   6
ATOM      6  C   UNL     1      13.751 -23.583  41.229  1.00  0.00     0.028 C 
BRANCH   6   7
ATOM      7  C   UNL     1      14.689 -24.541  40.533  1.00  0.00    -0.028 C 
ATOM      8  C   UNL     1      14.437 -25.845  40.277  1.00  0.00    -0.070 CG0
ATOM      9  C   UNL     1      15.501 -26.645  39.568  1.00  0.00     0.039 C 
ATOM     10  G   UNL     1      13.130 -26.526  40.636  1.00  0.00     0.000 G0
ENDBRANCH   6   7
ENDBRANCH   5   6
ENDBRANCH   3   5
ENDBRANCH   1   3
BRANCH   1  11
ATOM     11  C   UNL     1      10.601 -24.170  39.351  1.00  0.00     0.087 C 
BRANCH  11  12
ATOM     12  C   UNL     1      10.771 -25.510  40.108  1.00  0.00     0.066 C 
BRANCH  12  13
ATOM     13  C   UNL     1      12.037 -26.230  39.669  1.00  0.00     0.140 C 
ATOM     14  O   UNL     1      12.160 -26.588  38.506  1.00  0.00    -0.299 OA
BRANCH  13  15
ATOM     15  C   UNL     1      13.135 -26.551  40.648  1.00  0.00     0.106 CG0
ATOM     16  G   UNL     1      14.423 -25.846  40.270  1.00  0.00     0.000 G0
ENDBRANCH  13  15
ENDBRANCH  12  13
BRANCH  12  17
ATOM     17  C   UNL     1       9.507 -26.413  39.984  1.00  0.00    -0.006 C 
ATOM     18  C   UNL     1       8.892 -26.330  38.578  1.00  0.00     0.008 C 
ATOM     19  C   UNL     1       8.432 -26.131  41.049  1.00  0.00     0.008 C 
ENDBRANCH  12  17
ENDBRANCH  11  12
ENDBRANCH   1  11
TORSDOF 1
ENDMDL
MODEL 3
REMARK VINA RESULT:    -3.209      3.857      5.874
REMARK INTER + INTRA:          -4.961
REMARK INTER:                  -4.738
REMARK INTRA:                  -0.224
REMARK UNBOUND:                -0.065
REMARK SMILES CC1=CCC[C@H](C)C(=O)C[C@@H](C(C)C)C(=O)C1
REMARK SMILES IDX 8 1 9 2 6 3 7 4 5 5 4 6 3 7 2 8 1 9 10 11 11 12 15 13 16 14
REMARK SMILES IDX 17 15 12 17 13 18 14 19
REMARK H PARENT
REMARK Flexibility Score: 70.00
ROOT
ATOM      1  C   UNL     1      10.652 -27.290  40.228  1.00  0.00     0.136 C 
ATOM      2  O   UNL     1      10.436 -27.069  39.045  1.00  0.00    -0.299 OA
ENDROOT
BRANCH   1   3
ATOM      3  C   UNL     1       9.608 -26.931  41.266  1.00  0.00     0.053 C 
ATOM      4  C   UNL     1       9.019 -25.556  40.937  1.00  0.00     0.016 C 
BRANCH   3   5
ATOM      5  C   UNL     1       8.486 -27.992  41.340  1.00  0.00     0.015 C 
BRANCH   5   6
ATOM      6  C   UNL     1       8.696 -29.020  42.463  1.00  0.00     0.028 C 
BRANCH   6   7
ATOM      7  C   UNL     1       8.886 -30.410  41.905  1.00  0.00    -0.028 C 
ATOM      8  C   UNL     1      10.066 -31.065  41.806  1.00  0.00    -0.070 CG0
ATOM      9  C   UNL     1      10.056 -32.453  41.218  1.00  0.00     0.039 C 
ATOM     10  G   UNL     1      11.382 -30.486  42.289  1.00  0.00     0.000 G0
ENDBRANCH   6   7
ENDBRANCH   5   6
ENDBRANCH   3   5
ENDBRANCH   1   3
BRANCH   1  11
ATOM     11  C   UNL     1      11.970 -27.902  40.629  1.00  0.00     0.087 C 
BRANCH  11  12
ATOM     12  C   UNL     1      12.151 -29.324  40.043  1.00  0.00     0.066 C 
BRANCH  12  13
ATOM     13  C   UNL     1      12.366 -30.347  41.147  1.00  0.00     0.140 C 
ATOM     14  O   UNL     1      13.329 -31.100  41.100  1.00  0.00    -0.299 OA
BRANCH  13  15
ATOM     15  C   UNL     1      11.390 -30.486  42.287  1.00  0.00     0.106 CG0
ATOM     16  G   UNL     1      10.072 -31.061  41.805  1.00  0.00     0.000 G0
ENDBRANCH  13  15
ENDBRANCH  12  13
BRANCH  12  17
ATOM     17  C   UNL     1      13.281 -29.370  38.970  1.00  0.00    -0.006 C 
ATOM     18  C   UNL     1      14.327 -28.270  39.206  1.00  0.00     0.008 C 
ATOM     19  C   UNL     1      12.768 -29.310  37.521  1.00  0.00     0.008 C 
ENDBRANCH  12  17
ENDBRANCH  11  12
ENDBRANCH   1  11
TORSDOF 1
ENDMDL
MODEL 4
REMARK VINA RESULT:    -3.201      2.037      2.487
REMARK INTER + INTRA:          -4.950
REMARK INTER:                  -4.724
REMARK INTRA:                  -0.226
REMARK UNBOUND:                -0.065
REMARK SMILES CC1=CCC[C@H](C)C(=O)C[C@@H](C(C)C)C(=O)C1
REMARK SMILES IDX 8 1 9 2 6 3 7 4 5 5 4 6 3 7 2 8 1 9 10 11 11 12 15 13 16 14
REMARK SMILES IDX 17 15 12 17 13 18 14 19
REMARK H PARENT
REMARK Flexibility Score: 70.00
ROOT
ATOM      1  C   UNL     1      11.330 -24.402  40.421  1.00  0.00     0.136 C 
ATOM      2  O   UNL     1      10.886 -25.363  41.033  1.00  0.00    -0.299 OA
ENDROOT
BRANCH   1   3
ATOM      3  C   UNL     1      10.844 -23.006  40.753  1.00  0.00     0.053 C 
ATOM      4  C   UNL     1       9.320 -22.954  40.615  1.00  0.00     0.016 C 
BRANCH   3   5
ATOM      5  C   UNL     1      11.269 -22.575  42.176  1.00  0.00     0.015 C 
BRANCH   5   6
ATOM      6  C   UNL     1      12.775 -22.294  42.300  1.00  0.00     0.028 C 
BRANCH   6   7
ATOM      7  C   UNL     1      13.282 -21.496  41.122  1.00  0.00    -0.028 C 
ATOM      8  C   UNL     1      14.354 -21.812  40.360  1.00  0.00    -0.070 CG0
ATOM      9  C   UNL     1      14.707 -20.888  39.221  1.00  0.00     0.039 C 
ATOM     10  G   UNL     1      15.189 -23.059  40.573  1.00  0.00     0.000 G0
ENDBRANCH   6   7
ENDBRANCH   5   6
ENDBRANCH   3   5
ENDBRANCH   1   3
BRANCH   1  11
ATOM     11  C   UNL     1      12.342 -24.635  39.329  1.00  0.00     0.087 C 
BRANCH  11  12
ATOM     12  C   UNL     1      13.696 -25.136  39.890  1.00  0.00     0.066 C 
BRANCH  12  13
ATOM     13  C   UNL     1      14.812 -24.145  39.594  1.00  0.00     0.140 C 
ATOM     14  O   UNL     1      15.451 -24.241  38.555  1.00  0.00    -0.299 OA
BRANCH  13  15
ATOM     15  C   UNL     1      15.179 -23.063  40.576  1.00  0.00     0.106 CG0
ATOM     16  G   UNL     1      14.343 -21.819  40.350  1.00  0.00     0.000 G0
ENDBRANCH  13  15
ENDBRANCH  12  13
BRANCH  12  17
ATOM     17  C   UNL     1      14.036 -26.572  39.390  1.00  0.00    -0.006 C 
ATOM     18  C   UNL     1      13.106 -27.005  38.245  1.00  0.00     0.008 C 
ATOM     19  C   UNL     1      14.037 -27.636  40.501  1.00  0.00     0.008 C 
ENDBRANCH  12  17
ENDBRANCH  11  12
ENDBRANCH   1  11
TORSDOF 1
ENDMDL
MODEL 5
REMARK VINA RESULT:    -3.191      3.156      4.159
REMARK INTER + INTRA:          -4.934
REMARK INTER:                  -4.750
REMARK INTRA:                  -0.184
REMARK UNBOUND:                -0.065
REMARK SMILES CC1=CCC[C@H](C)C(=O)C[C@@H](C(C)C)C(=O)C1
REMARK SMILES IDX 8 1 9 2 6 3 7 4 5 5 4 6 3 7 2 8 1 9 10 11 11 12 15 13 16 14
REMARK SMILES IDX 17 15 12 17 13 18 14 19
REMARK H PARENT
REMARK Flexibility Score: 70.00
ROOT
ATOM      1  C   UNL     1       9.068 -28.739  41.788  1.00  0.00     0.136 C 
ATOM      2  O   UNL     1       8.536 -29.014  42.854  1.00  0.00    -0.299 OA
ENDROOT
BRANCH   1   3
ATOM      3  C   UNL     1       8.808 -27.395  41.139  1.00  0.00     0.053 C 
ATOM      4  C   UNL     1       7.358 -26.977  41.402  1.00  0.00     0.016 C 
BRANCH   3   5
ATOM      5  C   UNL     1       9.780 -26.310  41.660  1.00  0.00     0.015 C 
BRANCH   5   6
ATOM      6  C   UNL     1      10.718 -25.764  40.572  1.00  0.00     0.028 C 
BRANCH   6   7
ATOM      7  C   UNL     1      10.399 -26.362  39.223  1.00  0.00    -0.028 C 
ATOM      8  C   UNL     1      11.130 -27.303  38.585  1.00  0.00    -0.070 CG0
ATOM      9  C   UNL     1      10.649 -27.779  37.237  1.00  0.00     0.039 C 
ATOM     10  G   UNL     1      12.383 -27.924  39.172  1.00  0.00     0.000 G0
ENDBRANCH   6   7
ENDBRANCH   5   6
ENDBRANCH   3   5
ENDBRANCH   1   3
BRANCH   1  11
ATOM     11  C   UNL     1       9.959 -29.761  41.130  1.00  0.00     0.087 C 
BRANCH  11  12
ATOM     12  C   UNL     1      11.454 -29.362  41.208  1.00  0.00     0.066 C 
BRANCH  12  13
ATOM     13  C   UNL     1      12.071 -29.278  39.821  1.00  0.00     0.140 C 
ATOM     14  O   UNL     1      12.353 -30.304  39.217  1.00  0.00    -0.299 OA
BRANCH  13  15
ATOM     15  C   UNL     1      12.385 -27.950  39.182  1.00  0.00     0.106 CG0
ATOM     16  G   UNL     1      11.137 -27.327  38.587  1.00  0.00     0.000 G0
ENDBRANCH  13  15
ENDBRANCH  12  13
BRANCH  12  17
ATOM     17  C   UNL     1      12.258 -30.305  42.154  1.00  0.00    -0.006 C 
ATOM     18  C   UNL     1      11.333 -31.289  42.887  1.00  0.00     0.008 C 
ATOM     19  C   UNL     1      13.148 -29.562  43.166  1.00  0.00     0.008 C 
ENDBRANCH  12  17
ENDBRANCH  11  12
ENDBRANCH   1  11
TORSDOF 1
ENDMDL
MODEL 6
REMARK VINA RESULT:    -3.180      3.631      6.133
REMARK INTER + INTRA:          -4.918
REMARK INTER:                  -4.801
REMARK INTRA:                  -0.117
REMARK UNBOUND:                -0.065
REMARK SMILES CC1=CCC[C@H](C)C(=O)C[C@@H](C(C)C)C(=O)C1
REMARK SMILES IDX 8 1 9 2 6 3 7 4 5 5 4 6 3 7 2 8 1 9 10 11 11 12 15 13 16 14
REMARK SMILES IDX 17 15 12 17 13 18 14 19
REMARK H PARENT
REMARK Flexibility Score: 70.00
ROOT
ATOM      1  C   UNL     1      10.646 -28.065  38.256  1.00  0.00     0.136 C 
ATOM      2  O   UNL     1      10.687 -26.959  37.737  1.00  0.00    -0.299 OA
ENDROOT
BRANCH   1   3
ATOM      3  C   UNL     1      11.582 -29.158  37.780  1.00  0.00     0.053 C 
ATOM      4  C   UNL     1      11.616 -29.163  36.248  1.00  0.00     0.016 C 
BRANCH   3   5
ATOM      5  C   UNL     1      13.010 -28.976  38.346  1.00  0.00     0.015 C 
BRANCH   5   6
ATOM      6  C   UNL     1      13.507 -30.196  39.139  1.00  0.00     0.028 C 
BRANCH   6   7
ATOM      7  C   UNL     1      13.695 -29.860  40.600  1.00  0.00    -0.028 C 
ATOM      8  C   UNL     1      12.738 -29.926  41.553  1.00  0.00    -0.070 CG0
ATOM      9  C   UNL     1      13.117 -29.549  42.963  1.00  0.00     0.039 C 
ATOM     10  G   UNL     1      11.321 -30.393  41.279  1.00  0.00     0.000 G0
ENDBRANCH   6   7
ENDBRANCH   5   6
ENDBRANCH   3   5
ENDBRANCH   1   3
BRANCH   1  11
ATOM     11  C   UNL     1       9.646 -28.322  39.353  1.00  0.00     0.087 C 
BRANCH  11  12
ATOM     12  C   UNL     1      10.240 -28.049  40.757  1.00  0.00     0.066 C 
BRANCH  12  13
ATOM     13  C   UNL     1      10.306 -29.325  41.582  1.00  0.00     0.140 C 
ATOM     14  O   UNL     1       9.552 -29.473  42.534  1.00  0.00    -0.299 OA
BRANCH  13  15
ATOM     15  C   UNL     1      11.312 -30.404  41.277  1.00  0.00     0.106 CG0
ATOM     16  G   UNL     1      12.723 -29.924  41.554  1.00  0.00     0.000 G0
ENDBRANCH  13  15
ENDBRANCH  12  13
BRANCH  12  17
ATOM     17  C   UNL     1       9.481 -26.907  41.498  1.00  0.00    -0.006 C 
ATOM     18  C   UNL     1       8.010 -26.832  41.059  1.00  0.00     0.008 C 
ATOM     19  C   UNL     1      10.144 -25.526  41.362  1.00  0.00     0.008 C 
ENDBRANCH  12  17
ENDBRANCH  11  12
ENDBRANCH   1  11
TORSDOF 1
ENDMDL
MODEL 7
REMARK VINA RESULT:    -3.108      2.481      4.036
REMARK INTER + INTRA:          -4.809
REMARK INTER:                  -4.799
REMARK INTRA:                  -0.009
REMARK UNBOUND:                -0.065
REMARK SMILES CC1=CCC[C@H](C)C(=O)C[C@@H](C(C)C)C(=O)C1
REMARK SMILES IDX 8 1 9 2 6 3 7 4 5 5 4 6 3 7 2 8 1 9 10 11 11 12 15 13 16 14
REMARK SMILES IDX 17 15 12 17 13 18 14 19
REMARK H PARENT
REMARK Flexibility Score: 70.00
ROOT
ATOM      1  C   UNL     1      11.972 -24.369  40.075  1.00  0.00     0.136 C 
ATOM      2  O   UNL     1      12.132 -23.813  38.998  1.00  0.00    -0.299 OA
ENDROOT
BRANCH   1   3
ATOM      3  C   UNL     1      10.880 -23.896  41.013  1.00  0.00     0.053 C 
ATOM      4  C   UNL     1      10.902 -22.366  41.086  1.00  0.00     0.016 C 
BRANCH   3   5
ATOM      5  C   UNL     1       9.485 -24.391  40.564  1.00  0.00     0.015 C 
BRANCH   5   6
ATOM      6  C   UNL     1       9.175 -25.826  41.020  1.00  0.00     0.028 C 
BRANCH   6   7
ATOM      7  C   UNL     1       9.051 -26.760  39.839  1.00  0.00    -0.028 C 
ATOM      8  C   UNL     1       9.972 -27.673  39.456  1.00  0.00    -0.070 CG0
ATOM      9  C   UNL     1       9.667 -28.519  38.245  1.00  0.00     0.039 C 
ATOM     10  G   UNL     1      11.271 -27.908  40.202  1.00  0.00     0.000 G0
ENDBRANCH   6   7
ENDBRANCH   5   6
ENDBRANCH   3   5
ENDBRANCH   1   3
BRANCH   1  11
ATOM     11  C   UNL     1      12.884 -25.507  40.453  1.00  0.00     0.087 C 
BRANCH  11  12
ATOM     12  C   UNL     1      13.222 -26.408  39.240  1.00  0.00     0.066 C 
BRANCH  12  13
ATOM     13  C   UNL     1      12.473 -27.730  39.313  1.00  0.00     0.140 C 
ATOM     14  O   UNL     1      12.822 -28.666  38.606  1.00  0.00    -0.299 OA
BRANCH  13  15
ATOM     15  C   UNL     1      11.276 -27.903  40.211  1.00  0.00     0.106 CG0
ATOM     16  G   UNL     1       9.987 -27.670  39.448  1.00  0.00     0.000 G0
ENDBRANCH  13  15
ENDBRANCH  12  13
BRANCH  12  17
ATOM     17  C   UNL     1      14.759 -26.611  39.078  1.00  0.00    -0.006 C 
ATOM     18  C   UNL     1      15.433 -26.908  40.426  1.00  0.00     0.008 C 
ATOM     19  C   UNL     1      15.472 -25.442  38.377  1.00  0.00     0.008 C 
ENDBRANCH  12  17
ENDBRANCH  11  12
ENDBRANCH   1  11
TORSDOF 1
ENDMDL
MODEL 8
REMARK VINA RESULT:    -3.069      2.454      3.386
REMARK INTER + INTRA:          -4.748
REMARK INTER:                  -4.552
REMARK INTRA:                  -0.196
REMARK UNBOUND:                -0.065
REMARK SMILES CC1=CCC[C@H](C)C(=O)C[C@@H](C(C)C)C(=O)C1
REMARK SMILES IDX 8 1 9 2 6 3 7 4 5 5 4 6 3 7 2 8 1 9 10 11 11 12 15 13 16 14
REMARK SMILES IDX 17 15 12 17 13 18 14 19
REMARK H PARENT
REMARK Flexibility Score: 70.00
ROOT
ATOM      1  C   UNL     1       8.661 -29.188  39.699  1.00  0.00     0.136 C 
ATOM      2  O   UNL     1       8.350 -30.354  39.499  1.00  0.00    -0.299 OA
ENDROOT
BRANCH   1   3
ATOM      3  C   UNL     1       8.204 -28.492  40.965  1.00  0.00     0.053 C 
ATOM      4  C   UNL     1       9.017 -29.019  42.152  1.00  0.00     0.016 C 
BRANCH   3   5
ATOM      5  C   UNL     1       8.346 -26.956  40.857  1.00  0.00     0.015 C 
BRANCH   5   6
ATOM      6  C   UNL     1       9.475 -26.389  41.733  1.00  0.00     0.028 C 
BRANCH   6   7
ATOM      7  C   UNL     1      10.138 -25.204  41.070  1.00  0.00    -0.028 C 
ATOM      8  C   UNL     1      11.306 -25.235  40.388  1.00  0.00    -0.070 CG0
ATOM      9  C   UNL     1      11.812 -23.944  39.795  1.00  0.00     0.039 C 
ATOM     10  G   UNL     1      12.105 -26.504  40.164  1.00  0.00     0.000 G0
ENDBRANCH   6   7
ENDBRANCH   5   6
ENDBRANCH   3   5
ENDBRANCH   1   3
BRANCH   1  11
ATOM     11  C   UNL     1       9.480 -28.461  38.664  1.00  0.00     0.087 C 
BRANCH  11  12
ATOM     12  C   UNL     1      10.999 -28.581  38.937  1.00  0.00     0.066 C 
BRANCH  12  13
ATOM     13  C   UNL     1      11.672 -27.218  38.897  1.00  0.00     0.140 C 
ATOM     14  O   UNL     1      11.896 -26.682  37.821  1.00  0.00    -0.299 OA
BRANCH  13  15
ATOM     15  C   UNL     1      12.110 -26.523  40.160  1.00  0.00     0.106 CG0
ATOM     16  G   UNL     1      11.316 -25.250  40.382  1.00  0.00     0.000 G0
ENDBRANCH  13  15
ENDBRANCH  12  13
BRANCH  12  17
ATOM     17  C   UNL     1      11.683 -29.603  37.979  1.00  0.00    -0.006 C 
ATOM     18  C   UNL     1      10.905 -29.748  36.662  1.00  0.00     0.008 C 
ATOM     19  C   UNL     1      11.919 -30.987  38.609  1.00  0.00     0.008 C 
ENDBRANCH  12  17
ENDBRANCH  11  12
ENDBRANCH   1  11
TORSDOF 1
ENDMDL
MODEL 9
REMARK VINA RESULT:    -2.997      1.687      2.360
REMARK INTER + INTRA:          -4.639
REMARK INTER:                  -4.424
REMARK INTRA:                  -0.216
REMARK UNBOUND:                -0.065
REMARK SMILES CC1=CCC[C@H](C)C(=O)C[C@@H](C(C)C)C(=O)C1
REMARK SMILES IDX 8 1 9 2 6 3 7 4 5 5 4 6 3 7 2 8 1 9 10 11 11 12 15 13 16 14
REMARK SMILES IDX 17 15 12 17 13 18 14 19
REMARK H PARENT
REMARK Flexibility Score: 70.00
ROOT
ATOM      1  C   UNL     1      11.024 -26.552  40.138  1.00  0.00     0.136 C 
ATOM      2  O   UNL     1      11.330 -27.333  41.027  1.00  0.00    -0.299 OA
ENDROOT
BRANCH   1   3
ATOM      3  C   UNL     1       9.608 -26.017  40.059  1.00  0.00     0.053 C 
ATOM      4  C   UNL     1       8.625 -27.127  40.442  1.00  0.00     0.016 C 
BRANCH   3   5
ATOM      5  C   UNL     1       9.410 -24.786  40.974  1.00  0.00     0.015 C 
BRANCH   5   6
ATOM      6  C   UNL     1       9.744 -23.455  40.281  1.00  0.00     0.028 C 
BRANCH   6   7
ATOM      7  C   UNL     1      10.892 -22.754  40.967  1.00  0.00    -0.028 C 
ATOM      8  C   UNL     1      12.137 -22.600  40.462  1.00  0.00    -0.070 CG0
ATOM      9  C   UNL     1      13.155 -21.867  41.300  1.00  0.00     0.039 C 
ATOM     10  G   UNL     1      12.544 -23.095  39.088  1.00  0.00     0.000 G0
ENDBRANCH   6   7
ENDBRANCH   5   6
ENDBRANCH   3   5
ENDBRANCH   1   3
BRANCH   1  11
ATOM     11  C   UNL     1      12.064 -26.153  39.124  1.00  0.00     0.087 C 
BRANCH  11  12
ATOM     12  C   UNL     1      13.305 -25.509  39.788  1.00  0.00     0.066 C 
BRANCH  12  13
ATOM     13  C   UNL     1      13.608 -24.148  39.180  1.00  0.00     0.140 C 
ATOM     14  O   UNL     1      14.738 -23.896  38.785  1.00  0.00    -0.299 OA
BRANCH  13  15
ATOM     15  C   UNL     1      12.551 -23.078  39.088  1.00  0.00     0.106 CG0
ATOM     16  G   UNL     1      12.137 -22.605  40.468  1.00  0.00     0.000 G0
ENDBRANCH  13  15
ENDBRANCH  12  13
BRANCH  12  17
ATOM     17  C   UNL     1      14.542 -26.457  39.753  1.00  0.00    -0.006 C 
ATOM     18  C   UNL     1      14.387 -27.543  38.676  1.00  0.00     0.008 C 
ATOM     19  C   UNL     1      14.873 -27.101  41.110  1.00  0.00     0.008 C 
ENDBRANCH  12  17
ENDBRANCH  11  12
ENDBRANCH   1  11
TORSDOF 1
ENDMDL
