MODEL 1
REMARK VINA RESULT:    -5.130      0.000      0.000
REMARK INTER + INTRA:          -6.299
REMARK INTER:                  -6.330
REMARK INTRA:                   0.031
REMARK UNBOUND:                 0.031
REMARK SMILES COC(=O)c1ccccc1C(=O)OC
REMARK SMILES IDX 5 1 6 2 7 3 8 4 9 5 10 6 3 7 4 8 2 9 1 10 11 11 12 12 13 13
REMARK SMILES IDX 14 14
REMARK H PARENT
REMARK Flexibility Score: inf
ROOT
ATOM      1  C   UNL     1     135.744 123.825 139.953  1.00  0.00     0.074 A 
ATOM      2  C   UNL     1     135.346 123.808 138.604  1.00  0.00     0.016 A 
ATOM      3  C   UNL     1     136.292 123.874 137.580  1.00  0.00     0.001 A 
ATOM      4  C   UNL     1     137.648 123.959 137.886  1.00  0.00     0.001 A 
ATOM      5  C   UNL     1     138.067 123.955 139.217  1.00  0.00     0.016 A 
ATOM      6  C   UNL     1     137.132 123.867 140.265  1.00  0.00     0.074 A 
ENDROOT
BRANCH   1   7
ATOM      7  C   UNL     1     134.683 123.868 140.986  1.00  0.00     0.338 C 
ATOM      8  O   UNL     1     134.270 122.802 141.519  1.00  0.00    -0.246 OA
BRANCH   7   9
ATOM      9  O   UNL     1     134.182 125.104 141.408  1.00  0.00    -0.465 OA
ATOM     10  C   UNL     1     133.000 125.226 142.190  1.00  0.00     0.282 C 
ENDBRANCH   7   9
ENDBRANCH   1   7
BRANCH   6  11
ATOM     11  C   UNL     1     137.652 123.753 141.647  1.00  0.00     0.338 C 
ATOM     12  O   UNL     1     138.664 123.039 141.890  1.00  0.00    -0.246 OA
BRANCH  11  13
ATOM     13  O   UNL     1     137.050 124.487 142.673  1.00  0.00    -0.465 OA
ATOM     14  C   UNL     1     137.113 124.093 144.038  1.00  0.00     0.282 C 
ENDBRANCH  11  13
ENDBRANCH   6  11
TORSDOF 4
ENDMDL
MODEL 2
REMARK VINA RESULT:    -5.129      1.129      3.629
REMARK INTER + INTRA:          -6.297
REMARK INTER:                  -6.754
REMARK INTRA:                   0.457
REMARK UNBOUND:                 0.031
REMARK SMILES COC(=O)c1ccccc1C(=O)OC
REMARK SMILES IDX 5 1 6 2 7 3 8 4 9 5 10 6 3 7 4 8 2 9 1 10 11 11 12 12 13 13
REMARK SMILES IDX 14 14
REMARK H PARENT
REMARK Flexibility Score: inf
ROOT
ATOM      1  C   UNL     1     137.500 123.821 140.171  1.00  0.00     0.074 A 
ATOM      2  C   UNL     1     138.267 123.730 138.995  1.00  0.00     0.016 A 
ATOM      3  C   UNL     1     137.657 123.752 137.741  1.00  0.00     0.001 A 
ATOM      4  C   UNL     1     136.272 123.865 137.640  1.00  0.00     0.001 A 
ATOM      5  C   UNL     1     135.493 123.980 138.791  1.00  0.00     0.016 A 
ATOM      6  C   UNL     1     136.090 123.982 140.066  1.00  0.00     0.074 A 
ENDROOT
BRANCH   1   7
ATOM      7  C   UNL     1     138.202 123.675 141.467  1.00  0.00     0.338 C 
ATOM      8  O   UNL     1     137.545 123.576 142.539  1.00  0.00    -0.246 OA
BRANCH   7   9
ATOM      9  O   UNL     1     139.597 123.591 141.488  1.00  0.00    -0.465 OA
ATOM     10  C   UNL     1     140.410 124.510 142.208  1.00  0.00     0.282 C 
ENDBRANCH   7   9
ENDBRANCH   1   7
BRANCH   6  11
ATOM     11  C   UNL     1     135.216 124.222 141.238  1.00  0.00     0.338 C 
ATOM     12  O   UNL     1     135.189 125.355 141.792  1.00  0.00    -0.246 OA
BRANCH  11  13
ATOM     13  O   UNL     1     134.376 123.200 141.691  1.00  0.00    -0.465 OA
ATOM     14  C   UNL     1     133.496 123.364 142.797  1.00  0.00     0.282 C 
ENDBRANCH  11  13
ENDBRANCH   6  11
TORSDOF 4
ENDMDL
MODEL 3
REMARK VINA RESULT:    -5.126      0.035      3.214
REMARK INTER + INTRA:          -6.293
REMARK INTER:                  -6.308
REMARK INTRA:                   0.015
REMARK UNBOUND:                 0.031
REMARK SMILES COC(=O)c1ccccc1C(=O)OC
REMARK SMILES IDX 5 1 6 2 7 3 8 4 9 5 10 6 3 7 4 8 2 9 1 10 11 11 12 12 13 13
REMARK SMILES IDX 14 14
REMARK H PARENT
REMARK Flexibility Score: inf
ROOT
ATOM      1  C   UNL     1     137.127 123.841 140.250  1.00  0.00     0.074 A 
ATOM      2  C   UNL     1     138.055 123.931 139.195  1.00  0.00     0.016 A 
ATOM      3  C   UNL     1     137.627 123.948 137.868  1.00  0.00     0.001 A 
ATOM      4  C   UNL     1     136.268 123.876 137.571  1.00  0.00     0.001 A 
ATOM      5  C   UNL     1     135.329 123.809 138.600  1.00  0.00     0.016 A 
ATOM      6  C   UNL     1     135.737 123.813 139.947  1.00  0.00     0.074 A 
ENDROOT
BRANCH   1   7
ATOM      7  C   UNL     1     137.657 123.712 141.627  1.00  0.00     0.338 C 
ATOM      8  O   UNL     1     138.653 122.974 141.860  1.00  0.00    -0.246 OA
BRANCH   7   9
ATOM      9  O   UNL     1     137.081 124.460 142.659  1.00  0.00    -0.465 OA
ATOM     10  C   UNL     1     137.131 124.053 144.021  1.00  0.00     0.282 C 
ENDBRANCH   7   9
ENDBRANCH   1   7
BRANCH   6  11
ATOM     11  C   UNL     1     134.684 123.856 140.988  1.00  0.00     0.338 C 
ATOM     12  O   UNL     1     134.270 122.789 141.520  1.00  0.00    -0.246 OA
BRANCH  11  13
ATOM     13  O   UNL     1     134.192 125.091 141.419  1.00  0.00    -0.465 OA
ATOM     14  C   UNL     1     133.015 125.216 142.209  1.00  0.00     0.282 C 
ENDBRANCH  11  13
ENDBRANCH   6  11
TORSDOF 4
ENDMDL
MODEL 4
REMARK VINA RESULT:    -5.118      1.137      1.738
REMARK INTER + INTRA:          -6.284
REMARK INTER:                  -6.743
REMARK INTRA:                   0.459
REMARK UNBOUND:                 0.031
REMARK SMILES COC(=O)c1ccccc1C(=O)OC
REMARK SMILES IDX 5 1 6 2 7 3 8 4 9 5 10 6 3 7 4 8 2 9 1 10 11 11 12 12 13 13
REMARK SMILES IDX 14 14
REMARK H PARENT
REMARK Flexibility Score: inf
ROOT
ATOM      1  C   UNL     1     136.088 124.007 140.075  1.00  0.00     0.074 A 
ATOM      2  C   UNL     1     135.471 123.992 138.811  1.00  0.00     0.016 A 
ATOM      3  C   UNL     1     136.230 123.867 137.647  1.00  0.00     0.001 A 
ATOM      4  C   UNL     1     137.617 123.756 137.726  1.00  0.00     0.001 A 
ATOM      5  C   UNL     1     138.248 123.746 138.970  1.00  0.00     0.016 A 
ATOM      6  C   UNL     1     137.500 123.849 140.158  1.00  0.00     0.074 A 
ENDROOT
BRANCH   1   7
ATOM      7  C   UNL     1     135.233 124.258 141.258  1.00  0.00     0.338 C 
ATOM      8  O   UNL     1     135.216 125.397 141.802  1.00  0.00    -0.246 OA
BRANCH   7   9
ATOM      9  O   UNL     1     134.401 123.240 141.734  1.00  0.00    -0.465 OA
ATOM     10  C   UNL     1     133.493 123.433 142.813  1.00  0.00     0.282 C 
ENDBRANCH   7   9
ENDBRANCH   1   7
BRANCH   6  11
ATOM     11  C   UNL     1     138.223 123.716 141.444  1.00  0.00     0.338 C 
ATOM     12  O   UNL     1     137.584 123.627 142.528  1.00  0.00    -0.246 OA
BRANCH  11  13
ATOM     13  O   UNL     1     139.618 123.633 141.444  1.00  0.00    -0.465 OA
ATOM     14  C   UNL     1     140.442 124.548 142.156  1.00  0.00     0.282 C 
ENDBRANCH  11  13
ENDBRANCH   6  11
TORSDOF 4
ENDMDL
MODEL 5
REMARK VINA RESULT:    -4.956      1.694      3.428
REMARK INTER + INTRA:          -6.084
REMARK INTER:                  -5.714
REMARK INTRA:                  -0.370
REMARK UNBOUND:                 0.031
REMARK SMILES COC(=O)c1ccccc1C(=O)OC
REMARK SMILES IDX 5 1 6 2 7 3 8 4 9 5 10 6 3 7 4 8 2 9 1 10 11 11 12 12 13 13
REMARK SMILES IDX 14 14
REMARK H PARENT
REMARK Flexibility Score: inf
ROOT
ATOM      1  C   UNL     1     136.189 123.820 140.724  1.00  0.00     0.074 A 
ATOM      2  C   UNL     1     137.349 123.752 141.517  1.00  0.00     0.016 A 
ATOM      3  C   UNL     1     138.608 123.614 140.932  1.00  0.00     0.001 A 
ATOM      4  C   UNL     1     138.729 123.541 139.546  1.00  0.00     0.001 A 
ATOM      5  C   UNL     1     137.595 123.629 138.738  1.00  0.00     0.016 A 
ATOM      6  C   UNL     1     136.318 123.790 139.307  1.00  0.00     0.074 A 
ENDROOT
BRANCH   1   7
ATOM      7  C   UNL     1     134.880 123.850 141.415  1.00  0.00     0.338 C 
ATOM      8  O   UNL     1     134.246 122.780 141.626  1.00  0.00    -0.246 OA
BRANCH   7   9
ATOM      9  O   UNL     1     134.377 125.067 141.884  1.00  0.00    -0.465 OA
ATOM     10  C   UNL     1     132.996 125.274 142.154  1.00  0.00     0.282 C 
ENDBRANCH   7   9
ENDBRANCH   1   7
BRANCH   6  11
ATOM     11  C   UNL     1     135.173 123.991 138.388  1.00  0.00     0.338 C 
ATOM     12  O   UNL     1     134.535 122.999 137.939  1.00  0.00    -0.246 OA
BRANCH  11  13
ATOM     13  O   UNL     1     134.767 125.289 138.067  1.00  0.00    -0.465 OA
ATOM     14  C   UNL     1     133.409 125.706 138.127  1.00  0.00     0.282 C 
ENDBRANCH  11  13
ENDBRANCH   6  11
TORSDOF 4
ENDMDL
MODEL 6
REMARK VINA RESULT:    -4.930      1.678      3.112
REMARK INTER + INTRA:          -6.051
REMARK INTER:                  -5.694
REMARK INTRA:                  -0.357
REMARK UNBOUND:                 0.031
REMARK SMILES COC(=O)c1ccccc1C(=O)OC
REMARK SMILES IDX 5 1 6 2 7 3 8 4 9 5 10 6 3 7 4 8 2 9 1 10 11 11 12 12 13 13
REMARK SMILES IDX 14 14
REMARK H PARENT
REMARK Flexibility Score: inf
ROOT
ATOM      1  C   UNL     1     136.338 123.777 139.313  1.00  0.00     0.074 A 
ATOM      2  C   UNL     1     137.608 123.651 138.720  1.00  0.00     0.016 A 
ATOM      3  C   UNL     1     138.758 123.573 139.505  1.00  0.00     0.001 A 
ATOM      4  C   UNL     1     138.661 123.620 140.894  1.00  0.00     0.001 A 
ATOM      5  C   UNL     1     137.411 123.722 141.504  1.00  0.00     0.016 A 
ATOM      6  C   UNL     1     136.236 123.779 140.733  1.00  0.00     0.074 A 
ENDROOT
BRANCH   1   7
ATOM      7  C   UNL     1     135.173 123.969 138.419  1.00  0.00     0.338 C 
ATOM      8  O   UNL     1     134.529 122.973 137.989  1.00  0.00    -0.246 OA
BRANCH   7   9
ATOM      9  O   UNL     1     134.757 125.265 138.100  1.00  0.00    -0.465 OA
ATOM     10  C   UNL     1     133.393 125.667 138.153  1.00  0.00     0.282 C 
ENDBRANCH   7   9
ENDBRANCH   1   7
BRANCH   6  11
ATOM     11  C   UNL     1     134.939 123.771 141.448  1.00  0.00     0.338 C 
ATOM     12  O   UNL     1     134.281 122.700 141.564  1.00  0.00    -0.246 OA
BRANCH  11  13
ATOM     13  O   UNL     1     134.473 124.947 142.045  1.00  0.00    -0.465 OA
ATOM     14  C   UNL     1     133.096 125.297 142.079  1.00  0.00     0.282 C 
ENDBRANCH  11  13
ENDBRANCH   6  11
TORSDOF 4
ENDMDL
MODEL 7
REMARK VINA RESULT:    -4.901      1.789      4.679
REMARK INTER + INTRA:          -6.015
REMARK INTER:                  -5.832
REMARK INTRA:                  -0.183
REMARK UNBOUND:                 0.031
REMARK SMILES COC(=O)c1ccccc1C(=O)OC
REMARK SMILES IDX 5 1 6 2 7 3 8 4 9 5 10 6 3 7 4 8 2 9 1 10 11 11 12 12 13 13
REMARK SMILES IDX 14 14
REMARK H PARENT
REMARK Flexibility Score: inf
ROOT
ATOM      1  C   UNL     1     136.760 123.789 141.430  1.00  0.00     0.074 A 
ATOM      2  C   UNL     1     136.785 124.300 142.741  1.00  0.00     0.016 A 
ATOM      3  C   UNL     1     135.601 124.490 143.455  1.00  0.00     0.001 A 
ATOM      4  C   UNL     1     134.376 124.173 142.873  1.00  0.00     0.001 A 
ATOM      5  C   UNL     1     134.329 123.644 141.583  1.00  0.00     0.016 A 
ATOM      6  C   UNL     1     135.512 123.424 140.853  1.00  0.00     0.074 A 
ENDROOT
BRANCH   1   7
ATOM      7  C   UNL     1     138.042 123.722 140.691  1.00  0.00     0.338 C 
ATOM      8  O   UNL     1     138.984 122.996 141.114  1.00  0.00    -0.246 OA
BRANCH   7   9
ATOM      9  O   UNL     1     138.182 124.424 139.490  1.00  0.00    -0.465 OA
ATOM     10  C   UNL     1     138.423 123.776 138.247  1.00  0.00     0.282 C 
ENDBRANCH   7   9
ENDBRANCH   1   7
BRANCH   6  11
ATOM     11  C   UNL     1     135.397 122.754 139.537  1.00  0.00     0.338 C 
ATOM     12  O   UNL     1     135.732 121.545 139.406  1.00  0.00    -0.246 OA
BRANCH  11  13
ATOM     13  O   UNL     1     134.859 123.454 138.453  1.00  0.00    -0.465 OA
ATOM     14  C   UNL     1     134.886 124.873 138.366  1.00  0.00     0.282 C 
ENDBRANCH  11  13
ENDBRANCH   6  11
TORSDOF 4
ENDMDL
MODEL 8
REMARK VINA RESULT:    -4.887      1.793      3.632
REMARK INTER + INTRA:          -5.999
REMARK INTER:                  -5.808
REMARK INTRA:                  -0.191
REMARK UNBOUND:                 0.031
REMARK SMILES COC(=O)c1ccccc1C(=O)OC
REMARK SMILES IDX 5 1 6 2 7 3 8 4 9 5 10 6 3 7 4 8 2 9 1 10 11 11 12 12 13 13
REMARK SMILES IDX 14 14
REMARK H PARENT
REMARK Flexibility Score: inf
ROOT
ATOM      1  C   UNL     1     135.480 123.413 140.835  1.00  0.00     0.074 A 
ATOM      2  C   UNL     1     134.295 123.618 141.567  1.00  0.00     0.016 A 
ATOM      3  C   UNL     1     134.336 124.143 142.859  1.00  0.00     0.001 A 
ATOM      4  C   UNL     1     135.558 124.471 143.441  1.00  0.00     0.001 A 
ATOM      5  C   UNL     1     136.743 124.297 142.726  1.00  0.00     0.016 A 
ATOM      6  C   UNL     1     136.724 123.790 141.414  1.00  0.00     0.074 A 
ENDROOT
BRANCH   1   7
ATOM      7  C   UNL     1     135.371 122.746 139.517  1.00  0.00     0.338 C 
ATOM      8  O   UNL     1     135.691 121.533 139.389  1.00  0.00    -0.246 OA
BRANCH   7   9
ATOM      9  O   UNL     1     134.857 123.455 138.428  1.00  0.00    -0.465 OA
ATOM     10  C   UNL     1     134.837 124.877 138.378  1.00  0.00     0.282 C 
ENDBRANCH   7   9
ENDBRANCH   1   7
BRANCH   6  11
ATOM     11  C   UNL     1     138.006 123.739 140.674  1.00  0.00     0.338 C 
ATOM     12  O   UNL     1     138.957 123.025 141.095  1.00  0.00    -0.246 OA
BRANCH  11  13
ATOM     13  O   UNL     1     138.137 124.442 139.473  1.00  0.00    -0.465 OA
ATOM     14  C   UNL     1     138.411 123.801 138.233  1.00  0.00     0.282 C 
ENDBRANCH  11  13
ENDBRANCH   6  11
TORSDOF 4
ENDMDL
MODEL 9
REMARK VINA RESULT:    -4.450      1.850      3.815
REMARK INTER + INTRA:          -5.459
REMARK INTER:                  -5.201
REMARK INTRA:                  -0.258
REMARK UNBOUND:                 0.031
REMARK SMILES COC(=O)c1ccccc1C(=O)OC
REMARK SMILES IDX 5 1 6 2 7 3 8 4 9 5 10 6 3 7 4 8 2 9 1 10 11 11 12 12 13 13
REMARK SMILES IDX 14 14
REMARK H PARENT
REMARK Flexibility Score: inf
ROOT
ATOM      1  C   UNL     1     136.302 123.880 141.201  1.00  0.00     0.074 A 
ATOM      2  C   UNL     1     135.062 124.321 141.699  1.00  0.00     0.016 A 
ATOM      3  C   UNL     1     134.915 124.666 143.043  1.00  0.00     0.001 A 
ATOM      4  C   UNL     1     136.001 124.578 143.910  1.00  0.00     0.001 A 
ATOM      5  C   UNL     1     137.245 124.165 143.433  1.00  0.00     0.016 A 
ATOM      6  C   UNL     1     137.422 123.833 142.077  1.00  0.00     0.074 A 
ENDROOT
BRANCH   1   7
ATOM      7  C   UNL     1     136.357 123.421 139.794  1.00  0.00     0.338 C 
ATOM      8  O   UNL     1     135.825 122.327 139.459  1.00  0.00    -0.246 OA
BRANCH   7   9
ATOM      9  O   UNL     1     136.954 124.235 138.827  1.00  0.00    -0.465 OA
ATOM     10  C   UNL     1     137.683 123.710 137.724  1.00  0.00     0.282 C 
ENDBRANCH   7   9
ENDBRANCH   1   7
BRANCH   6  11
ATOM     11  C   UNL     1     138.793 123.513 141.617  1.00  0.00     0.338 C 
ATOM     12  O   UNL     1     139.107 122.327 141.323  1.00  0.00    -0.246 OA
BRANCH  11  13
ATOM     13  O   UNL     1     139.723 124.544 141.454  1.00  0.00    -0.465 OA
ATOM     14  C   UNL     1     140.794 124.764 142.364  1.00  0.00     0.282 C 
ENDBRANCH  11  13
ENDBRANCH   6  11
TORSDOF 4
ENDMDL
