MODEL 1
REMARK VINA RESULT:    -6.205      0.000      0.000
REMARK INTER + INTRA:          -6.750
REMARK INTER:                  -6.750
REMARK INTRA:                   0.000
REMARK UNBOUND:                 0.000
REMARK SMILES Cc1cc(O)c2c(c1)C(=O)c1cc(O)cc(O)c1C2=O
REMARK SMILES IDX 1 1 2 2 8 3 7 4 6 5 4 6 3 7 19 8 20 9 18 10 11 11 9 12 10 13
REMARK SMILES IDX 12 14 13 15 15 16 16 17 5 18 17 20 14 22
REMARK H PARENT 5 19 17 21 14 23
REMARK Flexibility Score: inf
ROOT
ATOM      1  C   UNL     1       5.721   1.235 -46.996  1.00  0.00     0.044 C 
ATOM      2  C   UNL     1       6.336  -0.119 -47.201  1.00  0.00    -0.047 A 
ATOM      3  C   UNL     1       6.007  -1.179 -46.351  1.00  0.00     0.016 A 
ATOM      4  C   UNL     1       6.541  -2.461 -46.562  1.00  0.00     0.038 A 
ATOM      5  C   UNL     1       7.400  -2.696 -47.662  1.00  0.00     0.076 A 
ATOM      6  C   UNL     1       7.777  -1.600 -48.485  1.00  0.00     0.127 A 
ATOM      7  C   UNL     1       7.211  -0.340 -48.269  1.00  0.00     0.050 A 
ATOM      8  C   UNL     1       7.820  -4.096 -47.945  1.00  0.00     0.201 C 
ATOM      9  O   UNL     1       8.216  -4.418 -49.098  1.00  0.00    -0.288 OA
ATOM     10  C   UNL     1       7.665  -5.149 -46.906  1.00  0.00     0.076 A 
ATOM     11  C   UNL     1       6.858  -4.886 -45.779  1.00  0.00     0.041 A 
ATOM     12  C   UNL     1       6.210  -3.564 -45.628  1.00  0.00     0.194 C 
ATOM     13  O   UNL     1       5.388  -3.370 -44.691  1.00  0.00    -0.289 OA
ATOM     14  C   UNL     1       6.670  -5.885 -44.807  1.00  0.00     0.059 A 
ATOM     15  C   UNL     1       7.284  -7.133 -44.944  1.00  0.00     0.120 A 
ATOM     16  C   UNL     1       8.089  -7.392 -46.052  1.00  0.00     0.093 A 
ATOM     17  C   UNL     1       8.288  -6.412 -47.034  1.00  0.00     0.131 A 
ENDROOT
BRANCH   6  18
ATOM     18  O   UNL     1       8.729  -1.704 -49.502  1.00  0.00    -0.507 OA
ATOM     19  H   UNL     1       8.571  -1.398 -50.451  1.00  0.00     0.293 HD
ENDBRANCH   6  18
BRANCH  17  20
ATOM     20  O   UNL     1       9.110  -6.695 -48.126  1.00  0.00    -0.507 OA
ATOM     21  H   UNL     1       9.815  -6.041 -48.446  1.00  0.00     0.293 HD
ENDBRANCH  17  20
BRANCH  15  22
ATOM     22  O   UNL     1       7.101  -8.123 -43.982  1.00  0.00    -0.508 OA
ATOM     23  H   UNL     1       7.388  -9.081 -44.145  1.00  0.00     0.293 HD
ENDBRANCH  15  22
TORSDOF 3
ENDMDL
MODEL 2
REMARK VINA RESULT:    -6.104      8.886     13.581
REMARK INTER + INTRA:          -6.640
REMARK INTER:                  -6.640
REMARK INTRA:                   0.000
REMARK UNBOUND:                 0.000
REMARK SMILES Cc1cc(O)c2c(c1)C(=O)c1cc(O)cc(O)c1C2=O
REMARK SMILES IDX 1 1 2 2 8 3 7 4 6 5 4 6 3 7 19 8 20 9 18 10 11 11 9 12 10 13
REMARK SMILES IDX 12 14 13 15 15 16 16 17 5 18 17 20 14 22
REMARK H PARENT 5 19 17 21 14 23
REMARK Flexibility Score: inf
ROOT
ATOM      1  C   UNL     1       4.960   2.925 -49.872  1.00  0.00     0.044 C 
ATOM      2  C   UNL     1       4.067   3.914 -49.179  1.00  0.00    -0.047 A 
ATOM      3  C   UNL     1       3.640   5.065 -49.847  1.00  0.00     0.016 A 
ATOM      4  C   UNL     1       2.767   5.974 -49.224  1.00  0.00     0.038 A 
ATOM      5  C   UNL     1       2.290   5.712 -47.918  1.00  0.00     0.076 A 
ATOM      6  C   UNL     1       2.776   4.571 -47.225  1.00  0.00     0.127 A 
ATOM      7  C   UNL     1       3.624   3.669 -47.877  1.00  0.00     0.050 A 
ATOM      8  C   UNL     1       1.247   6.612 -47.352  1.00  0.00     0.201 C 
ATOM      9  O   UNL     1       0.505   6.213 -46.416  1.00  0.00    -0.288 OA
ATOM     10  C   UNL     1       0.996   7.944 -47.965  1.00  0.00     0.076 A 
ATOM     11  C   UNL     1       1.528   8.222 -49.242  1.00  0.00     0.041 A 
ATOM     12  C   UNL     1       2.355   7.209 -49.934  1.00  0.00     0.194 C 
ATOM     13  O   UNL     1       2.724   7.404 -51.125  1.00  0.00    -0.289 OA
ATOM     14  C   UNL     1       1.267   9.463 -49.852  1.00  0.00     0.059 A 
ATOM     15  C   UNL     1       0.490  10.425 -49.199  1.00  0.00     0.120 A 
ATOM     16  C   UNL     1      -0.030  10.155 -47.934  1.00  0.00     0.093 A 
ATOM     17  C   UNL     1       0.217   8.925 -47.309  1.00  0.00     0.131 A 
ENDROOT
BRANCH   6  18
ATOM     18  O   UNL     1       2.477   4.308 -45.887  1.00  0.00    -0.507 OA
ATOM     19  H   UNL     1       2.397   3.377 -45.502  1.00  0.00     0.293 HD
ENDBRANCH   6  18
BRANCH  17  20
ATOM     20  O   UNL     1      -0.305   8.688 -46.037  1.00  0.00    -0.507 OA
ATOM     21  H   UNL     1      -0.621   7.768 -45.753  1.00  0.00     0.293 HD
ENDBRANCH  17  20
BRANCH  15  22
ATOM     22  O   UNL     1       0.231  11.655 -49.800  1.00  0.00    -0.508 OA
ATOM     23  H   UNL     1       0.149  11.747 -50.806  1.00  0.00     0.293 HD
ENDBRANCH  15  22
TORSDOF 3
ENDMDL
MODEL 3
REMARK VINA RESULT:    -6.086      1.624      4.044
REMARK INTER + INTRA:          -6.620
REMARK INTER:                  -6.620
REMARK INTRA:                   0.000
REMARK UNBOUND:                 0.000
REMARK SMILES Cc1cc(O)c2c(c1)C(=O)c1cc(O)cc(O)c1C2=O
REMARK SMILES IDX 1 1 2 2 8 3 7 4 6 5 4 6 3 7 19 8 20 9 18 10 11 11 9 12 10 13
REMARK SMILES IDX 12 14 13 15 15 16 16 17 5 18 17 20 14 22
REMARK H PARENT 5 19 17 21 14 23
REMARK Flexibility Score: inf
ROOT
ATOM      1  C   UNL     1       6.203   3.405 -49.006  1.00  0.00     0.044 C 
ATOM      2  C   UNL     1       6.026   2.124 -48.244  1.00  0.00    -0.047 A 
ATOM      3  C   UNL     1       6.968   1.098 -48.361  1.00  0.00     0.016 A 
ATOM      4  C   UNL     1       6.836  -0.087 -47.617  1.00  0.00     0.038 A 
ATOM      5  C   UNL     1       5.755  -0.238 -46.717  1.00  0.00     0.076 A 
ATOM      6  C   UNL     1       4.770   0.783 -46.649  1.00  0.00     0.127 A 
ATOM      7  C   UNL     1       4.939   1.964 -47.380  1.00  0.00     0.050 A 
ATOM      8  C   UNL     1       5.734  -1.436 -45.832  1.00  0.00     0.201 C 
ATOM      9  O   UNL     1       5.065  -1.423 -44.764  1.00  0.00    -0.288 OA
ATOM     10  C   UNL     1       6.592  -2.610 -46.141  1.00  0.00     0.076 A 
ATOM     11  C   UNL     1       7.629  -2.471 -47.088  1.00  0.00     0.041 A 
ATOM     12  C   UNL     1       7.825  -1.179 -47.783  1.00  0.00     0.194 C 
ATOM     13  O   UNL     1       8.827  -1.014 -48.531  1.00  0.00    -0.289 OA
ATOM     14  C   UNL     1       8.474  -3.562 -47.363  1.00  0.00     0.059 A 
ATOM     15  C   UNL     1       8.289  -4.785 -46.713  1.00  0.00     0.120 A 
ATOM     16  C   UNL     1       7.259  -4.928 -45.783  1.00  0.00     0.093 A 
ATOM     17  C   UNL     1       6.407  -3.854 -45.493  1.00  0.00     0.131 A 
ENDROOT
BRANCH   6  18
ATOM     18  O   UNL     1       3.597   0.661 -45.901  1.00  0.00    -0.507 OA
ATOM     19  H   UNL     1       3.376  -0.143 -45.330  1.00  0.00     0.293 HD
ENDBRANCH   6  18
BRANCH  17  20
ATOM     20  O   UNL     1       5.377  -4.029 -44.568  1.00  0.00    -0.507 OA
ATOM     21  H   UNL     1       5.234  -4.911 -44.090  1.00  0.00     0.293 HD
ENDBRANCH  17  20
BRANCH  15  22
ATOM     22  O   UNL     1       9.123  -5.867 -46.985  1.00  0.00    -0.508 OA
ATOM     23  H   UNL     1       9.506  -6.441 -46.243  1.00  0.00     0.293 HD
ENDBRANCH  15  22
TORSDOF 3
ENDMDL
MODEL 4
REMARK VINA RESULT:    -5.857      9.713     13.407
REMARK INTER + INTRA:          -6.370
REMARK INTER:                  -6.370
REMARK INTRA:                   0.000
REMARK UNBOUND:                 0.000
REMARK SMILES Cc1cc(O)c2c(c1)C(=O)c1cc(O)cc(O)c1C2=O
REMARK SMILES IDX 1 1 2 2 8 3 7 4 6 5 4 6 3 7 19 8 20 9 18 10 11 11 9 12 10 13
REMARK SMILES IDX 12 14 13 15 15 16 16 17 5 18 17 20 14 22
REMARK H PARENT 5 19 17 21 14 23
REMARK Flexibility Score: inf
ROOT
ATOM      1  C   UNL     1      -1.300  12.108 -46.623  1.00  0.00     0.044 C 
ATOM      2  C   UNL     1      -0.431  11.169 -47.407  1.00  0.00    -0.047 A 
ATOM      3  C   UNL     1      -0.284   9.839 -47.000  1.00  0.00     0.016 A 
ATOM      4  C   UNL     1       0.489   8.939 -47.753  1.00  0.00     0.038 A 
ATOM      5  C   UNL     1       1.106   9.370 -48.951  1.00  0.00     0.076 A 
ATOM      6  C   UNL     1       1.002  10.736 -49.325  1.00  0.00     0.127 A 
ATOM      7  C   UNL     1       0.204  11.605 -48.573  1.00  0.00     0.050 A 
ATOM      8  C   UNL     1       1.785   8.353 -49.802  1.00  0.00     0.201 C 
ATOM      9  O   UNL     1       1.975   8.577 -51.027  1.00  0.00    -0.288 OA
ATOM     10  C   UNL     1       2.137   7.022 -49.240  1.00  0.00     0.076 A 
ATOM     11  C   UNL     1       1.568   6.624 -48.012  1.00  0.00     0.041 A 
ATOM     12  C   UNL     1       0.664   7.543 -47.285  1.00  0.00     0.194 C 
ATOM     13  O   UNL     1       0.055   7.142 -46.256  1.00  0.00    -0.289 OA
ATOM     14  C   UNL     1       1.861   5.352 -47.487  1.00  0.00     0.059 A 
ATOM     15  C   UNL     1       2.718   4.483 -48.168  1.00  0.00     0.120 A 
ATOM     16  C   UNL     1       3.288   4.877 -49.377  1.00  0.00     0.093 A 
ATOM     17  C   UNL     1       3.009   6.139 -49.919  1.00  0.00     0.131 A 
ENDROOT
BRANCH   6  18
ATOM     18  O   UNL     1       1.692  11.285 -50.408  1.00  0.00    -0.507 OA
ATOM     19  H   UNL     1       2.651  11.060 -50.634  1.00  0.00     0.293 HD
ENDBRANCH   6  18
BRANCH  17  20
ATOM     20  O   UNL     1       3.604   6.512 -51.125  1.00  0.00    -0.507 OA
ATOM     21  H   UNL     1       3.675   7.483 -51.407  1.00  0.00     0.293 HD
ENDBRANCH  17  20
BRANCH  15  22
ATOM     22  O   UNL     1       3.011   3.224 -47.649  1.00  0.00    -0.508 OA
ATOM     23  H   UNL     1       3.302   3.102 -46.686  1.00  0.00     0.293 HD
ENDBRANCH  15  22
TORSDOF 3
ENDMDL
MODEL 5
REMARK VINA RESULT:    -5.821      1.571      5.587
REMARK INTER + INTRA:          -6.332
REMARK INTER:                  -6.332
REMARK INTRA:                   0.000
REMARK UNBOUND:                 0.000
REMARK SMILES Cc1cc(O)c2c(c1)C(=O)c1cc(O)cc(O)c1C2=O
REMARK SMILES IDX 1 1 2 2 8 3 7 4 6 5 4 6 3 7 19 8 20 9 18 10 11 11 9 12 10 13
REMARK SMILES IDX 12 14 13 15 15 16 16 17 5 18 17 20 14 22
REMARK H PARENT 5 19 17 21 14 23
REMARK Flexibility Score: inf
ROOT
ATOM      1  C   UNL     1       6.844  -7.657 -45.204  1.00  0.00     0.044 C 
ATOM      2  C   UNL     1       7.100  -6.379 -45.949  1.00  0.00    -0.047 A 
ATOM      3  C   UNL     1       6.515  -5.184 -45.519  1.00  0.00     0.016 A 
ATOM      4  C   UNL     1       6.783  -3.974 -46.181  1.00  0.00     0.038 A 
ATOM      5  C   UNL     1       7.678  -3.953 -47.277  1.00  0.00     0.076 A 
ATOM      6  C   UNL     1       8.221  -5.180 -47.744  1.00  0.00     0.127 A 
ATOM      7  C   UNL     1       7.957  -6.366 -47.052  1.00  0.00     0.050 A 
ATOM      8  C   UNL     1       8.061  -2.633 -47.852  1.00  0.00     0.201 C 
ATOM      9  O   UNL     1       9.125  -2.516 -48.516  1.00  0.00    -0.288 OA
ATOM     10  C   UNL     1       7.252  -1.422 -47.549  1.00  0.00     0.076 A 
ATOM     11  C   UNL     1       6.315  -1.469 -46.495  1.00  0.00     0.041 A 
ATOM     12  C   UNL     1       6.124  -2.723 -45.734  1.00  0.00     0.194 C 
ATOM     13  O   UNL     1       5.384  -2.732 -44.712  1.00  0.00    -0.289 OA
ATOM     14  C   UNL     1       5.571  -0.320 -46.172  1.00  0.00     0.059 A 
ATOM     15  C   UNL     1       5.746   0.865 -46.892  1.00  0.00     0.120 A 
ATOM     16  C   UNL     1       6.664   0.911 -47.940  1.00  0.00     0.093 A 
ATOM     17  C   UNL     1       7.418  -0.221 -48.278  1.00  0.00     0.131 A 
ENDROOT
BRANCH   6  18
ATOM     18  O   UNL     1       8.995  -5.278 -48.903  1.00  0.00    -0.507 OA
ATOM     19  H   UNL     1       8.849  -4.709 -49.725  1.00  0.00     0.293 HD
ENDBRANCH   6  18
BRANCH  17  20
ATOM     20  O   UNL     1       8.320  -0.150 -49.340  1.00  0.00    -0.507 OA
ATOM     21  H   UNL     1       8.167  -0.654 -50.205  1.00  0.00     0.293 HD
ENDBRANCH  17  20
BRANCH  15  22
ATOM     22  O   UNL     1       5.008   2.004 -46.574  1.00  0.00    -0.508 OA
ATOM     23  H   UNL     1       4.359   2.015 -45.797  1.00  0.00     0.293 HD
ENDBRANCH  15  22
TORSDOF 3
ENDMDL
MODEL 6
REMARK VINA RESULT:    -5.811      1.483      3.402
REMARK INTER + INTRA:          -6.321
REMARK INTER:                  -6.321
REMARK INTRA:                   0.000
REMARK UNBOUND:                 0.000
REMARK SMILES Cc1cc(O)c2c(c1)C(=O)c1cc(O)cc(O)c1C2=O
REMARK SMILES IDX 1 1 2 2 8 3 7 4 6 5 4 6 3 7 19 8 20 9 18 10 11 11 9 12 10 13
REMARK SMILES IDX 12 14 13 15 15 16 16 17 5 18 17 20 14 22
REMARK H PARENT 5 19 17 21 14 23
REMARK Flexibility Score: inf
ROOT
ATOM      1  C   UNL     1       7.138   1.770 -48.293  1.00  0.00     0.044 C 
ATOM      2  C   UNL     1       6.835   0.415 -47.723  1.00  0.00    -0.047 A 
ATOM      3  C   UNL     1       7.277  -0.739 -48.376  1.00  0.00     0.016 A 
ATOM      4  C   UNL     1       7.040  -2.011 -47.827  1.00  0.00     0.038 A 
ATOM      5  C   UNL     1       6.370  -2.129 -46.586  1.00  0.00     0.076 A 
ATOM      6  C   UNL     1       5.872  -0.956 -45.959  1.00  0.00     0.127 A 
ATOM      7  C   UNL     1       6.145   0.299 -46.513  1.00  0.00     0.050 A 
ATOM      8  C   UNL     1       6.276  -3.477 -45.959  1.00  0.00     0.201 C 
ATOM      9  O   UNL     1       6.081  -3.588 -44.720  1.00  0.00    -0.288 OA
ATOM     10  C   UNL     1       6.526  -4.698 -46.770  1.00  0.00     0.076 A 
ATOM     11  C   UNL     1       7.136  -4.567 -48.036  1.00  0.00     0.041 A 
ATOM     12  C   UNL     1       7.483  -3.225 -48.553  1.00  0.00     0.194 C 
ATOM     13  O   UNL     1       8.143  -3.114 -49.623  1.00  0.00    -0.289 OA
ATOM     14  C   UNL     1       7.415  -5.716 -48.798  1.00  0.00     0.059 A 
ATOM     15  C   UNL     1       7.085  -6.986 -48.316  1.00  0.00     0.120 A 
ATOM     16  C   UNL     1       6.474  -7.117 -47.070  1.00  0.00     0.093 A 
ATOM     17  C   UNL     1       6.189  -5.986 -46.293  1.00  0.00     0.131 A 
ENDROOT
BRANCH   6  18
ATOM     18  O   UNL     1       5.077  -0.984 -44.811  1.00  0.00    -0.507 OA
ATOM     19  H   UNL     1       4.510  -1.776 -44.541  1.00  0.00     0.293 HD
ENDBRANCH   6  18
BRANCH  17  20
ATOM     20  O   UNL     1       5.565  -6.146 -45.055  1.00  0.00    -0.507 OA
ATOM     21  H   UNL     1       5.653  -7.003 -44.520  1.00  0.00     0.293 HD
ENDBRANCH  17  20
BRANCH  15  22
ATOM     22  O   UNL     1       7.359  -8.125 -49.070  1.00  0.00    -0.508 OA
ATOM     23  H   UNL     1       6.637  -8.591 -49.608  1.00  0.00     0.293 HD
ENDBRANCH  15  22
TORSDOF 3
ENDMDL
MODEL 7
REMARK VINA RESULT:    -5.614      1.400      6.338
REMARK INTER + INTRA:          -6.107
REMARK INTER:                  -6.107
REMARK INTRA:                   0.000
REMARK UNBOUND:                 0.000
REMARK SMILES Cc1cc(O)c2c(c1)C(=O)c1cc(O)cc(O)c1C2=O
REMARK SMILES IDX 1 1 2 2 8 3 7 4 6 5 4 6 3 7 19 8 20 9 18 10 11 11 9 12 10 13
REMARK SMILES IDX 12 14 13 15 15 16 16 17 5 18 17 20 14 22
REMARK H PARENT 5 19 17 21 14 23
REMARK Flexibility Score: inf
ROOT
ATOM      1  C   UNL     1       9.070  -7.988 -46.897  1.00  0.00     0.044 C 
ATOM      2  C   UNL     1       8.373  -6.721 -46.492  1.00  0.00    -0.047 A 
ATOM      3  C   UNL     1       8.409  -5.600 -47.326  1.00  0.00     0.016 A 
ATOM      4  C   UNL     1       7.722  -4.424 -46.979  1.00  0.00     0.038 A 
ATOM      5  C   UNL     1       6.960  -4.378 -45.787  1.00  0.00     0.076 A 
ATOM      6  C   UNL     1       6.977  -5.501 -44.917  1.00  0.00     0.127 A 
ATOM      7  C   UNL     1       7.648  -6.668 -45.299  1.00  0.00     0.050 A 
ATOM      8  C   UNL     1       6.119  -3.175 -45.531  1.00  0.00     0.201 C 
ATOM      9  O   UNL     1       5.138  -3.244 -44.744  1.00  0.00    -0.288 OA
ATOM     10  C   UNL     1       6.361  -1.919 -46.289  1.00  0.00     0.076 A 
ATOM     11  C   UNL     1       7.175  -1.959 -47.441  1.00  0.00     0.041 A 
ATOM     12  C   UNL     1       7.802  -3.232 -47.857  1.00  0.00     0.194 C 
ATOM     13  O   UNL     1       8.423  -3.299 -48.954  1.00  0.00    -0.289 OA
ATOM     14  C   UNL     1       7.381  -0.786 -48.190  1.00  0.00     0.059 A 
ATOM     15  C   UNL     1       6.793   0.420 -47.798  1.00  0.00     0.120 A 
ATOM     16  C   UNL     1       5.997   0.464 -46.655  1.00  0.00     0.093 A 
ATOM     17  C   UNL     1       5.776  -0.693 -45.895  1.00  0.00     0.131 A 
ENDROOT
BRANCH   6  18
ATOM     18  O   UNL     1       6.377  -5.497 -43.656  1.00  0.00    -0.507 OA
ATOM     19  H   UNL     1       5.559  -6.043 -43.422  1.00  0.00     0.293 HD
ENDBRANCH   6  18
BRANCH  17  20
ATOM     20  O   UNL     1       4.985  -0.617 -44.748  1.00  0.00    -0.507 OA
ATOM     21  H   UNL     1       5.373  -0.361 -43.847  1.00  0.00     0.293 HD
ENDBRANCH  17  20
BRANCH  15  22
ATOM     22  O   UNL     1       6.998   1.583 -48.537  1.00  0.00    -0.508 OA
ATOM     23  H   UNL     1       6.257   2.259 -48.677  1.00  0.00     0.293 HD
ENDBRANCH  15  22
TORSDOF 3
ENDMDL
MODEL 8
REMARK VINA RESULT:    -5.509      7.039     10.592
REMARK INTER + INTRA:          -5.992
REMARK INTER:                  -5.992
REMARK INTRA:                   0.000
REMARK UNBOUND:                 0.000
REMARK SMILES Cc1cc(O)c2c(c1)C(=O)c1cc(O)cc(O)c1C2=O
REMARK SMILES IDX 1 1 2 2 8 3 7 4 6 5 4 6 3 7 19 8 20 9 18 10 11 11 9 12 10 13
REMARK SMILES IDX 12 14 13 15 15 16 16 17 5 18 17 20 14 22
REMARK H PARENT 5 19 17 21 14 23
REMARK Flexibility Score: inf
ROOT
ATOM      1  C   UNL     1       2.488  10.474 -49.754  1.00  0.00     0.044 C 
ATOM      2  C   UNL     1       2.653   9.055 -49.294  1.00  0.00    -0.047 A 
ATOM      3  C   UNL     1       3.900   8.427 -49.379  1.00  0.00     0.016 A 
ATOM      4  C   UNL     1       4.077   7.115 -48.908  1.00  0.00     0.038 A 
ATOM      5  C   UNL     1       2.992   6.426 -48.315  1.00  0.00     0.076 A 
ATOM      6  C   UNL     1       1.715   7.048 -48.288  1.00  0.00     0.127 A 
ATOM      7  C   UNL     1       1.573   8.365 -48.739  1.00  0.00     0.050 A 
ATOM      8  C   UNL     1       3.255   5.101 -47.687  1.00  0.00     0.201 C 
ATOM      9  O   UNL     1       2.470   4.649 -46.812  1.00  0.00    -0.288 OA
ATOM     10  C   UNL     1       4.504   4.358 -48.002  1.00  0.00     0.076 A 
ATOM     11  C   UNL     1       5.558   5.034 -48.652  1.00  0.00     0.041 A 
ATOM     12  C   UNL     1       5.397   6.453 -49.041  1.00  0.00     0.194 C 
ATOM     13  O   UNL     1       6.380   7.094 -49.505  1.00  0.00    -0.289 OA
ATOM     14  C   UNL     1       6.761   4.356 -48.922  1.00  0.00     0.059 A 
ATOM     15  C   UNL     1       6.916   3.015 -48.559  1.00  0.00     0.120 A 
ATOM     16  C   UNL     1       5.872   2.342 -47.925  1.00  0.00     0.093 A 
ATOM     17  C   UNL     1       4.667   3.000 -47.645  1.00  0.00     0.131 A 
ENDROOT
BRANCH   6  18
ATOM     18  O   UNL     1       0.559   6.395 -47.856  1.00  0.00    -0.507 OA
ATOM     19  H   UNL     1       0.518   5.812 -47.032  1.00  0.00     0.293 HD
ENDBRANCH   6  18
BRANCH  17  20
ATOM     20  O   UNL     1       3.635   2.298 -47.022  1.00  0.00    -0.507 OA
ATOM     21  H   UNL     1       3.769   1.361 -46.659  1.00  0.00     0.293 HD
ENDBRANCH  17  20
BRANCH  15  22
ATOM     22  O   UNL     1       8.105   2.340 -48.827  1.00  0.00    -0.508 OA
ATOM     23  H   UNL     1       8.561   1.769 -48.126  1.00  0.00     0.293 HD
ENDBRANCH  15  22
TORSDOF 3
ENDMDL
