MODEL 1
REMARK VINA RESULT:    -5.640      0.000      0.000
REMARK INTER + INTRA:         -11.631
REMARK INTER:                 -10.585
REMARK INTRA:                  -1.046
REMARK UNBOUND:                -1.046
REMARK SMILES O=C([O-])CCCCCCCCCCCCCCC(=O)[O-]
REMARK SMILES IDX 10 1 9 2 8 3 7 4 6 5 5 6 4 7 2 8 1 9 3 10 11 11 12 12 13 13
REMARK SMILES IDX 14 14 15 15 16 16 17 17 18 18 19 19 20 20
REMARK H PARENT
REMARK Flexibility Score: inf
ROOT
ATOM      1  C   UNL     1     104.554 312.652 195.160  1.00  0.00     0.000 C 
ENDROOT
BRANCH   1   2
ATOM      2  C   UNL     1     105.694 311.917 194.431  1.00  0.00     0.000 C 
BRANCH   2   3
ATOM      3  C   UNL     1     105.616 311.952 192.891  1.00  0.00     0.000 C 
BRANCH   3   4
ATOM      4  C   UNL     1     104.240 312.343 192.316  1.00  0.00     0.000 C 
BRANCH   4   5
ATOM      5  C   UNL     1     104.283 313.367 191.165  1.00  0.00     0.000 C 
BRANCH   5   6
ATOM      6  C   UNL     1     103.461 314.650 191.404  1.00  0.00     0.006 C 
BRANCH   6   7
ATOM      7  C   UNL     1     103.759 315.357 192.735  1.00  0.00     0.053 C 
BRANCH   7   8
ATOM      8  C   UNL     1     105.162 315.878 192.791  1.00  0.00     0.041 C 
ATOM      9  O   UNL     1     105.890 315.634 193.790  1.00  0.00    -0.550 OA
ATOM     10  O   UNL     1     105.678 316.603 191.724  1.00  0.00    -0.550 OA
ENDBRANCH   7   8
ENDBRANCH   6   7
ENDBRANCH   5   6
ENDBRANCH   4   5
ENDBRANCH   3   4
ENDBRANCH   2   3
ENDBRANCH   1   2
BRANCH   1  11
ATOM     11  C   UNL     1     103.518 311.690 195.767  1.00  0.00     0.000 C 
BRANCH  11  12
ATOM     12  C   UNL     1     103.919 311.202 197.169  1.00  0.00     0.000 C 
BRANCH  12  13
ATOM     13  C   UNL     1     103.477 312.171 198.279  1.00  0.00     0.000 C 
BRANCH  13  14
ATOM     14  C   UNL     1     103.522 311.534 199.680  1.00  0.00     0.000 C 
BRANCH  14  15
ATOM     15  C   UNL     1     102.279 311.786 200.557  1.00  0.00     0.000 C 
BRANCH  15  16
ATOM     16  C   UNL     1     102.327 311.147 201.956  1.00  0.00     0.006 C 
BRANCH  16  17
ATOM     17  C   UNL     1     103.758 310.910 202.454  1.00  0.00     0.053 C 
BRANCH  17  18
ATOM     18  C   UNL     1     103.936 311.483 203.824  1.00  0.00     0.041 C 
ATOM     19  O   UNL     1     104.106 310.721 204.812  1.00  0.00    -0.550 OA
ATOM     20  O   UNL     1     103.864 312.856 204.019  1.00  0.00    -0.550 OA
ENDBRANCH  17  18
ENDBRANCH  16  17
ENDBRANCH  15  16
ENDBRANCH  14  15
ENDBRANCH  13  14
ENDBRANCH  12  13
ENDBRANCH  11  12
ENDBRANCH   1  11
TORSDOF 15
ENDMDL
MODEL 2
REMARK VINA RESULT:    -5.597     18.415     21.551
REMARK INTER + INTRA:         -11.550
REMARK INTER:                 -10.343
REMARK INTRA:                  -1.207
REMARK UNBOUND:                -1.046
REMARK SMILES O=C([O-])CCCCCCCCCCCCCCC(=O)[O-]
REMARK SMILES IDX 10 1 9 2 8 3 7 4 6 5 5 6 4 7 2 8 1 9 3 10 11 11 12 12 13 13
REMARK SMILES IDX 14 14 15 15 16 16 17 17 18 18 19 19 20 20
REMARK H PARENT
REMARK Flexibility Score: inf
ROOT
ATOM      1  C   UNL     1      87.548 326.859 194.137  1.00  0.00     0.000 C 
ENDROOT
BRANCH   1   2
ATOM      2  C   UNL     1      88.646 326.505 195.156  1.00  0.00     0.000 C 
BRANCH   2   3
ATOM      3  C   UNL     1      88.137 326.122 196.560  1.00  0.00     0.000 C 
BRANCH   3   4
ATOM      4  C   UNL     1      88.687 324.792 197.113  1.00  0.00     0.000 C 
BRANCH   4   5
ATOM      5  C   UNL     1      89.352 324.889 198.500  1.00  0.00     0.000 C 
BRANCH   5   6
ATOM      6  C   UNL     1      89.138 326.229 199.234  1.00  0.00     0.006 C 
BRANCH   6   7
ATOM      7  C   UNL     1      88.868 326.093 200.740  1.00  0.00     0.053 C 
BRANCH   7   8
ATOM      8  C   UNL     1      90.134 325.927 201.523  1.00  0.00     0.041 C 
ATOM      9  O   UNL     1      90.369 324.847 202.127  1.00  0.00    -0.550 OA
ATOM     10  O   UNL     1      91.069 326.953 201.558  1.00  0.00    -0.550 OA
ENDBRANCH   7   8
ENDBRANCH   6   7
ENDBRANCH   5   6
ENDBRANCH   4   5
ENDBRANCH   3   4
ENDBRANCH   2   3
ENDBRANCH   1   2
BRANCH   1  11
ATOM     11  C   UNL     1      86.270 326.023 194.323  1.00  0.00     0.000 C 
BRANCH  11  12
ATOM     12  C   UNL     1      86.082 324.979 193.210  1.00  0.00     0.000 C 
BRANCH  12  13
ATOM     13  C   UNL     1      86.873 323.687 193.474  1.00  0.00     0.000 C 
BRANCH  13  14
ATOM     14  C   UNL     1      88.221 323.651 192.732  1.00  0.00     0.000 C 
BRANCH  14  15
ATOM     15  C   UNL     1      88.215 324.285 191.326  1.00  0.00     0.000 C 
BRANCH  15  16
ATOM     16  C   UNL     1      88.111 323.286 190.160  1.00  0.00     0.006 C 
BRANCH  16  17
ATOM     17  C   UNL     1      89.141 323.552 189.056  1.00  0.00     0.053 C 
BRANCH  17  18
ATOM     18  C   UNL     1      90.297 322.611 189.181  1.00  0.00     0.041 C 
ATOM     19  O   UNL     1      91.295 322.729 188.423  1.00  0.00    -0.550 OA
ATOM     20  O   UNL     1      90.250 321.571 190.101  1.00  0.00    -0.550 OA
ENDBRANCH  17  18
ENDBRANCH  16  17
ENDBRANCH  15  16
ENDBRANCH  14  15
ENDBRANCH  13  14
ENDBRANCH  12  13
ENDBRANCH  11  12
ENDBRANCH   1  11
TORSDOF 15
ENDMDL
MODEL 3
REMARK VINA RESULT:    -5.591      1.752      2.431
REMARK INTER + INTRA:         -11.540
REMARK INTER:                 -10.687
REMARK INTRA:                  -0.853
REMARK UNBOUND:                -1.046
REMARK SMILES O=C([O-])CCCCCCCCCCCCCCC(=O)[O-]
REMARK SMILES IDX 10 1 9 2 8 3 7 4 6 5 5 6 4 7 2 8 1 9 3 10 11 11 12 12 13 13
REMARK SMILES IDX 14 14 15 15 16 16 17 17 18 18 19 19 20 20
REMARK H PARENT
REMARK Flexibility Score: inf
ROOT
ATOM      1  C   UNL     1     103.628 312.885 196.958  1.00  0.00     0.000 C 
ENDROOT
BRANCH   1   2
ATOM      2  C   UNL     1     103.926 312.853 195.448  1.00  0.00     0.000 C 
BRANCH   2   3
ATOM      3  C   UNL     1     103.747 311.477 194.774  1.00  0.00     0.000 C 
BRANCH   3   4
ATOM      4  C   UNL     1     104.442 311.325 193.407  1.00  0.00     0.000 C 
BRANCH   4   5
ATOM      5  C   UNL     1     105.635 312.274 193.173  1.00  0.00     0.000 C 
BRANCH   5   6
ATOM      6  C   UNL     1     105.542 313.135 191.897  1.00  0.00     0.006 C 
BRANCH   6   7
ATOM      7  C   UNL     1     104.116 313.314 191.353  1.00  0.00     0.053 C 
BRANCH   7   8
ATOM      8  C   UNL     1     104.075 314.260 190.192  1.00  0.00     0.041 C 
ATOM      9  O   UNL     1     102.993 314.468 189.582  1.00  0.00    -0.550 OA
ATOM     10  O   UNL     1     105.225 314.937 189.805  1.00  0.00    -0.550 OA
ENDBRANCH   7   8
ENDBRANCH   6   7
ENDBRANCH   5   6
ENDBRANCH   4   5
ENDBRANCH   3   4
ENDBRANCH   2   3
ENDBRANCH   1   2
BRANCH   1  11
ATOM     11  C   UNL     1     103.792 311.509 197.627  1.00  0.00     0.000 C 
BRANCH  11  12
ATOM     12  C   UNL     1     103.384 311.524 199.110  1.00  0.00     0.000 C 
BRANCH  12  13
ATOM     13  C   UNL     1     104.349 312.350 199.978  1.00  0.00     0.000 C 
BRANCH  13  14
ATOM     14  C   UNL     1     104.108 312.156 201.486  1.00  0.00     0.000 C 
BRANCH  14  15
ATOM     15  C   UNL     1     102.805 311.419 201.854  1.00  0.00     0.000 C 
BRANCH  15  16
ATOM     16  C   UNL     1     102.897 310.510 203.092  1.00  0.00     0.006 C 
BRANCH  16  17
ATOM     17  C   UNL     1     104.205 310.693 203.870  1.00  0.00     0.053 C 
BRANCH  17  18
ATOM     18  C   UNL     1     103.921 311.093 205.283  1.00  0.00     0.041 C 
ATOM     19  O   UNL     1     102.733 311.184 205.689  1.00  0.00    -0.550 OA
ATOM     20  O   UNL     1     104.967 311.414 206.139  1.00  0.00    -0.550 OA
ENDBRANCH  17  18
ENDBRANCH  16  17
ENDBRANCH  15  16
ENDBRANCH  14  15
ENDBRANCH  13  14
ENDBRANCH  12  13
ENDBRANCH  11  12
ENDBRANCH   1  11
TORSDOF 15
ENDMDL
MODEL 4
REMARK VINA RESULT:    -5.562      2.655      3.803
REMARK INTER + INTRA:         -11.485
REMARK INTER:                 -10.906
REMARK INTRA:                  -0.579
REMARK UNBOUND:                -1.046
REMARK SMILES O=C([O-])CCCCCCCCCCCCCCC(=O)[O-]
REMARK SMILES IDX 10 1 9 2 8 3 7 4 6 5 5 6 4 7 2 8 1 9 3 10 11 11 12 12 13 13
REMARK SMILES IDX 14 14 15 15 16 16 17 17 18 18 19 19 20 20
REMARK H PARENT
REMARK Flexibility Score: inf
ROOT
ATOM      1  C   UNL     1     105.451 311.696 192.958  1.00  0.00     0.000 C 
ENDROOT
BRANCH   1   2
ATOM      2  C   UNL     1     104.158 312.322 192.403  1.00  0.00     0.000 C 
BRANCH   2   3
ATOM      3  C   UNL     1     104.362 313.345 191.268  1.00  0.00     0.000 C 
BRANCH   3   4
ATOM      4  C   UNL     1     103.534 314.639 191.399  1.00  0.00     0.000 C 
BRANCH   4   5
ATOM      5  C   UNL     1     103.587 315.573 190.173  1.00  0.00     0.000 C 
BRANCH   5   6
ATOM      6  C   UNL     1     103.510 314.861 188.807  1.00  0.00     0.006 C 
BRANCH   6   7
ATOM      7  C   UNL     1     102.090 314.461 188.378  1.00  0.00     0.053 C 
BRANCH   7   8
ATOM      8  C   UNL     1     101.235 315.656 188.089  1.00  0.00     0.041 C 
ATOM      9  O   UNL     1     101.412 316.322 187.034  1.00  0.00    -0.550 OA
ATOM     10  O   UNL     1     100.220 316.015 188.968  1.00  0.00    -0.550 OA
ENDBRANCH   7   8
ENDBRANCH   6   7
ENDBRANCH   5   6
ENDBRANCH   4   5
ENDBRANCH   3   4
ENDBRANCH   2   3
ENDBRANCH   1   2
BRANCH   1  11
ATOM     11  C   UNL     1     105.782 312.176 194.382  1.00  0.00     0.000 C 
BRANCH  11  12
ATOM     12  C   UNL     1     104.568 312.803 195.089  1.00  0.00     0.000 C 
BRANCH  12  13
ATOM     13  C   UNL     1     103.581 311.746 195.614  1.00  0.00     0.000 C 
BRANCH  13  14
ATOM     14  C   UNL     1     103.960 311.218 197.009  1.00  0.00     0.000 C 
BRANCH  14  15
ATOM     15  C   UNL     1     103.492 312.090 198.192  1.00  0.00     0.000 C 
BRANCH  15  16
ATOM     16  C   UNL     1     103.327 311.344 199.527  1.00  0.00     0.006 C 
BRANCH  16  17
ATOM     17  C   UNL     1     102.316 312.017 200.464  1.00  0.00     0.053 C 
BRANCH  17  18
ATOM     18  C   UNL     1     102.010 311.128 201.628  1.00  0.00     0.041 C 
ATOM     19  O   UNL     1     100.842 310.691 201.801  1.00  0.00    -0.550 OA
ATOM     20  O   UNL     1     103.003 310.823 202.550  1.00  0.00    -0.550 OA
ENDBRANCH  17  18
ENDBRANCH  16  17
ENDBRANCH  15  16
ENDBRANCH  14  15
ENDBRANCH  13  14
ENDBRANCH  12  13
ENDBRANCH  11  12
ENDBRANCH   1  11
TORSDOF 15
ENDMDL
MODEL 5
REMARK VINA RESULT:    -5.533      1.796     10.715
REMARK INTER + INTRA:         -11.431
REMARK INTER:                 -10.875
REMARK INTRA:                  -0.556
REMARK UNBOUND:                -1.046
REMARK SMILES O=C([O-])CCCCCCCCCCCCCCC(=O)[O-]
REMARK SMILES IDX 10 1 9 2 8 3 7 4 6 5 5 6 4 7 2 8 1 9 3 10 11 11 12 12 13 13
REMARK SMILES IDX 14 14 15 15 16 16 17 17 18 18 19 19 20 20
REMARK H PARENT
REMARK Flexibility Score: inf
ROOT
ATOM      1  C   UNL     1     103.636 313.083 196.603  1.00  0.00     0.000 C 
ENDROOT
BRANCH   1   2
ATOM      2  C   UNL     1     103.403 313.083 198.125  1.00  0.00     0.000 C 
BRANCH   2   3
ATOM      3  C   UNL     1     103.519 311.704 198.805  1.00  0.00     0.000 C 
BRANCH   3   4
ATOM      4  C   UNL     1     102.830 311.595 200.179  1.00  0.00     0.000 C 
BRANCH   4   5
ATOM      5  C   UNL     1     103.789 311.501 201.383  1.00  0.00     0.000 C 
BRANCH   5   6
ATOM      6  C   UNL     1     103.188 310.854 202.647  1.00  0.00     0.006 C 
BRANCH   6   7
ATOM      7  C   UNL     1     104.180 310.688 203.809  1.00  0.00     0.053 C 
BRANCH   7   8
ATOM      8  C   UNL     1     103.852 311.591 204.958  1.00  0.00     0.041 C 
ATOM      9  O   UNL     1     103.386 311.114 206.026  1.00  0.00    -0.550 OA
ATOM     10  O   UNL     1     104.092 312.956 204.860  1.00  0.00    -0.550 OA
ENDBRANCH   7   8
ENDBRANCH   6   7
ENDBRANCH   5   6
ENDBRANCH   4   5
ENDBRANCH   3   4
ENDBRANCH   2   3
ENDBRANCH   1   2
BRANCH   1  11
ATOM     11  C   UNL     1     103.889 311.674 196.039  1.00  0.00     0.000 C 
BRANCH  11  12
ATOM     12  C   UNL     1     104.148 311.684 194.523  1.00  0.00     0.000 C 
BRANCH  12  13
ATOM     13  C   UNL     1     105.623 311.956 194.179  1.00  0.00     0.000 C 
BRANCH  13  14
ATOM     14  C   UNL     1     105.813 312.492 192.749  1.00  0.00     0.000 C 
BRANCH  14  15
ATOM     15  C   UNL     1     104.515 312.894 192.020  1.00  0.00     0.000 C 
BRANCH  15  16
ATOM     16  C   UNL     1     104.692 313.925 190.891  1.00  0.00     0.006 C 
BRANCH  16  17
ATOM     17  C   UNL     1     103.405 314.159 190.091  1.00  0.00     0.053 C 
BRANCH  17  18
ATOM     18  C   UNL     1     103.678 315.029 188.905  1.00  0.00     0.041 C 
ATOM     19  O   UNL     1     102.789 315.207 188.032  1.00  0.00    -0.550 OA
ATOM     20  O   UNL     1     104.932 315.603 188.738  1.00  0.00    -0.550 OA
ENDBRANCH  17  18
ENDBRANCH  16  17
ENDBRANCH  15  16
ENDBRANCH  14  15
ENDBRANCH  13  14
ENDBRANCH  12  13
ENDBRANCH  11  12
ENDBRANCH   1  11
TORSDOF 15
ENDMDL
MODEL 6
REMARK VINA RESULT:    -5.500     18.994     21.521
REMARK INTER + INTRA:         -11.368
REMARK INTER:                 -10.081
REMARK INTRA:                  -1.288
REMARK UNBOUND:                -1.046
REMARK SMILES O=C([O-])CCCCCCCCCCCCCCC(=O)[O-]
REMARK SMILES IDX 10 1 9 2 8 3 7 4 6 5 5 6 4 7 2 8 1 9 3 10 11 11 12 12 13 13
REMARK SMILES IDX 14 14 15 15 16 16 17 17 18 18 19 19 20 20
REMARK H PARENT
REMARK Flexibility Score: inf
ROOT
ATOM      1  C   UNL     1      87.711 325.503 196.249  1.00  0.00     0.000 C 
ENDROOT
BRANCH   1   2
ATOM      2  C   UNL     1      88.422 324.194 196.639  1.00  0.00     0.000 C 
BRANCH   2   3
ATOM      3  C   UNL     1      89.586 324.353 197.637  1.00  0.00     0.000 C 
BRANCH   3   4
ATOM      4  C   UNL     1      89.165 324.664 199.087  1.00  0.00     0.000 C 
BRANCH   4   5
ATOM      5  C   UNL     1      89.272 326.147 199.492  1.00  0.00     0.000 C 
BRANCH   5   6
ATOM      6  C   UNL     1      89.903 326.401 200.877  1.00  0.00     0.006 C 
BRANCH   6   7
ATOM      7  C   UNL     1      88.890 326.493 202.029  1.00  0.00     0.053 C 
BRANCH   7   8
ATOM      8  C   UNL     1      89.565 326.666 203.355  1.00  0.00     0.041 C 
ATOM      9  O   UNL     1      90.472 327.529 203.496  1.00  0.00    -0.550 OA
ATOM     10  O   UNL     1      89.171 325.898 204.443  1.00  0.00    -0.550 OA
ENDBRANCH   7   8
ENDBRANCH   6   7
ENDBRANCH   5   6
ENDBRANCH   4   5
ENDBRANCH   3   4
ENDBRANCH   2   3
ENDBRANCH   1   2
BRANCH   1  11
ATOM     11  C   UNL     1      88.593 326.427 195.391  1.00  0.00     0.000 C 
BRANCH  11  12
ATOM     12  C   UNL     1      87.951 326.758 194.033  1.00  0.00     0.000 C 
BRANCH  12  13
ATOM     13  C   UNL     1      86.559 326.124 193.870  1.00  0.00     0.000 C 
BRANCH  13  14
ATOM     14  C   UNL     1      86.565 324.907 192.927  1.00  0.00     0.000 C 
BRANCH  14  15
ATOM     15  C   UNL     1      87.846 324.733 192.087  1.00  0.00     0.000 C 
BRANCH  15  16
ATOM     16  C   UNL     1      88.376 323.291 191.996  1.00  0.00     0.006 C 
BRANCH  16  17
ATOM     17  C   UNL     1      88.588 322.647 193.371  1.00  0.00     0.053 C 
BRANCH  17  18
ATOM     18  C   UNL     1      87.667 321.482 193.550  1.00  0.00     0.041 C 
ATOM     19  O   UNL     1      86.684 321.327 192.779  1.00  0.00    -0.550 OA
ATOM     20  O   UNL     1      87.864 320.595 194.601  1.00  0.00    -0.550 OA
ENDBRANCH  17  18
ENDBRANCH  16  17
ENDBRANCH  15  16
ENDBRANCH  14  15
ENDBRANCH  13  14
ENDBRANCH  12  13
ENDBRANCH  11  12
ENDBRANCH   1  11
TORSDOF 15
ENDMDL
MODEL 7
REMARK VINA RESULT:    -5.493     19.135     22.015
REMARK INTER + INTRA:         -11.357
REMARK INTER:                 -10.308
REMARK INTRA:                  -1.049
REMARK UNBOUND:                -1.046
REMARK SMILES O=C([O-])CCCCCCCCCCCCCCC(=O)[O-]
REMARK SMILES IDX 10 1 9 2 8 3 7 4 6 5 5 6 4 7 2 8 1 9 3 10 11 11 12 12 13 13
REMARK SMILES IDX 14 14 15 15 16 16 17 17 18 18 19 19 20 20
REMARK H PARENT
REMARK Flexibility Score: inf
ROOT
ATOM      1  C   UNL     1      88.842 323.971 198.199  1.00  0.00     0.000 C 
ENDROOT
BRANCH   1   2
ATOM      2  C   UNL     1      89.598 324.688 199.332  1.00  0.00     0.000 C 
BRANCH   2   3
ATOM      3  C   UNL     1      89.071 326.094 199.684  1.00  0.00     0.000 C 
BRANCH   3   4
ATOM      4  C   UNL     1      89.188 326.482 201.171  1.00  0.00     0.000 C 
BRANCH   4   5
ATOM      5  C   UNL     1      90.630 326.609 201.699  1.00  0.00     0.000 C 
BRANCH   5   6
ATOM      6  C   UNL     1      90.759 327.254 203.094  1.00  0.00     0.006 C 
BRANCH   6   7
ATOM      7  C   UNL     1      89.427 327.426 203.841  1.00  0.00     0.053 C 
BRANCH   7   8
ATOM      8  C   UNL     1      89.335 326.526 205.034  1.00  0.00     0.041 C 
ATOM      9  O   UNL     1      89.126 327.010 206.178  1.00  0.00    -0.550 OA
ATOM     10  O   UNL     1      89.446 325.150 204.879  1.00  0.00    -0.550 OA
ENDBRANCH   7   8
ENDBRANCH   6   7
ENDBRANCH   5   6
ENDBRANCH   4   5
ENDBRANCH   3   4
ENDBRANCH   2   3
ENDBRANCH   1   2
BRANCH   1  11
ATOM     11  C   UNL     1      89.176 324.537 196.808  1.00  0.00     0.000 C 
BRANCH  11  12
ATOM     12  C   UNL     1      88.015 325.350 196.209  1.00  0.00     0.000 C 
BRANCH  12  13
ATOM     13  C   UNL     1      88.501 326.463 195.265  1.00  0.00     0.000 C 
BRANCH  13  14
ATOM     14  C   UNL     1      87.551 326.695 194.077  1.00  0.00     0.000 C 
BRANCH  14  15
ATOM     15  C   UNL     1      86.321 325.766 194.029  1.00  0.00     0.000 C 
BRANCH  15  16
ATOM     16  C   UNL     1      86.350 324.701 192.918  1.00  0.00     0.006 C 
BRANCH  16  17
ATOM     17  C   UNL     1      87.712 324.608 192.218  1.00  0.00     0.053 C 
BRANCH  17  18
ATOM     18  C   UNL     1      88.355 323.288 192.501  1.00  0.00     0.041 C 
ATOM     19  O   UNL     1      88.623 322.954 193.685  1.00  0.00    -0.550 OA
ATOM     20  O   UNL     1      88.705 322.447 191.452  1.00  0.00    -0.550 OA
ENDBRANCH  17  18
ENDBRANCH  16  17
ENDBRANCH  15  16
ENDBRANCH  14  15
ENDBRANCH  13  14
ENDBRANCH  12  13
ENDBRANCH  11  12
ENDBRANCH   1  11
TORSDOF 15
ENDMDL
MODEL 8
REMARK VINA RESULT:    -5.485      1.864      9.936
REMARK INTER + INTRA:         -11.341
REMARK INTER:                 -10.287
REMARK INTRA:                  -1.055
REMARK UNBOUND:                -1.046
REMARK SMILES O=C([O-])CCCCCCCCCCCCCCC(=O)[O-]
REMARK SMILES IDX 10 1 9 2 8 3 7 4 6 5 5 6 4 7 2 8 1 9 3 10 11 11 12 12 13 13
REMARK SMILES IDX 14 14 15 15 16 16 17 17 18 18 19 19 20 20
REMARK H PARENT
REMARK Flexibility Score: inf
ROOT
ATOM      1  C   UNL     1     102.942 314.127 196.486  1.00  0.00     0.000 C 
ENDROOT
BRANCH   1   2
ATOM      2  C   UNL     1     103.664 313.813 197.809  1.00  0.00     0.000 C 
BRANCH   2   3
ATOM      3  C   UNL     1     102.831 313.020 198.837  1.00  0.00     0.000 C 
BRANCH   3   4
ATOM      4  C   UNL     1     103.485 311.718 199.341  1.00  0.00     0.000 C 
BRANCH   4   5
ATOM      5  C   UNL     1     104.561 311.909 200.429  1.00  0.00     0.000 C 
BRANCH   5   6
ATOM      6  C   UNL     1     104.017 312.253 201.831  1.00  0.00     0.006 C 
BRANCH   6   7
ATOM      7  C   UNL     1     103.905 311.050 202.781  1.00  0.00     0.053 C 
BRANCH   7   8
ATOM      8  C   UNL     1     102.481 310.738 203.123  1.00  0.00     0.041 C 
ATOM      9  O   UNL     1     101.599 310.734 202.223  1.00  0.00    -0.550 OA
ATOM     10  O   UNL     1     102.133 310.418 204.429  1.00  0.00    -0.550 OA
ENDBRANCH   7   8
ENDBRANCH   6   7
ENDBRANCH   5   6
ENDBRANCH   4   5
ENDBRANCH   3   4
ENDBRANCH   2   3
ENDBRANCH   1   2
BRANCH   1  11
ATOM     11  C   UNL     1     103.884 314.098 195.271  1.00  0.00     0.000 C 
BRANCH  11  12
ATOM     12  C   UNL     1     104.681 312.786 195.175  1.00  0.00     0.000 C 
BRANCH  12  13
ATOM     13  C   UNL     1     103.908 311.681 194.435  1.00  0.00     0.000 C 
BRANCH  13  14
ATOM     14  C   UNL     1     104.465 311.402 193.028  1.00  0.00     0.000 C 
BRANCH  14  15
ATOM     15  C   UNL     1     105.684 312.256 192.623  1.00  0.00     0.000 C 
BRANCH  15  16
ATOM     16  C   UNL     1     105.388 313.382 191.617  1.00  0.00     0.006 C 
BRANCH  16  17
ATOM     17  C   UNL     1     103.961 313.321 191.058  1.00  0.00     0.053 C 
BRANCH  17  18
ATOM     18  C   UNL     1     103.735 314.431 190.081  1.00  0.00     0.041 C 
ATOM     19  O   UNL     1     104.478 315.447 190.094  1.00  0.00    -0.550 OA
ATOM     20  O   UNL     1     102.672 314.366 189.189  1.00  0.00    -0.550 OA
ENDBRANCH  17  18
ENDBRANCH  16  17
ENDBRANCH  15  16
ENDBRANCH  14  15
ENDBRANCH  13  14
ENDBRANCH  12  13
ENDBRANCH  11  12
ENDBRANCH   1  11
TORSDOF 15
ENDMDL
MODEL 9
REMARK VINA RESULT:    -5.463     19.375     22.521
REMARK INTER + INTRA:         -11.299
REMARK INTER:                 -10.860
REMARK INTRA:                  -0.439
REMARK UNBOUND:                -1.046
REMARK SMILES O=C([O-])CCCCCCCCCCCCCCC(=O)[O-]
REMARK SMILES IDX 10 1 9 2 8 3 7 4 6 5 5 6 4 7 2 8 1 9 3 10 11 11 12 12 13 13
REMARK SMILES IDX 14 14 15 15 16 16 17 17 18 18 19 19 20 20
REMARK H PARENT
REMARK Flexibility Score: inf
ROOT
ATOM      1  C   UNL     1      88.869 325.522 197.161  1.00  0.00     0.000 C 
ENDROOT
BRANCH   1   2
ATOM      2  C   UNL     1      88.884 326.450 198.389  1.00  0.00     0.000 C 
BRANCH   2   3
ATOM      3  C   UNL     1      89.064 325.738 199.745  1.00  0.00     0.000 C 
BRANCH   3   4
ATOM      4  C   UNL     1      89.649 326.614 200.870  1.00  0.00     0.000 C 
BRANCH   4   5
ATOM      5  C   UNL     1      89.201 326.230 202.295  1.00  0.00     0.000 C 
BRANCH   5   6
ATOM      6  C   UNL     1      89.987 326.913 203.432  1.00  0.00     0.006 C 
BRANCH   6   7
ATOM      7  C   UNL     1      89.156 327.211 204.690  1.00  0.00     0.053 C 
BRANCH   7   8
ATOM      8  C   UNL     1      89.984 327.144 205.936  1.00  0.00     0.041 C 
ATOM      9  O   UNL     1      91.126 327.675 205.968  1.00  0.00    -0.550 OA
ATOM     10  O   UNL     1      89.481 326.525 207.073  1.00  0.00    -0.550 OA
ENDBRANCH   7   8
ENDBRANCH   6   7
ENDBRANCH   5   6
ENDBRANCH   4   5
ENDBRANCH   3   4
ENDBRANCH   2   3
ENDBRANCH   1   2
BRANCH   1  11
ATOM     11  C   UNL     1      88.423 326.242 195.876  1.00  0.00     0.000 C 
BRANCH  11  12
ATOM     12  C   UNL     1      86.902 326.170 195.659  1.00  0.00     0.000 C 
BRANCH  12  13
ATOM     13  C   UNL     1      86.532 325.702 194.241  1.00  0.00     0.000 C 
BRANCH  13  14
ATOM     14  C   UNL     1      87.738 325.683 193.285  1.00  0.00     0.000 C 
BRANCH  14  15
ATOM     15  C   UNL     1      88.121 324.293 192.737  1.00  0.00     0.000 C 
BRANCH  15  16
ATOM     16  C   UNL     1      88.199 324.194 191.204  1.00  0.00     0.006 C 
BRANCH  16  17
ATOM     17  C   UNL     1      88.581 322.792 190.717  1.00  0.00     0.053 C 
BRANCH  17  18
ATOM     18  C   UNL     1      88.984 322.831 189.276  1.00  0.00     0.041 C 
ATOM     19  O   UNL     1      88.575 321.946 188.480  1.00  0.00    -0.550 OA
ATOM     20  O   UNL     1      89.852 323.817 188.823  1.00  0.00    -0.550 OA
ENDBRANCH  17  18
ENDBRANCH  16  17
ENDBRANCH  15  16
ENDBRANCH  14  15
ENDBRANCH  13  14
ENDBRANCH  12  13
ENDBRANCH  11  12
ENDBRANCH   1  11
TORSDOF 15
ENDMDL
