MODEL 1
REMARK VINA RESULT:    -6.387      0.000      0.000
REMARK INTER + INTRA:         -10.313
REMARK INTER:                  -9.187
REMARK INTRA:                  -1.125
REMARK UNBOUND:                -1.125
REMARK SMILES CC(C)=CCCC(C)=CCCC(C)=CCO
REMARK SMILES IDX 10 1 9 2 7 3 8 4 6 5 5 6 4 7 1 8 2 9 3 10 11 11 12 12 14 13
REMARK SMILES IDX 13 14 15 15 16 16
REMARK H PARENT 16 17
REMARK Flexibility Score: inf
ROOT
ATOM      1  C   UNL     1      22.135  11.597  15.649  1.00  0.00     0.032 C 
ENDROOT
BRANCH   1   2
ATOM      2  C   UNL     1      23.440  10.847  15.576  1.00  0.00    -0.028 C 
ATOM      3  C   UNL     1      23.613   9.672  14.927  1.00  0.00    -0.077 C 
ATOM      4  C   UNL     1      22.459   8.947  14.271  1.00  0.00     0.039 C 
BRANCH   3   5
ATOM      5  C   UNL     1      24.995   9.055  14.880  1.00  0.00     0.034 C 
BRANCH   5   6
ATOM      6  C   UNL     1      25.195   8.265  13.581  1.00  0.00     0.032 C 
BRANCH   6   7
ATOM      7  C   UNL     1      25.504   9.183  12.423  1.00  0.00    -0.028 C 
ATOM      8  C   UNL     1      26.236   7.273  10.989  1.00  0.00     0.039 C 
ATOM      9  C   UNL     1      25.976   8.740  11.238  1.00  0.00    -0.080 C 
ATOM     10  C   UNL     1      26.246   9.744  10.145  1.00  0.00     0.039 C 
ENDBRANCH   6   7
ENDBRANCH   5   6
ENDBRANCH   3   5
ENDBRANCH   1   2
BRANCH   1  11
ATOM     11  C   UNL     1      22.194  12.868  14.793  1.00  0.00     0.034 C 
BRANCH  11  12
ATOM     12  C   UNL     1      22.169  12.524  13.320  1.00  0.00    -0.075 C 
ATOM     13  C   UNL     1      23.314  12.599  12.606  1.00  0.00    -0.000 C 
ATOM     14  C   UNL     1      20.861  12.118  12.682  1.00  0.00     0.039 C 
BRANCH  13  15
ATOM     15  C   UNL     1      23.408  12.291  11.136  1.00  0.00     0.183 C 
BRANCH  15  16
ATOM     16  O   UNL     1      23.972  13.377  10.457  1.00  0.00    -0.392 OA
ATOM     17  H   UNL     1      23.288  13.677   9.802  1.00  0.00     0.210 HD
ENDBRANCH  15  16
ENDBRANCH  13  15
ENDBRANCH  11  12
ENDBRANCH   1  11
TORSDOF 8
ENDMDL
MODEL 2
REMARK VINA RESULT:    -6.233      1.182      2.226
REMARK INTER + INTRA:         -10.091
REMARK INTER:                  -8.649
REMARK INTRA:                  -1.442
REMARK UNBOUND:                -1.125
REMARK SMILES CC(C)=CCCC(C)=CCCC(C)=CCO
REMARK SMILES IDX 10 1 9 2 7 3 8 4 6 5 5 6 4 7 1 8 2 9 3 10 11 11 12 12 14 13
REMARK SMILES IDX 13 14 15 15 16 16
REMARK H PARENT 16 17
REMARK Flexibility Score: inf
ROOT
ATOM      1  C   UNL     1      20.262  10.003  13.360  1.00  0.00     0.032 C 
ENDROOT
BRANCH   1   2
ATOM      2  C   UNL     1      21.376   9.045  13.700  1.00  0.00    -0.028 C 
ATOM      3  C   UNL     1      22.379   9.314  14.566  1.00  0.00    -0.077 C 
ATOM      4  C   UNL     1      22.523  10.668  15.223  1.00  0.00     0.039 C 
BRANCH   3   5
ATOM      5  C   UNL     1      23.401   8.238  14.864  1.00  0.00     0.034 C 
BRANCH   5   6
ATOM      6  C   UNL     1      24.823   8.747  14.602  1.00  0.00     0.032 C 
BRANCH   6   7
ATOM      7  C   UNL     1      25.203   8.585  13.149  1.00  0.00    -0.028 C 
ATOM      8  C   UNL     1      25.561  11.043  12.878  1.00  0.00     0.039 C 
ATOM      9  C   UNL     1      25.544   9.625  12.357  1.00  0.00    -0.080 C 
ATOM     10  C   UNL     1      25.911   9.350  10.920  1.00  0.00     0.039 C 
ENDBRANCH   6   7
ENDBRANCH   5   6
ENDBRANCH   3   5
ENDBRANCH   1   2
BRANCH   1  11
ATOM     11  C   UNL     1      20.459  10.582  11.954  1.00  0.00     0.034 C 
BRANCH  11  12
ATOM     12  C   UNL     1      21.111  11.945  12.022  1.00  0.00    -0.075 C 
ATOM     13  C   UNL     1      22.428  12.062  11.737  1.00  0.00    -0.000 C 
ATOM     14  C   UNL     1      20.276  13.140  12.419  1.00  0.00     0.039 C 
BRANCH  13  15
ATOM     15  C   UNL     1      23.184  13.362  11.782  1.00  0.00     0.183 C 
BRANCH  15  16
ATOM     16  O   UNL     1      24.007  13.474  10.656  1.00  0.00    -0.392 OA
ATOM     17  H   UNL     1      23.588  12.913   9.953  1.00  0.00     0.210 HD
ENDBRANCH  15  16
ENDBRANCH  13  15
ENDBRANCH  11  12
ENDBRANCH   1  11
TORSDOF 8
ENDMDL
MODEL 3
REMARK VINA RESULT:    -6.213      2.260      3.242
REMARK INTER + INTRA:         -10.063
REMARK INTER:                  -8.246
REMARK INTRA:                  -1.816
REMARK UNBOUND:                -1.125
REMARK SMILES CC(C)=CCCC(C)=CCCC(C)=CCO
REMARK SMILES IDX 10 1 9 2 7 3 8 4 6 5 5 6 4 7 1 8 2 9 3 10 11 11 12 12 14 13
REMARK SMILES IDX 13 14 15 15 16 16
REMARK H PARENT 16 17
REMARK Flexibility Score: inf
ROOT
ATOM      1  C   UNL     1      21.324  12.660  12.887  1.00  0.00     0.032 C 
ENDROOT
BRANCH   1   2
ATOM      2  C   UNL     1      22.176  12.399  14.104  1.00  0.00    -0.028 C 
ATOM      3  C   UNL     1      22.143  11.259  14.831  1.00  0.00    -0.077 C 
ATOM      4  C   UNL     1      21.161  10.150  14.529  1.00  0.00     0.039 C 
BRANCH   3   5
ATOM      5  C   UNL     1      23.097  11.103  15.996  1.00  0.00     0.034 C 
BRANCH   5   6
ATOM      6  C   UNL     1      24.551  11.066  15.509  1.00  0.00     0.032 C 
BRANCH   6   7
ATOM      7  C   UNL     1      24.819   9.833  14.679  1.00  0.00    -0.028 C 
ATOM      8  C   UNL     1      25.477  11.204  12.697  1.00  0.00     0.039 C 
ATOM      9  C   UNL     1      25.244   9.886  13.399  1.00  0.00    -0.080 C 
ATOM     10  C   UNL     1      25.486   8.593  12.662  1.00  0.00     0.039 C 
ENDBRANCH   6   7
ENDBRANCH   5   6
ENDBRANCH   3   5
ENDBRANCH   1   2
BRANCH   1  11
ATOM     11  C   UNL     1      22.142  12.468  11.605  1.00  0.00     0.034 C 
BRANCH  11  12
ATOM     12  C   UNL     1      21.659  11.257  10.837  1.00  0.00    -0.075 C 
ATOM     13  C   UNL     1      22.196  10.047  11.107  1.00  0.00    -0.000 C 
ATOM     14  C   UNL     1      20.595  11.435   9.779  1.00  0.00     0.039 C 
BRANCH  13  15
ATOM     15  C   UNL     1      21.802   8.778  10.403  1.00  0.00     0.183 C 
BRANCH  15  16
ATOM     16  O   UNL     1      22.889   7.897  10.364  1.00  0.00    -0.392 OA
ATOM     17  H   UNL     1      22.992   7.628   9.414  1.00  0.00     0.210 HD
ENDBRANCH  15  16
ENDBRANCH  13  15
ENDBRANCH  11  12
ENDBRANCH   1  11
TORSDOF 8
ENDMDL
MODEL 4
REMARK VINA RESULT:    -6.179      1.968      4.229
REMARK INTER + INTRA:         -10.013
REMARK INTER:                  -8.194
REMARK INTRA:                  -1.820
REMARK UNBOUND:                -1.125
REMARK SMILES CC(C)=CCCC(C)=CCCC(C)=CCO
REMARK SMILES IDX 10 1 9 2 7 3 8 4 6 5 5 6 4 7 1 8 2 9 3 10 11 11 12 12 14 13
REMARK SMILES IDX 13 14 15 15 16 16
REMARK H PARENT 16 17
REMARK Flexibility Score: inf
ROOT
ATOM      1  C   UNL     1      24.498   9.054  14.679  1.00  0.00     0.032 C 
ENDROOT
BRANCH   1   2
ATOM      2  C   UNL     1      23.003   8.960  14.507  1.00  0.00    -0.028 C 
ATOM      3  C   UNL     1      22.135   9.959  14.788  1.00  0.00    -0.077 C 
ATOM      4  C   UNL     1      22.594  11.265  15.396  1.00  0.00     0.039 C 
BRANCH   3   5
ATOM      5  C   UNL     1      20.661   9.752  14.511  1.00  0.00     0.034 C 
BRANCH   5   6
ATOM      6  C   UNL     1      20.402   9.626  13.004  1.00  0.00     0.032 C 
BRANCH   6   7
ATOM      7  C   UNL     1      21.095  10.726  12.236  1.00  0.00    -0.028 C 
ATOM      8  C   UNL     1      22.165   9.087  10.683  1.00  0.00     0.039 C 
ATOM      9  C   UNL     1      21.898  10.491  11.176  1.00  0.00    -0.080 C 
ATOM     10  C   UNL     1      22.537  11.664  10.477  1.00  0.00     0.039 C 
ENDBRANCH   6   7
ENDBRANCH   5   6
ENDBRANCH   3   5
ENDBRANCH   1   2
BRANCH   1  11
ATOM     11  C   UNL     1      25.220   8.379  13.508  1.00  0.00     0.034 C 
BRANCH  11  12
ATOM     12  C   UNL     1      25.453   9.363  12.383  1.00  0.00    -0.075 C 
ATOM     13  C   UNL     1      25.720   8.897  11.142  1.00  0.00    -0.000 C 
ATOM     14  C   UNL     1      25.393  10.844  12.677  1.00  0.00     0.039 C 
BRANCH  13  15
ATOM     15  C   UNL     1      25.978   9.779   9.951  1.00  0.00     0.183 C 
BRANCH  15  16
ATOM     16  O   UNL     1      27.345   9.787   9.652  1.00  0.00    -0.392 OA
ATOM     17  H   UNL     1      27.442  10.332   8.827  1.00  0.00     0.210 HD
ENDBRANCH  15  16
ENDBRANCH  13  15
ENDBRANCH  11  12
ENDBRANCH   1  11
TORSDOF 8
ENDMDL
MODEL 5
REMARK VINA RESULT:    -6.149      1.456      2.584
REMARK INTER + INTRA:          -9.970
REMARK INTER:                  -9.033
REMARK INTRA:                  -0.936
REMARK UNBOUND:                -1.125
REMARK SMILES CC(C)=CCCC(C)=CCCC(C)=CCO
REMARK SMILES IDX 10 1 9 2 7 3 8 4 6 5 5 6 4 7 1 8 2 9 3 10 11 11 12 12 14 13
REMARK SMILES IDX 13 14 15 15 16 16
REMARK H PARENT 16 17
REMARK Flexibility Score: inf
ROOT
ATOM      1  C   UNL     1      24.536  11.028  15.522  1.00  0.00     0.032 C 
ENDROOT
BRANCH   1   2
ATOM      2  C   UNL     1      24.708   9.770  14.708  1.00  0.00    -0.028 C 
ATOM      3  C   UNL     1      25.134   9.740  13.425  1.00  0.00    -0.077 C 
ATOM      4  C   UNL     1      25.403  11.008  12.646  1.00  0.00     0.039 C 
BRANCH   3   5
ATOM      5  C   UNL     1      25.321   8.402  12.744  1.00  0.00     0.034 C 
BRANCH   5   6
ATOM      6  C   UNL     1      25.867   8.584  11.322  1.00  0.00     0.032 C 
BRANCH   6   7
ATOM      7  C   UNL     1      25.088   7.758  10.326  1.00  0.00    -0.028 C 
ATOM      8  C   UNL     1      26.621   5.806  10.616  1.00  0.00     0.039 C 
ATOM      9  C   UNL     1      25.423   6.491  10.000  1.00  0.00    -0.080 C 
ATOM     10  C   UNL     1      24.573   5.754   8.996  1.00  0.00     0.039 C 
ENDBRANCH   6   7
ENDBRANCH   5   6
ENDBRANCH   3   5
ENDBRANCH   1   2
BRANCH   1  11
ATOM     11  C   UNL     1      23.077  11.191  15.963  1.00  0.00     0.034 C 
BRANCH  11  12
ATOM     12  C   UNL     1      22.169  11.345  14.763  1.00  0.00    -0.075 C 
ATOM     13  C   UNL     1      22.248  12.469  14.015  1.00  0.00    -0.000 C 
ATOM     14  C   UNL     1      21.187  10.243  14.437  1.00  0.00     0.039 C 
BRANCH  13  15
ATOM     15  C   UNL     1      21.390  12.736  12.808  1.00  0.00     0.183 C 
BRANCH  15  16
ATOM     16  O   UNL     1      22.174  13.257  11.773  1.00  0.00    -0.392 OA
ATOM     17  H   UNL     1      21.565  13.817  11.223  1.00  0.00     0.210 HD
ENDBRANCH  15  16
ENDBRANCH  13  15
ENDBRANCH  11  12
ENDBRANCH   1  11
TORSDOF 8
ENDMDL
MODEL 6
REMARK VINA RESULT:    -6.143      1.821      3.936
REMARK INTER + INTRA:          -9.962
REMARK INTER:                  -8.199
REMARK INTRA:                  -1.763
REMARK UNBOUND:                -1.125
REMARK SMILES CC(C)=CCCC(C)=CCCC(C)=CCO
REMARK SMILES IDX 10 1 9 2 7 3 8 4 6 5 5 6 4 7 1 8 2 9 3 10 11 11 12 12 14 13
REMARK SMILES IDX 13 14 15 15 16 16
REMARK H PARENT 16 17
REMARK Flexibility Score: inf
ROOT
ATOM      1  C   UNL     1      21.246  11.716  11.269  1.00  0.00     0.032 C 
ENDROOT
BRANCH   1   2
ATOM      2  C   UNL     1      22.435  10.909  10.813  1.00  0.00    -0.028 C 
ATOM      3  C   UNL     1      23.724  11.290  10.967  1.00  0.00    -0.077 C 
ATOM      4  C   UNL     1      24.092  12.636  11.550  1.00  0.00     0.039 C 
BRANCH   3   5
ATOM      5  C   UNL     1      24.826  10.354  10.519  1.00  0.00     0.034 C 
BRANCH   5   6
ATOM      6  C   UNL     1      25.852  10.144  11.638  1.00  0.00     0.032 C 
BRANCH   6   7
ATOM      7  C   UNL     1      25.460   8.992  12.532  1.00  0.00    -0.028 C 
ATOM      8  C   UNL     1      25.017  10.522  14.457  1.00  0.00     0.039 C 
ATOM      9  C   UNL     1      25.076   9.155  13.816  1.00  0.00    -0.080 C 
ATOM     10  C   UNL     1      24.700   7.935  14.620  1.00  0.00     0.039 C 
ENDBRANCH   6   7
ENDBRANCH   5   6
ENDBRANCH   3   5
ENDBRANCH   1   2
BRANCH   1  11
ATOM     11  C   UNL     1      20.450  10.951  12.333  1.00  0.00     0.034 C 
BRANCH  11  12
ATOM     12  C   UNL     1      21.149  11.014  13.673  1.00  0.00    -0.075 C 
ATOM     13  C   UNL     1      21.555  12.211  14.150  1.00  0.00    -0.000 C 
ATOM     14  C   UNL     1      21.387   9.733  14.438  1.00  0.00     0.039 C 
BRANCH  13  15
ATOM     15  C   UNL     1      22.267  12.394  15.462  1.00  0.00     0.183 C 
BRANCH  15  16
ATOM     16  O   UNL     1      23.074  13.536  15.412  1.00  0.00    -0.392 OA
ATOM     17  H   UNL     1      23.139  13.868  16.345  1.00  0.00     0.210 HD
ENDBRANCH  15  16
ENDBRANCH  13  15
ENDBRANCH  11  12
ENDBRANCH   1  11
TORSDOF 8
ENDMDL
MODEL 7
REMARK VINA RESULT:    -6.142      2.126      3.403
REMARK INTER + INTRA:          -9.961
REMARK INTER:                  -8.271
REMARK INTRA:                  -1.690
REMARK UNBOUND:                -1.125
REMARK SMILES CC(C)=CCCC(C)=CCCC(C)=CCO
REMARK SMILES IDX 10 1 9 2 7 3 8 4 6 5 5 6 4 7 1 8 2 9 3 10 11 11 12 12 14 13
REMARK SMILES IDX 13 14 15 15 16 16
REMARK H PARENT 16 17
REMARK Flexibility Score: inf
ROOT
ATOM      1  C   UNL     1      20.232   9.794  13.718  1.00  0.00     0.032 C 
ENDROOT
BRANCH   1   2
ATOM      2  C   UNL     1      21.318   9.985  14.746  1.00  0.00    -0.028 C 
ATOM      3  C   UNL     1      22.079  11.099  14.859  1.00  0.00    -0.077 C 
ATOM      4  C   UNL     1      21.958  12.247  13.882  1.00  0.00     0.039 C 
BRANCH   3   5
ATOM      5  C   UNL     1      23.095  11.185  15.977  1.00  0.00     0.034 C 
BRANCH   5   6
ATOM      6  C   UNL     1      24.523  11.171  15.419  1.00  0.00     0.032 C 
BRANCH   6   7
ATOM      7  C   UNL     1      24.825   9.867  14.719  1.00  0.00    -0.028 C 
ATOM      8  C   UNL     1      25.311  11.035  12.565  1.00  0.00     0.039 C 
ATOM      9  C   UNL     1      25.187   9.796  13.420  1.00  0.00    -0.080 C 
ATOM     10  C   UNL     1      25.471   8.441  12.822  1.00  0.00     0.039 C 
ENDBRANCH   6   7
ENDBRANCH   5   6
ENDBRANCH   3   5
ENDBRANCH   1   2
BRANCH   1  11
ATOM     11  C   UNL     1      20.716   8.881  12.585  1.00  0.00     0.034 C 
BRANCH  11  12
ATOM     12  C   UNL     1      21.150   9.697  11.388  1.00  0.00    -0.075 C 
ATOM     13  C   UNL     1      20.352  10.692  10.942  1.00  0.00    -0.000 C 
ATOM     14  C   UNL     1      22.462   9.370  10.712  1.00  0.00     0.039 C 
BRANCH  13  15
ATOM     15  C   UNL     1      20.675  11.561   9.757  1.00  0.00     0.183 C 
BRANCH  15  16
ATOM     16  O   UNL     1      19.943  12.752   9.826  1.00  0.00    -0.392 OA
ATOM     17  H   UNL     1      19.688  12.863  10.779  1.00  0.00     0.210 HD
ENDBRANCH  15  16
ENDBRANCH  13  15
ENDBRANCH  11  12
ENDBRANCH   1  11
TORSDOF 8
ENDMDL
MODEL 8
REMARK VINA RESULT:    -6.142      1.350      4.244
REMARK INTER + INTRA:          -9.961
REMARK INTER:                  -8.630
REMARK INTRA:                  -1.331
REMARK UNBOUND:                -1.125
REMARK SMILES CC(C)=CCCC(C)=CCCC(C)=CCO
REMARK SMILES IDX 10 1 9 2 7 3 8 4 6 5 5 6 4 7 1 8 2 9 3 10 11 11 12 12 14 13
REMARK SMILES IDX 13 14 15 15 16 16
REMARK H PARENT 16 17
REMARK Flexibility Score: inf
ROOT
ATOM      1  C   UNL     1      25.503   8.270  12.502  1.00  0.00     0.032 C 
ENDROOT
BRANCH   1   2
ATOM      2  C   UNL     1      25.308   9.419  13.458  1.00  0.00    -0.028 C 
ATOM      3  C   UNL     1      24.785   9.302  14.701  1.00  0.00    -0.077 C 
ATOM      4  C   UNL     1      24.259   7.984  15.222  1.00  0.00     0.039 C 
BRANCH   3   5
ATOM      5  C   UNL     1      24.702  10.530  15.581  1.00  0.00     0.034 C 
BRANCH   5   6
ATOM      6  C   UNL     1      23.243  10.863  15.916  1.00  0.00     0.032 C 
BRANCH   6   7
ATOM      7  C   UNL     1      22.602  11.677  14.817  1.00  0.00    -0.028 C 
ATOM      8  C   UNL     1      21.097   9.789  14.176  1.00  0.00     0.039 C 
ATOM      9  C   UNL     1      21.622  11.197  14.022  1.00  0.00    -0.080 C 
ATOM     10  C   UNL     1      21.047  12.098  12.957  1.00  0.00     0.039 C 
ENDBRANCH   6   7
ENDBRANCH   5   6
ENDBRANCH   3   5
ENDBRANCH   1   2
BRANCH   1  11
ATOM     11  C   UNL     1      25.431   8.757  11.050  1.00  0.00     0.034 C 
BRANCH  11  12
ATOM     12  C   UNL     1      24.265   9.701  10.859  1.00  0.00    -0.075 C 
ATOM     13  C   UNL     1      24.501  11.027  10.748  1.00  0.00    -0.000 C 
ATOM     14  C   UNL     1      22.864   9.137  10.809  1.00  0.00     0.039 C 
BRANCH  13  15
ATOM     15  C   UNL     1      23.422  12.059  10.566  1.00  0.00     0.183 C 
BRANCH  15  16
ATOM     16  O   UNL     1      23.989  13.337  10.510  1.00  0.00    -0.392 OA
ATOM     17  H   UNL     1      23.351  13.899   9.996  1.00  0.00     0.210 HD
ENDBRANCH  15  16
ENDBRANCH  13  15
ENDBRANCH  11  12
ENDBRANCH   1  11
TORSDOF 8
ENDMDL
MODEL 9
REMARK VINA RESULT:    -5.993      2.498      4.908
REMARK INTER + INTRA:          -9.746
REMARK INTER:                  -7.895
REMARK INTRA:                  -1.851
REMARK UNBOUND:                -1.125
REMARK SMILES CC(C)=CCCC(C)=CCCC(C)=CCO
REMARK SMILES IDX 10 1 9 2 7 3 8 4 6 5 5 6 4 7 1 8 2 9 3 10 11 11 12 12 14 13
REMARK SMILES IDX 13 14 15 15 16 16
REMARK H PARENT 16 17
REMARK Flexibility Score: inf
ROOT
ATOM      1  C   UNL     1      25.686  10.879  12.226  1.00  0.00     0.032 C 
ENDROOT
BRANCH   1   2
ATOM      2  C   UNL     1      24.978  11.102  13.538  1.00  0.00    -0.028 C 
ATOM      3  C   UNL     1      24.712  10.130  14.440  1.00  0.00    -0.077 C 
ATOM      4  C   UNL     1      25.035   8.679  14.164  1.00  0.00     0.039 C 
BRANCH   3   5
ATOM      5  C   UNL     1      24.047  10.502  15.748  1.00  0.00     0.034 C 
BRANCH   5   6
ATOM      6  C   UNL     1      22.710  11.210  15.498  1.00  0.00     0.032 C 
BRANCH   6   7
ATOM      7  C   UNL     1      21.688  10.261  14.918  1.00  0.00    -0.028 C 
ATOM      8  C   UNL     1      21.324  11.729  12.930  1.00  0.00     0.039 C 
ATOM      9  C   UNL     1      21.054  10.488  13.748  1.00  0.00    -0.080 C 
ATOM     10  C   UNL     1      20.054   9.471  13.258  1.00  0.00     0.039 C 
ENDBRANCH   6   7
ENDBRANCH   5   6
ENDBRANCH   3   5
ENDBRANCH   1   2
BRANCH   1  11
ATOM     11  C   UNL     1      24.683  10.866  11.066  1.00  0.00     0.034 C 
BRANCH  11  12
ATOM     12  C   UNL     1      24.314   9.447  10.693  1.00  0.00    -0.075 C 
ATOM     13  C   UNL     1      25.290   8.587  10.324  1.00  0.00    -0.000 C 
ATOM     14  C   UNL     1      22.862   9.031  10.731  1.00  0.00     0.039 C 
BRANCH  13  15
ATOM     15  C   UNL     1      25.041   7.158   9.923  1.00  0.00     0.183 C 
BRANCH  15  16
ATOM     16  O   UNL     1      26.168   6.379  10.210  1.00  0.00    -0.392 OA
ATOM     17  H   UNL     1      26.689   6.889  10.884  1.00  0.00     0.210 HD
ENDBRANCH  15  16
ENDBRANCH  13  15
ENDBRANCH  11  12
ENDBRANCH   1  11
TORSDOF 8
ENDMDL
