MODEL 1
REMARK VINA RESULT:    -1.962      0.000      0.000
REMARK INTER + INTRA:          -1.962
REMARK INTER:                  -1.962
REMARK INTRA:                   0.000
REMARK UNBOUND:                 0.000
REMARK SMILES CC(=O)[O-]
REMARK SMILES IDX 1 1 2 2 3 3 4 4
REMARK H PARENT
REMARK Flexibility Score: inf
ROOT
ATOM      1  C   UNL     1      45.759  18.849  77.723  1.00  0.00     0.063 C 
ATOM      2  C   UNL     1      45.889  17.910  76.572  1.00  0.00     0.038 C 
ATOM      3  O   UNL     1      46.052  18.357  75.407  1.00  0.00    -0.550 OA
ATOM      4  O   UNL     1      45.777  16.540  76.776  1.00  0.00    -0.550 OA
ENDROOT
TORSDOF 0
ENDMDL
MODEL 2
REMARK VINA RESULT:    -1.938      1.422      1.777
REMARK INTER + INTRA:          -1.938
REMARK INTER:                  -1.938
REMARK INTRA:                   0.000
REMARK UNBOUND:                 0.000
REMARK SMILES CC(=O)[O-]
REMARK SMILES IDX 1 1 2 2 3 3 4 4
REMARK H PARENT
REMARK Flexibility Score: inf
ROOT
ATOM      1  C   UNL     1      45.888  16.588  76.643  1.00  0.00     0.063 C 
ATOM      2  C   UNL     1      45.848  18.079  76.664  1.00  0.00     0.038 C 
ATOM      3  O   UNL     1      45.948  18.729  75.591  1.00  0.00    -0.550 OA
ATOM      4  O   UNL     1      45.754  18.756  77.874  1.00  0.00    -0.550 OA
ENDROOT
TORSDOF 0
ENDMDL
MODEL 3
REMARK VINA RESULT:    -1.876     13.144     13.527
REMARK INTER + INTRA:          -1.876
REMARK INTER:                  -1.876
REMARK INTRA:                   0.000
REMARK UNBOUND:                 0.000
REMARK SMILES CC(=O)[O-]
REMARK SMILES IDX 1 1 2 2 3 3 4 4
REMARK H PARENT
REMARK Flexibility Score: inf
ROOT
ATOM      1  C   UNL     1      56.121  17.381  84.513  1.00  0.00     0.063 C 
ATOM      2  C   UNL     1      55.560  16.953  85.827  1.00  0.00     0.038 C 
ATOM      3  O   UNL     1      55.940  15.875  86.355  1.00  0.00    -0.550 OA
ATOM      4  O   UNL     1      54.579  17.716  86.447  1.00  0.00    -0.550 OA
ENDROOT
TORSDOF 0
ENDMDL
MODEL 4
REMARK VINA RESULT:    -1.844      9.616      9.840
REMARK INTER + INTRA:          -1.844
REMARK INTER:                  -1.844
REMARK INTRA:                   0.000
REMARK UNBOUND:                 0.000
REMARK SMILES CC(=O)[O-]
REMARK SMILES IDX 1 1 2 2 3 3 4 4
REMARK H PARENT
REMARK Flexibility Score: inf
ROOT
ATOM      1  C   UNL     1      37.543  18.268  80.123  1.00  0.00     0.063 C 
ATOM      2  C   UNL     1      37.277  19.563  80.814  1.00  0.00     0.038 C 
ATOM      3  O   UNL     1      37.030  20.598  80.142  1.00  0.00    -0.550 OA
ATOM      4  O   UNL     1      37.354  19.641  82.198  1.00  0.00    -0.550 OA
ENDROOT
TORSDOF 0
ENDMDL
MODEL 5
REMARK VINA RESULT:    -1.813     12.999     13.360
REMARK INTER + INTRA:          -1.813
REMARK INTER:                  -1.813
REMARK INTRA:                   0.000
REMARK UNBOUND:                 0.000
REMARK SMILES CC(=O)[O-]
REMARK SMILES IDX 1 1 2 2 3 3 4 4
REMARK H PARENT
REMARK Flexibility Score: inf
ROOT
ATOM      1  C   UNL     1      56.125  16.075  86.415  1.00  0.00     0.063 C 
ATOM      2  C   UNL     1      55.322  17.172  85.802  1.00  0.00     0.038 C 
ATOM      3  O   UNL     1      54.361  17.682  86.436  1.00  0.00    -0.550 OA
ATOM      4  O   UNL     1      55.598  17.598  84.509  1.00  0.00    -0.550 OA
ENDROOT
TORSDOF 0
ENDMDL
MODEL 6
REMARK VINA RESULT:    -1.788      8.823      9.162
REMARK INTER + INTRA:          -1.788
REMARK INTER:                  -1.788
REMARK INTRA:                   0.000
REMARK UNBOUND:                 0.000
REMARK SMILES CC(=O)[O-]
REMARK SMILES IDX 1 1 2 2 3 3 4 4
REMARK H PARENT
REMARK Flexibility Score: inf
ROOT
ATOM      1  C   UNL     1      39.125  19.631  80.064  1.00  0.00     0.063 C 
ATOM      2  C   UNL     1      37.886  19.041  80.649  1.00  0.00     0.038 C 
ATOM      3  O   UNL     1      37.266  18.135  80.033  1.00  0.00    -0.550 OA
ATOM      4  O   UNL     1      37.384  19.526  81.849  1.00  0.00    -0.550 OA
ENDROOT
TORSDOF 0
ENDMDL
MODEL 7
REMARK VINA RESULT:    -1.768      8.610      8.958
REMARK INTER + INTRA:          -1.768
REMARK INTER:                  -1.768
REMARK INTRA:                   0.000
REMARK UNBOUND:                 0.000
REMARK SMILES CC(=O)[O-]
REMARK SMILES IDX 1 1 2 2 3 3 4 4
REMARK H PARENT
REMARK Flexibility Score: inf
ROOT
ATOM      1  C   UNL     1      37.345  19.777  81.419  1.00  0.00     0.063 C 
ATOM      2  C   UNL     1      37.944  18.905  80.367  1.00  0.00     0.038 C 
ATOM      3  O   UNL     1      37.368  17.838  80.028  1.00  0.00    -0.550 OA
ATOM      4  O   UNL     1      39.165  19.241  79.797  1.00  0.00    -0.550 OA
ENDROOT
TORSDOF 0
ENDMDL
MODEL 8
REMARK VINA RESULT:    -1.761      8.750      8.953
REMARK INTER + INTRA:          -1.761
REMARK INTER:                  -1.761
REMARK INTRA:                   0.000
REMARK UNBOUND:                 0.000
REMARK SMILES CC(=O)[O-]
REMARK SMILES IDX 1 1 2 2 3 3 4 4
REMARK H PARENT
REMARK Flexibility Score: inf
ROOT
ATOM      1  C   UNL     1      54.655  19.931  74.710  1.00  0.00     0.063 C 
ATOM      2  C   UNL     1      54.245  18.895  73.718  1.00  0.00     0.038 C 
ATOM      3  O   UNL     1      53.340  19.146  72.880  1.00  0.00    -0.550 OA
ATOM      4  O   UNL     1      54.823  17.632  73.752  1.00  0.00    -0.550 OA
ENDROOT
TORSDOF 0
ENDMDL
MODEL 9
REMARK VINA RESULT:    -1.731     20.112     20.490
REMARK INTER + INTRA:          -1.731
REMARK INTER:                  -1.731
REMARK INTRA:                   0.000
REMARK UNBOUND:                 0.000
REMARK SMILES CC(=O)[O-]
REMARK SMILES IDX 1 1 2 2 3 3 4 4
REMARK H PARENT
REMARK Flexibility Score: inf
ROOT
ATOM      1  C   UNL     1      45.661  31.484  90.886  1.00  0.00     0.063 C 
ATOM      2  C   UNL     1      44.570  31.456  91.903  1.00  0.00     0.038 C 
ATOM      3  O   UNL     1      44.495  32.361  92.773  1.00  0.00    -0.550 OA
ATOM      4  O   UNL     1      43.666  30.402  91.924  1.00  0.00    -0.550 OA
ENDROOT
TORSDOF 0
ENDMDL
