MODEL 1
REMARK VINA RESULT:    -6.255      0.000      0.000
REMARK INTER + INTRA:         -12.023
REMARK INTER:                 -11.375
REMARK INTRA:                  -0.648
REMARK UNBOUND:                -0.648
REMARK SMILES CCCCCCCCCCCCCCCC(=O)[O-]
REMARK SMILES IDX 9 1 10 2 11 3 12 4 13 5 14 6 15 7 16 8 17 9 18 10 8 11 7 12
REMARK SMILES IDX 6 13 5 14 4 15 3 16 2 17 1 18
REMARK H PARENT
REMARK Flexibility Score: inf
ROOT
ATOM      1  C   UNL     1      94.555 123.487 124.299  1.00  0.00     0.000 C 
ENDROOT
BRANCH   1   2
ATOM      2  C   UNL     1      96.009 123.946 124.092  1.00  0.00     0.000 C 
BRANCH   2   3
ATOM      3  C   UNL     1      97.012 123.166 124.957  1.00  0.00     0.000 C 
BRANCH   3   4
ATOM      4  C   UNL     1      97.557 124.044 126.091  1.00  0.00     0.000 C 
BRANCH   4   5
ATOM      5  C   UNL     1      97.569 125.525 125.682  1.00  0.00     0.000 C 
BRANCH   5   6
ATOM      6  C   UNL     1      98.771 126.294 126.261  1.00  0.00     0.006 C 
BRANCH   6   7
ATOM      7  C   UNL     1      99.067 127.630 125.559  1.00  0.00     0.053 C 
BRANCH   7   8
ATOM      8  C   UNL     1     100.531 127.820 125.304  1.00  0.00     0.041 C 
ATOM      9  O   UNL     1     101.349 127.789 126.260  1.00  0.00    -0.550 OA
ATOM     10  O   UNL     1     100.988 128.059 124.015  1.00  0.00    -0.550 OA
ENDBRANCH   7   8
ENDBRANCH   6   7
ENDBRANCH   5   6
ENDBRANCH   4   5
ENDBRANCH   3   4
ENDBRANCH   2   3
ENDBRANCH   1   2
BRANCH   1  11
ATOM     11  C   UNL     1      93.842 122.985 123.030  1.00  0.00     0.000 C 
BRANCH  11  12
ATOM     12  C   UNL     1      94.449 121.682 122.476  1.00  0.00    -0.000 C 
BRANCH  12  13
ATOM     13  C   UNL     1      93.792 121.246 121.154  1.00  0.00    -0.000 C 
BRANCH  13  14
ATOM     14  C   UNL     1      94.793 121.034 120.000  1.00  0.00    -0.000 C 
BRANCH  14  15
ATOM     15  C   UNL     1      94.149 121.039 118.601  1.00  0.00    -0.000 C 
BRANCH  15  16
ATOM     16  C   UNL     1      92.774 121.730 118.583  1.00  0.00    -0.000 C 
BRANCH  16  17
ATOM     17  C   UNL     1      92.250 121.960 117.157  1.00  0.00    -0.003 C 
ATOM     18  C   UNL     1      92.720 120.886 116.175  1.00  0.00     0.004 C 
ENDBRANCH  16  17
ENDBRANCH  15  16
ENDBRANCH  14  15
ENDBRANCH  13  14
ENDBRANCH  12  13
ENDBRANCH  11  12
ENDBRANCH   1  11
TORSDOF 14
ENDMDL
MODEL 2
REMARK VINA RESULT:    -6.202      1.630      1.929
REMARK INTER + INTRA:         -11.926
REMARK INTER:                 -11.223
REMARK INTRA:                  -0.703
REMARK UNBOUND:                -0.648
REMARK SMILES CCCCCCCCCCCCCCCC(=O)[O-]
REMARK SMILES IDX 9 1 10 2 11 3 12 4 13 5 14 6 15 7 16 8 17 9 18 10 8 11 7 12
REMARK SMILES IDX 6 13 5 14 4 15 3 16 2 17 1 18
REMARK H PARENT
REMARK Flexibility Score: inf
ROOT
ATOM      1  C   UNL     1      96.000 123.452 123.252  1.00  0.00     0.000 C 
ENDROOT
BRANCH   1   2
ATOM      2  C   UNL     1      96.253 124.496 124.354  1.00  0.00     0.000 C 
BRANCH   2   3
ATOM      3  C   UNL     1      96.846 123.885 125.634  1.00  0.00     0.000 C 
BRANCH   3   4
ATOM      4  C   UNL     1      97.846 124.847 126.288  1.00  0.00     0.000 C 
BRANCH   4   5
ATOM      5  C   UNL     1      97.988 126.136 125.465  1.00  0.00     0.000 C 
BRANCH   5   6
ATOM      6  C   UNL     1      99.269 126.922 125.803  1.00  0.00     0.006 C 
BRANCH   6   7
ATOM      7  C   UNL     1      99.018 128.324 126.382  1.00  0.00     0.053 C 
BRANCH   7   8
ATOM      8  C   UNL     1      98.373 128.268 127.732  1.00  0.00     0.041 C 
ATOM      9  O   UNL     1      97.228 128.762 127.909  1.00  0.00    -0.550 OA
ATOM     10  O   UNL     1      99.048 127.697 128.803  1.00  0.00    -0.550 OA
ENDBRANCH   7   8
ENDBRANCH   6   7
ENDBRANCH   5   6
ENDBRANCH   4   5
ENDBRANCH   3   4
ENDBRANCH   2   3
ENDBRANCH   1   2
BRANCH   1  11
ATOM     11  C   UNL     1      94.551 122.937 123.163  1.00  0.00     0.000 C 
BRANCH  11  12
ATOM     12  C   UNL     1      94.447 121.548 122.506  1.00  0.00    -0.000 C 
BRANCH  12  13
ATOM     13  C   UNL     1      93.791 121.606 121.114  1.00  0.00    -0.000 C 
BRANCH  13  14
ATOM     14  C   UNL     1      94.683 121.061 119.980  1.00  0.00    -0.000 C 
BRANCH  14  15
ATOM     15  C   UNL     1      93.985 120.995 118.609  1.00  0.00    -0.000 C 
BRANCH  15  16
ATOM     16  C   UNL     1      92.748 121.907 118.528  1.00  0.00    -0.000 C 
BRANCH  16  17
ATOM     17  C   UNL     1      92.077 121.866 117.146  1.00  0.00    -0.003 C 
ATOM     18  C   UNL     1      92.749 120.878 116.192  1.00  0.00     0.004 C 
ENDBRANCH  16  17
ENDBRANCH  15  16
ENDBRANCH  14  15
ENDBRANCH  13  14
ENDBRANCH  12  13
ENDBRANCH  11  12
ENDBRANCH   1  11
TORSDOF 14
ENDMDL
MODEL 3
REMARK VINA RESULT:    -6.058      2.340      2.862
REMARK INTER + INTRA:         -11.665
REMARK INTER:                 -11.042
REMARK INTRA:                  -0.623
REMARK UNBOUND:                -0.648
REMARK SMILES CCCCCCCCCCCCCCCC(=O)[O-]
REMARK SMILES IDX 9 1 10 2 11 3 12 4 13 5 14 6 15 7 16 8 17 9 18 10 8 11 7 12
REMARK SMILES IDX 6 13 5 14 4 15 3 16 2 17 1 18
REMARK H PARENT
REMARK Flexibility Score: inf
ROOT
ATOM      1  C   UNL     1      95.315 123.643 124.106  1.00  0.00     0.000 C 
ENDROOT
BRANCH   1   2
ATOM      2  C   UNL     1      96.458 123.921 125.098  1.00  0.00     0.000 C 
BRANCH   2   3
ATOM      3  C   UNL     1      97.084 125.313 124.915  1.00  0.00     0.000 C 
BRANCH   3   4
ATOM      4  C   UNL     1      98.086 125.614 126.037  1.00  0.00     0.000 C 
BRANCH   4   5
ATOM      5  C   UNL     1      98.848 126.919 125.758  1.00  0.00     0.000 C 
BRANCH   5   6
ATOM      6  C   UNL     1      98.355 128.094 126.623  1.00  0.00     0.006 C 
BRANCH   6   7
ATOM      7  C   UNL     1      97.782 127.679 127.988  1.00  0.00     0.053 C 
BRANCH   7   8
ATOM      8  C   UNL     1      96.967 128.771 128.611  1.00  0.00     0.041 C 
ATOM      9  O   UNL     1      97.323 129.973 128.494  1.00  0.00    -0.550 OA
ATOM     10  O   UNL     1      95.830 128.459 129.345  1.00  0.00    -0.550 OA
ENDBRANCH   7   8
ENDBRANCH   6   7
ENDBRANCH   5   6
ENDBRANCH   4   5
ENDBRANCH   3   4
ENDBRANCH   2   3
ENDBRANCH   1   2
BRANCH   1  11
ATOM     11  C   UNL     1      95.727 122.875 122.835  1.00  0.00     0.000 C 
BRANCH  11  12
ATOM     12  C   UNL     1      94.867 121.623 122.585  1.00  0.00    -0.000 C 
BRANCH  12  13
ATOM     13  C   UNL     1      93.443 121.975 122.117  1.00  0.00    -0.000 C 
BRANCH  13  14
ATOM     14  C   UNL     1      93.161 121.612 120.645  1.00  0.00    -0.000 C 
BRANCH  14  15
ATOM     15  C   UNL     1      94.409 121.169 119.858  1.00  0.00    -0.000 C 
BRANCH  15  16
ATOM     16  C   UNL     1      94.135 121.009 118.352  1.00  0.00    -0.000 C 
BRANCH  16  17
ATOM     17  C   UNL     1      92.664 121.262 117.992  1.00  0.00    -0.003 C 
ATOM     18  C   UNL     1      92.473 122.505 117.121  1.00  0.00     0.004 C 
ENDBRANCH  16  17
ENDBRANCH  15  16
ENDBRANCH  14  15
ENDBRANCH  13  14
ENDBRANCH  12  13
ENDBRANCH  11  12
ENDBRANCH   1  11
TORSDOF 14
ENDMDL
MODEL 4
REMARK VINA RESULT:    -5.963      1.106      2.054
REMARK INTER + INTRA:         -11.492
REMARK INTER:                 -10.856
REMARK INTRA:                  -0.636
REMARK UNBOUND:                -0.648
REMARK SMILES CCCCCCCCCCCCCCCC(=O)[O-]
REMARK SMILES IDX 9 1 10 2 11 3 12 4 13 5 14 6 15 7 16 8 17 9 18 10 8 11 7 12
REMARK SMILES IDX 6 13 5 14 4 15 3 16 2 17 1 18
REMARK H PARENT
REMARK Flexibility Score: inf
ROOT
ATOM      1  C   UNL     1      96.186 124.505 124.386  1.00  0.00     0.000 C 
ENDROOT
BRANCH   1   2
ATOM      2  C   UNL     1      96.974 124.093 125.642  1.00  0.00     0.000 C 
BRANCH   2   3
ATOM      3  C   UNL     1      97.883 125.213 126.174  1.00  0.00     0.000 C 
BRANCH   3   4
ATOM      4  C   UNL     1      97.884 126.416 125.222  1.00  0.00     0.000 C 
BRANCH   4   5
ATOM      5  C   UNL     1      98.901 127.475 125.675  1.00  0.00     0.000 C 
BRANCH   5   6
ATOM      6  C   UNL     1     100.350 126.955 125.658  1.00  0.00     0.006 C 
BRANCH   6   7
ATOM      7  C   UNL     1     101.166 127.393 124.430  1.00  0.00     0.053 C 
BRANCH   7   8
ATOM      8  C   UNL     1     101.430 128.867 124.426  1.00  0.00     0.041 C 
ATOM      9  O   UNL     1     101.578 129.481 123.338  1.00  0.00    -0.550 OA
ATOM     10  O   UNL     1     101.540 129.558 125.626  1.00  0.00    -0.550 OA
ENDBRANCH   7   8
ENDBRANCH   6   7
ENDBRANCH   5   6
ENDBRANCH   4   5
ENDBRANCH   3   4
ENDBRANCH   2   3
ENDBRANCH   1   2
BRANCH   1  11
ATOM     11  C   UNL     1      95.709 123.336 123.504  1.00  0.00     0.000 C 
BRANCH  11  12
ATOM     12  C   UNL     1      94.181 123.144 123.538  1.00  0.00    -0.000 C 
BRANCH  12  13
ATOM     13  C   UNL     1      93.714 122.001 122.618  1.00  0.00    -0.000 C 
BRANCH  13  14
ATOM     14  C   UNL     1      94.762 121.578 121.567  1.00  0.00    -0.000 C 
BRANCH  14  15
ATOM     15  C   UNL     1      94.156 121.085 120.239  1.00  0.00    -0.000 C 
BRANCH  15  16
ATOM     16  C   UNL     1      92.855 121.820 119.872  1.00  0.00    -0.000 C 
BRANCH  16  17
ATOM     17  C   UNL     1      92.815 122.243 118.396  1.00  0.00    -0.003 C 
ATOM     18  C   UNL     1      91.790 121.452 117.582  1.00  0.00     0.004 C 
ENDBRANCH  16  17
ENDBRANCH  15  16
ENDBRANCH  14  15
ENDBRANCH  13  14
ENDBRANCH  12  13
ENDBRANCH  11  12
ENDBRANCH   1  11
TORSDOF 14
ENDMDL
MODEL 5
REMARK VINA RESULT:    -5.866      4.288      9.429
REMARK INTER + INTRA:         -11.315
REMARK INTER:                 -10.601
REMARK INTRA:                  -0.715
REMARK UNBOUND:                -0.648
REMARK SMILES CCCCCCCCCCCCCCCC(=O)[O-]
REMARK SMILES IDX 9 1 10 2 11 3 12 4 13 5 14 6 15 7 16 8 17 9 18 10 8 11 7 12
REMARK SMILES IDX 6 13 5 14 4 15 3 16 2 17 1 18
REMARK H PARENT
REMARK Flexibility Score: inf
ROOT
ATOM      1  C   UNL     1      95.719 122.861 122.685  1.00  0.00     0.000 C 
ENDROOT
BRANCH   1   2
ATOM      2  C   UNL     1      94.358 122.144 122.693  1.00  0.00     0.000 C 
BRANCH   2   3
ATOM      3  C   UNL     1      94.170 121.200 121.495  1.00  0.00     0.000 C 
BRANCH   3   4
ATOM      4  C   UNL     1      95.238 121.456 120.423  1.00  0.00     0.000 C 
BRANCH   4   5
ATOM      5  C   UNL     1      94.670 121.223 119.015  1.00  0.00     0.000 C 
BRANCH   5   6
ATOM      6  C   UNL     1      93.146 121.000 119.015  1.00  0.00     0.006 C 
BRANCH   6   7
ATOM      7  C   UNL     1      92.324 122.246 118.645  1.00  0.00     0.053 C 
BRANCH   7   8
ATOM      8  C   UNL     1      92.490 122.622 117.205  1.00  0.00     0.041 C 
ATOM      9  O   UNL     1      92.440 121.738 116.310  1.00  0.00    -0.550 OA
ATOM     10  O   UNL     1      92.728 123.944 116.853  1.00  0.00    -0.550 OA
ENDBRANCH   7   8
ENDBRANCH   6   7
ENDBRANCH   5   6
ENDBRANCH   4   5
ENDBRANCH   3   4
ENDBRANCH   2   3
ENDBRANCH   1   2
BRANCH   1  11
ATOM     11  C   UNL     1      96.511 122.773 124.003  1.00  0.00     0.000 C 
BRANCH  11  12
ATOM     12  C   UNL     1      96.444 124.069 124.832  1.00  0.00    -0.000 C 
BRANCH  12  13
ATOM     13  C   UNL     1      97.204 123.952 126.165  1.00  0.00    -0.000 C 
BRANCH  13  14
ATOM     14  C   UNL     1      97.888 125.261 126.612  1.00  0.00    -0.000 C 
BRANCH  14  15
ATOM     15  C   UNL     1      98.055 126.298 125.485  1.00  0.00    -0.000 C 
BRANCH  15  16
ATOM     16  C   UNL     1      98.558 127.658 126.000  1.00  0.00    -0.000 C 
BRANCH  16  17
ATOM     17  C   UNL     1      99.917 128.047 125.400  1.00  0.00    -0.003 C 
ATOM     18  C   UNL     1     100.924 126.897 125.424  1.00  0.00     0.004 C 
ENDBRANCH  16  17
ENDBRANCH  15  16
ENDBRANCH  14  15
ENDBRANCH  13  14
ENDBRANCH  12  13
ENDBRANCH  11  12
ENDBRANCH   1  11
TORSDOF 14
ENDMDL
MODEL 6
REMARK VINA RESULT:    -5.814      4.217      9.471
REMARK INTER + INTRA:         -11.222
REMARK INTER:                 -10.518
REMARK INTRA:                  -0.704
REMARK UNBOUND:                -0.648
REMARK SMILES CCCCCCCCCCCCCCCC(=O)[O-]
REMARK SMILES IDX 9 1 10 2 11 3 12 4 13 5 14 6 15 7 16 8 17 9 18 10 8 11 7 12
REMARK SMILES IDX 6 13 5 14 4 15 3 16 2 17 1 18
REMARK H PARENT
REMARK Flexibility Score: inf
ROOT
ATOM      1  C   UNL     1      96.350 124.338 124.445  1.00  0.00     0.000 C 
ENDROOT
BRANCH   1   2
ATOM      2  C   UNL     1      95.614 123.200 123.716  1.00  0.00     0.000 C 
BRANCH   2   3
ATOM      3  C   UNL     1      94.086 123.293 123.848  1.00  0.00     0.000 C 
BRANCH   3   4
ATOM      4  C   UNL     1      93.391 122.344 122.862  1.00  0.00     0.000 C 
BRANCH   4   5
ATOM      5  C   UNL     1      94.394 121.351 122.256  1.00  0.00     0.000 C 
BRANCH   5   6
ATOM      6  C   UNL     1      94.306 121.277 120.720  1.00  0.00     0.006 C 
BRANCH   6   7
ATOM      7  C   UNL     1      92.954 121.726 120.141  1.00  0.00     0.053 C 
BRANCH   7   8
ATOM      8  C   UNL     1      92.940 121.675 118.644  1.00  0.00     0.041 C 
ATOM      9  O   UNL     1      91.946 122.111 118.005  1.00  0.00    -0.550 OA
ATOM     10  O   UNL     1      94.011 121.122 117.955  1.00  0.00    -0.550 OA
ENDBRANCH   7   8
ENDBRANCH   6   7
ENDBRANCH   5   6
ENDBRANCH   4   5
ENDBRANCH   3   4
ENDBRANCH   2   3
ENDBRANCH   1   2
BRANCH   1  11
ATOM     11  C   UNL     1      96.879 123.979 125.847  1.00  0.00     0.000 C 
BRANCH  11  12
ATOM     12  C   UNL     1      98.144 124.768 126.231  1.00  0.00    -0.000 C 
BRANCH  12  13
ATOM     13  C   UNL     1      98.167 126.177 125.612  1.00  0.00    -0.000 C 
BRANCH  13  14
ATOM     14  C   UNL     1      98.369 127.308 126.642  1.00  0.00    -0.000 C 
BRANCH  14  15
ATOM     15  C   UNL     1      99.324 128.421 126.173  1.00  0.00    -0.000 C 
BRANCH  15  16
ATOM     16  C   UNL     1     100.710 127.884 125.773  1.00  0.00    -0.000 C 
BRANCH  16  17
ATOM     17  C   UNL     1     101.021 128.111 124.286  1.00  0.00    -0.003 C 
ATOM     18  C   UNL     1     102.125 129.146 124.064  1.00  0.00     0.004 C 
ENDBRANCH  16  17
ENDBRANCH  15  16
ENDBRANCH  14  15
ENDBRANCH  13  14
ENDBRANCH  12  13
ENDBRANCH  11  12
ENDBRANCH   1  11
TORSDOF 14
ENDMDL
MODEL 7
REMARK VINA RESULT:    -5.509      4.645     10.068
REMARK INTER + INTRA:         -10.665
REMARK INTER:                 -10.033
REMARK INTRA:                  -0.632
REMARK UNBOUND:                -0.648
REMARK SMILES CCCCCCCCCCCCCCCC(=O)[O-]
REMARK SMILES IDX 9 1 10 2 11 3 12 4 13 5 14 6 15 7 16 8 17 9 18 10 8 11 7 12
REMARK SMILES IDX 6 13 5 14 4 15 3 16 2 17 1 18
REMARK H PARENT
REMARK Flexibility Score: inf
ROOT
ATOM      1  C   UNL     1      96.401 124.440 124.781  1.00  0.00     0.000 C 
ENDROOT
BRANCH   1   2
ATOM      2  C   UNL     1      95.795 123.299 123.946  1.00  0.00     0.000 C 
BRANCH   2   3
ATOM      3  C   UNL     1      94.258 123.334 123.907  1.00  0.00     0.000 C 
BRANCH   3   4
ATOM      4  C   UNL     1      93.703 122.156 123.098  1.00  0.00     0.000 C 
BRANCH   4   5
ATOM      5  C   UNL     1      94.563 121.890 121.853  1.00  0.00     0.000 C 
BRANCH   5   6
ATOM      6  C   UNL     1      93.810 121.099 120.766  1.00  0.00     0.006 C 
BRANCH   6   7
ATOM      7  C   UNL     1      92.744 121.912 120.014  1.00  0.00     0.053 C 
BRANCH   7   8
ATOM      8  C   UNL     1      92.720 121.591 118.551  1.00  0.00     0.041 C 
ATOM      9  O   UNL     1      91.631 121.593 117.920  1.00  0.00    -0.550 OA
ATOM     10  O   UNL     1      93.897 121.263 117.891  1.00  0.00    -0.550 OA
ENDBRANCH   7   8
ENDBRANCH   6   7
ENDBRANCH   5   6
ENDBRANCH   4   5
ENDBRANCH   3   4
ENDBRANCH   2   3
ENDBRANCH   1   2
BRANCH   1  11
ATOM     11  C   UNL     1      97.346 123.991 125.911  1.00  0.00     0.000 C 
BRANCH  11  12
ATOM     12  C   UNL     1      97.973 125.172 126.675  1.00  0.00    -0.000 C 
BRANCH  12  13
ATOM     13  C   UNL     1      98.170 126.409 125.781  1.00  0.00    -0.000 C 
BRANCH  13  14
ATOM     14  C   UNL     1      97.947 127.749 126.512  1.00  0.00    -0.000 C 
BRANCH  14  15
ATOM     15  C   UNL     1      98.083 127.659 128.044  1.00  0.00    -0.000 C 
BRANCH  15  16
ATOM     16  C   UNL     1      96.912 128.328 128.784  1.00  0.00    -0.000 C 
BRANCH  16  17
ATOM     17  C   UNL     1      97.381 129.393 129.786  1.00  0.00    -0.003 C 
ATOM     18  C   UNL     1      96.341 130.492 130.010  1.00  0.00     0.004 C 
ENDBRANCH  16  17
ENDBRANCH  15  16
ENDBRANCH  14  15
ENDBRANCH  13  14
ENDBRANCH  12  13
ENDBRANCH  11  12
ENDBRANCH   1  11
TORSDOF 14
ENDMDL
MODEL 8
REMARK VINA RESULT:    -5.450      2.703      4.436
REMARK INTER + INTRA:         -10.559
REMARK INTER:                  -9.662
REMARK INTRA:                  -0.897
REMARK UNBOUND:                -0.648
REMARK SMILES CCCCCCCCCCCCCCCC(=O)[O-]
REMARK SMILES IDX 9 1 10 2 11 3 12 4 13 5 14 6 15 7 16 8 17 9 18 10 8 11 7 12
REMARK SMILES IDX 6 13 5 14 4 15 3 16 2 17 1 18
REMARK H PARENT
REMARK Flexibility Score: inf
ROOT
ATOM      1  C   UNL     1      97.741 125.559 126.317  1.00  0.00     0.000 C 
ENDROOT
BRANCH   1   2
ATOM      2  C   UNL     1      98.016 126.733 125.359  1.00  0.00     0.000 C 
BRANCH   2   3
ATOM      3  C   UNL     1      99.489 127.170 125.355  1.00  0.00     0.000 C 
BRANCH   3   4
ATOM      4  C   UNL     1      99.957 127.537 126.769  1.00  0.00     0.000 C 
BRANCH   4   5
ATOM      5  C   UNL     1     100.006 129.061 126.954  1.00  0.00     0.000 C 
BRANCH   5   6
ATOM      6  C   UNL     1      99.310 129.528 128.246  1.00  0.00     0.006 C 
BRANCH   6   7
ATOM      7  C   UNL     1      98.246 128.555 128.780  1.00  0.00     0.053 C 
BRANCH   7   8
ATOM      8  C   UNL     1      96.908 129.212 128.929  1.00  0.00     0.041 C 
ATOM      9  O   UNL     1      95.884 128.518 129.165  1.00  0.00    -0.550 OA
ATOM     10  O   UNL     1      96.787 130.587 128.781  1.00  0.00    -0.550 OA
ENDBRANCH   7   8
ENDBRANCH   6   7
ENDBRANCH   5   6
ENDBRANCH   4   5
ENDBRANCH   3   4
ENDBRANCH   2   3
ENDBRANCH   1   2
BRANCH   1  11
ATOM     11  C   UNL     1      97.158 124.298 125.652  1.00  0.00     0.000 C 
BRANCH  11  12
ATOM     12  C   UNL     1      96.337 124.611 124.388  1.00  0.00    -0.000 C 
BRANCH  12  13
ATOM     13  C   UNL     1      95.333 123.494 124.050  1.00  0.00    -0.000 C 
BRANCH  13  14
ATOM     14  C   UNL     1      95.814 122.539 122.938  1.00  0.00    -0.000 C 
BRANCH  14  15
ATOM     15  C   UNL     1      94.782 121.466 122.542  1.00  0.00    -0.000 C 
BRANCH  15  16
ATOM     16  C   UNL     1      93.445 122.071 122.077  1.00  0.00    -0.000 C 
BRANCH  16  17
ATOM     17  C   UNL     1      93.068 121.638 120.652  1.00  0.00    -0.003 C 
ATOM     18  C   UNL     1      94.252 121.055 119.880  1.00  0.00     0.004 C 
ENDBRANCH  16  17
ENDBRANCH  15  16
ENDBRANCH  14  15
ENDBRANCH  13  14
ENDBRANCH  12  13
ENDBRANCH  11  12
ENDBRANCH   1  11
TORSDOF 14
ENDMDL
