MODEL 1
REMARK VINA RESULT:    -4.424      0.000      0.000
REMARK INTER + INTRA:          -9.945
REMARK INTER:                  -8.303
REMARK INTRA:                  -1.642
REMARK UNBOUND:                -1.642
REMARK SMILES CCCCCC=CCC=CCCCCCCCC(=O)OC
REMARK SMILES IDX 11 1 10 2 9 3 8 4 7 5 6 6 5 7 4 8 3 9 2 10 1 11 12 12 13 13
REMARK SMILES IDX 14 14 15 15 16 16 17 17 18 18 19 19 20 20 21 21
REMARK H PARENT
REMARK Flexibility Score: inf
ROOT
ATOM      1  C   UNL     1       2.096 -16.797  32.487  1.00  0.00     0.027 C 
ENDROOT
BRANCH   1   2
ATOM      2  C   UNL     1       1.288 -16.477  33.722  1.00  0.00    -0.031 C 
ATOM      3  C   UNL     1       0.199 -17.157  34.125  1.00  0.00    -0.027 C 
BRANCH   3   4
ATOM      4  C   UNL     1      -0.355 -18.382  33.438  1.00  0.00     0.054 C 
BRANCH   4   5
ATOM      5  C   UNL     1       0.523 -19.580  33.658  1.00  0.00    -0.027 C 
ATOM      6  C   UNL     1       0.090 -20.825  33.409  1.00  0.00    -0.031 C 
BRANCH   6   7
ATOM      7  C   UNL     1       0.949 -22.028  33.689  1.00  0.00     0.027 C 
BRANCH   7   8
ATOM      8  C   UNL     1       2.373 -21.881  33.125  1.00  0.00     0.004 C 
BRANCH   8   9
ATOM      9  C   UNL     1       2.532 -22.338  31.663  1.00  0.00     0.000 C 
BRANCH   9  10
ATOM     10  C   UNL     1       3.262 -21.314  30.769  1.00  0.00    -0.003 C 
ATOM     11  C   UNL     1       2.473 -20.017  30.595  1.00  0.00     0.004 C 
ENDBRANCH   9  10
ENDBRANCH   8   9
ENDBRANCH   7   8
ENDBRANCH   6   7
ENDBRANCH   4   5
ENDBRANCH   3   4
ENDBRANCH   1   2
BRANCH   1  12
ATOM     12  C   UNL     1       3.405 -15.989  32.421  1.00  0.00     0.004 C 
BRANCH  12  13
ATOM     13  C   UNL     1       4.295 -16.320  31.206  1.00  0.00     0.000 C 
BRANCH  13  14
ATOM     14  C   UNL     1       3.541 -16.497  29.872  1.00  0.00     0.000 C 
BRANCH  14  15
ATOM     15  C   UNL     1       3.188 -15.189  29.143  1.00  0.00     0.001 C 
BRANCH  15  16
ATOM     16  C   UNL     1       1.789 -14.664  29.509  1.00  0.00     0.012 C 
BRANCH  16  17
ATOM     17  C   UNL     1       0.674 -15.545  28.930  1.00  0.00     0.123 C 
BRANCH  17  18
ATOM     18  C   UNL     1      -0.582 -15.466  29.745  1.00  0.00     0.305 C 
ATOM     19  O   UNL     1      -0.580 -15.874  30.938  1.00  0.00    -0.252 OA
BRANCH  18  20
ATOM     20  O   UNL     1      -1.747 -14.948  29.171  1.00  0.00    -0.469 OA
ATOM     21  C   UNL     1      -3.028 -15.098  29.770  1.00  0.00     0.282 C 
ENDBRANCH  18  20
ENDBRANCH  17  18
ENDBRANCH  16  17
ENDBRANCH  15  16
ENDBRANCH  14  15
ENDBRANCH  13  14
ENDBRANCH  12  13
ENDBRANCH   1  12
TORSDOF 15
ENDMDL
MODEL 2
REMARK VINA RESULT:    -4.225     12.605     15.342
REMARK INTER + INTRA:          -9.573
REMARK INTER:                  -6.610
REMARK INTRA:                  -2.963
REMARK UNBOUND:                -1.642
REMARK SMILES CCCCCC=CCC=CCCCCCCCC(=O)OC
REMARK SMILES IDX 11 1 10 2 9 3 8 4 7 5 6 6 5 7 4 8 3 9 2 10 1 11 12 12 13 13
REMARK SMILES IDX 14 14 15 15 16 16 17 17 18 18 19 19 20 20 21 21
REMARK H PARENT
REMARK Flexibility Score: inf
ROOT
ATOM      1  C   UNL     1       2.016 -16.015  18.714  1.00  0.00     0.027 C 
ENDROOT
BRANCH   1   2
ATOM      2  C   UNL     1       2.221 -16.375  17.262  1.00  0.00    -0.031 C 
ATOM      3  C   UNL     1       1.554 -15.823  16.232  1.00  0.00    -0.027 C 
BRANCH   3   4
ATOM      4  C   UNL     1       0.536 -14.715  16.359  1.00  0.00     0.054 C 
BRANCH   4   5
ATOM      5  C   UNL     1      -0.821 -15.159  15.893  1.00  0.00    -0.027 C 
ATOM      6  C   UNL     1      -1.786 -15.495  16.761  1.00  0.00    -0.031 C 
BRANCH   6   7
ATOM      7  C   UNL     1      -3.125 -15.999  16.293  1.00  0.00     0.027 C 
BRANCH   7   8
ATOM      8  C   UNL     1      -3.001 -17.096  15.221  1.00  0.00     0.004 C 
BRANCH   8   9
ATOM      9  C   UNL     1      -2.425 -18.429  15.733  1.00  0.00     0.000 C 
BRANCH   9  10
ATOM     10  C   UNL     1      -1.062 -18.797  15.110  1.00  0.00    -0.003 C 
ATOM     11  C   UNL     1      -0.021 -19.186  16.160  1.00  0.00     0.004 C 
ENDBRANCH   9  10
ENDBRANCH   8   9
ENDBRANCH   7   8
ENDBRANCH   6   7
ENDBRANCH   4   5
ENDBRANCH   3   4
ENDBRANCH   1   2
BRANCH   1  12
ATOM     12  C   UNL     1       1.270 -17.117  19.488  1.00  0.00     0.004 C 
BRANCH  12  13
ATOM     13  C   UNL     1      -0.246 -17.173  19.211  1.00  0.00     0.000 C 
BRANCH  13  14
ATOM     14  C   UNL     1      -0.957 -18.447  19.714  1.00  0.00     0.000 C 
BRANCH  14  15
ATOM     15  C   UNL     1      -2.471 -18.498  19.447  1.00  0.00     0.001 C 
BRANCH  15  16
ATOM     16  C   UNL     1      -2.978 -19.923  19.167  1.00  0.00     0.012 C 
BRANCH  16  17
ATOM     17  C   UNL     1      -1.828 -20.900  18.891  1.00  0.00     0.123 C 
BRANCH  17  18
ATOM     18  C   UNL     1      -2.327 -22.277  18.569  1.00  0.00     0.305 C 
ATOM     19  O   UNL     1      -2.974 -22.926  19.436  1.00  0.00    -0.252 OA
BRANCH  18  20
ATOM     20  O   UNL     1      -2.064 -22.831  17.313  1.00  0.00    -0.469 OA
ATOM     21  C   UNL     1      -2.427 -22.183  16.100  1.00  0.00     0.282 C 
ENDBRANCH  18  20
ENDBRANCH  17  18
ENDBRANCH  16  17
ENDBRANCH  15  16
ENDBRANCH  14  15
ENDBRANCH  13  14
ENDBRANCH  12  13
ENDBRANCH   1  12
TORSDOF 15
ENDMDL
MODEL 3
REMARK VINA RESULT:    -3.986      2.927      6.987
REMARK INTER + INTRA:          -9.123
REMARK INTER:                  -7.953
REMARK INTRA:                  -1.170
REMARK UNBOUND:                -1.642
REMARK SMILES CCCCCC=CCC=CCCCCCCCC(=O)OC
REMARK SMILES IDX 11 1 10 2 9 3 8 4 7 5 6 6 5 7 4 8 3 9 2 10 1 11 12 12 13 13
REMARK SMILES IDX 14 14 15 15 16 16 17 17 18 18 19 19 20 20 21 21
REMARK H PARENT
REMARK Flexibility Score: inf
ROOT
ATOM      1  C   UNL     1      -1.491 -18.606  34.122  1.00  0.00     0.027 C 
ENDROOT
BRANCH   1   2
ATOM      2  C   UNL     1      -1.277 -17.130  33.885  1.00  0.00    -0.031 C 
ATOM      3  C   UNL     1      -0.203 -16.599  33.273  1.00  0.00    -0.027 C 
BRANCH   3   4
ATOM      4  C   UNL     1       0.931 -17.396  32.674  1.00  0.00     0.054 C 
BRANCH   4   5
ATOM      5  C   UNL     1       1.883 -16.515  31.917  1.00  0.00    -0.027 C 
ATOM      6  C   UNL     1       2.627 -16.990  30.907  1.00  0.00    -0.031 C 
BRANCH   6   7
ATOM      7  C   UNL     1       3.626 -16.122  30.190  1.00  0.00     0.027 C 
BRANCH   7   8
ATOM      8  C   UNL     1       2.956 -15.021  29.349  1.00  0.00     0.004 C 
BRANCH   8   9
ATOM      9  C   UNL     1       2.953 -15.288  27.832  1.00  0.00     0.000 C 
BRANCH   9  10
ATOM     10  C   UNL     1       4.279 -14.919  27.135  1.00  0.00    -0.003 C 
ATOM     11  C   UNL     1       4.110 -14.686  25.634  1.00  0.00     0.004 C 
ENDBRANCH   9  10
ENDBRANCH   8   9
ENDBRANCH   7   8
ENDBRANCH   6   7
ENDBRANCH   4   5
ENDBRANCH   3   4
ENDBRANCH   1   2
BRANCH   1  12
ATOM     12  C   UNL     1      -2.930 -19.046  33.797  1.00  0.00     0.004 C 
BRANCH  12  13
ATOM     13  C   UNL     1      -3.059 -20.513  33.342  1.00  0.00     0.000 C 
BRANCH  13  14
ATOM     14  C   UNL     1      -2.094 -21.500  34.032  1.00  0.00     0.000 C 
BRANCH  14  15
ATOM     15  C   UNL     1      -1.180 -22.292  33.081  1.00  0.00     0.001 C 
BRANCH  15  16
ATOM     16  C   UNL     1       0.301 -22.232  33.493  1.00  0.00     0.012 C 
BRANCH  16  17
ATOM     17  C   UNL     1       1.089 -21.206  32.669  1.00  0.00     0.123 C 
BRANCH  17  18
ATOM     18  C   UNL     1       2.469 -21.690  32.342  1.00  0.00     0.305 C 
ATOM     19  O   UNL     1       3.266 -21.987  33.274  1.00  0.00    -0.252 OA
BRANCH  18  20
ATOM     20  O   UNL     1       2.863 -21.802  31.005  1.00  0.00    -0.469 OA
ATOM     21  C   UNL     1       3.166 -20.671  30.199  1.00  0.00     0.282 C 
ENDBRANCH  18  20
ENDBRANCH  17  18
ENDBRANCH  16  17
ENDBRANCH  15  16
ENDBRANCH  14  15
ENDBRANCH  13  14
ENDBRANCH  12  13
ENDBRANCH   1  12
TORSDOF 15
ENDMDL
MODEL 4
REMARK VINA RESULT:    -3.977      1.767      3.304
REMARK INTER + INTRA:          -9.107
REMARK INTER:                  -8.046
REMARK INTRA:                  -1.062
REMARK UNBOUND:                -1.642
REMARK SMILES CCCCCC=CCC=CCCCCCCCC(=O)OC
REMARK SMILES IDX 11 1 10 2 9 3 8 4 7 5 6 6 5 7 4 8 3 9 2 10 1 11 12 12 13 13
REMARK SMILES IDX 14 14 15 15 16 16 17 17 18 18 19 19 20 20 21 21
REMARK H PARENT
REMARK Flexibility Score: inf
ROOT
ATOM      1  C   UNL     1      -1.230 -19.017  33.947  1.00  0.00     0.027 C 
ENDROOT
BRANCH   1   2
ATOM      2  C   UNL     1      -2.658 -19.507  33.970  1.00  0.00    -0.031 C 
ATOM      3  C   UNL     1      -3.057 -20.729  33.571  1.00  0.00    -0.027 C 
BRANCH   3   4
ATOM      4  C   UNL     1      -2.134 -21.824  33.094  1.00  0.00     0.054 C 
BRANCH   4   5
ATOM      5  C   UNL     1      -0.806 -21.767  33.793  1.00  0.00    -0.027 C 
ATOM      6  C   UNL     1       0.343 -21.994  33.138  1.00  0.00    -0.031 C 
BRANCH   6   7
ATOM      7  C   UNL     1       1.668 -21.998  33.851  1.00  0.00     0.027 C 
BRANCH   7   8
ATOM      8  C   UNL     1       2.861 -21.974  32.880  1.00  0.00     0.004 C 
BRANCH   8   9
ATOM      9  C   UNL     1       2.511 -22.348  31.427  1.00  0.00     0.000 C 
BRANCH   9  10
ATOM     10  C   UNL     1       2.908 -21.270  30.396  1.00  0.00    -0.003 C 
ATOM     11  C   UNL     1       4.219 -20.570  30.753  1.00  0.00     0.004 C 
ENDBRANCH   9  10
ENDBRANCH   8   9
ENDBRANCH   7   8
ENDBRANCH   6   7
ENDBRANCH   4   5
ENDBRANCH   3   4
ENDBRANCH   1   2
BRANCH   1  12
ATOM     12  C   UNL     1      -1.137 -17.506  33.667  1.00  0.00     0.004 C 
BRANCH  12  13
ATOM     13  C   UNL     1       0.083 -17.092  32.818  1.00  0.00     0.000 C 
BRANCH  13  14
ATOM     14  C   UNL     1       0.876 -18.261  32.198  1.00  0.00     0.000 C 
BRANCH  14  15
ATOM     15  C   UNL     1       2.000 -17.846  31.232  1.00  0.00     0.001 C 
BRANCH  15  16
ATOM     16  C   UNL     1       2.546 -16.438  31.526  1.00  0.00     0.012 C 
BRANCH  16  17
ATOM     17  C   UNL     1       3.271 -15.835  30.315  1.00  0.00     0.123 C 
BRANCH  17  18
ATOM     18  C   UNL     1       2.313 -15.240  29.328  1.00  0.00     0.305 C 
ATOM     19  O   UNL     1       2.677 -15.060  28.134  1.00  0.00    -0.252 OA
BRANCH  18  20
ATOM     20  O   UNL     1       1.026 -14.885  29.741  1.00  0.00    -0.469 OA
ATOM     21  C   UNL     1      -0.145 -15.479  29.195  1.00  0.00     0.282 C 
ENDBRANCH  18  20
ENDBRANCH  17  18
ENDBRANCH  16  17
ENDBRANCH  15  16
ENDBRANCH  14  15
ENDBRANCH  13  14
ENDBRANCH  12  13
ENDBRANCH   1  12
TORSDOF 15
ENDMDL
MODEL 5
REMARK VINA RESULT:    -3.958     12.880     16.404
REMARK INTER + INTRA:          -9.071
REMARK INTER:                  -7.417
REMARK INTRA:                  -1.655
REMARK UNBOUND:                -1.642
REMARK SMILES CCCCCC=CCC=CCCCCCCCC(=O)OC
REMARK SMILES IDX 11 1 10 2 9 3 8 4 7 5 6 6 5 7 4 8 3 9 2 10 1 11 12 12 13 13
REMARK SMILES IDX 14 14 15 15 16 16 17 17 18 18 19 19 20 20 21 21
REMARK H PARENT
REMARK Flexibility Score: inf
ROOT
ATOM      1  C   UNL     1      13.182  -9.808  34.091  1.00  0.00     0.027 C 
ENDROOT
BRANCH   1   2
ATOM      2  C   UNL     1      14.390  -9.998  33.206  1.00  0.00    -0.031 C 
ATOM      3  C   UNL     1      15.468  -9.193  33.194  1.00  0.00    -0.027 C 
BRANCH   3   4
ATOM      4  C   UNL     1      15.668  -8.007  34.105  1.00  0.00     0.054 C 
BRANCH   4   5
ATOM      5  C   UNL     1      15.509  -6.710  33.364  1.00  0.00    -0.027 C 
ATOM      6  C   UNL     1      15.336  -5.548  34.010  1.00  0.00    -0.031 C 
BRANCH   6   7
ATOM      7  C   UNL     1      15.114  -4.259  33.266  1.00  0.00     0.027 C 
BRANCH   7   8
ATOM      8  C   UNL     1      13.723  -3.656  33.531  1.00  0.00     0.004 C 
BRANCH   8   9
ATOM      9  C   UNL     1      12.568  -4.366  32.801  1.00  0.00     0.000 C 
BRANCH   9  10
ATOM     10  C   UNL     1      12.922  -4.812  31.367  1.00  0.00    -0.003 C 
ATOM     11  C   UNL     1      12.143  -6.052  30.927  1.00  0.00     0.004 C 
ENDBRANCH   9  10
ENDBRANCH   8   9
ENDBRANCH   7   8
ENDBRANCH   6   7
ENDBRANCH   4   5
ENDBRANCH   3   4
ENDBRANCH   1   2
BRANCH   1  12
ATOM     12  C   UNL     1      12.267 -11.045  34.103  1.00  0.00     0.004 C 
BRANCH  12  13
ATOM     13  C   UNL     1      10.759 -10.721  34.125  1.00  0.00     0.000 C 
BRANCH  13  14
ATOM     14  C   UNL     1      10.088 -10.639  32.738  1.00  0.00     0.000 C 
BRANCH  14  15
ATOM     15  C   UNL     1      10.782  -9.705  31.731  1.00  0.00     0.001 C 
BRANCH  15  16
ATOM     16  C   UNL     1      11.189 -10.425  30.435  1.00  0.00     0.012 C 
BRANCH  16  17
ATOM     17  C   UNL     1      12.696 -10.322  30.164  1.00  0.00     0.123 C 
BRANCH  17  18
ATOM     18  C   UNL     1      13.074 -10.942  28.854  1.00  0.00     0.305 C 
ATOM     19  O   UNL     1      12.176 -11.391  28.092  1.00  0.00    -0.252 OA
BRANCH  18  20
ATOM     20  O   UNL     1      14.422 -11.021  28.491  1.00  0.00    -0.469 OA
ATOM     21  C   UNL     1      15.473 -10.612  29.357  1.00  0.00     0.282 C 
ENDBRANCH  18  20
ENDBRANCH  17  18
ENDBRANCH  16  17
ENDBRANCH  15  16
ENDBRANCH  14  15
ENDBRANCH  13  14
ENDBRANCH  12  13
ENDBRANCH   1  12
TORSDOF 15
ENDMDL
MODEL 6
REMARK VINA RESULT:    -3.867     12.528     15.008
REMARK INTER + INTRA:          -8.900
REMARK INTER:                  -6.445
REMARK INTRA:                  -2.455
REMARK UNBOUND:                -1.642
REMARK SMILES CCCCCC=CCC=CCCCCCCCC(=O)OC
REMARK SMILES IDX 11 1 10 2 9 3 8 4 7 5 6 6 5 7 4 8 3 9 2 10 1 11 12 12 13 13
REMARK SMILES IDX 14 14 15 15 16 16 17 17 18 18 19 19 20 20 21 21
REMARK H PARENT
REMARK Flexibility Score: inf
ROOT
ATOM      1  C   UNL     1       2.786 -17.137  15.746  1.00  0.00     0.027 C 
ENDROOT
BRANCH   1   2
ATOM      2  C   UNL     1       1.695 -17.459  14.752  1.00  0.00    -0.031 C 
ATOM      3  C   UNL     1       1.155 -18.678  14.572  1.00  0.00    -0.027 C 
BRANCH   3   4
ATOM      4  C   UNL     1       1.511 -19.906  15.375  1.00  0.00     0.054 C 
BRANCH   4   5
ATOM      5  C   UNL     1       0.288 -20.692  15.750  1.00  0.00    -0.027 C 
ATOM      6  C   UNL     1      -0.531 -20.292  16.734  1.00  0.00    -0.031 C 
BRANCH   6   7
ATOM      7  C   UNL     1      -1.722 -21.112  17.150  1.00  0.00     0.027 C 
BRANCH   7   8
ATOM      8  C   UNL     1      -2.154 -20.832  18.600  1.00  0.00     0.004 C 
BRANCH   8   9
ATOM      9  C   UNL     1      -2.802 -19.451  18.818  1.00  0.00     0.000 C 
BRANCH   9  10
ATOM     10  C   UNL     1      -2.906 -19.042  20.302  1.00  0.00    -0.003 C 
ATOM     11  C   UNL     1      -1.550 -18.688  20.912  1.00  0.00     0.004 C 
ENDBRANCH   9  10
ENDBRANCH   8   9
ENDBRANCH   7   8
ENDBRANCH   6   7
ENDBRANCH   4   5
ENDBRANCH   3   4
ENDBRANCH   1   2
BRANCH   1  12
ATOM     12  C   UNL     1       2.853 -15.634  16.072  1.00  0.00     0.004 C 
BRANCH  12  13
ATOM     13  C   UNL     1       2.468 -15.281  17.523  1.00  0.00     0.000 C 
BRANCH  13  14
ATOM     14  C   UNL     1       2.477 -16.467  18.510  1.00  0.00     0.000 C 
BRANCH  14  15
ATOM     15  C   UNL     1       1.111 -16.810  19.130  1.00  0.00     0.001 C 
BRANCH  15  16
ATOM     16  C   UNL     1       0.110 -17.354  18.097  1.00  0.00     0.012 C 
BRANCH  16  17
ATOM     17  C   UNL     1      -1.068 -16.396  17.875  1.00  0.00     0.123 C 
BRANCH  17  18
ATOM     18  C   UNL     1      -1.280 -16.095  16.422  1.00  0.00     0.305 C 
ATOM     19  O   UNL     1      -1.750 -16.984  15.661  1.00  0.00    -0.252 OA
BRANCH  18  20
ATOM     20  O   UNL     1      -0.947 -14.832  15.922  1.00  0.00    -0.469 OA
ATOM     21  C   UNL     1      -0.361 -14.646  14.640  1.00  0.00     0.282 C 
ENDBRANCH  18  20
ENDBRANCH  17  18
ENDBRANCH  16  17
ENDBRANCH  15  16
ENDBRANCH  14  15
ENDBRANCH  13  14
ENDBRANCH  12  13
ENDBRANCH   1  12
TORSDOF 15
ENDMDL
MODEL 7
REMARK VINA RESULT:    -3.851     12.947     15.720
REMARK INTER + INTRA:          -8.870
REMARK INTER:                  -6.370
REMARK INTRA:                  -2.500
REMARK UNBOUND:                -1.642
REMARK SMILES CCCCCC=CCC=CCCCCCCCC(=O)OC
REMARK SMILES IDX 11 1 10 2 9 3 8 4 7 5 6 6 5 7 4 8 3 9 2 10 1 11 12 12 13 13
REMARK SMILES IDX 14 14 15 15 16 16 17 17 18 18 19 19 20 20 21 21
REMARK H PARENT
REMARK Flexibility Score: inf
ROOT
ATOM      1  C   UNL     1       3.086 -14.958  14.975  1.00  0.00     0.027 C 
ENDROOT
BRANCH   1   2
ATOM      2  C   UNL     1       2.152 -14.514  13.875  1.00  0.00    -0.031 C 
ATOM      3  C   UNL     1       0.856 -14.194  14.051  1.00  0.00    -0.027 C 
BRANCH   3   4
ATOM      4  C   UNL     1       0.147 -14.171  15.383  1.00  0.00     0.054 C 
BRANCH   4   5
ATOM      5  C   UNL     1      -0.879 -15.263  15.480  1.00  0.00    -0.027 C 
ATOM      6  C   UNL     1      -0.696 -16.452  14.887  1.00  0.00    -0.031 C 
BRANCH   6   7
ATOM      7  C   UNL     1      -1.751 -17.524  14.931  1.00  0.00     0.027 C 
BRANCH   7   8
ATOM      8  C   UNL     1      -1.165 -18.937  14.760  1.00  0.00     0.004 C 
BRANCH   8   9
ATOM      9  C   UNL     1       0.209 -19.143  15.424  1.00  0.00     0.000 C 
BRANCH   9  10
ATOM     10  C   UNL     1       0.721 -20.598  15.353  1.00  0.00    -0.003 C 
ATOM     11  C   UNL     1       2.228 -20.680  15.114  1.00  0.00     0.004 C 
ENDBRANCH   9  10
ENDBRANCH   8   9
ENDBRANCH   7   8
ENDBRANCH   6   7
ENDBRANCH   4   5
ENDBRANCH   3   4
ENDBRANCH   1   2
BRANCH   1  12
ATOM     12  C   UNL     1       3.200 -16.490  15.060  1.00  0.00     0.004 C 
BRANCH  12  13
ATOM     13  C   UNL     1       2.790 -17.083  16.423  1.00  0.00     0.000 C 
BRANCH  13  14
ATOM     14  C   UNL     1       2.111 -16.091  17.391  1.00  0.00     0.000 C 
BRANCH  14  15
ATOM     15  C   UNL     1       2.405 -16.331  18.882  1.00  0.00     0.001 C 
BRANCH  15  16
ATOM     16  C   UNL     1       1.284 -17.110  19.591  1.00  0.00     0.012 C 
BRANCH  16  17
ATOM     17  C   UNL     1       0.015 -17.203  18.734  1.00  0.00     0.123 C 
BRANCH  17  18
ATOM     18  C   UNL     1      -1.051 -18.023  19.396  1.00  0.00     0.305 C 
ATOM     19  O   UNL     1      -1.010 -18.213  20.642  1.00  0.00    -0.252 OA
BRANCH  18  20
ATOM     20  O   UNL     1      -2.077 -18.575  18.624  1.00  0.00    -0.469 OA
ATOM     21  C   UNL     1      -2.068 -19.932  18.196  1.00  0.00     0.282 C 
ENDBRANCH  18  20
ENDBRANCH  17  18
ENDBRANCH  16  17
ENDBRANCH  15  16
ENDBRANCH  14  15
ENDBRANCH  13  14
ENDBRANCH  12  13
ENDBRANCH   1  12
TORSDOF 15
ENDMDL
MODEL 8
REMARK VINA RESULT:    -3.817     12.630     14.604
REMARK INTER + INTRA:          -8.807
REMARK INTER:                  -6.325
REMARK INTRA:                  -2.482
REMARK UNBOUND:                -1.642
REMARK SMILES CCCCCC=CCC=CCCCCCCCC(=O)OC
REMARK SMILES IDX 11 1 10 2 9 3 8 4 7 5 6 6 5 7 4 8 3 9 2 10 1 11 12 12 13 13
REMARK SMILES IDX 14 14 15 15 16 16 17 17 18 18 19 19 20 20 21 21
REMARK H PARENT
REMARK Flexibility Score: inf
ROOT
ATOM      1  C   UNL     1      -1.086 -16.750  18.093  1.00  0.00     0.027 C 
ENDROOT
BRANCH   1   2
ATOM      2  C   UNL     1      -0.136 -17.490  19.004  1.00  0.00    -0.031 C 
ATOM      3  C   UNL     1      -0.497 -18.138  20.127  1.00  0.00    -0.027 C 
BRANCH   3   4
ATOM      4  C   UNL     1      -1.916 -18.278  20.623  1.00  0.00     0.054 C 
BRANCH   4   5
ATOM      5  C   UNL     1      -2.644 -19.377  19.905  1.00  0.00    -0.027 C 
ATOM      6  C   UNL     1      -2.000 -20.454  19.431  1.00  0.00    -0.031 C 
BRANCH   6   7
ATOM      7  C   UNL     1      -2.720 -21.525  18.657  1.00  0.00     0.027 C 
BRANCH   7   8
ATOM      8  C   UNL     1      -1.803 -22.705  18.290  1.00  0.00     0.004 C 
BRANCH   8   9
ATOM      9  C   UNL     1      -1.232 -22.650  16.861  1.00  0.00     0.000 C 
BRANCH   9  10
ATOM     10  C   UNL     1       0.306 -22.771  16.802  1.00  0.00    -0.003 C 
ATOM     11  C   UNL     1       0.862 -22.522  15.400  1.00  0.00     0.004 C 
ENDBRANCH   9  10
ENDBRANCH   8   9
ENDBRANCH   7   8
ENDBRANCH   6   7
ENDBRANCH   4   5
ENDBRANCH   3   4
ENDBRANCH   1   2
BRANCH   1  12
ATOM     12  C   UNL     1      -1.470 -17.578  16.854  1.00  0.00     0.004 C 
BRANCH  12  13
ATOM     13  C   UNL     1      -0.581 -18.816  16.617  1.00  0.00     0.000 C 
BRANCH  13  14
ATOM     14  C   UNL     1       0.167 -18.836  15.268  1.00  0.00     0.000 C 
BRANCH  14  15
ATOM     15  C   UNL     1       1.702 -18.880  15.375  1.00  0.00     0.001 C 
BRANCH  15  16
ATOM     16  C   UNL     1       2.360 -17.533  15.027  1.00  0.00     0.012 C 
BRANCH  16  17
ATOM     17  C   UNL     1       2.795 -16.762  16.280  1.00  0.00     0.123 C 
BRANCH  17  18
ATOM     18  C   UNL     1       2.026 -15.487  16.449  1.00  0.00     0.305 C 
ATOM     19  O   UNL     1       1.904 -14.978  17.596  1.00  0.00    -0.252 OA
BRANCH  18  20
ATOM     20  O   UNL     1       1.447 -14.876  15.332  1.00  0.00    -0.469 OA
ATOM     21  C   UNL     1       0.061 -14.567  15.262  1.00  0.00     0.282 C 
ENDBRANCH  18  20
ENDBRANCH  17  18
ENDBRANCH  16  17
ENDBRANCH  15  16
ENDBRANCH  14  15
ENDBRANCH  13  14
ENDBRANCH  12  13
ENDBRANCH   1  12
TORSDOF 15
ENDMDL
MODEL 9
REMARK VINA RESULT:    -3.688     14.046     16.870
REMARK INTER + INTRA:          -8.564
REMARK INTER:                  -6.995
REMARK INTRA:                  -1.569
REMARK UNBOUND:                -1.642
REMARK SMILES CCCCCC=CCC=CCCCCCCCC(=O)OC
REMARK SMILES IDX 11 1 10 2 9 3 8 4 7 5 6 6 5 7 4 8 3 9 2 10 1 11 12 12 13 13
REMARK SMILES IDX 14 14 15 15 16 16 17 17 18 18 19 19 20 20 21 21
REMARK H PARENT
REMARK Flexibility Score: inf
ROOT
ATOM      1  C   UNL     1       3.205 -17.102  15.209  1.00  0.00     0.027 C 
ENDROOT
BRANCH   1   2
ATOM      2  C   UNL     1       3.261 -15.694  14.668  1.00  0.00    -0.031 C 
ATOM      3  C   UNL     1       2.190 -14.978  14.276  1.00  0.00    -0.027 C 
BRANCH   3   4
ATOM      4  C   UNL     1       0.758 -15.448  14.370  1.00  0.00     0.054 C 
BRANCH   4   5
ATOM      5  C   UNL     1       0.317 -15.580  15.800  1.00  0.00    -0.027 C 
ATOM      6  C   UNL     1      -0.422 -16.621  16.213  1.00  0.00    -0.031 C 
BRANCH   6   7
ATOM      7  C   UNL     1      -0.916 -16.721  17.631  1.00  0.00     0.027 C 
BRANCH   7   8
ATOM      8  C   UNL     1      -0.013 -17.603  18.510  1.00  0.00     0.004 C 
BRANCH   8   9
ATOM      9  C   UNL     1       0.958 -16.822  19.415  1.00  0.00     0.000 C 
BRANCH   9  10
ATOM     10  C   UNL     1       2.338 -16.568  18.773  1.00  0.00    -0.003 C 
ATOM     11  C   UNL     1       2.585 -15.089  18.476  1.00  0.00     0.004 C 
ENDBRANCH   9  10
ENDBRANCH   8   9
ENDBRANCH   7   8
ENDBRANCH   6   7
ENDBRANCH   4   5
ENDBRANCH   3   4
ENDBRANCH   1   2
BRANCH   1  12
ATOM     12  C   UNL     1       3.779 -18.131  14.218  1.00  0.00     0.004 C 
BRANCH  12  13
ATOM     13  C   UNL     1       3.199 -19.552  14.370  1.00  0.00     0.000 C 
BRANCH  13  14
ATOM     14  C   UNL     1       4.212 -20.697  14.160  1.00  0.00     0.000 C 
BRANCH  14  15
ATOM     15  C   UNL     1       4.527 -21.526  15.418  1.00  0.00     0.001 C 
BRANCH  15  16
ATOM     16  C   UNL     1       6.038 -21.688  15.659  1.00  0.00     0.012 C 
BRANCH  16  17
ATOM     17  C   UNL     1       6.687 -20.388  16.152  1.00  0.00     0.123 C 
BRANCH  17  18
ATOM     18  C   UNL     1       8.183 -20.471  16.147  1.00  0.00     0.305 C 
ATOM     19  O   UNL     1       8.750 -21.527  15.754  1.00  0.00    -0.252 OA
BRANCH  18  20
ATOM     20  O   UNL     1       8.937 -19.378  16.584  1.00  0.00    -0.469 OA
ATOM     21  C   UNL     1       8.956 -18.956  17.942  1.00  0.00     0.282 C 
ENDBRANCH  18  20
ENDBRANCH  17  18
ENDBRANCH  16  17
ENDBRANCH  15  16
ENDBRANCH  14  15
ENDBRANCH  13  14
ENDBRANCH  12  13
ENDBRANCH   1  12
TORSDOF 15
ENDMDL
