MODEL 1
REMARK VINA RESULT:    -4.654      0.000      0.000
REMARK INTER + INTRA:          -8.080
REMARK INTER:                  -7.103
REMARK INTRA:                  -0.977
REMARK UNBOUND:                -0.977
REMARK SMILES CCCCCCCCCCC(=O)[O-]
REMARK SMILES IDX 7 1 8 2 9 3 10 4 11 5 12 6 13 7 6 8 5 9 4 10 3 11 2 12 1 13
REMARK H PARENT
REMARK Flexibility Score: inf
ROOT
ATOM      1  C   UNL     1      15.306  -7.297  14.759  1.00  0.00     0.000 C 
ENDROOT
BRANCH   1   2
ATOM      2  C   UNL     1      14.887  -6.434  15.959  1.00  0.00     0.000 C 
BRANCH   2   3
ATOM      3  C   UNL     1      15.537  -5.046  15.891  1.00  0.00     0.006 C 
BRANCH   3   4
ATOM      4  C   UNL     1      14.527  -3.950  16.244  1.00  0.00     0.053 C 
BRANCH   4   5
ATOM      5  C   UNL     1      13.993  -3.310  15.001  1.00  0.00     0.041 C 
ATOM      6  O   UNL     1      12.754  -3.298  14.776  1.00  0.00    -0.550 OA
ATOM      7  O   UNL     1      14.868  -2.771  14.066  1.00  0.00    -0.550 OA
ENDBRANCH   4   5
ENDBRANCH   3   4
ENDBRANCH   2   3
ENDBRANCH   1   2
BRANCH   1   8
ATOM      8  C   UNL     1      15.187  -6.558  13.414  1.00  0.00     0.000 C 
BRANCH   8   9
ATOM      9  C   UNL     1      13.755  -6.425  12.853  1.00  0.00    -0.000 C 
BRANCH   9  10
ATOM     10  C   UNL     1      13.568  -5.318  11.795  1.00  0.00    -0.000 C 
BRANCH  10  11
ATOM     11  C   UNL     1      14.892  -4.823  11.171  1.00  0.00    -0.000 C 
BRANCH  11  12
ATOM     12  C   UNL     1      15.157  -5.390   9.766  1.00  0.00    -0.003 C 
ATOM     13  C   UNL     1      13.894  -5.931   9.098  1.00  0.00     0.004 C 
ENDBRANCH  11  12
ENDBRANCH  10  11
ENDBRANCH   9  10
ENDBRANCH   8   9
ENDBRANCH   1   8
TORSDOF 9
ENDMDL
MODEL 2
REMARK VINA RESULT:    -4.632      2.668      5.632
REMARK INTER + INTRA:          -8.045
REMARK INTER:                  -7.540
REMARK INTRA:                  -0.506
REMARK UNBOUND:                -0.977
REMARK SMILES CCCCCCCCCCC(=O)[O-]
REMARK SMILES IDX 7 1 8 2 9 3 10 4 11 5 12 6 13 7 6 8 5 9 4 10 3 11 2 12 1 13
REMARK H PARENT
REMARK Flexibility Score: inf
ROOT
ATOM      1  C   UNL     1      14.805  -6.771  14.031  1.00  0.00     0.000 C 
ENDROOT
BRANCH   1   2
ATOM      2  C   UNL     1      16.166  -6.898  13.330  1.00  0.00     0.000 C 
BRANCH   2   3
ATOM      3  C   UNL     1      16.273  -5.917  12.156  1.00  0.00     0.006 C 
BRANCH   3   4
ATOM      4  C   UNL     1      17.721  -5.801  11.669  1.00  0.00     0.053 C 
BRANCH   4   5
ATOM      5  C   UNL     1      18.451  -4.749  12.443  1.00  0.00     0.041 C 
ATOM      6  O   UNL     1      19.697  -4.833  12.607  1.00  0.00    -0.550 OA
ATOM      7  O   UNL     1      17.749  -3.701  13.024  1.00  0.00    -0.550 OA
ENDBRANCH   4   5
ENDBRANCH   3   4
ENDBRANCH   2   3
ENDBRANCH   1   2
BRANCH   1   8
ATOM      8  C   UNL     1      14.927  -6.444  15.530  1.00  0.00     0.000 C 
BRANCH   8   9
ATOM      9  C   UNL     1      15.544  -5.068  15.863  1.00  0.00    -0.000 C 
BRANCH   9  10
ATOM     10  C   UNL     1      14.542  -4.003  16.352  1.00  0.00    -0.000 C 
BRANCH  10  11
ATOM     11  C   UNL     1      15.162  -2.955  17.303  1.00  0.00    -0.000 C 
BRANCH  11  12
ATOM     12  C   UNL     1      16.695  -2.872  17.206  1.00  0.00    -0.003 C 
ATOM     13  C   UNL     1      17.374  -2.837  18.574  1.00  0.00     0.004 C 
ENDBRANCH  11  12
ENDBRANCH  10  11
ENDBRANCH   9  10
ENDBRANCH   8   9
ENDBRANCH   1   8
TORSDOF 9
ENDMDL
MODEL 3
REMARK VINA RESULT:    -4.629      2.741      5.535
REMARK INTER + INTRA:          -8.040
REMARK INTER:                  -7.311
REMARK INTRA:                  -0.730
REMARK UNBOUND:                -0.977
REMARK SMILES CCCCCCCCCCC(=O)[O-]
REMARK SMILES IDX 7 1 8 2 9 3 10 4 11 5 12 6 13 7 6 8 5 9 4 10 3 11 2 12 1 13
REMARK H PARENT
REMARK Flexibility Score: inf
ROOT
ATOM      1  C   UNL     1      15.301  -6.781  14.207  1.00  0.00     0.000 C 
ENDROOT
BRANCH   1   2
ATOM      2  C   UNL     1      14.102  -6.535  13.279  1.00  0.00     0.000 C 
BRANCH   2   3
ATOM      3  C   UNL     1      14.541  -5.833  11.989  1.00  0.00     0.006 C 
BRANCH   3   4
ATOM      4  C   UNL     1      15.924  -5.195  12.153  1.00  0.00     0.053 C 
BRANCH   4   5
ATOM      5  C   UNL     1      16.864  -5.709  11.109  1.00  0.00     0.041 C 
ATOM      6  O   UNL     1      16.523  -5.717   9.897  1.00  0.00    -0.550 OA
ATOM      7  O   UNL     1      18.099  -6.226  11.481  1.00  0.00    -0.550 OA
ENDBRANCH   4   5
ENDBRANCH   3   4
ENDBRANCH   2   3
ENDBRANCH   1   2
BRANCH   1   8
ATOM      8  C   UNL     1      15.001  -6.451  15.680  1.00  0.00     0.000 C 
BRANCH   8   9
ATOM      9  C   UNL     1      14.711  -4.965  15.984  1.00  0.00    -0.000 C 
BRANCH   9  10
ATOM     10  C   UNL     1      15.916  -4.017  15.821  1.00  0.00    -0.000 C 
BRANCH  10  11
ATOM     11  C   UNL     1      17.215  -4.545  16.470  1.00  0.00    -0.000 C 
BRANCH  11  12
ATOM     12  C   UNL     1      18.079  -3.439  17.100  1.00  0.00    -0.003 C 
ATOM     13  C   UNL     1      17.553  -2.978  18.458  1.00  0.00     0.004 C 
ENDBRANCH  11  12
ENDBRANCH  10  11
ENDBRANCH   9  10
ENDBRANCH   8   9
ENDBRANCH   1   8
TORSDOF 9
ENDMDL
MODEL 4
REMARK VINA RESULT:    -4.619      2.843      4.606
REMARK INTER + INTRA:          -8.026
REMARK INTER:                  -6.998
REMARK INTRA:                  -1.028
REMARK UNBOUND:                -0.977
REMARK SMILES CCCCCCCCCCC(=O)[O-]
REMARK SMILES IDX 7 1 8 2 9 3 10 4 11 5 12 6 13 7 6 8 5 9 4 10 3 11 2 12 1 13
REMARK H PARENT
REMARK Flexibility Score: inf
ROOT
ATOM      1  C   UNL     1      16.348  -5.636  10.397  1.00  0.00     0.000 C 
ENDROOT
BRANCH   1   2
ATOM      2  C   UNL     1      17.477  -5.972  11.383  1.00  0.00     0.000 C 
BRANCH   2   3
ATOM      3  C   UNL     1      17.625  -4.874  12.443  1.00  0.00     0.006 C 
BRANCH   3   4
ATOM      4  C   UNL     1      19.101  -4.550  12.695  1.00  0.00     0.053 C 
BRANCH   4   5
ATOM      5  C   UNL     1      19.244  -3.648  13.881  1.00  0.00     0.041 C 
ATOM      6  O   UNL     1      19.048  -2.409  13.761  1.00  0.00    -0.550 OA
ATOM      7  O   UNL     1      19.641  -4.167  15.105  1.00  0.00    -0.550 OA
ENDBRANCH   4   5
ENDBRANCH   3   4
ENDBRANCH   2   3
ENDBRANCH   1   2
BRANCH   1   8
ATOM      8  C   UNL     1      15.362  -4.588  10.944  1.00  0.00     0.000 C 
BRANCH   8   9
ATOM      9  C   UNL     1      13.878  -5.015  10.959  1.00  0.00    -0.000 C 
BRANCH   9  10
ATOM     10  C   UNL     1      13.315  -5.373  12.349  1.00  0.00    -0.000 C 
BRANCH  10  11
ATOM     11  C   UNL     1      13.897  -6.677  12.939  1.00  0.00    -0.000 C 
BRANCH  11  12
ATOM     12  C   UNL     1      14.767  -6.450  14.187  1.00  0.00    -0.003 C 
ATOM     13  C   UNL     1      15.797  -7.557  14.400  1.00  0.00     0.004 C 
ENDBRANCH  11  12
ENDBRANCH  10  11
ENDBRANCH   9  10
ENDBRANCH   8   9
ENDBRANCH   1   8
TORSDOF 9
ENDMDL
MODEL 5
REMARK VINA RESULT:    -4.616      2.909      3.541
REMARK INTER + INTRA:          -8.021
REMARK INTER:                  -7.136
REMARK INTRA:                  -0.885
REMARK UNBOUND:                -0.977
REMARK SMILES CCCCCCCCCCC(=O)[O-]
REMARK SMILES IDX 7 1 8 2 9 3 10 4 11 5 12 6 13 7 6 8 5 9 4 10 3 11 2 12 1 13
REMARK H PARENT
REMARK Flexibility Score: inf
ROOT
ATOM      1  C   UNL     1      15.392  -6.608  15.209  1.00  0.00     0.000 C 
ENDROOT
BRANCH   1   2
ATOM      2  C   UNL     1      16.685  -6.022  15.795  1.00  0.00     0.000 C 
BRANCH   2   3
ATOM      3  C   UNL     1      16.560  -4.507  15.995  1.00  0.00     0.006 C 
BRANCH   3   4
ATOM      4  C   UNL     1      17.830  -3.931  16.631  1.00  0.00     0.053 C 
BRANCH   4   5
ATOM      5  C   UNL     1      17.485  -3.099  17.827  1.00  0.00     0.041 C 
ATOM      6  O   UNL     1      18.228  -3.112  18.843  1.00  0.00    -0.550 OA
ATOM      7  O   UNL     1      16.317  -2.348  17.837  1.00  0.00    -0.550 OA
ENDBRANCH   4   5
ENDBRANCH   3   4
ENDBRANCH   2   3
ENDBRANCH   1   2
BRANCH   1   8
ATOM      8  C   UNL     1      15.457  -6.806  13.684  1.00  0.00     0.000 C 
BRANCH   8   9
ATOM      9  C   UNL     1      14.879  -5.653  12.837  1.00  0.00    -0.000 C 
BRANCH   9  10
ATOM     10  C   UNL     1      15.908  -4.896  11.972  1.00  0.00    -0.000 C 
BRANCH  10  11
ATOM     11  C   UNL     1      16.864  -5.824  11.190  1.00  0.00    -0.000 C 
BRANCH  11  12
ATOM     12  C   UNL     1      18.274  -5.905  11.799  1.00  0.00    -0.003 C 
ATOM     13  C   UNL     1      18.631  -4.674  12.630  1.00  0.00     0.004 C 
ENDBRANCH  11  12
ENDBRANCH  10  11
ENDBRANCH   9  10
ENDBRANCH   8   9
ENDBRANCH   1   8
TORSDOF 9
ENDMDL
MODEL 6
REMARK VINA RESULT:    -4.606      2.540      3.387
REMARK INTER + INTRA:          -8.006
REMARK INTER:                  -6.775
REMARK INTRA:                  -1.231
REMARK UNBOUND:                -0.977
REMARK SMILES CCCCCCCCCCC(=O)[O-]
REMARK SMILES IDX 7 1 8 2 9 3 10 4 11 5 12 6 13 7 6 8 5 9 4 10 3 11 2 12 1 13
REMARK H PARENT
REMARK Flexibility Score: inf
ROOT
ATOM      1  C   UNL     1      17.363  -4.895  16.260  1.00  0.00     0.000 C 
ENDROOT
BRANCH   1   2
ATOM      2  C   UNL     1      16.541  -6.015  15.606  1.00  0.00     0.000 C 
BRANCH   2   3
ATOM      3  C   UNL     1      15.041  -5.704  15.667  1.00  0.00     0.006 C 
BRANCH   3   4
ATOM      4  C   UNL     1      14.700  -4.476  14.818  1.00  0.00     0.053 C 
BRANCH   4   5
ATOM      5  C   UNL     1      13.865  -3.513  15.602  1.00  0.00     0.041 C 
ATOM      6  O   UNL     1      12.947  -2.864  15.036  1.00  0.00    -0.550 OA
ATOM      7  O   UNL     1      14.133  -3.297  16.947  1.00  0.00    -0.550 OA
ENDBRANCH   4   5
ENDBRANCH   3   4
ENDBRANCH   2   3
ENDBRANCH   1   2
BRANCH   1   8
ATOM      8  C   UNL     1      18.512  -4.390  15.368  1.00  0.00     0.000 C 
BRANCH   8   9
ATOM      9  C   UNL     1      18.174  -3.184  14.466  1.00  0.00    -0.000 C 
BRANCH   9  10
ATOM     10  C   UNL     1      18.081  -3.499  12.960  1.00  0.00    -0.000 C 
BRANCH  10  11
ATOM     11  C   UNL     1      18.852  -4.772  12.542  1.00  0.00    -0.000 C 
BRANCH  11  12
ATOM     12  C   UNL     1      17.970  -5.819  11.841  1.00  0.00    -0.003 C 
ATOM     13  C   UNL     1      16.536  -5.338  11.626  1.00  0.00     0.004 C 
ENDBRANCH  11  12
ENDBRANCH  10  11
ENDBRANCH   9  10
ENDBRANCH   8   9
ENDBRANCH   1   8
TORSDOF 9
ENDMDL
MODEL 7
REMARK VINA RESULT:    -4.584      2.727      5.152
REMARK INTER + INTRA:          -7.972
REMARK INTER:                  -7.009
REMARK INTRA:                  -0.963
REMARK UNBOUND:                -0.977
REMARK SMILES CCCCCCCCCCC(=O)[O-]
REMARK SMILES IDX 7 1 8 2 9 3 10 4 11 5 12 6 13 7 6 8 5 9 4 10 3 11 2 12 1 13
REMARK H PARENT
REMARK Flexibility Score: inf
ROOT
ATOM      1  C   UNL     1      17.767  -4.152  13.092  1.00  0.00     0.000 C 
ENDROOT
BRANCH   1   2
ATOM      2  C   UNL     1      18.315  -5.259  12.180  1.00  0.00     0.000 C 
BRANCH   2   3
ATOM      3  C   UNL     1      17.196  -5.882  11.337  1.00  0.00     0.006 C 
BRANCH   3   4
ATOM      4  C   UNL     1      15.819  -5.415  11.821  1.00  0.00     0.053 C 
BRANCH   4   5
ATOM      5  C   UNL     1      14.941  -5.079  10.657  1.00  0.00     0.041 C 
ATOM      6  O   UNL     1      13.730  -4.786  10.841  1.00  0.00    -0.550 OA
ATOM      7  O   UNL     1      15.447  -5.138   9.366  1.00  0.00    -0.550 OA
ENDBRANCH   4   5
ENDBRANCH   3   4
ENDBRANCH   2   3
ENDBRANCH   1   2
BRANCH   1   8
ATOM      8  C   UNL     1      18.402  -4.158  14.495  1.00  0.00     0.000 C 
BRANCH   8   9
ATOM      9  C   UNL     1      17.442  -4.489  15.658  1.00  0.00    -0.000 C 
BRANCH   9  10
ATOM     10  C   UNL     1      16.665  -5.812  15.508  1.00  0.00    -0.000 C 
BRANCH  10  11
ATOM     11  C   UNL     1      15.164  -5.695  15.858  1.00  0.00    -0.000 C 
BRANCH  11  12
ATOM     12  C   UNL     1      14.523  -4.384  15.373  1.00  0.00    -0.003 C 
ATOM     13  C   UNL     1      13.829  -3.614  16.495  1.00  0.00     0.004 C 
ENDBRANCH  11  12
ENDBRANCH  10  11
ENDBRANCH   9  10
ENDBRANCH   8   9
ENDBRANCH   1   8
TORSDOF 9
ENDMDL
MODEL 8
REMARK VINA RESULT:    -4.578      2.349      4.864
REMARK INTER + INTRA:          -7.963
REMARK INTER:                  -6.845
REMARK INTRA:                  -1.118
REMARK UNBOUND:                -0.977
REMARK SMILES CCCCCCCCCCC(=O)[O-]
REMARK SMILES IDX 7 1 8 2 9 3 10 4 11 5 12 6 13 7 6 8 5 9 4 10 3 11 2 12 1 13
REMARK H PARENT
REMARK Flexibility Score: inf
ROOT
ATOM      1  C   UNL     1      15.052  -6.811  14.579  1.00  0.00     0.000 C 
ENDROOT
BRANCH   1   2
ATOM      2  C   UNL     1      15.146  -6.575  13.064  1.00  0.00     0.000 C 
BRANCH   2   3
ATOM      3  C   UNL     1      13.854  -5.950  12.524  1.00  0.00     0.006 C 
BRANCH   3   4
ATOM      4  C   UNL     1      14.161  -4.786  11.577  1.00  0.00     0.053 C 
BRANCH   4   5
ATOM      5  C   UNL     1      14.339  -5.283  10.177  1.00  0.00     0.041 C 
ATOM      6  O   UNL     1      13.355  -5.739   9.537  1.00  0.00    -0.550 OA
ATOM      7  O   UNL     1      15.600  -5.289   9.597  1.00  0.00    -0.550 OA
ENDBRANCH   4   5
ENDBRANCH   3   4
ENDBRANCH   2   3
ENDBRANCH   1   2
BRANCH   1   8
ATOM      8  C   UNL     1      16.194  -6.142  15.365  1.00  0.00     0.000 C 
BRANCH   8   9
ATOM      9  C   UNL     1      16.802  -4.881  14.714  1.00  0.00    -0.000 C 
BRANCH   9  10
ATOM     10  C   UNL     1      16.145  -3.549  15.130  1.00  0.00    -0.000 C 
BRANCH  10  11
ATOM     11  C   UNL     1      15.671  -3.522  16.601  1.00  0.00    -0.000 C 
BRANCH  11  12
ATOM     12  C   UNL     1      14.144  -3.407  16.749  1.00  0.00    -0.003 C 
ATOM     13  C   UNL     1      13.422  -3.336  15.405  1.00  0.00     0.004 C 
ENDBRANCH  11  12
ENDBRANCH  10  11
ENDBRANCH   9  10
ENDBRANCH   8   9
ENDBRANCH   1   8
TORSDOF 9
ENDMDL
MODEL 9
REMARK VINA RESULT:    -4.526      1.628      4.204
REMARK INTER + INTRA:          -7.884
REMARK INTER:                  -6.697
REMARK INTRA:                  -1.186
REMARK UNBOUND:                -0.977
REMARK SMILES CCCCCCCCCCC(=O)[O-]
REMARK SMILES IDX 7 1 8 2 9 3 10 4 11 5 12 6 13 7 6 8 5 9 4 10 3 11 2 12 1 13
REMARK H PARENT
REMARK Flexibility Score: inf
ROOT
ATOM      1  C   UNL     1      14.206  -5.834  12.082  1.00  0.00     0.000 C 
ENDROOT
BRANCH   1   2
ATOM      2  C   UNL     1      15.436  -4.951  11.823  1.00  0.00     0.000 C 
BRANCH   2   3
ATOM      3  C   UNL     1      15.190  -3.514  12.297  1.00  0.00     0.006 C 
BRANCH   3   4
ATOM      4  C   UNL     1      13.691  -3.201  12.344  1.00  0.00     0.053 C 
BRANCH   4   5
ATOM      5  C   UNL     1      13.466  -1.784  12.771  1.00  0.00     0.041 C 
ATOM      6  O   UNL     1      12.665  -1.524  13.707  1.00  0.00    -0.550 OA
ATOM      7  O   UNL     1      14.103  -0.748  12.101  1.00  0.00    -0.550 OA
ENDBRANCH   4   5
ENDBRANCH   3   4
ENDBRANCH   2   3
ENDBRANCH   1   2
BRANCH   1   8
ATOM      8  C   UNL     1      14.384  -6.780  13.284  1.00  0.00     0.000 C 
BRANCH   8   9
ATOM      9  C   UNL     1      15.835  -6.957  13.781  1.00  0.00    -0.000 C 
BRANCH   9  10
ATOM     10  C   UNL     1      16.101  -6.455  15.215  1.00  0.00    -0.000 C 
BRANCH  10  11
ATOM     11  C   UNL     1      14.882  -5.764  15.868  1.00  0.00    -0.000 C 
BRANCH  11  12
ATOM     12  C   UNL     1      15.021  -4.235  15.959  1.00  0.00    -0.003 C 
ATOM     13  C   UNL     1      13.733  -3.550  16.411  1.00  0.00     0.004 C 
ENDBRANCH  11  12
ENDBRANCH  10  11
ENDBRANCH   9  10
ENDBRANCH   8   9
ENDBRANCH   1   8
TORSDOF 9
ENDMDL
