MODEL 1
REMARK VINA RESULT:    -5.994      0.000      0.000
REMARK INTER + INTRA:          -6.520
REMARK INTER:                  -6.520
REMARK INTRA:                   0.000
REMARK UNBOUND:                 0.000
REMARK SMILES Cc1cc(O)c2c(c1)C(=O)c1cc(O)cc(O)c1C2=O
REMARK SMILES IDX 1 1 2 2 8 3 7 4 6 5 4 6 3 7 19 8 20 9 18 10 11 11 9 12 10 13
REMARK SMILES IDX 12 14 13 15 15 16 16 17 5 18 17 20 14 22
REMARK H PARENT 5 19 17 21 14 23
REMARK Flexibility Score: inf
ROOT
ATOM      1  C   UNL     1      -7.921  27.794  -9.980  1.00  0.00     0.044 C 
ATOM      2  C   UNL     1      -7.759  26.302  -9.946  1.00  0.00    -0.047 A 
ATOM      3  C   UNL     1      -6.803  25.717  -9.109  1.00  0.00     0.016 A 
ATOM      4  C   UNL     1      -6.673  24.319  -9.037  1.00  0.00     0.038 A 
ATOM      5  C   UNL     1      -7.533  23.493  -9.795  1.00  0.00     0.076 A 
ATOM      6  C   UNL     1      -8.470  24.093 -10.676  1.00  0.00     0.127 A 
ATOM      7  C   UNL     1      -8.593  25.485 -10.715  1.00  0.00     0.050 A 
ATOM      8  C   UNL     1      -7.464  22.024  -9.580  1.00  0.00     0.201 C 
ATOM      9  O   UNL     1      -8.495  21.318  -9.741  1.00  0.00    -0.288 OA
ATOM     10  C   UNL     1      -6.239  21.420  -8.997  1.00  0.00     0.076 A 
ATOM     11  C   UNL     1      -5.381  22.250  -8.240  1.00  0.00     0.041 A 
ATOM     12  C   UNL     1      -5.636  23.708  -8.172  1.00  0.00     0.194 C 
ATOM     13  O   UNL     1      -4.952  24.433  -7.397  1.00  0.00    -0.289 OA
ATOM     14  C   UNL     1      -4.288  21.689  -7.558  1.00  0.00     0.059 A 
ATOM     15  C   UNL     1      -4.031  20.321  -7.635  1.00  0.00     0.120 A 
ATOM     16  C   UNL     1      -4.851  19.502  -8.415  1.00  0.00     0.093 A 
ATOM     17  C   UNL     1      -5.935  20.039  -9.119  1.00  0.00     0.131 A 
ENDROOT
BRANCH   6  18
ATOM     18  O   UNL     1      -9.270  23.351 -11.548  1.00  0.00    -0.507 OA
ATOM     19  H   UNL     1     -10.181  23.653 -11.865  1.00  0.00     0.293 HD
ENDBRANCH   6  18
BRANCH  17  20
ATOM     20  O   UNL     1      -6.655  19.177  -9.950  1.00  0.00    -0.507 OA
ATOM     21  H   UNL     1      -7.560  18.798  -9.712  1.00  0.00     0.293 HD
ENDBRANCH  17  20
BRANCH  15  22
ATOM     22  O   UNL     1      -2.948  19.785  -6.940  1.00  0.00    -0.508 OA
ATOM     23  H   UNL     1      -1.996  20.065  -7.146  1.00  0.00     0.293 HD
ENDBRANCH  15  22
TORSDOF 3
ENDMDL
MODEL 2
REMARK VINA RESULT:    -5.757      1.797      5.560
REMARK INTER + INTRA:          -6.262
REMARK INTER:                  -6.262
REMARK INTRA:                   0.000
REMARK UNBOUND:                 0.000
REMARK SMILES Cc1cc(O)c2c(c1)C(=O)c1cc(O)cc(O)c1C2=O
REMARK SMILES IDX 1 1 2 2 8 3 7 4 6 5 4 6 3 7 19 8 20 9 18 10 11 11 9 12 10 13
REMARK SMILES IDX 12 14 13 15 15 16 16 17 5 18 17 20 14 22
REMARK H PARENT 5 19 17 21 14 23
REMARK Flexibility Score: inf
ROOT
ATOM      1  C   UNL     1      -4.124  18.995  -8.388  1.00  0.00     0.044 C 
ATOM      2  C   UNL     1      -5.040  20.104  -8.818  1.00  0.00    -0.047 A 
ATOM      3  C   UNL     1      -4.529  21.383  -9.064  1.00  0.00     0.016 A 
ATOM      4  C   UNL     1      -5.371  22.417  -9.509  1.00  0.00     0.038 A 
ATOM      5  C   UNL     1      -6.741  22.160  -9.737  1.00  0.00     0.076 A 
ATOM      6  C   UNL     1      -7.262  20.873  -9.443  1.00  0.00     0.127 A 
ATOM      7  C   UNL     1      -6.401  19.855  -9.020  1.00  0.00     0.050 A 
ATOM      8  C   UNL     1      -7.565  23.236 -10.347  1.00  0.00     0.201 C 
ATOM      9  O   UNL     1      -8.549  22.936 -11.075  1.00  0.00    -0.288 OA
ATOM     10  C   UNL     1      -7.119  24.649 -10.254  1.00  0.00     0.076 A 
ATOM     11  C   UNL     1      -5.747  24.902 -10.025  1.00  0.00     0.041 A 
ATOM     12  C   UNL     1      -4.828  23.777  -9.737  1.00  0.00     0.194 C 
ATOM     13  O   UNL     1      -3.584  23.982  -9.660  1.00  0.00    -0.289 OA
ATOM     14  C   UNL     1      -5.263  26.221 -10.069  1.00  0.00     0.059 A 
ATOM     15  C   UNL     1      -6.127  27.286 -10.320  1.00  0.00     0.120 A 
ATOM     16  C   UNL     1      -7.491  27.046 -10.506  1.00  0.00     0.093 A 
ATOM     17  C   UNL     1      -8.002  25.744 -10.449  1.00  0.00     0.131 A 
ENDROOT
BRANCH   6  18
ATOM     18  O   UNL     1      -8.624  20.572  -9.523  1.00  0.00    -0.507 OA
ATOM     19  H   UNL     1      -9.213  20.853 -10.295  1.00  0.00     0.293 HD
ENDBRANCH   6  18
BRANCH  17  20
ATOM     20  O   UNL     1      -9.386  25.589 -10.552  1.00  0.00    -0.507 OA
ATOM     21  H   UNL     1      -9.841  25.147 -11.337  1.00  0.00     0.293 HD
ENDBRANCH  17  20
BRANCH  15  22
ATOM     22  O   UNL     1      -5.622  28.583 -10.370  1.00  0.00    -0.508 OA
ATOM     23  H   UNL     1      -6.130  29.366  -9.973  1.00  0.00     0.293 HD
ENDBRANCH  15  22
TORSDOF 3
ENDMDL
MODEL 3
REMARK VINA RESULT:    -5.637      1.722      2.304
REMARK INTER + INTRA:          -6.131
REMARK INTER:                  -6.131
REMARK INTRA:                   0.000
REMARK UNBOUND:                 0.000
REMARK SMILES Cc1cc(O)c2c(c1)C(=O)c1cc(O)cc(O)c1C2=O
REMARK SMILES IDX 1 1 2 2 8 3 7 4 6 5 4 6 3 7 19 8 20 9 18 10 11 11 9 12 10 13
REMARK SMILES IDX 12 14 13 15 15 16 16 17 5 18 17 20 14 22
REMARK H PARENT 5 19 17 21 14 23
REMARK Flexibility Score: inf
ROOT
ATOM      1  C   UNL     1      -5.209  28.651 -11.414  1.00  0.00     0.044 C 
ATOM      2  C   UNL     1      -5.936  27.375 -11.098  1.00  0.00    -0.047 A 
ATOM      3  C   UNL     1      -5.238  26.277 -10.584  1.00  0.00     0.016 A 
ATOM      4  C   UNL     1      -5.915  25.094 -10.244  1.00  0.00     0.038 A 
ATOM      5  C   UNL     1      -7.318  25.017 -10.395  1.00  0.00     0.076 A 
ATOM      6  C   UNL     1      -8.014  26.119 -10.959  1.00  0.00     0.127 A 
ATOM      7  C   UNL     1      -7.320  27.292 -11.271  1.00  0.00     0.050 A 
ATOM      8  C   UNL     1      -8.014  23.807  -9.887  1.00  0.00     0.201 C 
ATOM      9  O   UNL     1      -9.198  23.894  -9.467  1.00  0.00    -0.288 OA
ATOM     10  C   UNL     1      -7.255  22.544  -9.700  1.00  0.00     0.076 A 
ATOM     11  C   UNL     1      -5.852  22.624  -9.550  1.00  0.00     0.041 A 
ATOM     12  C   UNL     1      -5.164  23.924  -9.731  1.00  0.00     0.194 C 
ATOM     13  O   UNL     1      -3.932  24.027  -9.473  1.00  0.00    -0.289 OA
ATOM     14  C   UNL     1      -5.115  21.470  -9.234  1.00  0.00     0.059 A 
ATOM     15  C   UNL     1      -5.754  20.240  -9.082  1.00  0.00     0.120 A 
ATOM     16  C   UNL     1      -7.136  20.147  -9.269  1.00  0.00     0.093 A 
ATOM     17  C   UNL     1      -7.890  21.277  -9.604  1.00  0.00     0.131 A 
ENDROOT
BRANCH   6  18
ATOM     18  O   UNL     1      -9.378  26.079 -11.254  1.00  0.00    -0.507 OA
ATOM     19  H   UNL     1      -9.744  25.877 -12.174  1.00  0.00     0.293 HD
ENDBRANCH   6  18
BRANCH  17  20
ATOM     20  O   UNL     1      -9.249  21.092  -9.866  1.00  0.00    -0.507 OA
ATOM     21  H   UNL     1      -9.974  21.221  -9.175  1.00  0.00     0.293 HD
ENDBRANCH  17  20
BRANCH  15  22
ATOM     22  O   UNL     1      -5.006  19.111  -8.756  1.00  0.00    -0.508 OA
ATOM     23  H   UNL     1      -5.223  18.201  -9.145  1.00  0.00     0.293 HD
ENDBRANCH  15  22
TORSDOF 3
ENDMDL
MODEL 4
REMARK VINA RESULT:    -5.461      2.151      2.187
REMARK INTER + INTRA:          -5.940
REMARK INTER:                  -5.940
REMARK INTRA:                   0.000
REMARK UNBOUND:                 0.000
REMARK SMILES Cc1cc(O)c2c(c1)C(=O)c1cc(O)cc(O)c1C2=O
REMARK SMILES IDX 1 1 2 2 8 3 7 4 6 5 4 6 3 7 19 8 20 9 18 10 11 11 9 12 10 13
REMARK SMILES IDX 12 14 13 15 15 16 16 17 5 18 17 20 14 22
REMARK H PARENT 5 19 17 21 14 23
REMARK Flexibility Score: inf
ROOT
ATOM      1  C   UNL     1     -10.135  26.501  -6.264  1.00  0.00     0.044 C 
ATOM      2  C   UNL     1      -9.549  25.278  -6.908  1.00  0.00    -0.047 A 
ATOM      3  C   UNL     1      -8.421  24.663  -6.353  1.00  0.00     0.016 A 
ATOM      4  C   UNL     1      -7.892  23.492  -6.923  1.00  0.00     0.038 A 
ATOM      5  C   UNL     1      -8.515  22.914  -8.051  1.00  0.00     0.076 A 
ATOM      6  C   UNL     1      -9.631  23.568  -8.636  1.00  0.00     0.127 A 
ATOM      7  C   UNL     1     -10.152  24.720  -8.039  1.00  0.00     0.050 A 
ATOM      8  C   UNL     1      -8.016  21.600  -8.533  1.00  0.00     0.201 C 
ATOM      9  O   UNL     1      -8.807  20.795  -9.093  1.00  0.00    -0.288 OA
ATOM     10  C   UNL     1      -6.639  21.162  -8.186  1.00  0.00     0.076 A 
ATOM     11  C   UNL     1      -6.018  21.744  -7.058  1.00  0.00     0.041 A 
ATOM     12  C   UNL     1      -6.678  22.865  -6.348  1.00  0.00     0.194 C 
ATOM     13  O   UNL     1      -6.192  23.301  -5.268  1.00  0.00    -0.289 OA
ATOM     14  C   UNL     1      -4.775  21.259  -6.616  1.00  0.00     0.059 A 
ATOM     15  C   UNL     1      -4.139  20.218  -7.292  1.00  0.00     0.120 A 
ATOM     16  C   UNL     1      -4.729  19.667  -8.432  1.00  0.00     0.093 A 
ATOM     17  C   UNL     1      -5.957  20.144  -8.904  1.00  0.00     0.131 A 
ENDROOT
BRANCH   6  18
ATOM     18  O   UNL     1     -10.228  23.130  -9.820  1.00  0.00    -0.507 OA
ATOM     19  H   UNL     1      -9.712  22.941 -10.669  1.00  0.00     0.293 HD
ENDBRANCH   6  18
BRANCH  17  20
ATOM     20  O   UNL     1      -6.442  19.610 -10.100  1.00  0.00    -0.507 OA
ATOM     21  H   UNL     1      -6.629  20.162 -10.924  1.00  0.00     0.293 HD
ENDBRANCH  17  20
BRANCH  15  22
ATOM     22  O   UNL     1      -2.913  19.745  -6.829  1.00  0.00    -0.508 OA
ATOM     23  H   UNL     1      -2.042  20.002  -7.279  1.00  0.00     0.293 HD
ENDBRANCH  15  22
TORSDOF 3
ENDMDL
MODEL 5
REMARK VINA RESULT:    -5.454      1.959      5.475
REMARK INTER + INTRA:          -5.933
REMARK INTER:                  -5.933
REMARK INTRA:                   0.000
REMARK UNBOUND:                 0.000
REMARK SMILES Cc1cc(O)c2c(c1)C(=O)c1cc(O)cc(O)c1C2=O
REMARK SMILES IDX 1 1 2 2 8 3 7 4 6 5 4 6 3 7 19 8 20 9 18 10 11 11 9 12 10 13
REMARK SMILES IDX 12 14 13 15 15 16 16 17 5 18 17 20 14 22
REMARK H PARENT 5 19 17 21 14 23
REMARK Flexibility Score: inf
ROOT
ATOM      1  C   UNL     1      -1.682  22.165  -5.245  1.00  0.00     0.044 C 
ATOM      2  C   UNL     1      -2.906  21.800  -6.034  1.00  0.00    -0.047 A 
ATOM      3  C   UNL     1      -3.862  22.775  -6.340  1.00  0.00     0.016 A 
ATOM      4  C   UNL     1      -4.989  22.453  -7.116  1.00  0.00     0.038 A 
ATOM      5  C   UNL     1      -5.149  21.142  -7.616  1.00  0.00     0.076 A 
ATOM      6  C   UNL     1      -4.199  20.147  -7.264  1.00  0.00     0.127 A 
ATOM      7  C   UNL     1      -3.076  20.496  -6.507  1.00  0.00     0.050 A 
ATOM      8  C   UNL     1      -6.273  20.879  -8.552  1.00  0.00     0.201 C 
ATOM      9  O   UNL     1      -6.158  19.988  -9.436  1.00  0.00    -0.288 OA
ATOM     10  C   UNL     1      -7.448  21.787  -8.566  1.00  0.00     0.076 A 
ATOM     11  C   UNL     1      -7.285  23.098  -8.065  1.00  0.00     0.041 A 
ATOM     12  C   UNL     1      -6.013  23.484  -7.408  1.00  0.00     0.194 C 
ATOM     13  O   UNL     1      -5.815  24.685  -7.075  1.00  0.00    -0.289 OA
ATOM     14  C   UNL     1      -8.330  24.029  -8.188  1.00  0.00     0.059 A 
ATOM     15  C   UNL     1      -9.536  23.666  -8.786  1.00  0.00     0.120 A 
ATOM     16  C   UNL     1      -9.718  22.360  -9.247  1.00  0.00     0.093 A 
ATOM     17  C   UNL     1      -8.700  21.408  -9.120  1.00  0.00     0.131 A 
ENDROOT
BRANCH   6  18
ATOM     18  O   UNL     1      -4.348  18.803  -7.614  1.00  0.00    -0.507 OA
ATOM     19  H   UNL     1      -4.529  18.488  -8.557  1.00  0.00     0.293 HD
ENDBRANCH   6  18
BRANCH  17  20
ATOM     20  O   UNL     1      -8.985  20.100  -9.518  1.00  0.00    -0.507 OA
ATOM     21  H   UNL     1      -9.434  19.868 -10.392  1.00  0.00     0.293 HD
ENDBRANCH  17  20
BRANCH  15  22
ATOM     22  O   UNL     1     -10.554  24.609  -8.909  1.00  0.00    -0.508 OA
ATOM     23  H   UNL     1     -10.800  25.010  -9.807  1.00  0.00     0.293 HD
ENDBRANCH  15  22
TORSDOF 3
ENDMDL
MODEL 6
REMARK VINA RESULT:    -5.435      2.200      3.521
REMARK INTER + INTRA:          -5.912
REMARK INTER:                  -5.912
REMARK INTRA:                   0.000
REMARK UNBOUND:                 0.000
REMARK SMILES Cc1cc(O)c2c(c1)C(=O)c1cc(O)cc(O)c1C2=O
REMARK SMILES IDX 1 1 2 2 8 3 7 4 6 5 4 6 3 7 19 8 20 9 18 10 11 11 9 12 10 13
REMARK SMILES IDX 12 14 13 15 15 16 16 17 5 18 17 20 14 22
REMARK H PARENT 5 19 17 21 14 23
REMARK Flexibility Score: inf
ROOT
ATOM      1  C   UNL     1      -5.097  28.906 -11.688  1.00  0.00     0.044 C 
ATOM      2  C   UNL     1      -6.099  27.871 -11.267  1.00  0.00    -0.047 A 
ATOM      3  C   UNL     1      -5.672  26.597 -10.875  1.00  0.00     0.016 A 
ATOM      4  C   UNL     1      -6.598  25.635 -10.438  1.00  0.00     0.038 A 
ATOM      5  C   UNL     1      -7.971  25.961 -10.366  1.00  0.00     0.076 A 
ATOM      6  C   UNL     1      -8.402  27.239 -10.808  1.00  0.00     0.127 A 
ATOM      7  C   UNL     1      -7.460  28.186 -11.220  1.00  0.00     0.050 A 
ATOM      8  C   UNL     1      -8.897  24.969  -9.760  1.00  0.00     0.201 C 
ATOM      9  O   UNL     1      -9.932  25.363  -9.158  1.00  0.00    -0.288 OA
ATOM     10  C   UNL     1      -8.508  23.537  -9.701  1.00  0.00     0.076 A 
ATOM     11  C   UNL     1      -7.134  23.215  -9.774  1.00  0.00     0.041 A 
ATOM     12  C   UNL     1      -6.141  24.278 -10.055  1.00  0.00     0.194 C 
ATOM     13  O   UNL     1      -4.907  24.020  -9.993  1.00  0.00    -0.289 OA
ATOM     14  C   UNL     1      -6.716  21.887  -9.582  1.00  0.00     0.059 A 
ATOM     15  C   UNL     1      -7.648  20.879  -9.337  1.00  0.00     0.120 A 
ATOM     16  C   UNL     1      -9.011  21.184  -9.305  1.00  0.00     0.093 A 
ATOM     17  C   UNL     1      -9.454  22.495  -9.511  1.00  0.00     0.131 A 
ENDROOT
BRANCH   6  18
ATOM     18  O   UNL     1      -9.751  27.596 -10.885  1.00  0.00    -0.507 OA
ATOM     19  H   UNL     1     -10.331  27.764 -10.074  1.00  0.00     0.293 HD
ENDBRANCH   6  18
BRANCH  17  20
ATOM     20  O   UNL     1     -10.834  22.710  -9.557  1.00  0.00    -0.507 OA
ATOM     21  H   UNL     1     -11.274  23.575  -9.278  1.00  0.00     0.293 HD
ENDBRANCH  17  20
BRANCH  15  22
ATOM     22  O   UNL     1      -7.209  19.571  -9.139  1.00  0.00    -0.508 OA
ATOM     23  H   UNL     1      -6.383  19.213  -9.604  1.00  0.00     0.293 HD
ENDBRANCH  15  22
TORSDOF 3
ENDMDL
MODEL 7
REMARK VINA RESULT:    -5.304      2.166      5.207
REMARK INTER + INTRA:          -5.769
REMARK INTER:                  -5.769
REMARK INTRA:                   0.000
REMARK UNBOUND:                 0.000
REMARK SMILES Cc1cc(O)c2c(c1)C(=O)c1cc(O)cc(O)c1C2=O
REMARK SMILES IDX 1 1 2 2 8 3 7 4 6 5 4 6 3 7 19 8 20 9 18 10 11 11 9 12 10 13
REMARK SMILES IDX 12 14 13 15 15 16 16 17 5 18 17 20 14 22
REMARK H PARENT 5 19 17 21 14 23
REMARK Flexibility Score: inf
ROOT
ATOM      1  C   UNL     1      -1.528  23.116  -9.596  1.00  0.00     0.044 C 
ATOM      2  C   UNL     1      -2.941  22.673  -9.350  1.00  0.00    -0.047 A 
ATOM      3  C   UNL     1      -4.004  23.555  -9.574  1.00  0.00     0.016 A 
ATOM      4  C   UNL     1      -5.333  23.136  -9.388  1.00  0.00     0.038 A 
ATOM      5  C   UNL     1      -5.604  21.806  -8.998  1.00  0.00     0.076 A 
ATOM      6  C   UNL     1      -4.520  20.930  -8.729  1.00  0.00     0.127 A 
ATOM      7  C   UNL     1      -3.208  21.363  -8.940  1.00  0.00     0.050 A 
ATOM      8  C   UNL     1      -7.021  21.362  -8.957  1.00  0.00     0.201 C 
ATOM      9  O   UNL     1      -7.308  20.156  -9.187  1.00  0.00    -0.288 OA
ATOM     10  C   UNL     1      -8.107  22.368  -8.833  1.00  0.00     0.076 A 
ATOM     11  C   UNL     1      -7.831  23.698  -9.223  1.00  0.00     0.041 A 
ATOM     12  C   UNL     1      -6.451  24.087  -9.597  1.00  0.00     0.194 C 
ATOM     13  O   UNL     1      -6.225  25.236 -10.068  1.00  0.00    -0.289 OA
ATOM     14  C   UNL     1      -8.868  24.647  -9.251  1.00  0.00     0.059 A 
ATOM     15  C   UNL     1     -10.164  24.293  -8.882  1.00  0.00     0.120 A 
ATOM     16  C   UNL     1     -10.434  22.989  -8.456  1.00  0.00     0.093 A 
ATOM     17  C   UNL     1      -9.416  22.031  -8.400  1.00  0.00     0.131 A 
ENDROOT
BRANCH   6  18
ATOM     18  O   UNL     1      -4.700  19.640  -8.223  1.00  0.00    -0.507 OA
ATOM     19  H   UNL     1      -3.993  18.919  -8.269  1.00  0.00     0.293 HD
ENDBRANCH   6  18
BRANCH  17  20
ATOM     20  O   UNL     1      -9.739  20.776  -7.878  1.00  0.00    -0.507 OA
ATOM     21  H   UNL     1     -10.622  20.314  -8.039  1.00  0.00     0.293 HD
ENDBRANCH  17  20
BRANCH  15  22
ATOM     22  O   UNL     1     -11.178  25.247  -8.930  1.00  0.00    -0.508 OA
ATOM     23  H   UNL     1     -11.652  25.473  -9.796  1.00  0.00     0.293 HD
ENDBRANCH  15  22
TORSDOF 3
ENDMDL
MODEL 8
REMARK VINA RESULT:    -5.198      2.681      5.651
REMARK INTER + INTRA:          -5.654
REMARK INTER:                  -5.654
REMARK INTRA:                   0.000
REMARK UNBOUND:                 0.000
REMARK SMILES Cc1cc(O)c2c(c1)C(=O)c1cc(O)cc(O)c1C2=O
REMARK SMILES IDX 1 1 2 2 8 3 7 4 6 5 4 6 3 7 19 8 20 9 18 10 11 11 9 12 10 13
REMARK SMILES IDX 12 14 13 15 15 16 16 17 5 18 17 20 14 22
REMARK H PARENT 5 19 17 21 14 23
REMARK Flexibility Score: inf
ROOT
ATOM      1  C   UNL     1      -1.769  21.960  -5.706  1.00  0.00     0.044 C 
ATOM      2  C   UNL     1      -3.247  21.939  -5.967  1.00  0.00    -0.047 A 
ATOM      3  C   UNL     1      -3.731  22.000  -7.279  1.00  0.00     0.016 A 
ATOM      4  C   UNL     1      -5.111  21.937  -7.537  1.00  0.00     0.038 A 
ATOM      5  C   UNL     1      -6.020  21.782  -6.468  1.00  0.00     0.076 A 
ATOM      6  C   UNL     1      -5.527  21.766  -5.137  1.00  0.00     0.127 A 
ATOM      7  C   UNL     1      -4.148  21.811  -4.906  1.00  0.00     0.050 A 
ATOM      8  C   UNL     1      -7.455  21.570  -6.791  1.00  0.00     0.201 C 
ATOM      9  O   UNL     1      -8.179  20.888  -6.017  1.00  0.00    -0.288 OA
ATOM     10  C   UNL     1      -7.985  21.999  -8.111  1.00  0.00     0.076 A 
ATOM     11  C   UNL     1      -7.071  22.154  -9.178  1.00  0.00     0.041 A 
ATOM     12  C   UNL     1      -5.616  22.035  -8.927  1.00  0.00     0.194 C 
ATOM     13  O   UNL     1      -4.806  22.044  -9.895  1.00  0.00    -0.289 OA
ATOM     14  C   UNL     1      -7.548  22.423 -10.473  1.00  0.00     0.059 A 
ATOM     15  C   UNL     1      -8.915  22.555 -10.712  1.00  0.00     0.120 A 
ATOM     16  C   UNL     1      -9.820  22.445  -9.653  1.00  0.00     0.093 A 
ATOM     17  C   UNL     1      -9.370  22.196  -8.352  1.00  0.00     0.131 A 
ENDROOT
BRANCH   6  18
ATOM     18  O   UNL     1      -6.366  21.740  -4.020  1.00  0.00    -0.507 OA
ATOM     19  H   UNL     1      -6.044  21.538  -3.084  1.00  0.00     0.293 HD
ENDBRANCH   6  18
BRANCH  17  20
ATOM     20  O   UNL     1     -10.322  22.190  -7.330  1.00  0.00    -0.507 OA
ATOM     21  H   UNL     1     -10.094  22.062  -6.355  1.00  0.00     0.293 HD
ENDBRANCH  17  20
BRANCH  15  22
ATOM     22  O   UNL     1      -9.365  22.810 -12.006  1.00  0.00    -0.508 OA
ATOM     23  H   UNL     1      -8.735  22.787 -12.800  1.00  0.00     0.293 HD
ENDBRANCH  15  22
TORSDOF 3
ENDMDL
MODEL 9
REMARK VINA RESULT:    -5.130      2.819      5.390
REMARK INTER + INTRA:          -5.579
REMARK INTER:                  -5.579
REMARK INTRA:                   0.000
REMARK UNBOUND:                 0.000
REMARK SMILES Cc1cc(O)c2c(c1)C(=O)c1cc(O)cc(O)c1C2=O
REMARK SMILES IDX 1 1 2 2 8 3 7 4 6 5 4 6 3 7 19 8 20 9 18 10 11 11 9 12 10 13
REMARK SMILES IDX 12 14 13 15 15 16 16 17 5 18 17 20 14 22
REMARK H PARENT 5 19 17 21 14 23
REMARK Flexibility Score: inf
ROOT
ATOM      1  C   UNL     1      -1.470  23.248  -9.916  1.00  0.00     0.044 C 
ATOM      2  C   UNL     1      -2.722  22.915  -9.157  1.00  0.00    -0.047 A 
ATOM      3  C   UNL     1      -3.931  22.739  -9.838  1.00  0.00     0.016 A 
ATOM      4  C   UNL     1      -5.100  22.384  -9.143  1.00  0.00     0.038 A 
ATOM      5  C   UNL     1      -5.051  22.175  -7.746  1.00  0.00     0.076 A 
ATOM      6  C   UNL     1      -3.832  22.399  -7.055  1.00  0.00     0.127 A 
ATOM      7  C   UNL     1      -2.678  22.733  -7.772  1.00  0.00     0.050 A 
ATOM      8  C   UNL     1      -6.270  21.657  -7.071  1.00  0.00     0.201 C 
ATOM      9  O   UNL     1      -6.159  20.937  -6.043  1.00  0.00    -0.288 OA
ATOM     10  C   UNL     1      -7.598  21.831  -7.713  1.00  0.00     0.076 A 
ATOM     11  C   UNL     1      -7.642  22.040  -9.110  1.00  0.00     0.041 A 
ATOM     12  C   UNL     1      -6.383  22.231  -9.867  1.00  0.00     0.194 C 
ATOM     13  O   UNL     1      -6.409  22.290 -11.128  1.00  0.00    -0.289 OA
ATOM     14  C   UNL     1      -8.881  22.070  -9.773  1.00  0.00     0.059 A 
ATOM     15  C   UNL     1     -10.070  21.911  -9.063  1.00  0.00     0.120 A 
ATOM     16  C   UNL     1     -10.034  21.744  -7.676  1.00  0.00     0.093 A 
ATOM     17  C   UNL     1      -8.816  21.730  -6.989  1.00  0.00     0.131 A 
ENDROOT
BRANCH   6  18
ATOM     18  O   UNL     1      -3.729  22.334  -5.664  1.00  0.00    -0.507 OA
ATOM     19  H   UNL     1      -4.388  22.772  -5.034  1.00  0.00     0.293 HD
ENDBRANCH   6  18
BRANCH  17  20
ATOM     20  O   UNL     1      -8.861  21.652  -5.595  1.00  0.00    -0.507 OA
ATOM     21  H   UNL     1      -9.542  22.139  -5.030  1.00  0.00     0.293 HD
ENDBRANCH  17  20
BRANCH  15  22
ATOM     22  O   UNL     1     -11.285  21.932  -9.744  1.00  0.00    -0.508 OA
ATOM     23  H   UNL     1     -11.332  22.118 -10.739  1.00  0.00     0.293 HD
ENDBRANCH  15  22
TORSDOF 3
ENDMDL
