MODEL 1
REMARK VINA RESULT:    -3.786      0.000      0.000
REMARK INTER + INTRA:          -4.311
REMARK INTER:                  -4.118
REMARK INTRA:                  -0.192
REMARK UNBOUND:                -0.192
REMARK SMILES C=C(C)[C@H]1CC[C@H](C)C[C@H]1O
REMARK SMILES IDX 8 1 7 2 6 3 5 4 4 5 10 6 9 7 11 8 2 10 1 11 3 12
REMARK H PARENT 11 9
REMARK Flexibility Score: inf
ROOT
ATOM      1  C   UNL     1       3.241   1.846  -3.750  1.00  0.00     0.008 C 
ATOM      2  C   UNL     1       1.944   2.534  -4.187  1.00  0.00    -0.012 C 
ATOM      3  C   UNL     1       2.049   3.005  -5.651  1.00  0.00     0.004 C 
ATOM      4  C   UNL     1       0.747   3.673  -6.112  1.00  0.00     0.011 C 
ATOM      5  C   UNL     1      -0.449   2.714  -5.932  1.00  0.00     0.043 C 
ATOM      6  C   UNL     1      -0.575   2.239  -4.466  1.00  0.00     0.121 C 
ATOM      7  C   UNL     1       0.741   1.584  -4.004  1.00  0.00     0.035 C 
ENDROOT
BRANCH   6   8
ATOM      8  O   UNL     1      -0.896   3.317  -3.622  1.00  0.00    -0.392 OA
ATOM      9  H   UNL     1      -0.294   4.066  -3.871  1.00  0.00     0.210 HD
ENDBRANCH   6   8
BRANCH   5  10
ATOM     10  C   UNL     1      -1.754   3.315  -6.451  1.00  0.00    -0.075 C 
ATOM     11  C   UNL     1      -1.741   4.506  -7.068  1.00  0.00     0.008 C 
ATOM     12  C   UNL     1      -3.071   2.583  -6.341  1.00  0.00     0.039 C 
ENDBRANCH   5  10
TORSDOF 2
ENDMDL
MODEL 2
REMARK VINA RESULT:    -3.755      1.843      4.272
REMARK INTER + INTRA:          -4.277
REMARK INTER:                  -4.109
REMARK INTRA:                  -0.168
REMARK UNBOUND:                -0.192
REMARK SMILES C=C(C)[C@H]1CC[C@H](C)C[C@H]1O
REMARK SMILES IDX 8 1 7 2 6 3 5 4 4 5 10 6 9 7 11 8 2 10 1 11 3 12
REMARK H PARENT 11 9
REMARK Flexibility Score: inf
ROOT
ATOM      1  C   UNL     1      -3.389   5.129  -5.170  1.00  0.00     0.008 C 
ATOM      2  C   UNL     1      -2.018   4.460  -5.312  1.00  0.00    -0.012 C 
ATOM      3  C   UNL     1      -0.978   5.165  -4.419  1.00  0.00     0.004 C 
ATOM      4  C   UNL     1       0.395   4.489  -4.531  1.00  0.00     0.011 C 
ATOM      5  C   UNL     1       0.295   2.991  -4.172  1.00  0.00     0.043 C 
ATOM      6  C   UNL     1      -0.738   2.266  -5.065  1.00  0.00     0.121 C 
ATOM      7  C   UNL     1      -2.111   2.960  -4.962  1.00  0.00     0.035 C 
ENDROOT
BRANCH   6   8
ATOM      8  O   UNL     1      -0.310   2.249  -6.404  1.00  0.00    -0.392 OA
ATOM      9  H   UNL     1      -0.047   1.313  -6.609  1.00  0.00     0.210 HD
ENDBRANCH   6   8
BRANCH   5  10
ATOM     10  C   UNL     1       1.655   2.298  -4.197  1.00  0.00    -0.075 C 
ATOM     11  C   UNL     1       2.693   2.886  -4.813  1.00  0.00     0.008 C 
ATOM     12  C   UNL     1       1.895   0.981  -3.498  1.00  0.00     0.039 C 
ENDBRANCH   5  10
TORSDOF 2
ENDMDL
MODEL 3
REMARK VINA RESULT:    -3.733      1.451      4.503
REMARK INTER + INTRA:          -4.252
REMARK INTER:                  -4.092
REMARK INTRA:                  -0.160
REMARK UNBOUND:                -0.192
REMARK SMILES C=C(C)[C@H]1CC[C@H](C)C[C@H]1O
REMARK SMILES IDX 8 1 7 2 6 3 5 4 4 5 10 6 9 7 11 8 2 10 1 11 3 12
REMARK H PARENT 11 9
REMARK Flexibility Score: inf
ROOT
ATOM      1  C   UNL     1      -3.037   4.366  -5.787  1.00  0.00     0.008 C 
ATOM      2  C   UNL     1      -1.753   3.969  -5.052  1.00  0.00    -0.012 C 
ATOM      3  C   UNL     1      -1.626   2.435  -4.977  1.00  0.00     0.004 C 
ATOM      4  C   UNL     1      -0.331   2.021  -4.266  1.00  0.00     0.011 C 
ATOM      5  C   UNL     1       0.897   2.636  -4.970  1.00  0.00     0.043 C 
ATOM      6  C   UNL     1       0.790   4.176  -5.046  1.00  0.00     0.121 C 
ATOM      7  C   UNL     1      -0.520   4.585  -5.746  1.00  0.00     0.035 C 
ENDROOT
BRANCH   6   8
ATOM      8  O   UNL     1       0.842   4.740  -3.759  1.00  0.00    -0.392 OA
ATOM      9  H   UNL     1      -0.016   4.513  -3.312  1.00  0.00     0.210 HD
ENDBRANCH   6   8
BRANCH   5  10
ATOM     10  C   UNL     1       2.212   2.185  -4.338  1.00  0.00    -0.075 C 
ATOM     11  C   UNL     1       2.220   1.158  -3.475  1.00  0.00     0.008 C 
ATOM     12  C   UNL     1       3.532   2.828  -4.693  1.00  0.00     0.039 C 
ENDBRANCH   5  10
TORSDOF 2
ENDMDL
MODEL 4
REMARK VINA RESULT:    -3.615      1.595      2.172
REMARK INTER + INTRA:          -4.125
REMARK INTER:                  -4.003
REMARK INTRA:                  -0.121
REMARK UNBOUND:                -0.192
REMARK SMILES C=C(C)[C@H]1CC[C@H](C)C[C@H]1O
REMARK SMILES IDX 8 1 7 2 6 3 5 4 4 5 10 6 9 7 11 8 2 10 1 11 3 12
REMARK H PARENT 11 9
REMARK Flexibility Score: inf
ROOT
ATOM      1  C   UNL     1       3.453   2.526  -4.123  1.00  0.00     0.008 C 
ATOM      2  C   UNL     1       2.038   2.686  -4.689  1.00  0.00    -0.012 C 
ATOM      3  C   UNL     1       1.047   1.784  -3.927  1.00  0.00     0.004 C 
ATOM      4  C   UNL     1      -0.379   1.952  -4.466  1.00  0.00     0.011 C 
ATOM      5  C   UNL     1      -0.819   3.430  -4.392  1.00  0.00     0.043 C 
ATOM      6  C   UNL     1       0.160   4.348  -5.159  1.00  0.00     0.121 C 
ATOM      7  C   UNL     1       1.594   4.162  -4.625  1.00  0.00     0.035 C 
ENDROOT
BRANCH   6   8
ATOM      8  O   UNL     1       0.123   4.070  -6.537  1.00  0.00    -0.392 OA
ATOM      9  H   UNL     1       0.691   3.269  -6.683  1.00  0.00     0.210 HD
ENDBRANCH   6   8
BRANCH   5  10
ATOM     10  C   UNL     1      -2.262   3.628  -4.848  1.00  0.00    -0.075 C 
ATOM     11  C   UNL     1      -2.991   4.634  -4.339  1.00  0.00     0.008 C 
ATOM     12  C   UNL     1      -2.894   2.754  -5.906  1.00  0.00     0.039 C 
ENDBRANCH   5  10
TORSDOF 2
ENDMDL
MODEL 5
REMARK VINA RESULT:    -3.531      1.761      2.028
REMARK INTER + INTRA:          -4.033
REMARK INTER:                  -3.838
REMARK INTRA:                  -0.195
REMARK UNBOUND:                -0.192
REMARK SMILES C=C(C)[C@H]1CC[C@H](C)C[C@H]1O
REMARK SMILES IDX 8 1 7 2 6 3 5 4 4 5 10 6 9 7 11 8 2 10 1 11 3 12
REMARK H PARENT 11 9
REMARK Flexibility Score: inf
ROOT
ATOM      1  C   UNL     1       2.837   3.003  -4.900  1.00  0.00     0.008 C 
ATOM      2  C   UNL     1       1.321   3.127  -4.717  1.00  0.00    -0.012 C 
ATOM      3  C   UNL     1       0.926   4.596  -4.468  1.00  0.00     0.004 C 
ATOM      4  C   UNL     1      -0.593   4.740  -4.309  1.00  0.00     0.011 C 
ATOM      5  C   UNL     1      -1.325   4.182  -5.548  1.00  0.00     0.043 C 
ATOM      6  C   UNL     1      -0.947   2.705  -5.807  1.00  0.00     0.121 C 
ATOM      7  C   UNL     1       0.581   2.564  -5.949  1.00  0.00     0.035 C 
ENDROOT
BRANCH   6   8
ATOM      8  O   UNL     1      -1.409   1.885  -4.763  1.00  0.00    -0.392 OA
ATOM      9  H   UNL     1      -0.862   2.102  -3.964  1.00  0.00     0.210 HD
ENDBRANCH   6   8
BRANCH   5  10
ATOM     10  C   UNL     1      -2.837   4.376  -5.463  1.00  0.00    -0.075 C 
ATOM     11  C   UNL     1      -3.386   4.857  -4.336  1.00  0.00     0.008 C 
ATOM     12  C   UNL     1      -3.747   4.094  -6.635  1.00  0.00     0.039 C 
ENDBRANCH   5  10
TORSDOF 2
ENDMDL
MODEL 6
REMARK VINA RESULT:    -3.205      1.993      4.194
REMARK INTER + INTRA:          -3.678
REMARK INTER:                  -3.495
REMARK INTRA:                  -0.183
REMARK UNBOUND:                -0.192
REMARK SMILES C=C(C)[C@H]1CC[C@H](C)C[C@H]1O
REMARK SMILES IDX 8 1 7 2 6 3 5 4 4 5 10 6 9 7 11 8 2 10 1 11 3 12
REMARK H PARENT 11 9
REMARK Flexibility Score: inf
ROOT
ATOM      1  C   UNL     1      -4.259   5.486  -4.209  1.00  0.00     0.008 C 
ATOM      2  C   UNL     1      -3.312   4.557  -4.975  1.00  0.00    -0.012 C 
ATOM      3  C   UNL     1      -2.829   5.231  -6.275  1.00  0.00     0.004 C 
ATOM      4  C   UNL     1      -1.858   4.323  -7.040  1.00  0.00     0.011 C 
ATOM      5  C   UNL     1      -0.659   3.934  -6.149  1.00  0.00     0.043 C 
ATOM      6  C   UNL     1      -1.126   3.248  -4.845  1.00  0.00     0.121 C 
ATOM      7  C   UNL     1      -2.114   4.158  -4.089  1.00  0.00     0.035 C 
ENDROOT
BRANCH   6   8
ATOM      8  O   UNL     1      -1.733   2.011  -5.125  1.00  0.00    -0.392 OA
ATOM      9  H   UNL     1      -1.560   1.423  -4.344  1.00  0.00     0.210 HD
ENDBRANCH   6   8
BRANCH   5  10
ATOM     10  C   UNL     1       0.370   3.091  -6.900  1.00  0.00    -0.075 C 
ATOM     11  C   UNL     1       1.613   2.963  -6.410  1.00  0.00     0.008 C 
ATOM     12  C   UNL     1       0.021   2.341  -8.164  1.00  0.00     0.039 C 
ENDBRANCH   5  10
TORSDOF 2
ENDMDL
MODEL 7
REMARK VINA RESULT:    -3.196      1.292      4.278
REMARK INTER + INTRA:          -3.669
REMARK INTER:                  -4.105
REMARK INTRA:                   0.436
REMARK UNBOUND:                -0.192
REMARK SMILES C=C(C)[C@H]1CC[C@H](C)C[C@H]1O
REMARK SMILES IDX 8 1 7 2 6 3 5 4 4 5 10 6 9 7 11 8 2 10 1 11 3 12
REMARK H PARENT 11 9
REMARK Flexibility Score: inf
ROOT
ATOM      1  C   UNL     1      -3.827   3.726  -7.815  1.00  0.00     0.008 C 
ATOM      2  C   UNL     1      -2.672   3.033  -7.085  1.00  0.00    -0.012 C 
ATOM      3  C   UNL     1      -1.336   3.311  -7.801  1.00  0.00     0.004 C 
ATOM      4  C   UNL     1      -0.165   2.645  -7.067  1.00  0.00     0.011 C 
ATOM      5  C   UNL     1      -0.105   3.116  -5.598  1.00  0.00     0.043 C 
ATOM      6  C   UNL     1      -1.435   2.836  -4.862  1.00  0.00     0.121 C 
ATOM      7  C   UNL     1      -2.609   3.494  -5.614  1.00  0.00     0.035 C 
ENDROOT
BRANCH   6   8
ATOM      8  O   UNL     1      -1.656   1.452  -4.747  1.00  0.00    -0.392 OA
ATOM      9  H   UNL     1      -1.507   1.062  -5.648  1.00  0.00     0.210 HD
ENDBRANCH   6   8
BRANCH   5  10
ATOM     10  C   UNL     1       1.093   2.534  -4.853  1.00  0.00    -0.075 C 
ATOM     11  C   UNL     1       2.335   2.936  -5.167  1.00  0.00     0.008 C 
ATOM     12  C   UNL     1       0.929   1.546  -3.721  1.00  0.00     0.039 C 
ENDBRANCH   5  10
TORSDOF 2
ENDMDL
MODEL 8
REMARK VINA RESULT:    -3.191      9.536     11.610
REMARK INTER + INTRA:          -3.663
REMARK INTER:                  -3.470
REMARK INTRA:                  -0.193
REMARK UNBOUND:                -0.192
REMARK SMILES C=C(C)[C@H]1CC[C@H](C)C[C@H]1O
REMARK SMILES IDX 8 1 7 2 6 3 5 4 4 5 10 6 9 7 11 8 2 10 1 11 3 12
REMARK H PARENT 11 9
REMARK Flexibility Score: inf
ROOT
ATOM      1  C   UNL     1      -0.116  -4.340   0.247  1.00  0.00     0.008 C 
ATOM      2  C   UNL     1       1.073  -5.099  -0.351  1.00  0.00    -0.012 C 
ATOM      3  C   UNL     1       2.355  -4.820   0.459  1.00  0.00     0.004 C 
ATOM      4  C   UNL     1       3.549  -5.594  -0.112  1.00  0.00     0.011 C 
ATOM      5  C   UNL     1       3.249  -7.108  -0.152  1.00  0.00     0.043 C 
ATOM      6  C   UNL     1       1.970  -7.406  -0.969  1.00  0.00     0.121 C 
ATOM      7  C   UNL     1       0.778  -6.612  -0.400  1.00  0.00     0.035 C 
ENDROOT
BRANCH   6   8
ATOM      8  O   UNL     1       2.160  -7.080  -2.323  1.00  0.00    -0.392 OA
ATOM      9  H   UNL     1       3.139  -6.986  -2.461  1.00  0.00     0.210 HD
ENDBRANCH   6   8
BRANCH   5  10
ATOM     10  C   UNL     1       4.443  -7.922  -0.644  1.00  0.00    -0.075 C 
ATOM     11  C   UNL     1       5.523  -7.294  -1.133  1.00  0.00     0.008 C 
ATOM     12  C   UNL     1       4.476  -9.429  -0.550  1.00  0.00     0.039 C 
ENDBRANCH   5  10
TORSDOF 2
ENDMDL
MODEL 9
REMARK VINA RESULT:    -3.085      2.345      4.396
REMARK INTER + INTRA:          -3.548
REMARK INTER:                  -3.383
REMARK INTRA:                  -0.165
REMARK UNBOUND:                -0.192
REMARK SMILES C=C(C)[C@H]1CC[C@H](C)C[C@H]1O
REMARK SMILES IDX 8 1 7 2 6 3 5 4 4 5 10 6 9 7 11 8 2 10 1 11 3 12
REMARK H PARENT 11 9
REMARK Flexibility Score: inf
ROOT
ATOM      1  C   UNL     1      -3.515   6.786  -4.317  1.00  0.00     0.008 C 
ATOM      2  C   UNL     1      -2.421   5.816  -4.776  1.00  0.00    -0.012 C 
ATOM      3  C   UNL     1      -1.043   6.271  -4.257  1.00  0.00     0.004 C 
ATOM      4  C   UNL     1       0.059   5.295  -4.687  1.00  0.00     0.011 C 
ATOM      5  C   UNL     1      -0.261   3.865  -4.202  1.00  0.00     0.043 C 
ATOM      6  C   UNL     1      -1.637   3.389  -4.722  1.00  0.00     0.121 C 
ATOM      7  C   UNL     1      -2.738   4.383  -4.301  1.00  0.00     0.035 C 
ENDROOT
BRANCH   6   8
ATOM      8  O   UNL     1      -1.620   3.258  -6.122  1.00  0.00    -0.392 OA
ATOM      9  H   UNL     1      -2.470   2.815  -6.379  1.00  0.00     0.210 HD
ENDBRANCH   6   8
BRANCH   5  10
ATOM     10  C   UNL     1       0.851   2.876  -4.544  1.00  0.00    -0.075 C 
ATOM     11  C   UNL     1       1.768   3.197  -5.471  1.00  0.00     0.008 C 
ATOM     12  C   UNL     1       0.992   1.552  -3.831  1.00  0.00     0.039 C 
ENDBRANCH   5  10
TORSDOF 2
ENDMDL
