MODEL 1
REMARK VINA RESULT:    -5.674      0.000      0.000
REMARK INTER + INTRA:          -7.289
REMARK INTER:                  -7.001
REMARK INTRA:                  -0.288
REMARK UNBOUND:                -0.288
REMARK SMILES O=c1c(O)c(-c2cc(O)c(O)c(O)c2)oc2cc(O)cc(O)c12
REMARK SMILES IDX 5 1 3 2 2 3 1 4 23 5 21 6 20 7 18 8 17 9 16 10 15 11 6 12
REMARK SMILES IDX 7 13 8 14 14 15 10 16 12 17 9 18 11 20 13 22 4 24 22 26
REMARK SMILES IDX 19 28
REMARK H PARENT 9 19 11 21 13 23 4 25 22 27 19 29
REMARK Flexibility Score: inf
ROOT
ATOM      1  C   UNL     1      30.833 -92.155  37.394  1.00  0.00     0.180 A 
ATOM      2  C   UNL     1      29.635 -92.778  37.005  1.00  0.00     0.208 A 
ATOM      3  C   UNL     1      29.518 -94.171  37.136  1.00  0.00     0.238 A 
ATOM      4  O   UNL     1      28.463 -94.730  36.735  1.00  0.00    -0.285 OA
ATOM      5  C   UNL     1      30.593 -94.921  37.670  1.00  0.00     0.111 A 
ATOM      6  C   UNL     1      30.569 -96.332  37.885  1.00  0.00     0.134 A 
ATOM      7  C   UNL     1      31.736 -96.988  38.297  1.00  0.00     0.093 A 
ATOM      8  C   UNL     1      32.905 -96.278  38.563  1.00  0.00     0.123 A 
ATOM      9  C   UNL     1      32.923 -94.890  38.413  1.00  0.00     0.094 A 
ATOM     10  C   UNL     1      31.785 -94.212  37.969  1.00  0.00     0.146 A 
ATOM     11  O   UNL     1      31.846 -92.894  37.830  1.00  0.00    -0.452 OA
ENDROOT
BRANCH   1  12
ATOM     12  C   UNL     1      31.021 -90.689  37.308  1.00  0.00     0.029 A 
ATOM     13  C   UNL     1      30.360 -89.814  38.184  1.00  0.00     0.062 A 
ATOM     14  C   UNL     1      30.564 -88.431  38.111  1.00  0.00     0.162 A 
ATOM     15  C   UNL     1      31.924 -90.163  36.373  1.00  0.00     0.062 A 
ATOM     16  C   UNL     1      31.456 -87.907  37.146  1.00  0.00     0.200 A 
ATOM     17  C   UNL     1      32.134 -88.781  36.286  1.00  0.00     0.162 A 
BRANCH  14  18
ATOM     18  O   UNL     1      29.869 -87.623  39.014  1.00  0.00    -0.504 OA
ATOM     19  H   UNL     1      29.570 -87.926  39.930  1.00  0.00     0.293 HD
ENDBRANCH  14  18
BRANCH  16  20
ATOM     20  O   UNL     1      31.697 -86.536  37.012  1.00  0.00    -0.502 OA
ATOM     21  H   UNL     1      32.147 -86.116  36.213  1.00  0.00     0.293 HD
ENDBRANCH  16  20
BRANCH  17  22
ATOM     22  O   UNL     1      33.022 -88.267  35.342  1.00  0.00    -0.504 OA
ATOM     23  H   UNL     1      33.975 -88.603  35.270  1.00  0.00     0.293 HD
ENDBRANCH  17  22
ENDBRANCH   1  12
BRANCH   2  24
ATOM     24  O   UNL     1      28.593 -92.022  36.459  1.00  0.00    -0.502 OA
ATOM     25  H   UNL     1      28.627 -91.011  36.404  1.00  0.00     0.293 HD
ENDBRANCH   2  24
BRANCH   6  26
ATOM     26  O   UNL     1      29.427 -97.125  37.737  1.00  0.00    -0.507 OA
ATOM     27  H   UNL     1      28.986 -97.644  38.482  1.00  0.00     0.293 HD
ENDBRANCH   6  26
BRANCH   8  28
ATOM     28  O   UNL     1      34.043 -96.961  38.986  1.00  0.00    -0.508 OA
ATOM     29  H   UNL     1      34.940 -96.496  39.071  1.00  0.00     0.293 HD
ENDBRANCH   8  28
TORSDOF 7
ENDMDL
MODEL 2
REMARK VINA RESULT:    -5.187     15.292     17.213
REMARK INTER + INTRA:          -6.688
REMARK INTER:                  -7.022
REMARK INTRA:                   0.334
REMARK UNBOUND:                -0.288
REMARK SMILES O=c1c(O)c(-c2cc(O)c(O)c(O)c2)oc2cc(O)cc(O)c12
REMARK SMILES IDX 5 1 3 2 2 3 1 4 23 5 21 6 20 7 18 8 17 9 16 10 15 11 6 12
REMARK SMILES IDX 7 13 8 14 14 15 10 16 12 17 9 18 11 20 13 22 4 24 22 26
REMARK SMILES IDX 19 28
REMARK H PARENT 9 19 11 21 13 23 4 25 22 27 19 29
REMARK Flexibility Score: inf
ROOT
ATOM      1  C   UNL     1      37.602 -77.623  34.085  1.00  0.00     0.180 A 
ATOM      2  C   UNL     1      38.153 -77.624  35.378  1.00  0.00     0.208 A 
ATOM      3  C   UNL     1      37.291 -77.667  36.486  1.00  0.00     0.238 A 
ATOM      4  O   UNL     1      37.789 -77.612  37.640  1.00  0.00    -0.285 OA
ATOM      5  C   UNL     1      35.891 -77.724  36.287  1.00  0.00     0.111 A 
ATOM      6  C   UNL     1      34.926 -77.811  37.336  1.00  0.00     0.134 A 
ATOM      7  C   UNL     1      33.563 -77.730  37.028  1.00  0.00     0.093 A 
ATOM      8  C   UNL     1      33.127 -77.632  35.708  1.00  0.00     0.123 A 
ATOM      9  C   UNL     1      34.060 -77.607  34.670  1.00  0.00     0.094 A 
ATOM     10  C   UNL     1      35.428 -77.648  34.947  1.00  0.00     0.146 A 
ATOM     11  O   UNL     1      36.283 -77.611  33.933  1.00  0.00    -0.452 OA
ENDROOT
BRANCH   1  12
ATOM     12  C   UNL     1      38.446 -77.604  32.869  1.00  0.00     0.029 A 
ATOM     13  C   UNL     1      39.798 -77.984  32.911  1.00  0.00     0.062 A 
ATOM     14  C   UNL     1      40.581 -77.986  31.752  1.00  0.00     0.162 A 
ATOM     15  C   UNL     1      37.874 -77.258  31.637  1.00  0.00     0.062 A 
ATOM     16  C   UNL     1      40.002 -77.609  30.516  1.00  0.00     0.200 A 
ATOM     17  C   UNL     1      38.648 -77.252  30.469  1.00  0.00     0.162 A 
BRANCH  14  18
ATOM     18  O   UNL     1      41.918 -78.374  31.871  1.00  0.00    -0.504 OA
ATOM     19  H   UNL     1      42.222 -79.331  31.971  1.00  0.00     0.293 HD
ENDBRANCH  14  18
BRANCH  16  20
ATOM     20  O   UNL     1      40.731 -77.579  29.324  1.00  0.00    -0.502 OA
ATOM     21  H   UNL     1      41.693 -77.873  29.241  1.00  0.00     0.293 HD
ENDBRANCH  16  20
BRANCH  17  22
ATOM     22  O   UNL     1      38.074 -76.890  29.251  1.00  0.00    -0.504 OA
ATOM     23  H   UNL     1      38.438 -76.123  28.699  1.00  0.00     0.293 HD
ENDBRANCH  17  22
ENDBRANCH   1  12
BRANCH   2  24
ATOM     24  O   UNL     1      39.538 -77.545  35.552  1.00  0.00    -0.502 OA
ATOM     25  H   UNL     1      39.967 -76.908  36.212  1.00  0.00     0.293 HD
ENDBRANCH   2  24
BRANCH   6  26
ATOM     26  O   UNL     1      35.253 -78.003  38.682  1.00  0.00    -0.507 OA
ATOM     27  H   UNL     1      36.013 -78.577  39.013  1.00  0.00     0.293 HD
ENDBRANCH   6  26
BRANCH   8  28
ATOM     28  O   UNL     1      31.762 -77.569  35.438  1.00  0.00    -0.508 OA
ATOM     29  H   UNL     1      31.330 -76.725  35.079  1.00  0.00     0.293 HD
ENDBRANCH   8  28
TORSDOF 7
ENDMDL
MODEL 3
REMARK VINA RESULT:    -5.140      9.278     10.838
REMARK INTER + INTRA:          -6.630
REMARK INTER:                  -6.472
REMARK INTRA:                  -0.158
REMARK UNBOUND:                -0.288
REMARK SMILES O=c1c(O)c(-c2cc(O)c(O)c(O)c2)oc2cc(O)cc(O)c12
REMARK SMILES IDX 5 1 3 2 2 3 1 4 23 5 21 6 20 7 18 8 17 9 16 10 15 11 6 12
REMARK SMILES IDX 7 13 8 14 14 15 10 16 12 17 9 18 11 20 13 22 4 24 22 26
REMARK SMILES IDX 19 28
REMARK H PARENT 9 19 11 21 13 23 4 25 22 27 19 29
REMARK Flexibility Score: inf
ROOT
ATOM      1  C   UNL     1      36.610 -95.571  30.175  1.00  0.00     0.180 A 
ATOM      2  C   UNL     1      37.663 -95.969  29.336  1.00  0.00     0.208 A 
ATOM      3  C   UNL     1      38.972 -95.981  29.845  1.00  0.00     0.238 A 
ATOM      4  O   UNL     1      39.918 -96.285  29.073  1.00  0.00    -0.285 OA
ATOM      5  C   UNL     1      39.208 -95.609  31.190  1.00  0.00     0.111 A 
ATOM      6  C   UNL     1      40.488 -95.623  31.823  1.00  0.00     0.134 A 
ATOM      7  C   UNL     1      40.623 -95.112  33.120  1.00  0.00     0.093 A 
ATOM      8  C   UNL     1      39.516 -94.648  33.830  1.00  0.00     0.123 A 
ATOM      9  C   UNL     1      38.250 -94.686  33.243  1.00  0.00     0.094 A 
ATOM     10  C   UNL     1      38.089 -95.156  31.938  1.00  0.00     0.146 A 
ATOM     11  O   UNL     1      36.871 -95.166  31.412  1.00  0.00    -0.452 OA
ENDROOT
BRANCH   1  12
ATOM     12  C   UNL     1      35.201 -95.556  29.717  1.00  0.00     0.029 A 
ATOM     13  C   UNL     1      34.222 -96.347  30.339  1.00  0.00     0.062 A 
ATOM     14  C   UNL     1      32.889 -96.309  29.915  1.00  0.00     0.162 A 
ATOM     15  C   UNL     1      34.822 -94.693  28.680  1.00  0.00     0.062 A 
ATOM     16  C   UNL     1      32.519 -95.454  28.850  1.00  0.00     0.200 A 
ATOM     17  C   UNL     1      33.492 -94.647  28.243  1.00  0.00     0.162 A 
BRANCH  14  18
ATOM     18  O   UNL     1      31.971 -97.125  30.580  1.00  0.00    -0.504 OA
ATOM     19  H   UNL     1      32.206 -97.722  31.360  1.00  0.00     0.293 HD
ENDBRANCH  14  18
BRANCH  16  20
ATOM     20  O   UNL     1      31.209 -95.375  28.370  1.00  0.00    -0.502 OA
ATOM     21  H   UNL     1      30.400 -95.705  28.876  1.00  0.00     0.293 HD
ENDBRANCH  16  20
BRANCH  17  22
ATOM     22  O   UNL     1      33.127 -93.797  27.200  1.00  0.00    -0.504 OA
ATOM     23  H   UNL     1      32.720 -92.885  27.375  1.00  0.00     0.293 HD
ENDBRANCH  17  22
ENDBRANCH   1  12
BRANCH   2  24
ATOM     24  O   UNL     1      37.412 -96.310  28.004  1.00  0.00    -0.502 OA
ATOM     25  H   UNL     1      36.505 -96.179  27.571  1.00  0.00     0.293 HD
ENDBRANCH   2  24
BRANCH   6  26
ATOM     26  O   UNL     1      41.642 -96.149  31.236  1.00  0.00    -0.507 OA
ATOM     27  H   UNL     1      42.317 -95.612  30.712  1.00  0.00     0.293 HD
ENDBRANCH   6  26
BRANCH   8  28
ATOM     28  O   UNL     1      39.685 -94.161  35.124  1.00  0.00    -0.508 OA
ATOM     29  H   UNL     1      38.912 -94.112  35.777  1.00  0.00     0.293 HD
ENDBRANCH   8  28
TORSDOF 7
ENDMDL
MODEL 4
REMARK VINA RESULT:    -5.076      3.602      6.201
REMARK INTER + INTRA:          -6.551
REMARK INTER:                  -6.232
REMARK INTRA:                  -0.319
REMARK UNBOUND:                -0.288
REMARK SMILES O=c1c(O)c(-c2cc(O)c(O)c(O)c2)oc2cc(O)cc(O)c12
REMARK SMILES IDX 5 1 3 2 2 3 1 4 23 5 21 6 20 7 18 8 17 9 16 10 15 11 6 12
REMARK SMILES IDX 7 13 8 14 14 15 10 16 12 17 9 18 11 20 13 22 4 24 22 26
REMARK SMILES IDX 19 28
REMARK H PARENT 9 19 11 21 13 23 4 25 22 27 19 29
REMARK Flexibility Score: inf
ROOT
ATOM      1  C   UNL     1      28.881 -95.820  38.326  1.00  0.00     0.180 A 
ATOM      2  C   UNL     1      28.115 -96.072  37.175  1.00  0.00     0.208 A 
ATOM      3  C   UNL     1      26.771 -96.454  37.322  1.00  0.00     0.238 A 
ATOM      4  O   UNL     1      26.107 -96.732  36.290  1.00  0.00    -0.285 OA
ATOM      5  C   UNL     1      26.207 -96.564  38.615  1.00  0.00     0.111 A 
ATOM      6  C   UNL     1      24.846 -96.904  38.880  1.00  0.00     0.134 A 
ATOM      7  C   UNL     1      24.430 -97.111  40.201  1.00  0.00     0.093 A 
ATOM      8  C   UNL     1      25.306 -96.926  41.269  1.00  0.00     0.123 A 
ATOM      9  C   UNL     1      26.624 -96.535  41.025  1.00  0.00     0.094 A 
ATOM     10  C   UNL     1      27.079 -96.357  39.716  1.00  0.00     0.146 A 
ATOM     11  O   UNL     1      28.341 -95.995  39.527  1.00  0.00    -0.452 OA
ENDROOT
BRANCH   1  12
ATOM     12  C   UNL     1      30.295 -95.390  38.252  1.00  0.00     0.029 A 
ATOM     13  C   UNL     1      30.643 -94.075  37.903  1.00  0.00     0.062 A 
ATOM     14  C   UNL     1      31.982 -93.671  37.859  1.00  0.00     0.162 A 
ATOM     15  C   UNL     1      31.311 -96.295  38.592  1.00  0.00     0.062 A 
ATOM     16  C   UNL     1      33.002 -94.598  38.179  1.00  0.00     0.200 A 
ATOM     17  C   UNL     1      32.656 -95.906  38.548  1.00  0.00     0.162 A 
BRANCH  14  18
ATOM     18  O   UNL     1      32.250 -92.348  37.503  1.00  0.00    -0.504 OA
ATOM     19  H   UNL     1      32.337 -92.024  36.550  1.00  0.00     0.293 HD
ENDBRANCH  14  18
BRANCH  16  20
ATOM     20  O   UNL     1      34.359 -94.264  38.144  1.00  0.00    -0.502 OA
ATOM     21  H   UNL     1      34.720 -93.406  37.753  1.00  0.00     0.293 HD
ENDBRANCH  16  20
BRANCH  17  22
ATOM     22  O   UNL     1      33.659 -96.817  38.873  1.00  0.00    -0.504 OA
ATOM     23  H   UNL     1      34.641 -96.586  38.769  1.00  0.00     0.293 HD
ENDBRANCH  17  22
ENDBRANCH   1  12
BRANCH   2  24
ATOM     24  O   UNL     1      28.698 -95.980  35.908  1.00  0.00    -0.502 OA
ATOM     25  H   UNL     1      28.339 -95.366  35.188  1.00  0.00     0.293 HD
ENDBRANCH   2  24
BRANCH   6  26
ATOM     26  O   UNL     1      23.865 -97.023  37.890  1.00  0.00    -0.507 OA
ATOM     27  H   UNL     1      24.052 -97.098  36.902  1.00  0.00     0.293 HD
ENDBRANCH   6  26
BRANCH   8  28
ATOM     28  O   UNL     1      24.854 -97.125  42.571  1.00  0.00    -0.508 OA
ATOM     29  H   UNL     1      24.754 -98.055  42.962  1.00  0.00     0.293 HD
ENDBRANCH   8  28
TORSDOF 7
ENDMDL
MODEL 5
REMARK VINA RESULT:    -4.993     15.822     17.148
REMARK INTER + INTRA:          -6.449
REMARK INTER:                  -6.893
REMARK INTRA:                   0.444
REMARK UNBOUND:                -0.288
REMARK SMILES O=c1c(O)c(-c2cc(O)c(O)c(O)c2)oc2cc(O)cc(O)c12
REMARK SMILES IDX 5 1 3 2 2 3 1 4 23 5 21 6 20 7 18 8 17 9 16 10 15 11 6 12
REMARK SMILES IDX 7 13 8 14 14 15 10 16 12 17 9 18 11 20 13 22 4 24 22 26
REMARK SMILES IDX 19 28
REMARK H PARENT 9 19 11 21 13 23 4 25 22 27 19 29
REMARK Flexibility Score: inf
ROOT
ATOM      1  C   UNL     1      37.712 -77.623  34.164  1.00  0.00     0.180 A 
ATOM      2  C   UNL     1      36.308 -77.629  34.129  1.00  0.00     0.208 A 
ATOM      3  C   UNL     1      35.596 -77.628  35.340  1.00  0.00     0.238 A 
ATOM      4  O   UNL     1      34.340 -77.689  35.302  1.00  0.00    -0.285 OA
ATOM      5  C   UNL     1      36.298 -77.606  36.568  1.00  0.00     0.111 A 
ATOM      6  C   UNL     1      35.679 -77.562  37.855  1.00  0.00     0.134 A 
ATOM      7  C   UNL     1      36.469 -77.675  39.005  1.00  0.00     0.093 A 
ATOM      8  C   UNL     1      37.858 -77.762  38.919  1.00  0.00     0.123 A 
ATOM      9  C   UNL     1      38.478 -77.745  37.669  1.00  0.00     0.094 A 
ATOM     10  C   UNL     1      37.714 -77.671  36.502  1.00  0.00     0.146 A 
ATOM     11  O   UNL     1      38.341 -77.668  35.332  1.00  0.00    -0.452 OA
ENDROOT
BRANCH   1  12
ATOM     12  C   UNL     1      38.530 -77.599  32.930  1.00  0.00     0.029 A 
ATOM     13  C   UNL     1      39.884 -77.974  32.941  1.00  0.00     0.062 A 
ATOM     14  C   UNL     1      40.642 -77.971  31.765  1.00  0.00     0.162 A 
ATOM     15  C   UNL     1      37.931 -77.250  31.711  1.00  0.00     0.062 A 
ATOM     16  C   UNL     1      40.035 -77.592  30.544  1.00  0.00     0.200 A 
ATOM     17  C   UNL     1      38.679 -77.239  30.527  1.00  0.00     0.162 A 
BRANCH  14  18
ATOM     18  O   UNL     1      41.981 -78.355  31.854  1.00  0.00    -0.504 OA
ATOM     19  H   UNL     1      42.754 -77.707  31.898  1.00  0.00     0.293 HD
ENDBRANCH  14  18
BRANCH  16  20
ATOM     20  O   UNL     1      40.738 -77.556  29.336  1.00  0.00    -0.502 OA
ATOM     21  H   UNL     1      40.645 -78.248  28.607  1.00  0.00     0.293 HD
ENDBRANCH  16  20
BRANCH  17  22
ATOM     22  O   UNL     1      38.077 -76.875  29.323  1.00  0.00    -0.504 OA
ATOM     23  H   UNL     1      37.928 -77.547  28.580  1.00  0.00     0.293 HD
ENDBRANCH  17  22
ENDBRANCH   1  12
BRANCH   2  24
ATOM     24  O   UNL     1      35.635 -77.674  32.904  1.00  0.00    -0.502 OA
ATOM     25  H   UNL     1      35.754 -76.964  32.192  1.00  0.00     0.293 HD
ENDBRANCH   2  24
BRANCH   6  26
ATOM     26  O   UNL     1      34.307 -77.384  38.054  1.00  0.00    -0.507 OA
ATOM     27  H   UNL     1      33.606 -78.091  37.891  1.00  0.00     0.293 HD
ENDBRANCH   6  26
BRANCH   8  28
ATOM     28  O   UNL     1      38.614 -77.857  40.086  1.00  0.00    -0.508 OA
ATOM     29  H   UNL     1      38.226 -78.240  40.940  1.00  0.00     0.293 HD
ENDBRANCH   8  28
TORSDOF 7
ENDMDL
MODEL 6
REMARK VINA RESULT:    -4.975     14.931     17.241
REMARK INTER + INTRA:          -6.426
REMARK INTER:                  -6.848
REMARK INTRA:                   0.422
REMARK UNBOUND:                -0.288
REMARK SMILES O=c1c(O)c(-c2cc(O)c(O)c(O)c2)oc2cc(O)cc(O)c12
REMARK SMILES IDX 5 1 3 2 2 3 1 4 23 5 21 6 20 7 18 8 17 9 16 10 15 11 6 12
REMARK SMILES IDX 7 13 8 14 14 15 10 16 12 17 9 18 11 20 13 22 4 24 22 26
REMARK SMILES IDX 19 28
REMARK H PARENT 9 19 11 21 13 23 4 25 22 27 19 29
REMARK Flexibility Score: inf
ROOT
ATOM      1  C   UNL     1      36.445 -77.515  33.381  1.00  0.00     0.180 A 
ATOM      2  C   UNL     1      36.110 -77.269  32.039  1.00  0.00     0.208 A 
ATOM      3  C   UNL     1      37.140 -77.150  31.091  1.00  0.00     0.238 A 
ATOM      4  O   UNL     1      36.837 -76.875  29.901  1.00  0.00    -0.285 OA
ATOM      5  C   UNL     1      38.489 -77.293  31.495  1.00  0.00     0.111 A 
ATOM      6  C   UNL     1      39.610 -77.231  30.613  1.00  0.00     0.134 A 
ATOM      7  C   UNL     1      40.907 -77.257  31.142  1.00  0.00     0.093 A 
ATOM      8  C   UNL     1      41.123 -77.408  32.510  1.00  0.00     0.123 A 
ATOM      9  C   UNL     1      40.035 -77.530  33.375  1.00  0.00     0.094 A 
ATOM     10  C   UNL     1      38.729 -77.471  32.882  1.00  0.00     0.146 A 
ATOM     11  O   UNL     1      37.722 -77.580  33.739  1.00  0.00    -0.452 OA
ENDROOT
BRANCH   1  12
ATOM     12  C   UNL     1      35.415 -77.678  34.432  1.00  0.00     0.029 A 
ATOM     13  C   UNL     1      34.049 -77.754  34.113  1.00  0.00     0.062 A 
ATOM     14  C   UNL     1      33.085 -77.933  35.111  1.00  0.00     0.162 A 
ATOM     15  C   UNL     1      35.810 -77.819  35.769  1.00  0.00     0.062 A 
ATOM     16  C   UNL     1      33.491 -78.048  36.462  1.00  0.00     0.200 A 
ATOM     17  C   UNL     1      34.855 -77.995  36.780  1.00  0.00     0.162 A 
BRANCH  14  18
ATOM     18  O   UNL     1      31.747 -77.997  34.718  1.00  0.00    -0.504 OA
ATOM     19  H   UNL     1      31.438 -78.318  33.811  1.00  0.00     0.293 HD
ENDBRANCH  14  18
BRANCH  16  20
ATOM     20  O   UNL     1      32.580 -78.216  37.508  1.00  0.00    -0.502 OA
ATOM     21  H   UNL     1      32.843 -78.418  38.461  1.00  0.00     0.293 HD
ENDBRANCH  16  20
BRANCH  17  22
ATOM     22  O   UNL     1      35.257 -78.118  38.109  1.00  0.00    -0.504 OA
ATOM     23  H   UNL     1      34.617 -78.426  38.831  1.00  0.00     0.293 HD
ENDBRANCH  17  22
ENDBRANCH   1  12
BRANCH   2  24
ATOM     24  O   UNL     1      34.773 -77.109  31.665  1.00  0.00    -0.502 OA
ATOM     25  H   UNL     1      34.246 -77.839  31.201  1.00  0.00     0.293 HD
ENDBRANCH   2  24
BRANCH   6  26
ATOM     26  O   UNL     1      39.505 -77.172  29.220  1.00  0.00    -0.507 OA
ATOM     27  H   UNL     1      39.593 -77.965  28.603  1.00  0.00     0.293 HD
ENDBRANCH   6  26
BRANCH   8  28
ATOM     28  O   UNL     1      42.427 -77.445  32.999  1.00  0.00    -0.508 OA
ATOM     29  H   UNL     1      42.831 -76.658  33.494  1.00  0.00     0.293 HD
ENDBRANCH   8  28
TORSDOF 7
ENDMDL
MODEL 7
REMARK VINA RESULT:    -4.896     14.765     16.170
REMARK INTER + INTRA:          -6.329
REMARK INTER:                  -6.559
REMARK INTRA:                   0.230
REMARK UNBOUND:                -0.288
REMARK SMILES O=c1c(O)c(-c2cc(O)c(O)c(O)c2)oc2cc(O)cc(O)c12
REMARK SMILES IDX 5 1 3 2 2 3 1 4 23 5 21 6 20 7 18 8 17 9 16 10 15 11 6 12
REMARK SMILES IDX 7 13 8 14 14 15 10 16 12 17 9 18 11 20 13 22 4 24 22 26
REMARK SMILES IDX 19 28
REMARK H PARENT 9 19 11 21 13 23 4 25 22 27 19 29
REMARK Flexibility Score: inf
ROOT
ATOM      1  C   UNL     1      37.092 -78.132  37.019  1.00  0.00     0.180 A 
ATOM      2  C   UNL     1      38.240 -77.568  36.437  1.00  0.00     0.208 A 
ATOM      3  C   UNL     1      39.469 -77.680  37.109  1.00  0.00     0.238 A 
ATOM      4  O   UNL     1      40.482 -77.126  36.609  1.00  0.00    -0.285 OA
ATOM      5  C   UNL     1      39.536 -78.366  38.345  1.00  0.00     0.111 A 
ATOM      6  C   UNL     1      40.735 -78.574  39.092  1.00  0.00     0.134 A 
ATOM      7  C   UNL     1      40.663 -79.154  40.365  1.00  0.00     0.093 A 
ATOM      8  C   UNL     1      39.448 -79.591  40.889  1.00  0.00     0.123 A 
ATOM      9  C   UNL     1      38.278 -79.448  40.142  1.00  0.00     0.094 A 
ATOM     10  C   UNL     1      38.312 -78.840  38.885  1.00  0.00     0.146 A 
ATOM     11  O   UNL     1      37.176 -78.713  38.210  1.00  0.00    -0.452 OA
ENDROOT
BRANCH   1  12
ATOM     12  C   UNL     1      35.768 -78.077  36.360  1.00  0.00     0.029 A 
ATOM     13  C   UNL     1      35.648 -78.029  34.962  1.00  0.00     0.062 A 
ATOM     14  C   UNL     1      34.391 -78.002  34.347  1.00  0.00     0.162 A 
ATOM     15  C   UNL     1      34.605 -78.134  37.141  1.00  0.00     0.062 A 
ATOM     16  C   UNL     1      33.222 -78.032  35.145  1.00  0.00     0.200 A 
ATOM     17  C   UNL     1      33.340 -78.103  36.540  1.00  0.00     0.162 A 
BRANCH  14  18
ATOM     18  O   UNL     1      34.350 -77.952  32.952  1.00  0.00    -0.504 OA
ATOM     19  H   UNL     1      33.501 -78.004  32.408  1.00  0.00     0.293 HD
ENDBRANCH  14  18
BRANCH  16  20
ATOM     20  O   UNL     1      31.937 -77.997  34.596  1.00  0.00    -0.502 OA
ATOM     21  H   UNL     1      31.153 -77.526  35.022  1.00  0.00     0.293 HD
ENDBRANCH  16  20
BRANCH  17  22
ATOM     22  O   UNL     1      32.190 -78.144  37.326  1.00  0.00    -0.504 OA
ATOM     23  H   UNL     1      31.961 -77.397  37.972  1.00  0.00     0.293 HD
ENDBRANCH  17  22
ENDBRANCH   1  12
BRANCH   2  24
ATOM     24  O   UNL     1      38.147 -76.875  35.227  1.00  0.00    -0.502 OA
ATOM     25  H   UNL     1      37.722 -75.958  35.157  1.00  0.00     0.293 HD
ENDBRANCH   2  24
BRANCH   6  26
ATOM     26  O   UNL     1      42.012 -78.257  38.622  1.00  0.00    -0.507 OA
ATOM     27  H   UNL     1      42.783 -78.906  38.570  1.00  0.00     0.293 HD
ENDBRANCH   6  26
BRANCH   8  28
ATOM     28  O   UNL     1      39.416 -80.178  42.153  1.00  0.00    -0.508 OA
ATOM     29  H   UNL     1      38.795 -79.840  42.879  1.00  0.00     0.293 HD
ENDBRANCH   8  28
TORSDOF 7
ENDMDL
MODEL 8
REMARK VINA RESULT:    -4.887      8.388     10.638
REMARK INTER + INTRA:          -6.318
REMARK INTER:                  -6.409
REMARK INTRA:                   0.091
REMARK UNBOUND:                -0.288
REMARK SMILES O=c1c(O)c(-c2cc(O)c(O)c(O)c2)oc2cc(O)cc(O)c12
REMARK SMILES IDX 5 1 3 2 2 3 1 4 23 5 21 6 20 7 18 8 17 9 16 10 15 11 6 12
REMARK SMILES IDX 7 13 8 14 14 15 10 16 12 17 9 18 11 20 13 22 4 24 22 26
REMARK SMILES IDX 19 28
REMARK H PARENT 9 19 11 21 13 23 4 25 22 27 19 29
REMARK Flexibility Score: inf
ROOT
ATOM      1  C   UNL     1      39.825 -95.487  35.397  1.00  0.00     0.180 A 
ATOM      2  C   UNL     1      41.014 -95.145  36.064  1.00  0.00     0.208 A 
ATOM      3  C   UNL     1      41.086 -95.317  37.456  1.00  0.00     0.238 A 
ATOM      4  O   UNL     1      42.134 -94.957  38.055  1.00  0.00    -0.285 OA
ATOM      5  C   UNL     1      39.976 -95.841  38.160  1.00  0.00     0.111 A 
ATOM      6  C   UNL     1      39.954 -96.094  39.565  1.00  0.00     0.134 A 
ATOM      7  C   UNL     1      38.758 -96.492  40.176  1.00  0.00     0.093 A 
ATOM      8  C   UNL     1      37.604 -96.709  39.426  1.00  0.00     0.123 A 
ATOM      9  C   UNL     1      37.631 -96.523  38.042  1.00  0.00     0.094 A 
ATOM     10  C   UNL     1      38.798 -96.090  37.410  1.00  0.00     0.146 A 
ATOM     11  O   UNL     1      38.779 -95.915  36.094  1.00  0.00    -0.452 OA
ENDROOT
BRANCH   1  12
ATOM     12  C   UNL     1      39.681 -95.358  33.929  1.00  0.00     0.029 A 
ATOM     13  C   UNL     1      40.735 -95.684  33.059  1.00  0.00     0.062 A 
ATOM     14  C   UNL     1      40.581 -95.582  31.672  1.00  0.00     0.162 A 
ATOM     15  C   UNL     1      38.451 -94.958  33.389  1.00  0.00     0.062 A 
ATOM     16  C   UNL     1      39.344 -95.152  31.136  1.00  0.00     0.200 A 
ATOM     17  C   UNL     1      38.284 -94.848  32.002  1.00  0.00     0.162 A 
BRANCH  14  18
ATOM     18  O   UNL     1      41.673 -95.921  30.871  1.00  0.00    -0.504 OA
ATOM     19  H   UNL     1      42.606 -95.560  31.003  1.00  0.00     0.293 HD
ENDBRANCH  14  18
BRANCH  16  20
ATOM     20  O   UNL     1      39.127 -95.018  29.762  1.00  0.00    -0.502 OA
ATOM     21  H   UNL     1      39.719 -95.425  29.053  1.00  0.00     0.293 HD
ENDBRANCH  16  20
BRANCH  17  22
ATOM     22  O   UNL     1      37.062 -94.435  31.475  1.00  0.00    -0.504 OA
ATOM     23  H   UNL     1      36.181 -94.738  31.874  1.00  0.00     0.293 HD
ENDBRANCH  17  22
ENDBRANCH   1  12
BRANCH   2  24
ATOM     24  O   UNL     1      42.090 -94.607  35.353  1.00  0.00    -0.502 OA
ATOM     25  H   UNL     1      41.977 -93.861  34.677  1.00  0.00     0.293 HD
ENDBRANCH   2  24
BRANCH   6  26
ATOM     26  O   UNL     1      41.076 -95.997  40.394  1.00  0.00    -0.507 OA
ATOM     27  H   UNL     1      41.923 -95.502  40.158  1.00  0.00     0.293 HD
ENDBRANCH   6  26
BRANCH   8  28
ATOM     28  O   UNL     1      36.436 -97.120  40.064  1.00  0.00    -0.508 OA
ATOM     29  H   UNL     1      36.301 -98.081  40.357  1.00  0.00     0.293 HD
ENDBRANCH   8  28
TORSDOF 7
ENDMDL
MODEL 9
REMARK VINA RESULT:    -4.793     10.226     11.958
REMARK INTER + INTRA:          -6.202
REMARK INTER:                  -5.979
REMARK INTRA:                  -0.224
REMARK UNBOUND:                -0.288
REMARK SMILES O=c1c(O)c(-c2cc(O)c(O)c(O)c2)oc2cc(O)cc(O)c12
REMARK SMILES IDX 5 1 3 2 2 3 1 4 23 5 21 6 20 7 18 8 17 9 16 10 15 11 6 12
REMARK SMILES IDX 7 13 8 14 14 15 10 16 12 17 9 18 11 20 13 22 4 24 22 26
REMARK SMILES IDX 19 28
REMARK H PARENT 9 19 11 21 13 23 4 25 22 27 19 29
REMARK Flexibility Score: inf
ROOT
ATOM      1  C   UNL     1      39.831 -95.362  31.353  1.00  0.00     0.180 A 
ATOM      2  C   UNL     1      38.564 -95.841  31.724  1.00  0.00     0.208 A 
ATOM      3  C   UNL     1      38.268 -95.999  33.088  1.00  0.00     0.238 A 
ATOM      4  O   UNL     1      37.151 -96.480  33.412  1.00  0.00    -0.285 OA
ATOM      5  C   UNL     1      39.237 -95.660  34.062  1.00  0.00     0.111 A 
ATOM      6  C   UNL     1      39.032 -95.742  35.473  1.00  0.00     0.134 A 
ATOM      7  C   UNL     1      40.104 -95.506  36.342  1.00  0.00     0.093 A 
ATOM      8  C   UNL     1      41.354 -95.128  35.856  1.00  0.00     0.123 A 
ATOM      9  C   UNL     1      41.550 -94.986  34.481  1.00  0.00     0.094 A 
ATOM     10  C   UNL     1      40.511 -95.251  33.587  1.00  0.00     0.146 A 
ATOM     11  O   UNL     1      40.741 -95.115  32.287  1.00  0.00    -0.452 OA
ENDROOT
BRANCH   1  12
ATOM     12  C   UNL     1      40.207 -95.146  29.937  1.00  0.00     0.029 A 
ATOM     13  C   UNL     1      40.356 -96.222  29.047  1.00  0.00     0.062 A 
ATOM     14  C   UNL     1      40.687 -96.006  27.704  1.00  0.00     0.162 A 
ATOM     15  C   UNL     1      40.362 -93.838  29.456  1.00  0.00     0.062 A 
ATOM     16  C   UNL     1      40.868 -94.684  27.233  1.00  0.00     0.200 A 
ATOM     17  C   UNL     1      40.698 -93.607  28.115  1.00  0.00     0.162 A 
BRANCH  14  18
ATOM     18  O   UNL     1      40.819 -97.125  26.879  1.00  0.00    -0.504 OA
ATOM     19  H   UNL     1      41.295 -97.118  25.989  1.00  0.00     0.293 HD
ENDBRANCH  14  18
BRANCH  16  20
ATOM     20  O   UNL     1      41.210 -94.399  25.909  1.00  0.00    -0.502 OA
ATOM     21  H   UNL     1      41.093 -95.045  25.142  1.00  0.00     0.293 HD
ENDBRANCH  16  20
BRANCH  17  22
ATOM     22  O   UNL     1      40.865 -92.304  27.650  1.00  0.00    -0.504 OA
ATOM     23  H   UNL     1      41.727 -91.793  27.801  1.00  0.00     0.293 HD
ENDBRANCH  17  22
ENDBRANCH   1  12
BRANCH   2  24
ATOM     24  O   UNL     1      37.629 -96.191  30.745  1.00  0.00    -0.502 OA
ATOM     25  H   UNL     1      37.801 -96.056  29.756  1.00  0.00     0.293 HD
ENDBRANCH   2  24
BRANCH   6  26
ATOM     26  O   UNL     1      37.797 -96.023  36.066  1.00  0.00    -0.507 OA
ATOM     27  H   UNL     1      37.628 -96.778  36.713  1.00  0.00     0.293 HD
ENDBRANCH   6  26
BRANCH   8  28
ATOM     28  O   UNL     1      42.395 -94.885  36.750  1.00  0.00    -0.508 OA
ATOM     29  H   UNL     1      42.218 -94.685  37.728  1.00  0.00     0.293 HD
ENDBRANCH   8  28
TORSDOF 7
ENDMDL
