MODEL 1
REMARK VINA RESULT:    -4.389      0.000      0.000
REMARK INTER + INTRA:          -5.952
REMARK INTER:                  -5.929
REMARK INTRA:                  -0.024
REMARK UNBOUND:                -0.024
REMARK SMILES O=C[C@H](O)[C@@H](O)[C@H](O)CO
REMARK SMILES IDX 7 1 9 2 10 3 5 5 3 6 2 7 1 8 4 9 6 11 8 13
REMARK H PARENT 10 4 4 10 6 12 8 14
REMARK Flexibility Score: inf
ROOT
ATOM      1  C   UNL     1      10.179   5.952  13.685  1.00  0.00     0.171 C 
ENDROOT
BRANCH   1   2
ATOM      2  C   UNL     1      10.302   6.707  15.024  1.00  0.00     0.190 C 
BRANCH   2   3
ATOM      3  O   UNL     1      10.579   5.832  16.086  1.00  0.00    -0.394 OA
ATOM      4  H   UNL     1      11.517   5.529  15.971  1.00  0.00     0.210 HD
ENDBRANCH   2   3
ENDBRANCH   1   2
BRANCH   1   5
ATOM      5  C   UNL     1       9.383   6.713  12.581  1.00  0.00     0.181 C 
BRANCH   5   6
ATOM      6  C   UNL     1      10.282   7.558  11.632  1.00  0.00     0.209 C 
BRANCH   6   7
ATOM      7  C   UNL     1      10.826   8.784  12.311  1.00  0.00     0.258 C 
ATOM      8  O   UNL     1      11.999   8.842  12.643  1.00  0.00    -0.300 OA
ENDBRANCH   6   7
BRANCH   6   9
ATOM      9  O   UNL     1       9.542   7.979  10.513  1.00  0.00    -0.383 OA
ATOM     10  H   UNL     1       9.772   7.371   9.762  1.00  0.00     0.211 HD
ENDBRANCH   6   9
ENDBRANCH   5   6
BRANCH   5  11
ATOM     11  O   UNL     1       8.635   5.786  11.830  1.00  0.00    -0.387 OA
ATOM     12  H   UNL     1       8.603   4.939  12.347  1.00  0.00     0.211 HD
ENDBRANCH   5  11
ENDBRANCH   1   5
BRANCH   1  13
ATOM     13  O   UNL     1       9.617   4.681  13.909  1.00  0.00    -0.388 OA
ATOM     14  H   UNL     1      10.217   4.192  14.531  1.00  0.00     0.211 HD
ENDBRANCH   1  13
TORSDOF 8
ENDMDL
MODEL 2
REMARK VINA RESULT:    -4.331      3.538      4.765
REMARK INTER + INTRA:          -5.873
REMARK INTER:                  -4.933
REMARK INTRA:                  -0.940
REMARK UNBOUND:                -0.024
REMARK SMILES O=C[C@H](O)[C@@H](O)[C@H](O)CO
REMARK SMILES IDX 7 1 9 2 10 3 5 5 3 6 2 7 1 8 4 9 6 11 8 13
REMARK H PARENT 10 4 4 10 6 12 8 14
REMARK Flexibility Score: inf
ROOT
ATOM      1  C   UNL     1      13.033   8.676  13.664  1.00  0.00     0.171 C 
ENDROOT
BRANCH   1   2
ATOM      2  C   UNL     1      13.659   8.537  12.261  1.00  0.00     0.190 C 
BRANCH   2   3
ATOM      3  O   UNL     1      14.095   9.775  11.766  1.00  0.00    -0.394 OA
ATOM      4  H   UNL     1      14.881  10.041  12.309  1.00  0.00     0.210 HD
ENDBRANCH   2   3
ENDBRANCH   1   2
BRANCH   1   5
ATOM      5  C   UNL     1      11.602   9.297  13.678  1.00  0.00     0.181 C 
BRANCH   5   6
ATOM      6  C   UNL     1      11.561  10.763  14.198  1.00  0.00     0.209 C 
BRANCH   6   7
ATOM      7  C   UNL     1      10.154  11.256  14.388  1.00  0.00     0.258 C 
ATOM      8  O   UNL     1       9.213  10.479  14.366  1.00  0.00    -0.300 OA
ENDBRANCH   6   7
BRANCH   6   9
ATOM      9  O   UNL     1      12.197  11.619  13.282  1.00  0.00    -0.383 OA
ATOM     10  H   UNL     1      13.173  11.558  13.451  1.00  0.00     0.211 HD
ENDBRANCH   6   9
ENDBRANCH   5   6
BRANCH   5  11
ATOM     11  O   UNL     1      11.060   9.236  12.379  1.00  0.00    -0.387 OA
ATOM     12  H   UNL     1      10.124   8.915  12.461  1.00  0.00     0.211 HD
ENDBRANCH   5  11
ENDBRANCH   1   5
BRANCH   1  13
ATOM     13  O   UNL     1      13.897   9.410  14.496  1.00  0.00    -0.388 OA
ATOM     14  H   UNL     1      13.419  10.236  14.772  1.00  0.00     0.211 HD
ENDBRANCH   1  13
TORSDOF 8
ENDMDL
MODEL 3
REMARK VINA RESULT:    -4.312      4.292      6.289
REMARK INTER + INTRA:          -5.848
REMARK INTER:                  -5.372
REMARK INTRA:                  -0.476
REMARK UNBOUND:                -0.024
REMARK SMILES O=C[C@H](O)[C@@H](O)[C@H](O)CO
REMARK SMILES IDX 7 1 9 2 10 3 5 5 3 6 2 7 1 8 4 9 6 11 8 13
REMARK H PARENT 10 4 4 10 6 12 8 14
REMARK Flexibility Score: inf
ROOT
ATOM      1  C   UNL     1      11.393  12.212  13.932  1.00  0.00     0.171 C 
ENDROOT
BRANCH   1   2
ATOM      2  C   UNL     1      10.756  13.262  14.866  1.00  0.00     0.190 C 
BRANCH   2   3
ATOM      3  O   UNL     1      10.651  14.513  14.239  1.00  0.00    -0.394 OA
ATOM      4  H   UNL     1      10.542  14.340  13.268  1.00  0.00     0.210 HD
ENDBRANCH   2   3
ENDBRANCH   1   2
BRANCH   1   5
ATOM      5  C   UNL     1      12.426  11.270  14.623  1.00  0.00     0.181 C 
BRANCH   5   6
ATOM      6  C   UNL     1      12.661   9.934  13.862  1.00  0.00     0.209 C 
BRANCH   6   7
ATOM      7  C   UNL     1      14.006   9.893  13.191  1.00  0.00     0.258 C 
ATOM      8  O   UNL     1      15.029   9.801  13.851  1.00  0.00    -0.300 OA
ENDBRANCH   6   7
BRANCH   6   9
ATOM      9  O   UNL     1      11.680   9.763  12.869  1.00  0.00    -0.383 OA
ATOM     10  H   UNL     1      10.968  10.432  13.042  1.00  0.00     0.211 HD
ENDBRANCH   6   9
ENDBRANCH   5   6
BRANCH   5  11
ATOM     11  O   UNL     1      13.647  11.956  14.772  1.00  0.00    -0.387 OA
ATOM     12  H   UNL     1      13.908  11.897  15.729  1.00  0.00     0.211 HD
ENDBRANCH   5  11
ENDBRANCH   1   5
BRANCH   1  13
ATOM     13  O   UNL     1      11.975  12.855  12.825  1.00  0.00    -0.388 OA
ATOM     14  H   UNL     1      11.265  13.383  12.375  1.00  0.00     0.211 HD
ENDBRANCH   1  13
TORSDOF 8
ENDMDL
MODEL 4
REMARK VINA RESULT:    -4.303      3.824      5.159
REMARK INTER + INTRA:          -5.835
REMARK INTER:                  -4.874
REMARK INTRA:                  -0.961
REMARK UNBOUND:                -0.024
REMARK SMILES O=C[C@H](O)[C@@H](O)[C@H](O)CO
REMARK SMILES IDX 7 1 9 2 10 3 5 5 3 6 2 7 1 8 4 9 6 11 8 13
REMARK H PARENT 10 4 4 10 6 12 8 14
REMARK Flexibility Score: inf
ROOT
ATOM      1  C   UNL     1      12.892   8.842  13.600  1.00  0.00     0.171 C 
ENDROOT
BRANCH   1   2
ATOM      2  C   UNL     1      13.494   8.611  12.199  1.00  0.00     0.190 C 
BRANCH   2   3
ATOM      3  O   UNL     1      14.204   9.735  11.751  1.00  0.00    -0.394 OA
ATOM      4  H   UNL     1      14.511   9.533  10.830  1.00  0.00     0.210 HD
ENDBRANCH   2   3
ENDBRANCH   1   2
BRANCH   1   5
ATOM      5  C   UNL     1      11.668   9.809  13.630  1.00  0.00     0.181 C 
BRANCH   5   6
ATOM      6  C   UNL     1      10.893   9.797  14.979  1.00  0.00     0.209 C 
BRANCH   6   7
ATOM      7  C   UNL     1      11.213  10.997  15.826  1.00  0.00     0.258 C 
ATOM      8  O   UNL     1      12.341  11.172  16.257  1.00  0.00    -0.300 OA
ENDBRANCH   6   7
BRANCH   6   9
ATOM      9  O   UNL     1      11.226   8.648  15.718  1.00  0.00    -0.383 OA
ATOM     10  H   UNL     1      10.811   8.744  16.614  1.00  0.00     0.211 HD
ENDBRANCH   6   9
ENDBRANCH   5   6
BRANCH   5  11
ATOM     11  O   UNL     1      12.106  11.117  13.343  1.00  0.00    -0.387 OA
ATOM     12  H   UNL     1      12.683  11.068  12.535  1.00  0.00     0.211 HD
ENDBRANCH   5  11
ENDBRANCH   1   5
BRANCH   1  13
ATOM     13  O   UNL     1      13.895   9.291  14.478  1.00  0.00    -0.388 OA
ATOM     14  H   UNL     1      14.469   9.929  13.979  1.00  0.00     0.211 HD
ENDBRANCH   1  13
TORSDOF 8
ENDMDL
MODEL 5
REMARK VINA RESULT:    -4.298      3.381      4.738
REMARK INTER + INTRA:          -5.829
REMARK INTER:                  -4.894
REMARK INTRA:                  -0.935
REMARK UNBOUND:                -0.024
REMARK SMILES O=C[C@H](O)[C@@H](O)[C@H](O)CO
REMARK SMILES IDX 7 1 9 2 10 3 5 5 3 6 2 7 1 8 4 9 6 11 8 13
REMARK H PARENT 10 4 4 10 6 12 8 14
REMARK Flexibility Score: inf
ROOT
ATOM      1  C   UNL     1      13.319  10.284  15.407  1.00  0.00     0.171 C 
ENDROOT
BRANCH   1   2
ATOM      2  C   UNL     1      13.966  10.146  16.801  1.00  0.00     0.190 C 
BRANCH   2   3
ATOM      3  O   UNL     1      13.043   9.690  17.754  1.00  0.00    -0.394 OA
ATOM      4  H   UNL     1      13.366  10.002  18.639  1.00  0.00     0.210 HD
ENDBRANCH   2   3
ENDBRANCH   1   2
BRANCH   1   5
ATOM      5  C   UNL     1      11.766  10.137  15.395  1.00  0.00     0.181 C 
BRANCH   5   6
ATOM      6  C   UNL     1      11.103  10.605  14.067  1.00  0.00     0.209 C 
BRANCH   6   7
ATOM      7  C   UNL     1      10.744   9.449  13.176  1.00  0.00     0.258 C 
ATOM      8  O   UNL     1      11.614   8.783  12.638  1.00  0.00    -0.300 OA
ENDBRANCH   6   7
BRANCH   6   9
ATOM      9  O   UNL     1      11.984  11.439  13.355  1.00  0.00    -0.383 OA
ATOM     10  H   UNL     1      12.723  10.868  13.018  1.00  0.00     0.211 HD
ENDBRANCH   6   9
ENDBRANCH   5   6
BRANCH   5  11
ATOM     11  O   UNL     1      11.428   8.794  15.649  1.00  0.00    -0.387 OA
ATOM     12  H   UNL     1      10.514   8.643  15.291  1.00  0.00     0.211 HD
ENDBRANCH   5  11
ENDBRANCH   1   5
BRANCH   1  13
ATOM     13  O   UNL     1      13.907   9.366  14.519  1.00  0.00    -0.388 OA
ATOM     14  H   UNL     1      14.732   9.018  14.949  1.00  0.00     0.211 HD
ENDBRANCH   1  13
TORSDOF 8
ENDMDL
MODEL 6
REMARK VINA RESULT:    -4.248      3.216      5.445
REMARK INTER + INTRA:          -5.762
REMARK INTER:                  -4.805
REMARK INTRA:                  -0.957
REMARK UNBOUND:                -0.024
REMARK SMILES O=C[C@H](O)[C@@H](O)[C@H](O)CO
REMARK SMILES IDX 7 1 9 2 10 3 5 5 3 6 2 7 1 8 4 9 6 11 8 13
REMARK H PARENT 10 4 4 10 6 12 8 14
REMARK Flexibility Score: inf
ROOT
ATOM      1  C   UNL     1      11.279  11.505  14.689  1.00  0.00     0.171 C 
ENDROOT
BRANCH   1   2
ATOM      2  C   UNL     1      12.036  12.748  14.177  1.00  0.00     0.190 C 
BRANCH   2   3
ATOM      3  O   UNL     1      11.883  12.909  12.791  1.00  0.00    -0.394 OA
ATOM      4  H   UNL     1      12.640  12.432  12.362  1.00  0.00     0.210 HD
ENDBRANCH   2   3
ENDBRANCH   1   2
BRANCH   1   5
ATOM      5  C   UNL     1      11.884  10.142  14.231  1.00  0.00     0.181 C 
BRANCH   5   6
ATOM      6  C   UNL     1      11.368   8.922  15.047  1.00  0.00     0.209 C 
BRANCH   6   7
ATOM      7  C   UNL     1      10.357   8.116  14.281  1.00  0.00     0.258 C 
ATOM      8  O   UNL     1       9.289   8.607  13.952  1.00  0.00    -0.300 OA
ENDBRANCH   6   7
BRANCH   6   9
ATOM      9  O   UNL     1      10.758   9.359  16.237  1.00  0.00    -0.383 OA
ATOM     10  H   UNL     1      11.227   8.914  16.989  1.00  0.00     0.211 HD
ENDBRANCH   6   9
ENDBRANCH   5   6
BRANCH   5  11
ATOM     11  O   UNL     1      11.609   9.952  12.863  1.00  0.00    -0.387 OA
ATOM     12  H   UNL     1      11.539  10.850  12.445  1.00  0.00     0.211 HD
ENDBRANCH   5  11
ENDBRANCH   1   5
BRANCH   1  13
ATOM     13  O   UNL     1       9.924  11.591  14.322  1.00  0.00    -0.388 OA
ATOM     14  H   UNL     1       9.538  12.383  14.779  1.00  0.00     0.211 HD
ENDBRANCH   1  13
TORSDOF 8
ENDMDL
MODEL 7
REMARK VINA RESULT:    -4.238      3.222      4.947
REMARK INTER + INTRA:          -5.748
REMARK INTER:                  -4.779
REMARK INTRA:                  -0.969
REMARK UNBOUND:                -0.024
REMARK SMILES O=C[C@H](O)[C@@H](O)[C@H](O)CO
REMARK SMILES IDX 7 1 9 2 10 3 5 5 3 6 2 7 1 8 4 9 6 11 8 13
REMARK H PARENT 10 4 4 10 6 12 8 14
REMARK Flexibility Score: inf
ROOT
ATOM      1  C   UNL     1      13.619   8.645  12.607  1.00  0.00     0.171 C 
ENDROOT
BRANCH   1   2
ATOM      2  C   UNL     1      12.499   7.864  11.889  1.00  0.00     0.190 C 
BRANCH   2   3
ATOM      3  O   UNL     1      11.341   8.642  11.744  1.00  0.00    -0.394 OA
ATOM      4  H   UNL     1      10.679   8.297  12.398  1.00  0.00     0.210 HD
ENDBRANCH   2   3
ENDBRANCH   1   2
BRANCH   1   5
ATOM      5  C   UNL     1      13.229   9.196  14.013  1.00  0.00     0.181 C 
BRANCH   5   6
ATOM      6  C   UNL     1      13.014  10.736  14.044  1.00  0.00     0.209 C 
BRANCH   6   7
ATOM      7  C   UNL     1      12.829  11.254  15.443  1.00  0.00     0.258 C 
ATOM      8  O   UNL     1      11.887  10.881  16.125  1.00  0.00    -0.300 OA
ENDBRANCH   6   7
BRANCH   6   9
ATOM      9  O   UNL     1      11.870  11.080  13.303  1.00  0.00    -0.383 OA
ATOM     10  H   UNL     1      12.175  11.601  12.515  1.00  0.00     0.211 HD
ENDBRANCH   6   9
ENDBRANCH   5   6
BRANCH   5  11
ATOM     11  O   UNL     1      12.063   8.542  14.457  1.00  0.00    -0.387 OA
ATOM     12  H   UNL     1      11.597   9.156  15.083  1.00  0.00     0.211 HD
ENDBRANCH   5  11
ENDBRANCH   1   5
BRANCH   1  13
ATOM     13  O   UNL     1      14.076   9.686  11.779  1.00  0.00    -0.388 OA
ATOM     14  H   UNL     1      13.315  10.307  11.629  1.00  0.00     0.211 HD
ENDBRANCH   1  13
TORSDOF 8
ENDMDL
MODEL 8
REMARK VINA RESULT:    -4.219      4.343      5.507
REMARK INTER + INTRA:          -5.723
REMARK INTER:                  -4.791
REMARK INTRA:                  -0.931
REMARK UNBOUND:                -0.024
REMARK SMILES O=C[C@H](O)[C@@H](O)[C@H](O)CO
REMARK SMILES IDX 7 1 9 2 10 3 5 5 3 6 2 7 1 8 4 9 6 11 8 13
REMARK H PARENT 10 4 4 10 6 12 8 14
REMARK Flexibility Score: inf
ROOT
ATOM      1  C   UNL     1      13.952   9.258  13.090  1.00  0.00     0.171 C 
ENDROOT
BRANCH   1   2
ATOM      2  C   UNL     1      15.384   8.997  12.581  1.00  0.00     0.190 C 
BRANCH   2   3
ATOM      3  O   UNL     1      16.346   9.370  13.533  1.00  0.00    -0.394 OA
ATOM      4  H   UNL     1      16.637  10.290  13.302  1.00  0.00     0.210 HD
ENDBRANCH   2   3
ENDBRANCH   1   2
BRANCH   1   5
ATOM      5  C   UNL     1      13.843  10.367  14.182  1.00  0.00     0.181 C 
BRANCH   5   6
ATOM      6  C   UNL     1      12.405  10.935  14.356  1.00  0.00     0.209 C 
BRANCH   6   7
ATOM      7  C   UNL     1      11.719  10.375  15.570  1.00  0.00     0.258 C 
ATOM      8  O   UNL     1      11.441   9.188  15.637  1.00  0.00    -0.300 OA
ENDBRANCH   6   7
BRANCH   6   9
ATOM      9  O   UNL     1      11.620  10.616  13.233  1.00  0.00    -0.383 OA
ATOM     10  H   UNL     1      11.414  11.468  12.767  1.00  0.00     0.211 HD
ENDBRANCH   6   9
ENDBRANCH   5   6
BRANCH   5  11
ATOM     11  O   UNL     1      14.305   9.854  15.409  1.00  0.00    -0.387 OA
ATOM     12  H   UNL     1      13.690   9.122  15.677  1.00  0.00     0.211 HD
ENDBRANCH   5  11
ENDBRANCH   1   5
BRANCH   1  13
ATOM     13  O   UNL     1      13.387   8.056  13.552  1.00  0.00    -0.388 OA
ATOM     14  H   UNL     1      12.569   7.882  13.017  1.00  0.00     0.211 HD
ENDBRANCH   1  13
TORSDOF 8
ENDMDL
MODEL 9
REMARK VINA RESULT:    -4.138      2.239      4.535
REMARK INTER + INTRA:          -5.614
REMARK INTER:                  -4.641
REMARK INTRA:                  -0.973
REMARK UNBOUND:                -0.024
REMARK SMILES O=C[C@H](O)[C@@H](O)[C@H](O)CO
REMARK SMILES IDX 7 1 9 2 10 3 5 5 3 6 2 7 1 8 4 9 6 11 8 13
REMARK H PARENT 10 4 4 10 6 12 8 14
REMARK Flexibility Score: inf
ROOT
ATOM      1  C   UNL     1      13.019   9.991  13.865  1.00  0.00     0.171 C 
ENDROOT
BRANCH   1   2
ATOM      2  C   UNL     1      14.316   9.695  13.085  1.00  0.00     0.190 C 
BRANCH   2   3
ATOM      3  O   UNL     1      14.055   9.435  11.731  1.00  0.00    -0.394 OA
ATOM      4  H   UNL     1      14.004  10.314  11.274  1.00  0.00     0.210 HD
ENDBRANCH   2   3
ENDBRANCH   1   2
BRANCH   1   5
ATOM      5  C   UNL     1      12.050   8.776  14.000  1.00  0.00     0.181 C 
BRANCH   5   6
ATOM      6  C   UNL     1      10.745   8.920  13.166  1.00  0.00     0.209 C 
BRANCH   6   7
ATOM      7  C   UNL     1       9.733   7.864  13.512  1.00  0.00     0.258 C 
ATOM      8  O   UNL     1       9.970   7.032  14.373  1.00  0.00    -0.300 OA
ENDBRANCH   6   7
BRANCH   6   9
ATOM      9  O   UNL     1      11.032   8.807  11.794  1.00  0.00    -0.383 OA
ATOM     10  H   UNL     1      10.539   9.532  11.330  1.00  0.00     0.211 HD
ENDBRANCH   6   9
ENDBRANCH   5   6
BRANCH   5  11
ATOM     11  O   UNL     1      12.729   7.601  13.624  1.00  0.00    -0.387 OA
ATOM     12  H   UNL     1      13.681   7.841  13.471  1.00  0.00     0.211 HD
ENDBRANCH   5  11
ENDBRANCH   1   5
BRANCH   1  13
ATOM     13  O   UNL     1      12.357  11.087  13.284  1.00  0.00    -0.388 OA
ATOM     14  H   UNL     1      12.936  11.885  13.399  1.00  0.00     0.211 HD
ENDBRANCH   1  13
TORSDOF 8
ENDMDL
