MODEL 1
REMARK VINA RESULT:    -3.710      0.000      0.000
REMARK INTER + INTRA:          -6.150
REMARK INTER:                  -5.662
REMARK INTRA:                  -0.488
REMARK UNBOUND:                -0.488
REMARK SMILES C=CCCCCCCCCCC
REMARK SMILES IDX 7 1 8 2 9 3 10 4 11 5 12 6 6 7 5 8 4 9 3 10 2 11 1 12
REMARK H PARENT
REMARK Flexibility Score: inf
ROOT
ATOM      1  C   UNL     1     -15.471  -1.409  17.623  1.00  0.00     0.000 C 
ENDROOT
BRANCH   1   2
ATOM      2  C   UNL     1     -15.140  -2.115  16.296  1.00  0.00    -0.000 C 
BRANCH   2   3
ATOM      3  C   UNL     1     -13.719  -2.703  16.278  1.00  0.00    -0.000 C 
BRANCH   3   4
ATOM      4  C   UNL     1     -13.696  -4.181  15.850  1.00  0.00    -0.000 C 
BRANCH   4   5
ATOM      5  C   UNL     1     -15.098  -4.724  15.537  1.00  0.00    -0.003 C 
ATOM      6  C   UNL     1     -15.084  -6.189  15.099  1.00  0.00     0.004 C 
ENDBRANCH   4   5
ENDBRANCH   3   4
ENDBRANCH   2   3
ENDBRANCH   1   2
BRANCH   1   7
ATOM      7  C   UNL     1     -15.479  -2.374  18.818  1.00  0.00     0.000 C 
BRANCH   7   8
ATOM      8  C   UNL     1     -14.237  -2.220  19.714  1.00  0.00     0.000 C 
BRANCH   8   9
ATOM      9  C   UNL     1     -14.587  -2.219  21.211  1.00  0.00     0.004 C 
BRANCH   9  10
ATOM     10  C   UNL     1     -13.416  -1.750  22.089  1.00  0.00     0.027 C 
BRANCH  10  11
ATOM     11  C   UNL     1     -13.904  -1.257  23.425  1.00  0.00    -0.035 C 
ATOM     12  C   UNL     1     -15.032  -0.551  23.545  1.00  0.00     0.004 C 
ENDBRANCH  10  11
ENDBRANCH   9  10
ENDBRANCH   8   9
ENDBRANCH   7   8
ENDBRANCH   1   7
TORSDOF 9
ENDMDL
MODEL 2
REMARK VINA RESULT:    -3.474      1.575      6.081
REMARK INTER + INTRA:          -5.790
REMARK INTER:                  -5.207
REMARK INTRA:                  -0.584
REMARK UNBOUND:                -0.488
REMARK SMILES C=CCCCCCCCCCC
REMARK SMILES IDX 7 1 8 2 9 3 10 4 11 5 12 6 6 7 5 8 4 9 3 10 2 11 1 12
REMARK H PARENT
REMARK Flexibility Score: inf
ROOT
ATOM      1  C   UNL     1     -13.652  -2.340  19.110  1.00  0.00     0.000 C 
ENDROOT
BRANCH   1   2
ATOM      2  C   UNL     1     -15.043  -2.397  19.764  1.00  0.00    -0.000 C 
BRANCH   2   3
ATOM      3  C   UNL     1     -14.980  -2.291  21.297  1.00  0.00    -0.000 C 
BRANCH   3   4
ATOM      4  C   UNL     1     -13.562  -1.981  21.810  1.00  0.00    -0.000 C 
BRANCH   4   5
ATOM      5  C   UNL     1     -13.571  -1.296  23.185  1.00  0.00    -0.003 C 
ATOM      6  C   UNL     1     -14.929  -0.691  23.538  1.00  0.00     0.004 C 
ENDBRANCH   4   5
ENDBRANCH   3   4
ENDBRANCH   2   3
ENDBRANCH   1   2
BRANCH   1   7
ATOM      7  C   UNL     1     -13.714  -2.466  17.579  1.00  0.00     0.000 C 
BRANCH   7   8
ATOM      8  C   UNL     1     -15.037  -3.078  17.088  1.00  0.00     0.000 C 
BRANCH   8   9
ATOM      9  C   UNL     1     -15.504  -2.478  15.752  1.00  0.00     0.004 C 
BRANCH   9  10
ATOM     10  C   UNL     1     -16.693  -1.518  15.920  1.00  0.00     0.027 C 
BRANCH  10  11
ATOM     11  C   UNL     1     -16.552  -0.695  17.171  1.00  0.00    -0.035 C 
ATOM     12  C   UNL     1     -16.871   0.602  17.200  1.00  0.00     0.004 C 
ENDBRANCH  10  11
ENDBRANCH   9  10
ENDBRANCH   8   9
ENDBRANCH   7   8
ENDBRANCH   1   7
TORSDOF 9
ENDMDL
MODEL 3
REMARK VINA RESULT:    -3.368      1.544      2.873
REMARK INTER + INTRA:          -5.627
REMARK INTER:                  -5.253
REMARK INTRA:                  -0.374
REMARK UNBOUND:                -0.488
REMARK SMILES C=CCCCCCCCCCC
REMARK SMILES IDX 7 1 8 2 9 3 10 4 11 5 12 6 6 7 5 8 4 9 3 10 2 11 1 12
REMARK H PARENT
REMARK Flexibility Score: inf
ROOT
ATOM      1  C   UNL     1     -13.780  -2.389  18.291  1.00  0.00     0.000 C 
ENDROOT
BRANCH   1   2
ATOM      2  C   UNL     1     -13.967  -2.423  16.764  1.00  0.00    -0.000 C 
BRANCH   2   3
ATOM      3  C   UNL     1     -15.405  -2.781  16.353  1.00  0.00    -0.000 C 
BRANCH   3   4
ATOM      4  C   UNL     1     -16.201  -1.559  15.861  1.00  0.00    -0.000 C 
BRANCH   4   5
ATOM      5  C   UNL     1     -16.922  -0.828  17.004  1.00  0.00    -0.003 C 
ATOM      6  C   UNL     1     -16.479   0.627  17.151  1.00  0.00     0.004 C 
ENDBRANCH   4   5
ENDBRANCH   3   4
ENDBRANCH   2   3
ENDBRANCH   1   2
BRANCH   1   7
ATOM      7  C   UNL     1     -15.116  -2.378  19.049  1.00  0.00     0.000 C 
BRANCH   7   8
ATOM      8  C   UNL     1     -14.932  -2.329  20.576  1.00  0.00     0.000 C 
BRANCH   8   9
ATOM      9  C   UNL     1     -13.492  -1.978  20.984  1.00  0.00     0.004 C 
BRANCH   9  10
ATOM     10  C   UNL     1     -13.373  -1.611  22.472  1.00  0.00     0.027 C 
BRANCH  10  11
ATOM     11  C   UNL     1     -14.731  -1.428  23.095  1.00  0.00    -0.035 C 
ATOM     12  C   UNL     1     -15.049  -0.323  23.776  1.00  0.00     0.004 C 
ENDBRANCH  10  11
ENDBRANCH   9  10
ENDBRANCH   8   9
ENDBRANCH   7   8
ENDBRANCH   1   7
TORSDOF 9
ENDMDL
MODEL 4
REMARK VINA RESULT:    -3.049      1.669      5.959
REMARK INTER + INTRA:          -5.141
REMARK INTER:                  -4.481
REMARK INTRA:                  -0.660
REMARK UNBOUND:                -0.488
REMARK SMILES C=CCCCCCCCCCC
REMARK SMILES IDX 7 1 8 2 9 3 10 4 11 5 12 6 6 7 5 8 4 9 3 10 2 11 1 12
REMARK H PARENT
REMARK Flexibility Score: inf
ROOT
ATOM      1  C   UNL     1     -13.989  -2.401  18.128  1.00  0.00     0.000 C 
ENDROOT
BRANCH   1   2
ATOM      2  C   UNL     1     -14.776  -2.208  19.436  1.00  0.00    -0.000 C 
BRANCH   2   3
ATOM      3  C   UNL     1     -13.865  -2.190  20.675  1.00  0.00    -0.000 C 
BRANCH   3   4
ATOM      4  C   UNL     1     -14.661  -2.160  21.993  1.00  0.00    -0.000 C 
BRANCH   4   5
ATOM      5  C   UNL     1     -14.038  -1.218  23.034  1.00  0.00    -0.003 C 
ATOM      6  C   UNL     1     -15.082  -0.400  23.794  1.00  0.00     0.004 C 
ENDBRANCH   4   5
ENDBRANCH   3   4
ENDBRANCH   2   3
ENDBRANCH   1   2
BRANCH   1   7
ATOM      7  C   UNL     1     -14.895  -2.781  16.946  1.00  0.00     0.000 C 
BRANCH   7   8
ATOM      8  C   UNL     1     -15.478  -1.552  16.226  1.00  0.00     0.000 C 
BRANCH   8   9
ATOM      9  C   UNL     1     -16.888  -1.194  16.722  1.00  0.00     0.004 C 
BRANCH   9  10
ATOM     10  C   UNL     1     -17.002   0.273  17.166  1.00  0.00     0.027 C 
BRANCH  10  11
ATOM     11  C   UNL     1     -15.644   0.869  17.423  1.00  0.00    -0.035 C 
ATOM     12  C   UNL     1     -15.483   2.172  17.670  1.00  0.00     0.004 C 
ENDBRANCH  10  11
ENDBRANCH   9  10
ENDBRANCH   8   9
ENDBRANCH   7   8
ENDBRANCH   1   7
TORSDOF 9
ENDMDL
MODEL 5
REMARK VINA RESULT:    -2.786      1.094      6.467
REMARK INTER + INTRA:          -4.739
REMARK INTER:                  -4.270
REMARK INTRA:                  -0.469
REMARK UNBOUND:                -0.488
REMARK SMILES C=CCCCCCCCCCC
REMARK SMILES IDX 7 1 8 2 9 3 10 4 11 5 12 6 6 7 5 8 4 9 3 10 2 11 1 12
REMARK H PARENT
REMARK Flexibility Score: inf
ROOT
ATOM      1  C   UNL     1     -14.198  -2.010  19.138  1.00  0.00     0.000 C 
ENDROOT
BRANCH   1   2
ATOM      2  C   UNL     1     -14.113  -2.457  20.608  1.00  0.00    -0.000 C 
BRANCH   2   3
ATOM      3  C   UNL     1     -13.065  -1.664  21.407  1.00  0.00    -0.000 C 
BRANCH   3   4
ATOM      4  C   UNL     1     -13.408  -1.571  22.904  1.00  0.00    -0.000 C 
BRANCH   4   5
ATOM      5  C   UNL     1     -14.907  -1.342  23.150  1.00  0.00    -0.003 C 
ATOM      6  C   UNL     1     -15.197  -0.024  23.868  1.00  0.00     0.004 C 
ENDBRANCH   4   5
ENDBRANCH   3   4
ENDBRANCH   2   3
ENDBRANCH   1   2
BRANCH   1   7
ATOM      7  C   UNL     1     -15.632  -2.065  18.587  1.00  0.00     0.000 C 
BRANCH   7   8
ATOM      8  C   UNL     1     -15.798  -1.259  17.287  1.00  0.00     0.000 C 
BRANCH   8   9
ATOM      9  C   UNL     1     -15.731  -2.146  16.032  1.00  0.00     0.004 C 
BRANCH   9  10
ATOM     10  C   UNL     1     -15.220  -3.562  16.338  1.00  0.00     0.027 C 
BRANCH  10  11
ATOM     11  C   UNL     1     -13.850  -3.782  15.757  1.00  0.00    -0.035 C 
ATOM     12  C   UNL     1     -12.816  -2.997  16.076  1.00  0.00     0.004 C 
ENDBRANCH  10  11
ENDBRANCH   9  10
ENDBRANCH   8   9
ENDBRANCH   7   8
ENDBRANCH   1   7
TORSDOF 9
ENDMDL
MODEL 6
REMARK VINA RESULT:    -2.276      1.101      6.065
REMARK INTER + INTRA:          -3.961
REMARK INTER:                  -3.342
REMARK INTRA:                  -0.619
REMARK UNBOUND:                -0.488
REMARK SMILES C=CCCCCCCCCCC
REMARK SMILES IDX 7 1 8 2 9 3 10 4 11 5 12 6 6 7 5 8 4 9 3 10 2 11 1 12
REMARK H PARENT
REMARK Flexibility Score: inf
ROOT
ATOM      1  C   UNL     1     -15.223  -1.040  18.042  1.00  0.00     0.000 C 
ENDROOT
BRANCH   1   2
ATOM      2  C   UNL     1     -15.397  -2.196  19.043  1.00  0.00    -0.000 C 
BRANCH   2   3
ATOM      3  C   UNL     1     -14.436  -2.091  20.239  1.00  0.00    -0.000 C 
BRANCH   3   4
ATOM      4  C   UNL     1     -15.102  -2.486  21.569  1.00  0.00    -0.000 C 
BRANCH   4   5
ATOM      5  C   UNL     1     -14.718  -1.546  22.721  1.00  0.00    -0.003 C 
ATOM      6  C   UNL     1     -13.268  -1.068  22.639  1.00  0.00     0.004 C 
ENDBRANCH   4   5
ENDBRANCH   3   4
ENDBRANCH   2   3
ENDBRANCH   1   2
BRANCH   1   7
ATOM      7  C   UNL     1     -16.526  -0.697  17.304  1.00  0.00     0.000 C 
BRANCH   7   8
ATOM      8  C   UNL     1     -16.777  -1.607  16.088  1.00  0.00     0.000 C 
BRANCH   8   9
ATOM      9  C   UNL     1     -15.476  -2.180  15.504  1.00  0.00     0.004 C 
BRANCH   9  10
ATOM     10  C   UNL     1     -15.299  -3.676  15.813  1.00  0.00     0.027 C 
BRANCH  10  11
ATOM     11  C   UNL     1     -13.849  -4.019  16.019  1.00  0.00    -0.035 C 
ATOM     12  C   UNL     1     -12.948  -3.093  16.359  1.00  0.00     0.004 C 
ENDBRANCH  10  11
ENDBRANCH   9  10
ENDBRANCH   8   9
ENDBRANCH   7   8
ENDBRANCH   1   7
TORSDOF 9
ENDMDL
MODEL 7
REMARK VINA RESULT:    -1.393      0.569      6.739
REMARK INTER + INTRA:          -2.614
REMARK INTER:                  -2.133
REMARK INTRA:                  -0.481
REMARK UNBOUND:                -0.488
REMARK SMILES C=CCCCCCCCCCC
REMARK SMILES IDX 7 1 8 2 9 3 10 4 11 5 12 6 6 7 5 8 4 9 3 10 2 11 1 12
REMARK H PARENT
REMARK Flexibility Score: inf
ROOT
ATOM      1  C   UNL     1     -15.377  -1.871  18.613  1.00  0.00     0.000 C 
ENDROOT
BRANCH   1   2
ATOM      2  C   UNL     1     -14.254  -2.365  19.542  1.00  0.00    -0.000 C 
BRANCH   2   3
ATOM      3  C   UNL     1     -14.676  -2.381  21.021  1.00  0.00    -0.000 C 
BRANCH   3   4
ATOM      4  C   UNL     1     -13.492  -2.143  21.975  1.00  0.00    -0.000 C 
BRANCH   4   5
ATOM      5  C   UNL     1     -13.671  -0.879  22.830  1.00  0.00    -0.003 C 
ATOM      6  C   UNL     1     -15.024  -0.829  23.540  1.00  0.00     0.004 C 
ENDBRANCH   4   5
ENDBRANCH   3   4
ENDBRANCH   2   3
ENDBRANCH   1   2
BRANCH   1   7
ATOM      7  C   UNL     1     -14.977  -1.914  17.130  1.00  0.00     0.000 C 
BRANCH   7   8
ATOM      8  C   UNL     1     -13.697  -2.733  16.884  1.00  0.00     0.000 C 
BRANCH   8   9
ATOM      9  C   UNL     1     -13.888  -3.814  15.808  1.00  0.00     0.004 C 
BRANCH   9  10
ATOM     10  C   UNL     1     -15.294  -4.435  15.838  1.00  0.00     0.027 C 
BRANCH  10  11
ATOM     11  C   UNL     1     -15.399  -5.586  14.875  1.00  0.00    -0.035 C 
ATOM     12  C   UNL     1     -14.910  -6.794  15.167  1.00  0.00     0.004 C 
ENDBRANCH  10  11
ENDBRANCH   9  10
ENDBRANCH   8   9
ENDBRANCH   7   8
ENDBRANCH   1   7
TORSDOF 9
ENDMDL
MODEL 8
REMARK VINA RESULT:    -0.950      2.609      5.920
REMARK INTER + INTRA:          -1.938
REMARK INTER:                  -1.896
REMARK INTRA:                  -0.042
REMARK UNBOUND:                -0.488
REMARK SMILES C=CCCCCCCCCCC
REMARK SMILES IDX 7 1 8 2 9 3 10 4 11 5 12 6 6 7 5 8 4 9 3 10 2 11 1 12
REMARK H PARENT
REMARK Flexibility Score: inf
ROOT
ATOM      1  C   UNL     1     -13.993  -2.373  18.542  1.00  0.00     0.000 C 
ENDROOT
BRANCH   1   2
ATOM      2  C   UNL     1     -15.491  -2.048  18.405  1.00  0.00    -0.000 C 
BRANCH   2   3
ATOM      3  C   UNL     1     -15.741  -0.606  17.934  1.00  0.00    -0.000 C 
BRANCH   3   4
ATOM      4  C   UNL     1     -16.883  -0.511  16.905  1.00  0.00    -0.000 C 
BRANCH   4   5
ATOM      5  C   UNL     1     -16.523  -1.169  15.565  1.00  0.00    -0.003 C 
ATOM      6  C   UNL     1     -17.349  -2.422  15.277  1.00  0.00     0.004 C 
ENDBRANCH   4   5
ENDBRANCH   3   4
ENDBRANCH   2   3
ENDBRANCH   1   2
BRANCH   1   7
ATOM      7  C   UNL     1     -13.370  -2.852  17.221  1.00  0.00     0.000 C 
BRANCH   7   8
ATOM      8  C   UNL     1     -14.427  -3.270  16.184  1.00  0.00     0.000 C 
BRANCH   8   9
ATOM      9  C   UNL     1     -14.125  -4.639  15.554  1.00  0.00     0.004 C 
BRANCH   9  10
ATOM     10  C   UNL     1     -15.400  -5.445  15.257  1.00  0.00     0.027 C 
BRANCH  10  11
ATOM     11  C   UNL     1     -15.068  -6.862  14.875  1.00  0.00    -0.035 C 
ATOM     12  C   UNL     1     -14.333  -7.650  15.665  1.00  0.00     0.004 C 
ENDBRANCH  10  11
ENDBRANCH   9  10
ENDBRANCH   8   9
ENDBRANCH   7   8
ENDBRANCH   1   7
TORSDOF 9
ENDMDL
