MODEL 1
REMARK VINA RESULT:    -4.479      0.000      0.000
REMARK INTER + INTRA:          -7.026
REMARK INTER:                  -6.573
REMARK INTRA:                  -0.453
REMARK UNBOUND:                -0.453
REMARK SMILES O=C([O-])CCCCCCCC(=O)[O-]
REMARK SMILES IDX 7 1 6 2 5 3 4 4 2 5 1 6 3 7 8 8 9 9 10 10 11 11 12 12 13 13
REMARK H PARENT
REMARK Flexibility Score: inf
ROOT
ATOM      1  C   UNL     1      -6.086   9.369  -7.890  1.00  0.00     0.000 C 
ENDROOT
BRANCH   1   2
ATOM      2  C   UNL     1      -5.629  10.470  -8.861  1.00  0.00     0.000 C 
BRANCH   2   3
ATOM      3  C   UNL     1      -4.100  10.609  -8.927  1.00  0.00     0.006 C 
BRANCH   3   4
ATOM      4  C   UNL     1      -3.656  11.998  -8.460  1.00  0.00     0.053 C 
BRANCH   4   5
ATOM      5  C   UNL     1      -3.423  12.005  -6.982  1.00  0.00     0.041 C 
ATOM      6  O   UNL     1      -2.332  11.586  -6.511  1.00  0.00    -0.550 OA
ATOM      7  O   UNL     1      -4.389  12.520  -6.128  1.00  0.00    -0.550 OA
ENDBRANCH   4   5
ENDBRANCH   3   4
ENDBRANCH   2   3
ENDBRANCH   1   2
BRANCH   1   8
ATOM      8  C   UNL     1      -6.619   9.935  -6.563  1.00  0.00     0.000 C 
BRANCH   8   9
ATOM      9  C   UNL     1      -8.152   9.881  -6.473  1.00  0.00     0.006 C 
BRANCH   9  10
ATOM     10  C   UNL     1      -8.646   9.008  -5.312  1.00  0.00     0.053 C 
BRANCH  10  11
ATOM     11  C   UNL     1      -9.291   7.762  -5.833  1.00  0.00     0.041 C 
ATOM     12  O   UNL     1     -10.125   7.138  -5.126  1.00  0.00    -0.550 OA
ATOM     13  O   UNL     1      -9.008   7.318  -7.118  1.00  0.00    -0.550 OA
ENDBRANCH  10  11
ENDBRANCH   9  10
ENDBRANCH   8   9
ENDBRANCH   1   8
TORSDOF 8
ENDMDL
MODEL 2
REMARK VINA RESULT:    -4.445      0.457      6.342
REMARK INTER + INTRA:          -6.977
REMARK INTER:                  -6.549
REMARK INTRA:                  -0.427
REMARK UNBOUND:                -0.453
REMARK SMILES O=C([O-])CCCCCCCC(=O)[O-]
REMARK SMILES IDX 7 1 6 2 5 3 4 4 2 5 1 6 3 7 8 8 9 9 10 10 11 11 12 12 13 13
REMARK H PARENT
REMARK Flexibility Score: inf
ROOT
ATOM      1  C   UNL     1      -6.193   9.376  -7.934  1.00  0.00     0.000 C 
ENDROOT
BRANCH   1   2
ATOM      2  C   UNL     1      -7.157  10.096  -6.976  1.00  0.00     0.000 C 
BRANCH   2   3
ATOM      3  C   UNL     1      -7.592   9.214  -5.797  1.00  0.00     0.006 C 
BRANCH   3   4
ATOM      4  C   UNL     1      -9.118   9.106  -5.728  1.00  0.00     0.053 C 
BRANCH   4   5
ATOM      5  C   UNL     1      -9.556   7.697  -5.977  1.00  0.00     0.041 C 
ATOM      6  O   UNL     1     -10.125   7.040  -5.065  1.00  0.00    -0.550 OA
ATOM      7  O   UNL     1      -9.380   7.125  -7.230  1.00  0.00    -0.550 OA
ENDBRANCH   4   5
ENDBRANCH   3   4
ENDBRANCH   2   3
ENDBRANCH   1   2
BRANCH   1   8
ATOM      8  C   UNL     1      -5.640  10.308  -9.026  1.00  0.00     0.000 C 
BRANCH   8   9
ATOM      9  C   UNL     1      -4.117  10.487  -8.931  1.00  0.00     0.006 C 
BRANCH   9  10
ATOM     10  C   UNL     1      -3.713  11.877  -8.422  1.00  0.00     0.053 C 
BRANCH  10  11
ATOM     11  C   UNL     1      -3.467  11.842  -6.947  1.00  0.00     0.041 C 
ATOM     12  O   UNL     1      -2.311  11.614  -6.504  1.00  0.00    -0.550 OA
ATOM     13  O   UNL     1      -4.503  12.112  -6.062  1.00  0.00    -0.550 OA
ENDBRANCH  10  11
ENDBRANCH   9  10
ENDBRANCH   8   9
ENDBRANCH   1   8
TORSDOF 8
ENDMDL
MODEL 3
REMARK VINA RESULT:    -4.349     17.729     18.738
REMARK INTER + INTRA:          -6.836
REMARK INTER:                  -6.115
REMARK INTRA:                  -0.721
REMARK UNBOUND:                -0.453
REMARK SMILES O=C([O-])CCCCCCCC(=O)[O-]
REMARK SMILES IDX 7 1 6 2 5 3 4 4 2 5 1 6 3 7 8 8 9 9 10 10 11 11 12 12 13 13
REMARK H PARENT
REMARK Flexibility Score: inf
ROOT
ATOM      1  C   UNL     1       6.929  11.832   8.489  1.00  0.00     0.000 C 
ENDROOT
BRANCH   1   2
ATOM      2  C   UNL     1       7.442  10.856   7.416  1.00  0.00     0.000 C 
BRANCH   2   3
ATOM      3  C   UNL     1       6.400  10.573   6.323  1.00  0.00     0.006 C 
BRANCH   3   4
ATOM      4  C   UNL     1       7.057  10.524   4.941  1.00  0.00     0.053 C 
BRANCH   4   5
ATOM      5  C   UNL     1       7.236  11.906   4.396  1.00  0.00     0.041 C 
ATOM      6  O   UNL     1       6.398  12.807   4.667  1.00  0.00    -0.550 OA
ATOM      7  O   UNL     1       8.353  12.212   3.630  1.00  0.00    -0.550 OA
ENDBRANCH   4   5
ENDBRANCH   3   4
ENDBRANCH   2   3
ENDBRANCH   1   2
BRANCH   1   8
ATOM      8  C   UNL     1       5.577  12.463   8.116  1.00  0.00     0.000 C 
BRANCH   8   9
ATOM      9  C   UNL     1       4.544  12.356   9.248  1.00  0.00     0.006 C 
BRANCH   9  10
ATOM     10  C   UNL     1       4.391  10.924   9.778  1.00  0.00     0.053 C 
BRANCH  10  11
ATOM     11  C   UNL     1       3.702  10.064   8.765  1.00  0.00     0.041 C 
ATOM     12  O   UNL     1       4.085   8.880   8.576  1.00  0.00    -0.550 OA
ATOM     13  O   UNL     1       2.605  10.553   8.067  1.00  0.00    -0.550 OA
ENDBRANCH  10  11
ENDBRANCH   9  10
ENDBRANCH   8   9
ENDBRANCH   1   8
TORSDOF 8
ENDMDL
MODEL 4
REMARK VINA RESULT:    -4.292     17.755     19.332
REMARK INTER + INTRA:          -6.752
REMARK INTER:                  -6.013
REMARK INTRA:                  -0.739
REMARK UNBOUND:                -0.453
REMARK SMILES O=C([O-])CCCCCCCC(=O)[O-]
REMARK SMILES IDX 7 1 6 2 5 3 4 4 2 5 1 6 3 7 8 8 9 9 10 10 11 11 12 12 13 13
REMARK H PARENT
REMARK Flexibility Score: inf
ROOT
ATOM      1  C   UNL     1       7.013  11.841   8.320  1.00  0.00     0.000 C 
ENDROOT
BRANCH   1   2
ATOM      2  C   UNL     1       5.640  12.407   7.921  1.00  0.00     0.000 C 
BRANCH   2   3
ATOM      3  C   UNL     1       4.630  12.390   9.078  1.00  0.00     0.006 C 
BRANCH   3   4
ATOM      4  C   UNL     1       4.474  10.977   9.647  1.00  0.00     0.053 C 
BRANCH   4   5
ATOM      5  C   UNL     1       3.784  10.088   8.660  1.00  0.00     0.041 C 
ATOM      6  O   UNL     1       4.224   8.930   8.434  1.00  0.00    -0.550 OA
ATOM      7  O   UNL     1       2.625  10.520   8.027  1.00  0.00    -0.550 OA
ENDBRANCH   4   5
ENDBRANCH   3   4
ENDBRANCH   2   3
ENDBRANCH   1   2
BRANCH   1   8
ATOM      8  C   UNL     1       7.581  10.873   7.269  1.00  0.00     0.000 C 
BRANCH   8   9
ATOM      9  C   UNL     1       6.551  10.501   6.191  1.00  0.00     0.006 C 
BRANCH   9  10
ATOM     10  C   UNL     1       7.127  10.569   4.771  1.00  0.00     0.053 C 
BRANCH  10  11
ATOM     11  C   UNL     1       7.364  11.992   4.371  1.00  0.00     0.041 C 
ATOM     12  O   UNL     1       6.494  12.870   4.609  1.00  0.00    -0.550 OA
ATOM     13  O   UNL     1       8.568  12.357   3.780  1.00  0.00    -0.550 OA
ENDBRANCH  10  11
ENDBRANCH   9  10
ENDBRANCH   8   9
ENDBRANCH   1   8
TORSDOF 8
ENDMDL
MODEL 5
REMARK VINA RESULT:    -4.278     17.297     19.270
REMARK INTER + INTRA:          -6.731
REMARK INTER:                  -6.094
REMARK INTRA:                  -0.637
REMARK UNBOUND:                -0.453
REMARK SMILES O=C([O-])CCCCCCCC(=O)[O-]
REMARK SMILES IDX 7 1 6 2 5 3 4 4 2 5 1 6 3 7 8 8 9 9 10 10 11 11 12 12 13 13
REMARK H PARENT
REMARK Flexibility Score: inf
ROOT
ATOM      1  C   UNL     1       6.437  10.492   6.770  1.00  0.00     0.000 C 
ENDROOT
BRANCH   1   2
ATOM      2  C   UNL     1       6.582  11.194   8.131  1.00  0.00     0.000 C 
BRANCH   2   3
ATOM      3  C   UNL     1       5.330  11.990   8.526  1.00  0.00     0.006 C 
BRANCH   3   4
ATOM      4  C   UNL     1       4.536  11.258   9.612  1.00  0.00     0.053 C 
BRANCH   4   5
ATOM      5  C   UNL     1       3.485  10.389   8.997  1.00  0.00     0.041 C 
ATOM      6  O   UNL     1       2.374  10.878   8.664  1.00  0.00    -0.550 OA
ATOM      7  O   UNL     1       3.751   9.049   8.745  1.00  0.00    -0.550 OA
ENDBRANCH   4   5
ENDBRANCH   3   4
ENDBRANCH   2   3
ENDBRANCH   1   2
BRANCH   1   8
ATOM      8  C   UNL     1       5.344  11.125   5.893  1.00  0.00     0.000 C 
BRANCH   8   9
ATOM      9  C   UNL     1       5.899  11.694   4.578  1.00  0.00     0.006 C 
BRANCH   9  10
ATOM     10  C   UNL     1       6.726  12.970   4.786  1.00  0.00     0.053 C 
BRANCH  10  11
ATOM     11  C   UNL     1       8.178  12.695   4.553  1.00  0.00     0.041 C 
ATOM     12  O   UNL     1       8.984  12.682   5.520  1.00  0.00    -0.550 OA
ATOM     13  O   UNL     1       8.634  12.403   3.273  1.00  0.00    -0.550 OA
ENDBRANCH  10  11
ENDBRANCH   9  10
ENDBRANCH   8   9
ENDBRANCH   1   8
TORSDOF 8
ENDMDL
MODEL 6
REMARK VINA RESULT:    -4.270     17.795     18.927
REMARK INTER + INTRA:          -6.720
REMARK INTER:                  -6.161
REMARK INTRA:                  -0.559
REMARK UNBOUND:                -0.453
REMARK SMILES O=C([O-])CCCCCCCC(=O)[O-]
REMARK SMILES IDX 7 1 6 2 5 3 4 4 2 5 1 6 3 7 8 8 9 9 10 10 11 11 12 12 13 13
REMARK H PARENT
REMARK Flexibility Score: inf
ROOT
ATOM      1  C   UNL     1       5.243  11.194   6.157  1.00  0.00     0.000 C 
ENDROOT
BRANCH   1   2
ATOM      2  C   UNL     1       5.703  11.592   4.744  1.00  0.00     0.000 C 
BRANCH   2   3
ATOM      3  C   UNL     1       6.725  12.738   4.752  1.00  0.00     0.006 C 
BRANCH   3   4
ATOM      4  C   UNL     1       8.080  12.266   4.216  1.00  0.00     0.053 C 
BRANCH   4   5
ATOM      5  C   UNL     1       9.054  12.088   5.338  1.00  0.00     0.041 C 
ATOM      6  O   UNL     1       9.866  13.007   5.624  1.00  0.00    -0.550 OA
ATOM      7  O   UNL     1       9.033  10.927   6.100  1.00  0.00    -0.550 OA
ENDBRANCH   4   5
ENDBRANCH   3   4
ENDBRANCH   2   3
ENDBRANCH   1   2
BRANCH   1   8
ATOM      8  C   UNL     1       5.902  12.046   7.254  1.00  0.00     0.000 C 
BRANCH   8   9
ATOM      9  C   UNL     1       6.075  11.278   8.574  1.00  0.00     0.006 C 
BRANCH   9  10
ATOM     10  C   UNL     1       4.863  11.416   9.504  1.00  0.00     0.053 C 
BRANCH  10  11
ATOM     11  C   UNL     1       4.086  10.137   9.543  1.00  0.00     0.041 C 
ATOM     12  O   UNL     1       2.974  10.089  10.131  1.00  0.00    -0.550 OA
ATOM     13  O   UNL     1       4.567   9.011   8.886  1.00  0.00    -0.550 OA
ENDBRANCH  10  11
ENDBRANCH   9  10
ENDBRANCH   8   9
ENDBRANCH   1   8
TORSDOF 8
ENDMDL
MODEL 7
REMARK VINA RESULT:    -4.228     17.241     18.425
REMARK INTER + INTRA:          -6.658
REMARK INTER:                  -6.210
REMARK INTRA:                  -0.448
REMARK UNBOUND:                -0.453
REMARK SMILES O=C([O-])CCCCCCCC(=O)[O-]
REMARK SMILES IDX 7 1 6 2 5 3 4 4 2 5 1 6 3 7 8 8 9 9 10 10 11 11 12 12 13 13
REMARK H PARENT
REMARK Flexibility Score: inf
ROOT
ATOM      1  C   UNL     1       5.630  11.274   7.218  1.00  0.00     0.000 C 
ENDROOT
BRANCH   1   2
ATOM      2  C   UNL     1       4.970  10.892   5.883  1.00  0.00     0.000 C 
BRANCH   2   3
ATOM      3  C   UNL     1       5.714  11.463   4.667  1.00  0.00     0.006 C 
BRANCH   3   4
ATOM      4  C   UNL     1       7.136  10.900   4.582  1.00  0.00     0.053 C 
BRANCH   4   5
ATOM      5  C   UNL     1       8.137  12.011   4.525  1.00  0.00     0.041 C 
ATOM      6  O   UNL     1       8.540  12.556   5.586  1.00  0.00    -0.550 OA
ATOM      7  O   UNL     1       8.663  12.410   3.303  1.00  0.00    -0.550 OA
ENDBRANCH   4   5
ENDBRANCH   3   4
ENDBRANCH   2   3
ENDBRANCH   1   2
BRANCH   1   8
ATOM      8  C   UNL     1       5.602  10.126   8.241  1.00  0.00     0.000 C 
BRANCH   8   9
ATOM      9  C   UNL     1       4.179   9.789   8.711  1.00  0.00     0.006 C 
BRANCH   9  10
ATOM     10  C   UNL     1       3.751  10.605   9.938  1.00  0.00     0.053 C 
BRANCH  10  11
ATOM     11  C   UNL     1       2.795  11.685   9.540  1.00  0.00     0.041 C 
ATOM     12  O   UNL     1       3.187  12.879   9.458  1.00  0.00    -0.550 OA
ATOM     13  O   UNL     1       1.483  11.367   9.210  1.00  0.00    -0.550 OA
ENDBRANCH  10  11
ENDBRANCH   9  10
ENDBRANCH   8   9
ENDBRANCH   1   8
TORSDOF 8
ENDMDL
MODEL 8
REMARK VINA RESULT:    -4.225     17.278     19.461
REMARK INTER + INTRA:          -6.654
REMARK INTER:                  -5.945
REMARK INTRA:                  -0.708
REMARK UNBOUND:                -0.453
REMARK SMILES O=C([O-])CCCCCCCC(=O)[O-]
REMARK SMILES IDX 7 1 6 2 5 3 4 4 2 5 1 6 3 7 8 8 9 9 10 10 11 11 12 12 13 13
REMARK H PARENT
REMARK Flexibility Score: inf
ROOT
ATOM      1  C   UNL     1       8.060  12.343   7.980  1.00  0.00     0.000 C 
ENDROOT
BRANCH   1   2
ATOM      2  C   UNL     1       6.778  12.401   8.828  1.00  0.00     0.000 C 
BRANCH   2   3
ATOM      3  C   UNL     1       5.957  11.106   8.753  1.00  0.00     0.006 C 
BRANCH   3   4
ATOM      4  C   UNL     1       4.456  11.405   8.815  1.00  0.00     0.053 C 
BRANCH   4   5
ATOM      5  C   UNL     1       3.689  10.168   9.160  1.00  0.00     0.041 C 
ATOM      6  O   UNL     1       2.859  10.180  10.107  1.00  0.00    -0.550 OA
ATOM      7  O   UNL     1       3.852   9.014   8.403  1.00  0.00    -0.550 OA
ENDBRANCH   4   5
ENDBRANCH   3   4
ENDBRANCH   2   3
ENDBRANCH   1   2
BRANCH   1   8
ATOM      8  C   UNL     1       8.240  10.988   7.275  1.00  0.00     0.000 C 
BRANCH   8   9
ATOM      9  C   UNL     1       8.311  11.124   5.746  1.00  0.00     0.006 C 
BRANCH   9  10
ATOM     10  C   UNL     1       7.113  10.480   5.037  1.00  0.00     0.053 C 
BRANCH  10  11
ATOM     11  C   UNL     1       5.947  11.418   5.026  1.00  0.00     0.041 C 
ATOM     12  O   UNL     1       4.801  11.007   5.348  1.00  0.00    -0.550 OA
ATOM     13  O   UNL     1       6.134  12.757   4.708  1.00  0.00    -0.550 OA
ENDBRANCH  10  11
ENDBRANCH   9  10
ENDBRANCH   8   9
ENDBRANCH   1   8
TORSDOF 8
ENDMDL
MODEL 9
REMARK VINA RESULT:    -4.186     17.729     19.713
REMARK INTER + INTRA:          -6.596
REMARK INTER:                  -6.003
REMARK INTRA:                  -0.593
REMARK UNBOUND:                -0.453
REMARK SMILES O=C([O-])CCCCCCCC(=O)[O-]
REMARK SMILES IDX 7 1 6 2 5 3 4 4 2 5 1 6 3 7 8 8 9 9 10 10 11 11 12 12 13 13
REMARK H PARENT
REMARK Flexibility Score: inf
ROOT
ATOM      1  C   UNL     1       6.423  10.922   4.396  1.00  0.00     0.000 C 
ENDROOT
BRANCH   1   2
ATOM      2  C   UNL     1       5.585  11.580   5.504  1.00  0.00     0.000 C 
BRANCH   2   3
ATOM      3  C   UNL     1       5.114  10.578   6.569  1.00  0.00     0.006 C 
BRANCH   3   4
ATOM      4  C   UNL     1       4.862  11.279   7.906  1.00  0.00     0.053 C 
BRANCH   4   5
ATOM      5  C   UNL     1       4.319  10.313   8.911  1.00  0.00     0.041 C 
ATOM      6  O   UNL     1       4.234  10.641  10.124  1.00  0.00    -0.550 OA
ATOM      7  O   UNL     1       3.861   9.067   8.501  1.00  0.00    -0.550 OA
ENDBRANCH   4   5
ENDBRANCH   3   4
ENDBRANCH   2   3
ENDBRANCH   1   2
BRANCH   1   8
ATOM      8  C   UNL     1       7.642  11.770   3.994  1.00  0.00     0.000 C 
BRANCH   8   9
ATOM      9  C   UNL     1       7.999  12.826   5.051  1.00  0.00     0.006 C 
BRANCH   9  10
ATOM     10  C   UNL     1       9.313  12.515   5.781  1.00  0.00     0.053 C 
BRANCH  10  11
ATOM     11  C   UNL     1       9.037  12.022   7.166  1.00  0.00     0.041 C 
ATOM     12  O   UNL     1       9.271  12.760   8.159  1.00  0.00    -0.550 OA
ATOM     13  O   UNL     1       8.472  10.767   7.359  1.00  0.00    -0.550 OA
ENDBRANCH  10  11
ENDBRANCH   9  10
ENDBRANCH   8   9
ENDBRANCH   1   8
TORSDOF 8
ENDMDL
