MODEL 1
REMARK VINA RESULT:    -5.147      0.000      0.000
REMARK INTER + INTRA:          -5.766
REMARK INTER:                  -5.448
REMARK INTRA:                  -0.318
REMARK UNBOUND:                -0.318
REMARK SMILES c1ccc(-c2ccccc2)cc1
REMARK SMILES IDX 1 1 2 2 3 3 4 4 11 5 12 6 5 7 6 8 10 9 7 10 9 11 8 12
REMARK H PARENT
REMARK Flexibility Score: inf
ROOT
ATOM      1  C   UNL     1      54.303  59.097 245.860  1.00  0.00     0.000 A 
ATOM      2  C   UNL     1      55.228  59.992 245.317  1.00  0.00     0.001 A 
ATOM      3  C   UNL     1      56.583  59.652 245.260  1.00  0.00     0.009 A 
ATOM      4  C   UNL     1      57.028  58.408 245.748  1.00  0.00    -0.018 A 
ATOM      5  C   UNL     1      56.086  57.515 246.293  1.00  0.00     0.009 A 
ATOM      6  C   UNL     1      54.732  57.860 246.347  1.00  0.00     0.001 A 
ENDROOT
BRANCH   4   7
ATOM      7  C   UNL     1      58.467  58.044 245.688  1.00  0.00    -0.018 A 
ATOM      8  C   UNL     1      59.000  57.083 246.570  1.00  0.00     0.009 A 
ATOM      9  C   UNL     1      59.322  58.654 244.749  1.00  0.00     0.009 A 
ATOM     10  C   UNL     1      60.355  56.743 246.511  1.00  0.00     0.001 A 
ATOM     11  C   UNL     1      60.676  58.309 244.695  1.00  0.00     0.001 A 
ATOM     12  C   UNL     1      61.192  57.354 245.575  1.00  0.00     0.000 A 
ENDBRANCH   4   7
TORSDOF 1
ENDMDL
MODEL 2
REMARK VINA RESULT:    -5.126      0.195      4.756
REMARK INTER + INTRA:          -5.743
REMARK INTER:                  -5.422
REMARK INTRA:                  -0.321
REMARK UNBOUND:                -0.318
REMARK SMILES c1ccc(-c2ccccc2)cc1
REMARK SMILES IDX 1 1 2 2 3 3 4 4 11 5 12 6 5 7 6 8 10 9 7 10 9 11 8 12
REMARK H PARENT
REMARK Flexibility Score: inf
ROOT
ATOM      1  C   UNL     1      61.292  57.608 245.611  1.00  0.00     0.000 A 
ATOM      2  C   UNL     1      60.771  58.648 244.838  1.00  0.00     0.001 A 
ATOM      3  C   UNL     1      59.400  58.923 244.864  1.00  0.00     0.009 A 
ATOM      4  C   UNL     1      58.533  58.158 245.668  1.00  0.00    -0.018 A 
ATOM      5  C   UNL     1      59.071  57.113 246.443  1.00  0.00     0.009 A 
ATOM      6  C   UNL     1      60.443  56.842 246.413  1.00  0.00     0.001 A 
ENDROOT
BRANCH   4   7
ATOM      7  C   UNL     1      57.077  58.449 245.698  1.00  0.00    -0.018 A 
ATOM      8  C   UNL     1      56.174  57.523 246.257  1.00  0.00     0.009 A 
ATOM      9  C   UNL     1      56.576  59.654 245.169  1.00  0.00     0.009 A 
ATOM     10  C   UNL     1      54.803  57.800 246.283  1.00  0.00     0.001 A 
ATOM     11  C   UNL     1      55.205  59.925 245.200  1.00  0.00     0.001 A 
ATOM     12  C   UNL     1      54.319  58.999 245.756  1.00  0.00     0.000 A 
ENDBRANCH   4   7
TORSDOF 1
ENDMDL
MODEL 3
REMARK VINA RESULT:    -5.123      1.878      5.619
REMARK INTER + INTRA:          -5.740
REMARK INTER:                  -5.425
REMARK INTRA:                  -0.315
REMARK UNBOUND:                -0.318
REMARK SMILES c1ccc(-c2ccccc2)cc1
REMARK SMILES IDX 1 1 2 2 3 3 4 4 11 5 12 6 5 7 6 8 10 9 7 10 9 11 8 12
REMARK H PARENT
REMARK Flexibility Score: inf
ROOT
ATOM      1  C   UNL     1      59.343  59.613 246.076  1.00  0.00     0.000 A 
ATOM      2  C   UNL     1      58.895  60.926 246.232  1.00  0.00     0.001 A 
ATOM      3  C   UNL     1      57.551  61.240 246.008  1.00  0.00     0.009 A 
ATOM      4  C   UNL     1      56.638  60.238 245.624  1.00  0.00    -0.018 A 
ATOM      5  C   UNL     1      57.102  58.918 245.471  1.00  0.00     0.009 A 
ATOM      6  C   UNL     1      58.448  58.610 245.696  1.00  0.00     0.001 A 
ENDROOT
BRANCH   4   7
ATOM      7  C   UNL     1      55.210  60.569 245.386  1.00  0.00    -0.018 A 
ATOM      8  C   UNL     1      54.439  59.807 244.486  1.00  0.00     0.009 A 
ATOM      9  C   UNL     1      54.603  61.649 246.056  1.00  0.00     0.009 A 
ATOM     10  C   UNL     1      53.094  60.121 244.264  1.00  0.00     0.001 A 
ATOM     11  C   UNL     1      53.258  61.957 245.830  1.00  0.00     0.001 A 
ATOM     12  C   UNL     1      52.504  61.194 244.935  1.00  0.00     0.000 A 
ENDBRANCH   4   7
TORSDOF 1
ENDMDL
MODEL 4
REMARK VINA RESULT:    -5.120      1.859      3.055
REMARK INTER + INTRA:          -5.737
REMARK INTER:                  -5.424
REMARK INTRA:                  -0.313
REMARK UNBOUND:                -0.318
REMARK SMILES c1ccc(-c2ccccc2)cc1
REMARK SMILES IDX 1 1 2 2 3 3 4 4 11 5 12 6 5 7 6 8 10 9 7 10 9 11 8 12
REMARK H PARENT
REMARK Flexibility Score: inf
ROOT
ATOM      1  C   UNL     1      52.490  61.222 244.877  1.00  0.00     0.000 A 
ATOM      2  C   UNL     1      53.247  61.964 245.787  1.00  0.00     0.001 A 
ATOM      3  C   UNL     1      54.579  61.622 246.035  1.00  0.00     0.009 A 
ATOM      4  C   UNL     1      55.171  60.528 245.374  1.00  0.00    -0.018 A 
ATOM      5  C   UNL     1      54.398  59.788 244.459  1.00  0.00     0.009 A 
ATOM      6  C   UNL     1      53.065  60.135 244.214  1.00  0.00     0.001 A 
ENDROOT
BRANCH   4   7
ATOM      7  C   UNL     1      56.586  60.162 245.636  1.00  0.00    -0.018 A 
ATOM      8  C   UNL     1      57.002  58.818 245.573  1.00  0.00     0.009 A 
ATOM      9  C   UNL     1      57.536  61.153 245.953  1.00  0.00     0.009 A 
ATOM     10  C   UNL     1      58.335  58.477 245.821  1.00  0.00     0.001 A 
ATOM     11  C   UNL     1      58.868  60.806 246.199  1.00  0.00     0.001 A 
ATOM     12  C   UNL     1      59.267  59.469 246.133  1.00  0.00     0.000 A 
ENDBRANCH   4   7
TORSDOF 1
ENDMDL
MODEL 5
REMARK VINA RESULT:    -5.114      1.874      5.614
REMARK INTER + INTRA:          -5.730
REMARK INTER:                  -5.419
REMARK INTRA:                  -0.312
REMARK UNBOUND:                -0.318
REMARK SMILES c1ccc(-c2ccccc2)cc1
REMARK SMILES IDX 1 1 2 2 3 3 4 4 11 5 12 6 5 7 6 8 10 9 7 10 9 11 8 12
REMARK H PARENT
REMARK Flexibility Score: inf
ROOT
ATOM      1  C   UNL     1      59.216  59.476 246.152  1.00  0.00     0.000 A 
ATOM      2  C   UNL     1      58.814  60.813 246.184  1.00  0.00     0.001 A 
ATOM      3  C   UNL     1      57.485  61.153 245.913  1.00  0.00     0.009 A 
ATOM      4  C   UNL     1      56.541  60.154 245.605  1.00  0.00    -0.018 A 
ATOM      5  C   UNL     1      56.958  58.810 245.577  1.00  0.00     0.009 A 
ATOM      6  C   UNL     1      58.289  58.476 245.849  1.00  0.00     0.001 A 
ENDROOT
BRANCH   4   7
ATOM      7  C   UNL     1      55.129  60.513 245.317  1.00  0.00    -0.018 A 
ATOM      8  C   UNL     1      54.517  61.597 245.978  1.00  0.00     0.009 A 
ATOM      9  C   UNL     1      54.378  59.777 244.380  1.00  0.00     0.009 A 
ATOM     10  C   UNL     1      53.187  61.933 245.705  1.00  0.00     0.001 A 
ATOM     11  C   UNL     1      53.050  60.118 244.111  1.00  0.00     0.001 A 
ATOM     12  C   UNL     1      52.455  61.195 244.773  1.00  0.00     0.000 A 
ENDBRANCH   4   7
TORSDOF 1
ENDMDL
MODEL 6
REMARK VINA RESULT:    -5.107      1.855      3.187
REMARK INTER + INTRA:          -5.724
REMARK INTER:                  -5.410
REMARK INTRA:                  -0.313
REMARK UNBOUND:                -0.318
REMARK SMILES c1ccc(-c2ccccc2)cc1
REMARK SMILES IDX 1 1 2 2 3 3 4 4 11 5 12 6 5 7 6 8 10 9 7 10 9 11 8 12
REMARK H PARENT
REMARK Flexibility Score: inf
ROOT
ATOM      1  C   UNL     1      52.461  61.150 244.874  1.00  0.00     0.000 A 
ATOM      2  C   UNL     1      53.043  60.045 244.249  1.00  0.00     0.001 A 
ATOM      3  C   UNL     1      54.379  59.721 244.500  1.00  0.00     0.009 A 
ATOM      4  C   UNL     1      55.151  60.503 245.382  1.00  0.00    -0.018 A 
ATOM      5  C   UNL     1      54.553  61.614 246.005  1.00  0.00     0.009 A 
ATOM      6  C   UNL     1      53.215  61.934 245.751  1.00  0.00     0.001 A 
ENDROOT
BRANCH   4   7
ATOM      7  C   UNL     1      56.571  60.159 245.650  1.00  0.00    -0.018 A 
ATOM      8  C   UNL     1      57.004  58.820 245.603  1.00  0.00     0.009 A 
ATOM      9  C   UNL     1      57.507  61.167 245.954  1.00  0.00     0.009 A 
ATOM     10  C   UNL     1      58.341  58.499 245.857  1.00  0.00     0.001 A 
ATOM     11  C   UNL     1      58.843  60.840 246.205  1.00  0.00     0.001 A 
ATOM     12  C   UNL     1      59.260  59.508 246.157  1.00  0.00     0.000 A 
ENDBRANCH   4   7
TORSDOF 1
ENDMDL
MODEL 7
REMARK VINA RESULT:    -5.105      0.213      1.980
REMARK INTER + INTRA:          -5.721
REMARK INTER:                  -5.399
REMARK INTRA:                  -0.321
REMARK UNBOUND:                -0.318
REMARK SMILES c1ccc(-c2ccccc2)cc1
REMARK SMILES IDX 1 1 2 2 3 3 4 4 11 5 12 6 5 7 6 8 10 9 7 10 9 11 8 12
REMARK H PARENT
REMARK Flexibility Score: inf
ROOT
ATOM      1  C   UNL     1      54.364  58.921 245.871  1.00  0.00     0.000 A 
ATOM      2  C   UNL     1      54.867  57.722 246.382  1.00  0.00     0.001 A 
ATOM      3  C   UNL     1      56.238  57.452 246.316  1.00  0.00     0.009 A 
ATOM      4  C   UNL     1      57.122  58.382 245.736  1.00  0.00    -0.018 A 
ATOM      5  C   UNL     1      56.603  59.587 245.226  1.00  0.00     0.009 A 
ATOM      6  C   UNL     1      55.231  59.852 245.294  1.00  0.00     0.001 A 
ENDROOT
BRANCH   4   7
ATOM      7  C   UNL     1      58.578  58.098 245.666  1.00  0.00    -0.018 A 
ATOM      8  C   UNL     1      59.426  58.897 244.874  1.00  0.00     0.009 A 
ATOM      9  C   UNL     1      59.135  57.025 246.389  1.00  0.00     0.009 A 
ATOM     10  C   UNL     1      60.796  58.626 244.809  1.00  0.00     0.001 A 
ATOM     11  C   UNL     1      60.506  56.760 246.321  1.00  0.00     0.001 A 
ATOM     12  C   UNL     1      61.336  57.560 245.532  1.00  0.00     0.000 A 
ENDBRANCH   4   7
TORSDOF 1
ENDMDL
MODEL 8
REMARK VINA RESULT:    -5.006      5.903      8.141
REMARK INTER + INTRA:          -5.616
REMARK INTER:                  -5.314
REMARK INTRA:                  -0.302
REMARK UNBOUND:                -0.318
REMARK SMILES c1ccc(-c2ccccc2)cc1
REMARK SMILES IDX 1 1 2 2 3 3 4 4 11 5 12 6 5 7 6 8 10 9 7 10 9 11 8 12
REMARK H PARENT
REMARK Flexibility Score: inf
ROOT
ATOM      1  C   UNL     1      53.792  62.008 245.998  1.00  0.00     0.000 A 
ATOM      2  C   UNL     1      52.868  61.758 244.981  1.00  0.00     0.001 A 
ATOM      3  C   UNL     1      51.803  60.879 245.201  1.00  0.00     0.009 A 
ATOM      4  C   UNL     1      51.651  60.240 246.447  1.00  0.00    -0.018 A 
ATOM      5  C   UNL     1      52.589  60.501 247.464  1.00  0.00     0.009 A 
ATOM      6  C   UNL     1      53.652  61.381 247.238  1.00  0.00     0.001 A 
ENDROOT
BRANCH   4   7
ATOM      7  C   UNL     1      50.520  59.306 246.683  1.00  0.00    -0.018 A 
ATOM      8  C   UNL     1      50.749  58.030 247.235  1.00  0.00     0.009 A 
ATOM      9  C   UNL     1      49.202  59.681 246.359  1.00  0.00     0.009 A 
ATOM     10  C   UNL     1      49.682  57.154 247.456  1.00  0.00     0.001 A 
ATOM     11  C   UNL     1      48.139  58.800 246.584  1.00  0.00     0.001 A 
ATOM     12  C   UNL     1      48.379  57.538 247.132  1.00  0.00     0.000 A 
ENDBRANCH   4   7
TORSDOF 1
ENDMDL
MODEL 9
REMARK VINA RESULT:    -4.970      5.884      7.448
REMARK INTER + INTRA:          -5.578
REMARK INTER:                  -5.279
REMARK INTRA:                  -0.299
REMARK UNBOUND:                -0.318
REMARK SMILES c1ccc(-c2ccccc2)cc1
REMARK SMILES IDX 1 1 2 2 3 3 4 4 11 5 12 6 5 7 6 8 10 9 7 10 9 11 8 12
REMARK H PARENT
REMARK Flexibility Score: inf
ROOT
ATOM      1  C   UNL     1      48.207  57.659 247.232  1.00  0.00     0.000 A 
ATOM      2  C   UNL     1      47.992  58.962 246.778  1.00  0.00     0.001 A 
ATOM      3  C   UNL     1      49.079  59.803 246.518  1.00  0.00     0.009 A 
ATOM      4  C   UNL     1      50.397  59.345 246.710  1.00  0.00    -0.018 A 
ATOM      5  C   UNL     1      50.600  58.030 247.168  1.00  0.00     0.009 A 
ATOM      6  C   UNL     1      49.510  57.193 247.427  1.00  0.00     0.001 A 
ENDROOT
BRANCH   4   7
ATOM      7  C   UNL     1      51.553  60.236 246.434  1.00  0.00    -0.018 A 
ATOM      8  C   UNL     1      51.695  60.855 245.176  1.00  0.00     0.009 A 
ATOM      9  C   UNL     1      52.526  60.477 247.424  1.00  0.00     0.009 A 
ATOM     10  C   UNL     1      52.784  61.693 244.918  1.00  0.00     0.001 A 
ATOM     11  C   UNL     1      53.612  61.317 247.160  1.00  0.00     0.001 A 
ATOM     12  C   UNL     1      53.741  61.924 245.909  1.00  0.00     0.000 A 
ENDBRANCH   4   7
TORSDOF 1
ENDMDL
