MODEL 1
REMARK VINA RESULT:    -6.758      0.000      0.000
REMARK INTER + INTRA:          -8.509
REMARK INTER:                  -8.140
REMARK INTRA:                  -0.368
REMARK UNBOUND:                -0.368
REMARK SMILES COc1ccc([C@@H]2CC(=O)c3c(O)cc(O)cc3O2)cc1O
REMARK SMILES IDX 7 1 8 2 9 3 10 4 11 5 12 6 14 7 15 8 17 9 18 10 19 11 6 12
REMARK SMILES IDX 3 13 21 14 4 15 20 16 5 17 2 18 1 19 22 20 13 22 16 24
REMARK H PARENT 22 21 13 23 16 25
REMARK Flexibility Score: inf
ROOT
ATOM      1  C   UNL     1      79.308  13.525  47.736  1.00  0.00     0.211 C 
ATOM      2  C   UNL     1      78.166  12.760  47.052  1.00  0.00     0.131 C 
ATOM      3  C   UNL     1      77.391  13.708  46.184  1.00  0.00     0.174 C 
ATOM      4  O   UNL     1      76.133  13.702  46.234  1.00  0.00    -0.294 OA
ATOM      5  C   UNL     1      78.135  14.671  45.336  1.00  0.00     0.102 A 
ATOM      6  C   UNL     1      77.579  15.340  44.213  1.00  0.00     0.133 A 
ATOM      7  C   UNL     1      78.349  16.281  43.521  1.00  0.00     0.093 A 
ATOM      8  C   UNL     1      79.674  16.531  43.884  1.00  0.00     0.123 A 
ATOM      9  C   UNL     1      80.241  15.841  44.960  1.00  0.00     0.093 A 
ATOM     10  C   UNL     1      79.479  14.926  45.690  1.00  0.00     0.138 A 
ATOM     11  O   UNL     1      80.069  14.260  46.773  1.00  0.00    -0.484 OA
ENDROOT
BRANCH   1  12
ATOM     12  C   UNL     1      80.207  12.578  48.492  1.00  0.00    -0.003 A 
ATOM     13  C   UNL     1      81.856  10.749  49.871  1.00  0.00     0.160 A 
ATOM     14  C   UNL     1      80.542  10.992  50.310  1.00  0.00     0.158 A 
ATOM     15  C   UNL     1      82.333  11.424  48.730  1.00  0.00     0.051 A 
ATOM     16  C   UNL     1      79.726  11.895  49.620  1.00  0.00     0.057 A 
ATOM     17  C   UNL     1      81.513  12.324  48.046  1.00  0.00     0.011 A 
BRANCH  13  18
ATOM     18  O   UNL     1      82.652   9.839  50.583  1.00  0.00    -0.493 OA
ATOM     19  C   UNL     1      82.976   8.526  50.134  1.00  0.00     0.278 C 
ENDBRANCH  13  18
BRANCH  14  20
ATOM     20  O   UNL     1      80.025  10.341  51.430  1.00  0.00    -0.504 OA
ATOM     21  H   UNL     1      79.513  10.834  52.152  1.00  0.00     0.293 HD
ENDBRANCH  14  20
ENDBRANCH   1  12
BRANCH   6  22
ATOM     22  O   UNL     1      76.295  15.080  43.729  1.00  0.00    -0.507 OA
ATOM     23  H   UNL     1      76.077  14.345  43.071  1.00  0.00     0.293 HD
ENDBRANCH   6  22
BRANCH   8  24
ATOM     24  O   UNL     1      80.421  17.461  43.165  1.00  0.00    -0.508 OA
ATOM     25  H   UNL     1      81.319  17.792  43.500  1.00  0.00     0.293 HD
ENDBRANCH   8  24
TORSDOF 5
ENDMDL
MODEL 2
REMARK VINA RESULT:    -6.266     11.657     13.143
REMARK INTER + INTRA:          -7.917
REMARK INTER:                  -7.555
REMARK INTRA:                  -0.362
REMARK UNBOUND:                -0.368
REMARK SMILES COc1ccc([C@@H]2CC(=O)c3c(O)cc(O)cc3O2)cc1O
REMARK SMILES IDX 7 1 8 2 9 3 10 4 11 5 12 6 14 7 15 8 17 9 18 10 19 11 6 12
REMARK SMILES IDX 3 13 21 14 4 15 20 16 5 17 2 18 1 19 22 20 13 22 16 24
REMARK H PARENT 22 21 13 23 16 25
REMARK Flexibility Score: inf
ROOT
ATOM      1  C   UNL     1      72.270   2.213  47.353  1.00  0.00     0.211 C 
ATOM      2  C   UNL     1      72.111   1.111  46.295  1.00  0.00     0.131 C 
ATOM      3  C   UNL     1      70.733   1.191  45.707  1.00  0.00     0.174 C 
ATOM      4  O   UNL     1      70.057   0.137  45.575  1.00  0.00    -0.294 OA
ATOM      5  C   UNL     1      70.183   2.522  45.353  1.00  0.00     0.102 A 
ATOM      6  C   UNL     1      69.096   2.724  44.461  1.00  0.00     0.133 A 
ATOM      7  C   UNL     1      68.611   4.020  44.250  1.00  0.00     0.093 A 
ATOM      8  C   UNL     1      69.217   5.121  44.857  1.00  0.00     0.123 A 
ATOM      9  C   UNL     1      70.317   4.931  45.699  1.00  0.00     0.093 A 
ATOM     10  C   UNL     1      70.793   3.644  45.957  1.00  0.00     0.138 A 
ATOM     11  O   UNL     1      71.889   3.483  46.816  1.00  0.00    -0.484 OA
ENDROOT
BRANCH   1  12
ATOM     12  C   UNL     1      73.691   2.269  47.856  1.00  0.00    -0.003 A 
ATOM     13  C   UNL     1      76.362   2.308  48.767  1.00  0.00     0.160 A 
ATOM     14  C   UNL     1      75.372   1.624  49.497  1.00  0.00     0.158 A 
ATOM     15  C   UNL     1      76.004   2.963  47.573  1.00  0.00     0.051 A 
ATOM     16  C   UNL     1      74.050   1.603  49.038  1.00  0.00     0.057 A 
ATOM     17  C   UNL     1      74.683   2.938  47.121  1.00  0.00     0.011 A 
BRANCH  13  18
ATOM     18  O   UNL     1      77.679   2.313  49.251  1.00  0.00    -0.493 OA
ATOM     19  C   UNL     1      78.251   3.363  50.026  1.00  0.00     0.278 C 
ENDBRANCH  13  18
BRANCH  14  20
ATOM     20  O   UNL     1      75.683   0.955  50.681  1.00  0.00    -0.504 OA
ATOM     21  H   UNL     1      76.263   0.125  50.695  1.00  0.00     0.293 HD
ENDBRANCH  14  20
ENDBRANCH   1  12
BRANCH   6  22
ATOM     22  O   UNL     1      68.495   1.687  43.744  1.00  0.00    -0.507 OA
ATOM     23  H   UNL     1      67.958   1.823  42.899  1.00  0.00     0.293 HD
ENDBRANCH   6  22
BRANCH   8  24
ATOM     24  O   UNL     1      68.723   6.400  44.613  1.00  0.00    -0.508 OA
ATOM     25  H   UNL     1      69.249   7.229  44.867  1.00  0.00     0.293 HD
ENDBRANCH   8  24
TORSDOF 5
ENDMDL
MODEL 3
REMARK VINA RESULT:    -6.255     11.659     13.191
REMARK INTER + INTRA:          -7.904
REMARK INTER:                  -7.543
REMARK INTRA:                  -0.361
REMARK UNBOUND:                -0.368
REMARK SMILES COc1ccc([C@@H]2CC(=O)c3c(O)cc(O)cc3O2)cc1O
REMARK SMILES IDX 7 1 8 2 9 3 10 4 11 5 12 6 14 7 15 8 17 9 18 10 19 11 6 12
REMARK SMILES IDX 3 13 21 14 4 15 20 16 5 17 2 18 1 19 22 20 13 22 16 24
REMARK H PARENT 22 21 13 23 16 25
REMARK Flexibility Score: inf
ROOT
ATOM      1  C   UNL     1      72.300   2.062  47.329  1.00  0.00     0.211 C 
ATOM      2  C   UNL     1      72.136   0.980  46.252  1.00  0.00     0.131 C 
ATOM      3  C   UNL     1      70.757   1.073  45.669  1.00  0.00     0.174 C 
ATOM      4  O   UNL     1      70.078   0.023  45.520  1.00  0.00    -0.294 OA
ATOM      5  C   UNL     1      70.208   2.412  45.341  1.00  0.00     0.102 A 
ATOM      6  C   UNL     1      69.119   2.632  44.457  1.00  0.00     0.133 A 
ATOM      7  C   UNL     1      68.636   3.932  44.270  1.00  0.00     0.093 A 
ATOM      8  C   UNL     1      69.245   5.021  44.896  1.00  0.00     0.123 A 
ATOM      9  C   UNL     1      70.347   4.814  45.732  1.00  0.00     0.093 A 
ATOM     10  C   UNL     1      70.822   3.521  45.964  1.00  0.00     0.138 A 
ATOM     11  O   UNL     1      71.919   3.343  46.817  1.00  0.00    -0.484 OA
ENDROOT
BRANCH   1  12
ATOM     12  C   UNL     1      73.723   2.107  47.829  1.00  0.00    -0.003 A 
ATOM     13  C   UNL     1      76.372   2.260  48.791  1.00  0.00     0.160 A 
ATOM     14  C   UNL     1      76.020   2.877  47.576  1.00  0.00     0.158 A 
ATOM     15  C   UNL     1      75.383   1.575  49.523  1.00  0.00     0.051 A 
ATOM     16  C   UNL     1      74.704   2.803  47.106  1.00  0.00     0.057 A 
ATOM     17  C   UNL     1      74.072   1.506  49.048  1.00  0.00     0.011 A 
BRANCH  13  18
ATOM     18  O   UNL     1      77.699   2.349  49.237  1.00  0.00    -0.493 OA
ATOM     19  C   UNL     1      78.179   3.328  50.154  1.00  0.00     0.278 C 
ENDBRANCH  13  18
BRANCH  14  20
ATOM     20  O   UNL     1      76.965   3.573  46.821  1.00  0.00    -0.504 OA
ATOM     21  H   UNL     1      77.158   4.555  46.972  1.00  0.00     0.293 HD
ENDBRANCH  14  20
ENDBRANCH   1  12
BRANCH   6  22
ATOM     22  O   UNL     1      68.514   1.610  43.722  1.00  0.00    -0.507 OA
ATOM     23  H   UNL     1      68.764   0.634  43.801  1.00  0.00     0.293 HD
ENDBRANCH   6  22
BRANCH   8  24
ATOM     24  O   UNL     1      68.752   6.306  44.677  1.00  0.00    -0.508 OA
ATOM     25  H   UNL     1      69.048   7.091  45.246  1.00  0.00     0.293 HD
ENDBRANCH   8  24
TORSDOF 5
ENDMDL
MODEL 4
REMARK VINA RESULT:    -5.888      2.153      7.620
REMARK INTER + INTRA:          -7.461
REMARK INTER:                  -7.192
REMARK INTRA:                  -0.269
REMARK UNBOUND:                -0.368
REMARK SMILES COc1ccc([C@@H]2CC(=O)c3c(O)cc(O)cc3O2)cc1O
REMARK SMILES IDX 7 1 8 2 9 3 10 4 11 5 12 6 14 7 15 8 17 9 18 10 19 11 6 12
REMARK SMILES IDX 3 13 21 14 4 15 20 16 5 17 2 18 1 19 22 20 13 22 16 24
REMARK H PARENT 22 21 13 23 16 25
REMARK Flexibility Score: inf
ROOT
ATOM      1  C   UNL     1      78.831  12.513  48.305  1.00  0.00     0.211 C 
ATOM      2  C   UNL     1      80.054  12.847  49.171  1.00  0.00     0.131 C 
ATOM      3  C   UNL     1      80.284  11.731  50.147  1.00  0.00     0.174 C 
ATOM      4  O   UNL     1      80.504  12.004  51.356  1.00  0.00    -0.294 OA
ATOM      5  C   UNL     1      80.183  10.330  49.668  1.00  0.00     0.102 A 
ATOM      6  C   UNL     1      80.735   9.213  50.349  1.00  0.00     0.133 A 
ATOM      7  C   UNL     1      80.523   7.925  49.844  1.00  0.00     0.093 A 
ATOM      8  C   UNL     1      79.825   7.728  48.651  1.00  0.00     0.123 A 
ATOM      9  C   UNL     1      79.320   8.829  47.953  1.00  0.00     0.093 A 
ATOM     10  C   UNL     1      79.485  10.120  48.458  1.00  0.00     0.138 A 
ATOM     11  O   UNL     1      78.955  11.203  47.743  1.00  0.00    -0.484 OA
ENDROOT
BRANCH   1  12
ATOM     12  C   UNL     1      78.660  13.533  47.206  1.00  0.00    -0.003 A 
ATOM     13  C   UNL     1      78.390  15.403  45.109  1.00  0.00     0.160 A 
ATOM     14  C   UNL     1      79.478  15.484  45.998  1.00  0.00     0.158 A 
ATOM     15  C   UNL     1      77.446  14.371  45.275  1.00  0.00     0.051 A 
ATOM     16  C   UNL     1      79.611  14.551  47.033  1.00  0.00     0.057 A 
ATOM     17  C   UNL     1      77.585  13.444  46.310  1.00  0.00     0.011 A 
BRANCH  13  18
ATOM     18  O   UNL     1      78.282  16.352  44.082  1.00  0.00    -0.493 OA
ATOM     19  C   UNL     1      79.040  16.327  42.876  1.00  0.00     0.278 C 
ENDBRANCH  13  18
BRANCH  14  20
ATOM     20  O   UNL     1      80.442  16.484  45.868  1.00  0.00    -0.504 OA
ATOM     21  H   UNL     1      81.378  16.291  45.532  1.00  0.00     0.293 HD
ENDBRANCH  14  20
ENDBRANCH   1  12
BRANCH   6  22
ATOM     22  O   UNL     1      81.523   9.332  51.496  1.00  0.00    -0.507 OA
ATOM     23  H   UNL     1      81.330   8.855  52.365  1.00  0.00     0.293 HD
ENDBRANCH   6  22
BRANCH   8  24
ATOM     24  O   UNL     1      79.646   6.435  48.165  1.00  0.00    -0.508 OA
ATOM     25  H   UNL     1      79.364   6.265  47.206  1.00  0.00     0.293 HD
ENDBRANCH   8  24
TORSDOF 5
ENDMDL
MODEL 5
REMARK VINA RESULT:    -5.698      3.378      6.117
REMARK INTER + INTRA:          -7.232
REMARK INTER:                  -6.849
REMARK INTRA:                  -0.383
REMARK UNBOUND:                -0.368
REMARK SMILES COc1ccc([C@@H]2CC(=O)c3c(O)cc(O)cc3O2)cc1O
REMARK SMILES IDX 7 1 8 2 9 3 10 4 11 5 12 6 14 7 15 8 17 9 18 10 19 11 6 12
REMARK SMILES IDX 3 13 21 14 4 15 20 16 5 17 2 18 1 19 22 20 13 22 16 24
REMARK H PARENT 22 21 13 23 16 25
REMARK Flexibility Score: inf
ROOT
ATOM      1  C   UNL     1      80.875   9.665  51.146  1.00  0.00     0.211 C 
ATOM      2  C   UNL     1      82.268   9.388  50.564  1.00  0.00     0.131 C 
ATOM      3  C   UNL     1      82.295   9.824  49.128  1.00  0.00     0.174 C 
ATOM      4  O   UNL     1      82.790   9.058  48.260  1.00  0.00    -0.294 OA
ATOM      5  C   UNL     1      81.680  11.123  48.764  1.00  0.00     0.102 A 
ATOM      6  C   UNL     1      81.958  11.829  47.564  1.00  0.00     0.133 A 
ATOM      7  C   UNL     1      81.269  13.015  47.287  1.00  0.00     0.093 A 
ATOM      8  C   UNL     1      80.355  13.544  48.200  1.00  0.00     0.123 A 
ATOM      9  C   UNL     1      80.112  12.877  49.404  1.00  0.00     0.093 A 
ATOM     10  C   UNL     1      80.758  11.671  49.684  1.00  0.00     0.138 A 
ATOM     11  O   UNL     1      80.484  11.017  50.894  1.00  0.00    -0.484 OA
ENDROOT
BRANCH   1  12
ATOM     12  C   UNL     1      80.852   9.389  52.630  1.00  0.00    -0.003 A 
ATOM     13  C   UNL     1      80.742   8.842  55.397  1.00  0.00     0.160 A 
ATOM     14  C   UNL     1      80.085   9.968  54.868  1.00  0.00     0.158 A 
ATOM     15  C   UNL     1      81.446   7.988  54.525  1.00  0.00     0.051 A 
ATOM     16  C   UNL     1      80.138  10.232  53.495  1.00  0.00     0.057 A 
ATOM     17  C   UNL     1      81.495   8.258  53.156  1.00  0.00     0.011 A 
BRANCH  13  18
ATOM     18  O   UNL     1      80.674   8.602  56.777  1.00  0.00    -0.493 OA
ATOM     19  C   UNL     1      81.635   9.056  57.725  1.00  0.00     0.278 C 
ENDBRANCH  13  18
BRANCH  14  20
ATOM     20  O   UNL     1      79.369  10.837  55.692  1.00  0.00    -0.504 OA
ATOM     21  H   UNL     1      79.796  11.305  56.482  1.00  0.00     0.293 HD
ENDBRANCH  14  20
ENDBRANCH   1  12
BRANCH   6  22
ATOM     22  O   UNL     1      82.924  11.417  46.643  1.00  0.00    -0.507 OA
ATOM     23  H   UNL     1      83.894  11.696  46.679  1.00  0.00     0.293 HD
ENDBRANCH   6  22
BRANCH   8  24
ATOM     24  O   UNL     1      79.698  14.737  47.904  1.00  0.00    -0.508 OA
ATOM     25  H   UNL     1      78.784  14.947  48.288  1.00  0.00     0.293 HD
ENDBRANCH   8  24
TORSDOF 5
ENDMDL
MODEL 6
REMARK VINA RESULT:    -5.548      8.984     12.042
REMARK INTER + INTRA:          -7.051
REMARK INTER:                  -6.670
REMARK INTRA:                  -0.381
REMARK UNBOUND:                -0.368
REMARK SMILES COc1ccc([C@@H]2CC(=O)c3c(O)cc(O)cc3O2)cc1O
REMARK SMILES IDX 7 1 8 2 9 3 10 4 11 5 12 6 14 7 15 8 17 9 18 10 19 11 6 12
REMARK SMILES IDX 3 13 21 14 4 15 20 16 5 17 2 18 1 19 22 20 13 22 16 24
REMARK H PARENT 22 21 13 23 16 25
REMARK Flexibility Score: inf
ROOT
ATOM      1  C   UNL     1      80.817  13.223  57.904  1.00  0.00     0.211 C 
ATOM      2  C   UNL     1      81.109  12.970  59.390  1.00  0.00     0.131 C 
ATOM      3  C   UNL     1      80.905  14.246  60.153  1.00  0.00     0.174 C 
ATOM      4  O   UNL     1      81.772  14.609  60.992  1.00  0.00    -0.294 OA
ATOM      5  C   UNL     1      79.714  15.077  59.852  1.00  0.00     0.102 A 
ATOM      6  C   UNL     1      79.194  16.071  60.722  1.00  0.00     0.133 A 
ATOM      7  C   UNL     1      78.105  16.846  60.310  1.00  0.00     0.093 A 
ATOM      8  C   UNL     1      77.487  16.618  59.079  1.00  0.00     0.123 A 
ATOM      9  C   UNL     1      77.966  15.610  58.238  1.00  0.00     0.093 A 
ATOM     10  C   UNL     1      79.077  14.850  58.612  1.00  0.00     0.138 A 
ATOM     11  O   UNL     1      79.544  13.855  57.742  1.00  0.00    -0.484 OA
ENDROOT
BRANCH   1  12
ATOM     12  C   UNL     1      80.855  11.930  57.126  1.00  0.00    -0.003 A 
ATOM     13  C   UNL     1      80.983   9.540  55.630  1.00  0.00     0.160 A 
ATOM     14  C   UNL     1      80.313  10.665  55.116  1.00  0.00     0.158 A 
ATOM     15  C   UNL     1      81.596   9.627  56.895  1.00  0.00     0.051 A 
ATOM     16  C   UNL     1      80.257  11.850  55.859  1.00  0.00     0.057 A 
ATOM     17  C   UNL     1      81.537  10.812  57.631  1.00  0.00     0.011 A 
BRANCH  13  18
ATOM     18  O   UNL     1      81.022   8.365  54.864  1.00  0.00    -0.493 OA
ATOM     19  C   UNL     1      82.154   7.923  54.120  1.00  0.00     0.278 C 
ENDBRANCH  13  18
BRANCH  14  20
ATOM     20  O   UNL     1      79.697  10.628  53.865  1.00  0.00    -0.504 OA
ATOM     21  H   UNL     1      79.932  11.282  53.128  1.00  0.00     0.293 HD
ENDBRANCH  14  20
ENDBRANCH   1  12
BRANCH   6  22
ATOM     22  O   UNL     1      79.696  16.299  62.006  1.00  0.00    -0.507 OA
ATOM     23  H   UNL     1      79.127  16.315  62.840  1.00  0.00     0.293 HD
ENDBRANCH   6  22
BRANCH   8  24
ATOM     24  O   UNL     1      76.393  17.395  58.704  1.00  0.00    -0.508 OA
ATOM     25  H   UNL     1      76.512  18.288  58.238  1.00  0.00     0.293 HD
ENDBRANCH   8  24
TORSDOF 5
ENDMDL
MODEL 7
REMARK VINA RESULT:    -5.499      3.214      9.021
REMARK INTER + INTRA:          -6.993
REMARK INTER:                  -6.629
REMARK INTRA:                  -0.364
REMARK UNBOUND:                -0.368
REMARK SMILES COc1ccc([C@@H]2CC(=O)c3c(O)cc(O)cc3O2)cc1O
REMARK SMILES IDX 7 1 8 2 9 3 10 4 11 5 12 6 14 7 15 8 17 9 18 10 19 11 6 12
REMARK SMILES IDX 3 13 21 14 4 15 20 16 5 17 2 18 1 19 22 20 13 22 16 24
REMARK H PARENT 22 21 13 23 16 25
REMARK Flexibility Score: inf
ROOT
ATOM      1  C   UNL     1      81.353   9.304  50.100  1.00  0.00     0.211 C 
ATOM      2  C   UNL     1      80.298   8.286  49.644  1.00  0.00     0.131 C 
ATOM      3  C   UNL     1      80.494   7.005  50.401  1.00  0.00     0.174 C 
ATOM      4  O   UNL     1      80.484   5.911  49.776  1.00  0.00    -0.294 OA
ATOM      5  C   UNL     1      80.754   7.069  51.860  1.00  0.00     0.102 A 
ATOM      6  C   UNL     1      80.578   5.977  52.750  1.00  0.00     0.133 A 
ATOM      7  C   UNL     1      80.920   6.126  54.099  1.00  0.00     0.093 A 
ATOM      8  C   UNL     1      81.376   7.349  54.593  1.00  0.00     0.123 A 
ATOM      9  C   UNL     1      81.507   8.441  53.729  1.00  0.00     0.093 A 
ATOM     10  C   UNL     1      81.210   8.304  52.371  1.00  0.00     0.138 A 
ATOM     11  O   UNL     1      81.364   9.412  51.526  1.00  0.00    -0.484 OA
ENDROOT
BRANCH   1  12
ATOM     12  C   UNL     1      81.093  10.655  49.481  1.00  0.00    -0.003 A 
ATOM     13  C   UNL     1      80.663  13.210  48.363  1.00  0.00     0.160 A 
ATOM     14  C   UNL     1      80.147  12.894  49.633  1.00  0.00     0.158 A 
ATOM     15  C   UNL     1      81.404  12.238  47.663  1.00  0.00     0.051 A 
ATOM     16  C   UNL     1      80.367  11.628  50.185  1.00  0.00     0.057 A 
ATOM     17  C   UNL     1      81.621  10.977  48.221  1.00  0.00     0.011 A 
BRANCH  13  18
ATOM     18  O   UNL     1      80.425  14.488  47.832  1.00  0.00    -0.493 OA
ATOM     19  C   UNL     1      79.714  14.742  46.625  1.00  0.00     0.278 C 
ENDBRANCH  13  18
BRANCH  14  20
ATOM     20  O   UNL     1      79.413  13.828  50.365  1.00  0.00    -0.504 OA
ATOM     21  H   UNL     1      78.663  13.556  50.988  1.00  0.00     0.293 HD
ENDBRANCH  14  20
ENDBRANCH   1  12
BRANCH   6  22
ATOM     22  O   UNL     1      80.041   4.749  52.355  1.00  0.00    -0.507 OA
ATOM     23  H   UNL     1      79.463   4.623  51.536  1.00  0.00     0.293 HD
ENDBRANCH   6  22
BRANCH   8  24
ATOM     24  O   UNL     1      81.691   7.472  55.944  1.00  0.00    -0.508 OA
ATOM     25  H   UNL     1      81.130   8.040  56.569  1.00  0.00     0.293 HD
ENDBRANCH   8  24
TORSDOF 5
ENDMDL
MODEL 8
REMARK VINA RESULT:    -5.392      4.439      6.681
REMARK INTER + INTRA:          -6.864
REMARK INTER:                  -6.515
REMARK INTRA:                  -0.350
REMARK UNBOUND:                -0.368
REMARK SMILES COc1ccc([C@@H]2CC(=O)c3c(O)cc(O)cc3O2)cc1O
REMARK SMILES IDX 7 1 8 2 9 3 10 4 11 5 12 6 14 7 15 8 17 9 18 10 19 11 6 12
REMARK SMILES IDX 3 13 21 14 4 15 20 16 5 17 2 18 1 19 22 20 13 22 16 24
REMARK H PARENT 22 21 13 23 16 25
REMARK Flexibility Score: inf
ROOT
ATOM      1  C   UNL     1      80.160   8.383  47.507  1.00  0.00     0.211 C 
ATOM      2  C   UNL     1      81.668   8.499  47.243  1.00  0.00     0.131 C 
ATOM      3  C   UNL     1      82.015   9.940  47.006  1.00  0.00     0.174 C 
ATOM      4  O   UNL     1      82.755  10.244  46.033  1.00  0.00    -0.294 OA
ATOM      5  C   UNL     1      81.424  10.973  47.891  1.00  0.00     0.102 A 
ATOM      6  C   UNL     1      81.939  12.288  48.038  1.00  0.00     0.133 A 
ATOM      7  C   UNL     1      81.264  13.206  48.849  1.00  0.00     0.093 A 
ATOM      8  C   UNL     1      80.122  12.832  49.560  1.00  0.00     0.123 A 
ATOM      9  C   UNL     1      79.637  11.524  49.456  1.00  0.00     0.093 A 
ATOM     10  C   UNL     1      80.273  10.602  48.621  1.00  0.00     0.138 A 
ATOM     11  O   UNL     1      79.755   9.303  48.526  1.00  0.00    -0.484 OA
ENDROOT
BRANCH   1  12
ATOM     12  C   UNL     1      79.795   6.975  47.907  1.00  0.00    -0.003 A 
ATOM     13  C   UNL     1      79.147   4.315  48.594  1.00  0.00     0.160 A 
ATOM     14  C   UNL     1      78.379   5.010  47.642  1.00  0.00     0.158 A 
ATOM     15  C   UNL     1      80.247   4.962  49.191  1.00  0.00     0.051 A 
ATOM     16  C   UNL     1      78.707   6.327  47.300  1.00  0.00     0.057 A 
ATOM     17  C   UNL     1      80.569   6.275  48.845  1.00  0.00     0.011 A 
BRANCH  13  18
ATOM     18  O   UNL     1      78.794   2.996  48.919  1.00  0.00    -0.493 OA
ATOM     19  C   UNL     1      77.941   2.630  49.999  1.00  0.00     0.278 C 
ENDBRANCH  13  18
BRANCH  14  20
ATOM     20  O   UNL     1      77.286   4.408  47.020  1.00  0.00    -0.504 OA
ATOM     21  H   UNL     1      77.391   3.634  46.375  1.00  0.00     0.293 HD
ENDBRANCH  14  20
ENDBRANCH   1  12
BRANCH   6  22
ATOM     22  O   UNL     1      83.125  12.714  47.434  1.00  0.00    -0.507 OA
ATOM     23  H   UNL     1      84.047  12.447  47.749  1.00  0.00     0.293 HD
ENDBRANCH   6  22
BRANCH   8  24
ATOM     24  O   UNL     1      79.482  13.763  50.374  1.00  0.00    -0.508 OA
ATOM     25  H   UNL     1      79.764  13.909  51.337  1.00  0.00     0.293 HD
ENDBRANCH   8  24
TORSDOF 5
ENDMDL
MODEL 9
REMARK VINA RESULT:    -5.378     11.738     13.498
REMARK INTER + INTRA:          -6.847
REMARK INTER:                  -6.497
REMARK INTRA:                  -0.350
REMARK UNBOUND:                -0.368
REMARK SMILES COc1ccc([C@@H]2CC(=O)c3c(O)cc(O)cc3O2)cc1O
REMARK SMILES IDX 7 1 8 2 9 3 10 4 11 5 12 6 14 7 15 8 17 9 18 10 19 11 6 12
REMARK SMILES IDX 3 13 21 14 4 15 20 16 5 17 2 18 1 19 22 20 13 22 16 24
REMARK H PARENT 22 21 13 23 16 25
REMARK Flexibility Score: inf
ROOT
ATOM      1  C   UNL     1      73.755   2.658  46.561  1.00  0.00     0.211 C 
ATOM      2  C   UNL     1      72.736   3.740  46.946  1.00  0.00     0.131 C 
ATOM      3  C   UNL     1      71.565   3.665  46.010  1.00  0.00     0.174 C 
ATOM      4  O   UNL     1      71.115   4.725  45.499  1.00  0.00    -0.294 OA
ATOM      5  C   UNL     1      71.008   2.334  45.667  1.00  0.00     0.102 A 
ATOM      6  C   UNL     1      69.710   2.127  45.129  1.00  0.00     0.133 A 
ATOM      7  C   UNL     1      69.309   0.834  44.775  1.00  0.00     0.093 A 
ATOM      8  C   UNL     1      70.145  -0.262  44.997  1.00  0.00     0.123 A 
ATOM      9  C   UNL     1      71.406  -0.069  45.570  1.00  0.00     0.093 A 
ATOM     10  C   UNL     1      71.843   1.217  45.894  1.00  0.00     0.138 A 
ATOM     11  O   UNL     1      73.117   1.382  46.454  1.00  0.00    -0.484 OA
ENDROOT
BRANCH   1  12
ATOM     12  C   UNL     1      74.873   2.594  47.572  1.00  0.00    -0.003 A 
ATOM     13  C   UNL     1      76.987   2.411  49.433  1.00  0.00     0.160 A 
ATOM     14  C   UNL     1      75.813   1.657  49.615  1.00  0.00     0.158 A 
ATOM     15  C   UNL     1      77.095   3.248  48.306  1.00  0.00     0.051 A 
ATOM     16  C   UNL     1      74.770   1.747  48.687  1.00  0.00     0.057 A 
ATOM     17  C   UNL     1      76.050   3.333  47.384  1.00  0.00     0.011 A 
BRANCH  13  18
ATOM     18  O   UNL     1      78.017   2.302  50.380  1.00  0.00    -0.493 OA
ATOM     19  C   UNL     1      78.850   3.380  50.796  1.00  0.00     0.278 C 
ENDBRANCH  13  18
BRANCH  14  20
ATOM     20  O   UNL     1      75.665   0.809  50.712  1.00  0.00    -0.504 OA
ATOM     21  H   UNL     1      74.761   0.457  51.005  1.00  0.00     0.293 HD
ENDBRANCH  14  20
ENDBRANCH   1  12
BRANCH   6  22
ATOM     22  O   UNL     1      68.781   3.156  44.961  1.00  0.00    -0.507 OA
ATOM     23  H   UNL     1      67.790   3.007  44.835  1.00  0.00     0.293 HD
ENDBRANCH   6  22
BRANCH   8  24
ATOM     24  O   UNL     1      69.711  -1.540  44.652  1.00  0.00    -0.508 OA
ATOM     25  H   UNL     1      70.353  -2.240  44.297  1.00  0.00     0.293 HD
ENDBRANCH   8  24
TORSDOF 5
ENDMDL
