MODEL 1
REMARK VINA RESULT:    -3.760      0.000      0.000
REMARK INTER + INTRA:          -4.921
REMARK INTER:                  -4.640
REMARK INTRA:                  -0.281
REMARK UNBOUND:                -0.281
REMARK SMILES C=CC[C@@H](C)C(=O)CC
REMARK SMILES IDX 4 1 5 2 6 3 7 4 8 5 9 6 3 7 2 8 1 9
REMARK H PARENT
REMARK Flexibility Score: inf
ROOT
ATOM      1  C   UNL     1       3.268   5.582 107.931  1.00  0.00     0.057 C 
ATOM      2  C   UNL     1       3.138   7.106 107.858  1.00  0.00     0.016 C 
ENDROOT
BRANCH   1   3
ATOM      3  C   UNL     1       2.651   4.953 106.697  1.00  0.00     0.135 C 
ATOM      4  O   UNL     1       1.632   5.431 106.218  1.00  0.00    -0.299 OA
BRANCH   3   5
ATOM      5  C   UNL     1       3.259   3.733 106.057  1.00  0.00     0.072 C 
ATOM      6  C   UNL     1       2.870   2.467 106.813  1.00  0.00     0.012 C 
ENDBRANCH   3   5
ENDBRANCH   1   3
BRANCH   1   7
ATOM      7  C   UNL     1       4.745   5.172 108.090  1.00  0.00     0.038 C 
BRANCH   7   8
ATOM      8  C   UNL     1       4.954   4.343 109.330  1.00  0.00    -0.034 C 
ATOM      9  C   UNL     1       6.018   3.549 109.476  1.00  0.00     0.004 C 
ENDBRANCH   7   8
ENDBRANCH   1   7
TORSDOF 4
ENDMDL
MODEL 2
REMARK VINA RESULT:    -3.699      2.014      3.618
REMARK INTER + INTRA:          -4.845
REMARK INTER:                  -4.379
REMARK INTRA:                  -0.465
REMARK UNBOUND:                -0.281
REMARK SMILES C=CC[C@@H](C)C(=O)CC
REMARK SMILES IDX 4 1 5 2 6 3 7 4 8 5 9 6 3 7 2 8 1 9
REMARK H PARENT
REMARK Flexibility Score: inf
ROOT
ATOM      1  C   UNL     1       4.758   4.902 108.253  1.00  0.00     0.057 C 
ATOM      2  C   UNL     1       3.441   5.682 108.312  1.00  0.00     0.016 C 
ENDROOT
BRANCH   1   3
ATOM      3  C   UNL     1       5.043   4.273 109.602  1.00  0.00     0.135 C 
ATOM      4  O   UNL     1       4.450   4.672 110.595  1.00  0.00    -0.299 OA
BRANCH   3   5
ATOM      5  C   UNL     1       6.063   3.174 109.750  1.00  0.00     0.072 C 
ATOM      6  C   UNL     1       5.496   2.004 110.547  1.00  0.00     0.012 C 
ENDBRANCH   3   5
ENDBRANCH   1   3
BRANCH   1   7
ATOM      7  C   UNL     1       4.708   3.839 107.138  1.00  0.00     0.038 C 
BRANCH   7   8
ATOM      8  C   UNL     1       3.372   3.146 107.099  1.00  0.00    -0.034 C 
ATOM      9  C   UNL     1       3.265   1.816 107.165  1.00  0.00     0.004 C 
ENDBRANCH   7   8
ENDBRANCH   1   7
TORSDOF 4
ENDMDL
MODEL 3
REMARK VINA RESULT:    -3.606      2.214      4.005
REMARK INTER + INTRA:          -4.730
REMARK INTER:                  -4.529
REMARK INTRA:                  -0.201
REMARK UNBOUND:                -0.281
REMARK SMILES C=CC[C@@H](C)C(=O)CC
REMARK SMILES IDX 4 1 5 2 6 3 7 4 8 5 9 6 3 7 2 8 1 9
REMARK H PARENT
REMARK Flexibility Score: inf
ROOT
ATOM      1  C   UNL     1       4.593   4.004 108.128  1.00  0.00     0.057 C 
ATOM      2  C   UNL     1       5.716   4.525 107.226  1.00  0.00     0.016 C 
ENDROOT
BRANCH   1   3
ATOM      3  C   UNL     1       5.075   3.942 109.564  1.00  0.00     0.135 C 
ATOM      4  O   UNL     1       4.654   4.748 110.381  1.00  0.00    -0.299 OA
BRANCH   3   5
ATOM      5  C   UNL     1       6.084   2.913 110.003  1.00  0.00     0.072 C 
ATOM      6  C   UNL     1       5.422   1.811 110.823  1.00  0.00     0.012 C 
ENDBRANCH   3   5
ENDBRANCH   1   3
BRANCH   1   7
ATOM      7  C   UNL     1       3.338   4.889 107.996  1.00  0.00     0.038 C 
BRANCH   7   8
ATOM      8  C   UNL     1       3.681   6.248 107.444  1.00  0.00    -0.034 C 
ATOM      9  C   UNL     1       3.016   7.347 107.812  1.00  0.00     0.004 C 
ENDBRANCH   7   8
ENDBRANCH   1   7
TORSDOF 4
ENDMDL
MODEL 4
REMARK VINA RESULT:    -3.581      0.821      2.701
REMARK INTER + INTRA:          -4.699
REMARK INTER:                  -4.370
REMARK INTRA:                  -0.329
REMARK UNBOUND:                -0.281
REMARK SMILES C=CC[C@@H](C)C(=O)CC
REMARK SMILES IDX 4 1 5 2 6 3 7 4 8 5 9 6 3 7 2 8 1 9
REMARK H PARENT
REMARK Flexibility Score: inf
ROOT
ATOM      1  C   UNL     1       4.030   3.956 106.744  1.00  0.00     0.057 C 
ATOM      2  C   UNL     1       3.527   2.565 107.145  1.00  0.00     0.016 C 
ENDROOT
BRANCH   1   3
ATOM      3  C   UNL     1       2.990   5.000 107.099  1.00  0.00     0.135 C 
ATOM      4  O   UNL     1       1.986   5.115 106.411  1.00  0.00    -0.299 OA
BRANCH   3   5
ATOM      5  C   UNL     1       3.180   5.920 108.277  1.00  0.00     0.072 C 
ATOM      6  C   UNL     1       3.123   7.381 107.845  1.00  0.00     0.012 C 
ENDBRANCH   3   5
ENDBRANCH   1   3
BRANCH   1   7
ATOM      7  C   UNL     1       5.382   4.258 107.419  1.00  0.00     0.038 C 
BRANCH   7   8
ATOM      8  C   UNL     1       5.697   3.249 108.491  1.00  0.00    -0.034 C 
ATOM      9  C   UNL     1       5.996   3.618 109.740  1.00  0.00     0.004 C 
ENDBRANCH   7   8
ENDBRANCH   1   7
TORSDOF 4
ENDMDL
MODEL 5
REMARK VINA RESULT:    -3.578      1.620      2.623
REMARK INTER + INTRA:          -4.696
REMARK INTER:                  -4.476
REMARK INTRA:                  -0.221
REMARK UNBOUND:                -0.281
REMARK SMILES C=CC[C@@H](C)C(=O)CC
REMARK SMILES IDX 4 1 5 2 6 3 7 4 8 5 9 6 3 7 2 8 1 9
REMARK H PARENT
REMARK Flexibility Score: inf
ROOT
ATOM      1  C   UNL     1       5.068   4.485 108.353  1.00  0.00     0.057 C 
ATOM      2  C   UNL     1       5.360   3.295 107.433  1.00  0.00     0.016 C 
ENDROOT
BRANCH   1   3
ATOM      3  C   UNL     1       3.651   4.972 108.129  1.00  0.00     0.135 C 
ATOM      4  O   UNL     1       3.209   5.887 108.809  1.00  0.00    -0.299 OA
BRANCH   3   5
ATOM      5  C   UNL     1       2.762   4.334 107.093  1.00  0.00     0.072 C 
ATOM      6  C   UNL     1       2.028   5.392 106.275  1.00  0.00     0.012 C 
ENDBRANCH   3   5
ENDBRANCH   1   3
BRANCH   1   7
ATOM      7  C   UNL     1       5.302   4.099 109.827  1.00  0.00     0.038 C 
BRANCH   7   8
ATOM      8  C   UNL     1       5.622   2.634 109.967  1.00  0.00    -0.034 C 
ATOM      9  C   UNL     1       5.189   1.913 111.005  1.00  0.00     0.004 C 
ENDBRANCH   7   8
ENDBRANCH   1   7
TORSDOF 4
ENDMDL
MODEL 6
REMARK VINA RESULT:    -3.522      2.180      4.086
REMARK INTER + INTRA:          -4.627
REMARK INTER:                  -4.400
REMARK INTRA:                  -0.226
REMARK UNBOUND:                -0.281
REMARK SMILES C=CC[C@@H](C)C(=O)CC
REMARK SMILES IDX 4 1 5 2 6 3 7 4 8 5 9 6 3 7 2 8 1 9
REMARK H PARENT
REMARK Flexibility Score: inf
ROOT
ATOM      1  C   UNL     1       4.512   3.671 108.133  1.00  0.00     0.057 C 
ATOM      2  C   UNL     1       3.762   2.776 107.141  1.00  0.00     0.016 C 
ENDROOT
BRANCH   1   3
ATOM      3  C   UNL     1       5.920   3.145 108.336  1.00  0.00     0.135 C 
ATOM      4  O   UNL     1       6.630   2.922 107.365  1.00  0.00    -0.299 OA
BRANCH   3   5
ATOM      5  C   UNL     1       6.457   2.871 109.716  1.00  0.00     0.072 C 
ATOM      6  C   UNL     1       5.382   2.265 110.612  1.00  0.00     0.012 C 
ENDBRANCH   3   5
ENDBRANCH   1   3
BRANCH   1   7
ATOM      7  C   UNL     1       4.524   5.132 107.641  1.00  0.00     0.038 C 
BRANCH   7   8
ATOM      8  C   UNL     1       3.351   5.903 108.186  1.00  0.00    -0.034 C 
ATOM      9  C   UNL     1       3.085   7.152 107.793  1.00  0.00     0.004 C 
ENDBRANCH   7   8
ENDBRANCH   1   7
TORSDOF 4
ENDMDL
MODEL 7
REMARK VINA RESULT:    -3.476      2.223      3.394
REMARK INTER + INTRA:          -4.570
REMARK INTER:                  -4.227
REMARK INTRA:                  -0.343
REMARK UNBOUND:                -0.281
REMARK SMILES C=CC[C@@H](C)C(=O)CC
REMARK SMILES IDX 4 1 5 2 6 3 7 4 8 5 9 6 3 7 2 8 1 9
REMARK H PARENT
REMARK Flexibility Score: inf
ROOT
ATOM      1  C   UNL     1       5.440   4.047 108.692  1.00  0.00     0.057 C 
ATOM      2  C   UNL     1       4.934   4.327 110.110  1.00  0.00     0.016 C 
ENDROOT
BRANCH   1   3
ATOM      3  C   UNL     1       5.065   2.637 108.281  1.00  0.00     0.135 C 
ATOM      4  O   UNL     1       5.180   1.721 109.084  1.00  0.00    -0.299 OA
BRANCH   3   5
ATOM      5  C   UNL     1       4.571   2.335 106.891  1.00  0.00     0.072 C 
ATOM      6  C   UNL     1       3.080   2.015 106.896  1.00  0.00     0.012 C 
ENDBRANCH   3   5
ENDBRANCH   1   3
BRANCH   1   7
ATOM      7  C   UNL     1       4.879   5.087 107.702  1.00  0.00     0.038 C 
BRANCH   7   8
ATOM      8  C   UNL     1       3.599   5.696 108.213  1.00  0.00    -0.034 C 
ATOM      9  C   UNL     1       3.186   6.904 107.818  1.00  0.00     0.004 C 
ENDBRANCH   7   8
ENDBRANCH   1   7
TORSDOF 4
ENDMDL
MODEL 8
REMARK VINA RESULT:    -3.464      1.721      3.877
REMARK INTER + INTRA:          -4.555
REMARK INTER:                  -4.280
REMARK INTRA:                  -0.275
REMARK UNBOUND:                -0.281
REMARK SMILES C=CC[C@@H](C)C(=O)CC
REMARK SMILES IDX 4 1 5 2 6 3 7 4 8 5 9 6 3 7 2 8 1 9
REMARK H PARENT
REMARK Flexibility Score: inf
ROOT
ATOM      1  C   UNL     1       2.591   4.396 107.060  1.00  0.00     0.057 C 
ATOM      2  C   UNL     1       3.084   3.039 106.550  1.00  0.00     0.016 C 
ENDROOT
BRANCH   1   3
ATOM      3  C   UNL     1       3.566   4.947 108.081  1.00  0.00     0.135 C 
ATOM      4  O   UNL     1       3.310   5.992 108.663  1.00  0.00    -0.299 OA
BRANCH   3   5
ATOM      5  C   UNL     1       4.863   4.241 108.380  1.00  0.00     0.072 C 
ATOM      6  C   UNL     1       5.111   4.163 109.882  1.00  0.00     0.012 C 
ENDBRANCH   3   5
ENDBRANCH   1   3
BRANCH   1   7
ATOM      7  C   UNL     1       2.393   5.376 105.888  1.00  0.00     0.038 C 
BRANCH   7   8
ATOM      8  C   UNL     1       3.591   5.389 104.975  1.00  0.00    -0.034 C 
ATOM      9  C   UNL     1       3.513   5.825 103.715  1.00  0.00     0.004 C 
ENDBRANCH   7   8
ENDBRANCH   1   7
TORSDOF 4
ENDMDL
MODEL 9
REMARK VINA RESULT:    -3.438      2.545      4.325
REMARK INTER + INTRA:          -4.523
REMARK INTER:                  -4.214
REMARK INTRA:                  -0.309
REMARK UNBOUND:                -0.281
REMARK SMILES C=CC[C@@H](C)C(=O)CC
REMARK SMILES IDX 4 1 5 2 6 3 7 4 8 5 9 6 3 7 2 8 1 9
REMARK H PARENT
REMARK Flexibility Score: inf
ROOT
ATOM      1  C   UNL     1       6.140   2.987 110.152  1.00  0.00     0.057 C 
ATOM      2  C   UNL     1       7.088   2.572 109.022  1.00  0.00     0.016 C 
ENDROOT
BRANCH   1   3
ATOM      3  C   UNL     1       5.164   4.031 109.645  1.00  0.00     0.135 C 
ATOM      4  O   UNL     1       4.564   4.737 110.443  1.00  0.00    -0.299 OA
BRANCH   3   5
ATOM      5  C   UNL     1       4.901   4.202 108.172  1.00  0.00     0.072 C 
ATOM      6  C   UNL     1       4.358   5.595 107.871  1.00  0.00     0.012 C 
ENDBRANCH   3   5
ENDBRANCH   1   3
BRANCH   1   7
ATOM      7  C   UNL     1       5.403   1.758 110.718  1.00  0.00     0.038 C 
BRANCH   7   8
ATOM      8  C   UNL     1       5.368   0.631 109.720  1.00  0.00    -0.034 C 
ATOM      9  C   UNL     1       4.223   0.203 109.179  1.00  0.00     0.004 C 
ENDBRANCH   7   8
ENDBRANCH   1   7
TORSDOF 4
ENDMDL
