MODEL 1
REMARK VINA RESULT:    -3.590      0.000      0.000
REMARK INTER + INTRA:          -7.904
REMARK INTER:                  -6.214
REMARK INTRA:                  -1.690
REMARK UNBOUND:                -1.690
REMARK SMILES CCCCCCCCCCCCCCO
REMARK SMILES IDX 8 1 7 2 6 3 5 4 4 5 3 6 2 7 1 8 9 9 10 10 11 11 12 12 13 13
REMARK SMILES IDX 14 14 15 15
REMARK H PARENT 15 16
REMARK Flexibility Score: inf
ROOT
ATOM      1  C   UNL     1     144.459 127.144 115.131  1.00  0.00     0.000 C 
ENDROOT
BRANCH   1   2
ATOM      2  C   UNL     1     143.067 127.803 115.069  1.00  0.00    -0.000 C 
BRANCH   2   3
ATOM      3  C   UNL     1     142.117 127.427 116.223  1.00  0.00    -0.000 C 
BRANCH   3   4
ATOM      4  C   UNL     1     141.846 128.557 117.233  1.00  0.00    -0.000 C 
BRANCH   4   5
ATOM      5  C   UNL     1     142.785 128.534 118.459  1.00  0.00    -0.000 C 
BRANCH   5   6
ATOM      6  C   UNL     1     143.491 127.178 118.633  1.00  0.00    -0.000 C 
BRANCH   6   7
ATOM      7  C   UNL     1     145.016 127.319 118.761  1.00  0.00    -0.003 C 
ATOM      8  C   UNL     1     145.427 128.522 119.611  1.00  0.00     0.004 C 
ENDBRANCH   6   7
ENDBRANCH   5   6
ENDBRANCH   4   5
ENDBRANCH   3   4
ENDBRANCH   2   3
ENDBRANCH   1   2
BRANCH   1   9
ATOM      9  C   UNL     1     145.572 127.898 114.378  1.00  0.00     0.000 C 
BRANCH   9  10
ATOM     10  C   UNL     1     145.522 129.435 114.502  1.00  0.00     0.000 C 
BRANCH  10  11
ATOM     11  C   UNL     1     146.056 130.000 115.831  1.00  0.00     0.000 C 
BRANCH  11  12
ATOM     12  C   UNL     1     144.985 130.767 116.627  1.00  0.00     0.002 C 
BRANCH  12  13
ATOM     13  C   UNL     1     144.824 132.219 116.151  1.00  0.00     0.028 C 
BRANCH  13  14
ATOM     14  C   UNL     1     146.166 132.897 115.846  1.00  0.00     0.156 C 
BRANCH  14  15
ATOM     15  O   UNL     1     146.784 133.302 117.037  1.00  0.00    -0.396 OA
ATOM     16  H   UNL     1     146.717 134.293 117.069  1.00  0.00     0.210 HD
ENDBRANCH  14  15
ENDBRANCH  13  14
ENDBRANCH  12  13
ENDBRANCH  11  12
ENDBRANCH  10  11
ENDBRANCH   9  10
ENDBRANCH   1   9
TORSDOF 13
ENDMDL
MODEL 2
REMARK VINA RESULT:    -3.527      2.924      4.823
REMARK INTER + INTRA:          -7.795
REMARK INTER:                  -6.870
REMARK INTRA:                  -0.925
REMARK UNBOUND:                -1.690
REMARK SMILES CCCCCCCCCCCCCCO
REMARK SMILES IDX 8 1 7 2 6 3 5 4 4 5 3 6 2 7 1 8 9 9 10 10 11 11 12 12 13 13
REMARK SMILES IDX 14 14 15 15
REMARK H PARENT 15 16
REMARK Flexibility Score: inf
ROOT
ATOM      1  C   UNL     1     142.950 129.079 114.902  1.00  0.00     0.000 C 
ENDROOT
BRANCH   1   2
ATOM      2  C   UNL     1     142.317 127.714 115.242  1.00  0.00    -0.000 C 
BRANCH   2   3
ATOM      3  C   UNL     1     140.793 127.635 115.034  1.00  0.00    -0.000 C 
BRANCH   3   4
ATOM      4  C   UNL     1     140.173 128.844 114.310  1.00  0.00    -0.000 C 
BRANCH   4   5
ATOM      5  C   UNL     1     138.674 128.671 113.982  1.00  0.00    -0.000 C 
BRANCH   5   6
ATOM      6  C   UNL     1     138.130 127.303 114.425  1.00  0.00    -0.000 C 
BRANCH   6   7
ATOM      7  C   UNL     1     136.957 127.426 115.410  1.00  0.00    -0.003 C 
ATOM      8  C   UNL     1     137.383 127.221 116.864  1.00  0.00     0.004 C 
ENDBRANCH   6   7
ENDBRANCH   5   6
ENDBRANCH   4   5
ENDBRANCH   3   4
ENDBRANCH   2   3
ENDBRANCH   1   2
BRANCH   1   9
ATOM      9  C   UNL     1     144.465 129.044 114.620  1.00  0.00     0.000 C 
BRANCH   9  10
ATOM     10  C   UNL     1     145.067 127.634 114.449  1.00  0.00     0.000 C 
BRANCH  10  11
ATOM     11  C   UNL     1     145.930 127.146 115.627  1.00  0.00     0.000 C 
BRANCH  11  12
ATOM     12  C   UNL     1     145.972 128.149 116.793  1.00  0.00     0.002 C 
BRANCH  12  13
ATOM     13  C   UNL     1     145.262 127.621 118.050  1.00  0.00     0.028 C 
BRANCH  13  14
ATOM     14  C   UNL     1     145.106 128.690 119.139  1.00  0.00     0.156 C 
BRANCH  14  15
ATOM     15  O   UNL     1     146.082 129.683 118.984  1.00  0.00    -0.396 OA
ATOM     16  H   UNL     1     146.680 129.621 119.775  1.00  0.00     0.210 HD
ENDBRANCH  14  15
ENDBRANCH  13  14
ENDBRANCH  12  13
ENDBRANCH  11  12
ENDBRANCH  10  11
ENDBRANCH   9  10
ENDBRANCH   1   9
TORSDOF 13
ENDMDL
MODEL 3
REMARK VINA RESULT:    -3.507      2.012      4.503
REMARK INTER + INTRA:          -7.760
REMARK INTER:                  -5.624
REMARK INTRA:                  -2.136
REMARK UNBOUND:                -1.690
REMARK SMILES CCCCCCCCCCCCCCO
REMARK SMILES IDX 8 1 7 2 6 3 5 4 4 5 3 6 2 7 1 8 9 9 10 10 11 11 12 12 13 13
REMARK SMILES IDX 14 14 15 15
REMARK H PARENT 15 16
REMARK Flexibility Score: inf
ROOT
ATOM      1  C   UNL     1     145.501 129.036 114.491  1.00  0.00     0.000 C 
ENDROOT
BRANCH   1   2
ATOM      2  C   UNL     1     146.106 129.612 115.787  1.00  0.00    -0.000 C 
BRANCH   2   3
ATOM      3  C   UNL     1     146.084 131.149 115.887  1.00  0.00    -0.000 C 
BRANCH   3   4
ATOM      4  C   UNL     1     144.681 131.769 116.024  1.00  0.00    -0.000 C 
BRANCH   4   5
ATOM      5  C   UNL     1     143.808 131.100 117.108  1.00  0.00    -0.000 C 
BRANCH   5   6
ATOM      6  C   UNL     1     142.350 130.912 116.656  1.00  0.00    -0.000 C 
BRANCH   6   7
ATOM      7  C   UNL     1     142.199 130.944 115.127  1.00  0.00    -0.003 C 
ATOM      8  C   UNL     1     141.522 129.689 114.575  1.00  0.00     0.004 C 
ENDBRANCH   6   7
ENDBRANCH   5   6
ENDBRANCH   4   5
ENDBRANCH   3   4
ENDBRANCH   2   3
ENDBRANCH   1   2
BRANCH   1   9
ATOM      9  C   UNL     1     144.627 127.781 114.681  1.00  0.00     0.000 C 
BRANCH   9  10
ATOM     10  C   UNL     1     144.619 127.198 116.109  1.00  0.00     0.000 C 
BRANCH  10  11
ATOM     11  C   UNL     1     143.277 127.318 116.855  1.00  0.00     0.000 C 
BRANCH  11  12
ATOM     12  C   UNL     1     143.452 127.492 118.374  1.00  0.00     0.002 C 
BRANCH  12  13
ATOM     13  C   UNL     1     144.929 127.572 118.791  1.00  0.00     0.028 C 
BRANCH  13  14
ATOM     14  C   UNL     1     145.280 128.891 119.490  1.00  0.00     0.156 C 
BRANCH  14  15
ATOM     15  O   UNL     1     146.436 128.733 120.266  1.00  0.00    -0.396 OA
ATOM     16  H   UNL     1     146.333 127.876 120.759  1.00  0.00     0.210 HD
ENDBRANCH  14  15
ENDBRANCH  13  14
ENDBRANCH  12  13
ENDBRANCH  11  12
ENDBRANCH  10  11
ENDBRANCH   9  10
ENDBRANCH   1   9
TORSDOF 13
ENDMDL
MODEL 4
REMARK VINA RESULT:    -3.506      2.917      4.661
REMARK INTER + INTRA:          -7.759
REMARK INTER:                  -6.153
REMARK INTRA:                  -1.606
REMARK UNBOUND:                -1.690
REMARK SMILES CCCCCCCCCCCCCCO
REMARK SMILES IDX 8 1 7 2 6 3 5 4 4 5 3 6 2 7 1 8 9 9 10 10 11 11 12 12 13 13
REMARK SMILES IDX 14 14 15 15
REMARK H PARENT 15 16
REMARK Flexibility Score: inf
ROOT
ATOM      1  C   UNL     1     141.699 129.821 115.561  1.00  0.00     0.000 C 
ENDROOT
BRANCH   1   2
ATOM      2  C   UNL     1     141.160 129.859 114.117  1.00  0.00    -0.000 C 
BRANCH   2   3
ATOM      3  C   UNL     1     139.651 130.141 113.992  1.00  0.00    -0.000 C 
BRANCH   3   4
ATOM      4  C   UNL     1     138.877 129.149 113.104  1.00  0.00    -0.000 C 
BRANCH   4   5
ATOM      5  C   UNL     1     138.921 127.692 113.614  1.00  0.00    -0.000 C 
BRANCH   5   6
ATOM      6  C   UNL     1     138.000 127.465 114.824  1.00  0.00    -0.000 C 
BRANCH   6   7
ATOM      7  C   UNL     1     138.782 127.172 116.114  1.00  0.00    -0.003 C 
ATOM      8  C   UNL     1     138.611 128.264 117.170  1.00  0.00     0.004 C 
ENDBRANCH   6   7
ENDBRANCH   5   6
ENDBRANCH   4   5
ENDBRANCH   3   4
ENDBRANCH   2   3
ENDBRANCH   1   2
BRANCH   1   9
ATOM      9  C   UNL     1     142.194 128.441 116.037  1.00  0.00     0.000 C 
BRANCH   9  10
ATOM     10  C   UNL     1     142.946 127.612 114.975  1.00  0.00     0.000 C 
BRANCH  10  11
ATOM     11  C   UNL     1     144.480 127.636 115.095  1.00  0.00     0.000 C 
BRANCH  11  12
ATOM     12  C   UNL     1     145.106 128.914 114.507  1.00  0.00     0.002 C 
BRANCH  12  13
ATOM     13  C   UNL     1     145.779 129.786 115.579  1.00  0.00     0.028 C 
BRANCH  13  14
ATOM     14  C   UNL     1     145.696 129.174 116.983  1.00  0.00     0.156 C 
BRANCH  14  15
ATOM     15  O   UNL     1     146.141 130.097 117.938  1.00  0.00    -0.396 OA
ATOM     16  H   UNL     1     146.883 129.659 118.433  1.00  0.00     0.210 HD
ENDBRANCH  14  15
ENDBRANCH  13  14
ENDBRANCH  12  13
ENDBRANCH  11  12
ENDBRANCH  10  11
ENDBRANCH   9  10
ENDBRANCH   1   9
TORSDOF 13
ENDMDL
MODEL 5
REMARK VINA RESULT:    -3.484      1.638      4.486
REMARK INTER + INTRA:          -7.721
REMARK INTER:                  -5.723
REMARK INTRA:                  -1.998
REMARK UNBOUND:                -1.690
REMARK SMILES CCCCCCCCCCCCCCO
REMARK SMILES IDX 8 1 7 2 6 3 5 4 4 5 3 6 2 7 1 8 9 9 10 10 11 11 12 12 13 13
REMARK SMILES IDX 14 14 15 15
REMARK H PARENT 15 16
REMARK Flexibility Score: inf
ROOT
ATOM      1  C   UNL     1     142.926 128.025 115.192  1.00  0.00     0.000 C 
ENDROOT
BRANCH   1   2
ATOM      2  C   UNL     1     144.240 127.321 114.797  1.00  0.00    -0.000 C 
BRANCH   2   3
ATOM      3  C   UNL     1     145.496 128.210 114.851  1.00  0.00    -0.000 C 
BRANCH   3   4
ATOM      4  C   UNL     1     145.913 128.658 116.264  1.00  0.00    -0.000 C 
BRANCH   4   5
ATOM      5  C   UNL     1     146.089 130.185 116.406  1.00  0.00    -0.000 C 
BRANCH   5   6
ATOM      6  C   UNL     1     145.140 130.974 115.487  1.00  0.00    -0.000 C 
BRANCH   6   7
ATOM      7  C   UNL     1     144.160 131.859 116.273  1.00  0.00    -0.003 C 
ATOM      8  C   UNL     1     142.722 131.742 115.767  1.00  0.00     0.004 C 
ENDBRANCH   6   7
ENDBRANCH   5   6
ENDBRANCH   4   5
ENDBRANCH   3   4
ENDBRANCH   2   3
ENDBRANCH   1   2
BRANCH   1   9
ATOM      9  C   UNL     1     142.163 127.374 116.362  1.00  0.00     0.000 C 
BRANCH   9  10
ATOM     10  C   UNL     1     142.730 127.675 117.764  1.00  0.00     0.000 C 
BRANCH  10  11
ATOM     11  C   UNL     1     142.504 129.114 118.264  1.00  0.00     0.000 C 
BRANCH  11  12
ATOM     12  C   UNL     1     143.636 129.613 119.179  1.00  0.00     0.002 C 
BRANCH  12  13
ATOM     13  C   UNL     1     144.101 128.542 120.178  1.00  0.00     0.028 C 
BRANCH  13  14
ATOM     14  C   UNL     1     145.571 128.147 119.986  1.00  0.00     0.156 C 
BRANCH  14  15
ATOM     15  O   UNL     1     146.362 129.293 119.829  1.00  0.00    -0.396 OA
ATOM     16  H   UNL     1     147.177 129.155 120.380  1.00  0.00     0.210 HD
ENDBRANCH  14  15
ENDBRANCH  13  14
ENDBRANCH  12  13
ENDBRANCH  11  12
ENDBRANCH  10  11
ENDBRANCH   9  10
ENDBRANCH   1   9
TORSDOF 13
ENDMDL
MODEL 6
REMARK VINA RESULT:    -3.484      1.973      5.316
REMARK INTER + INTRA:          -7.721
REMARK INTER:                  -6.781
REMARK INTRA:                  -0.940
REMARK UNBOUND:                -1.690
REMARK SMILES CCCCCCCCCCCCCCO
REMARK SMILES IDX 8 1 7 2 6 3 5 4 4 5 3 6 2 7 1 8 9 9 10 10 11 11 12 12 13 13
REMARK SMILES IDX 14 14 15 15
REMARK H PARENT 15 16
REMARK Flexibility Score: inf
ROOT
ATOM      1  C   UNL     1     142.817 128.713 115.070  1.00  0.00     0.000 C 
ENDROOT
BRANCH   1   2
ATOM      2  C   UNL     1     143.684 129.937 114.711  1.00  0.00    -0.000 C 
BRANCH   2   3
ATOM      3  C   UNL     1     143.719 131.046 115.779  1.00  0.00    -0.000 C 
BRANCH   3   4
ATOM      4  C   UNL     1     145.085 131.735 115.954  1.00  0.00    -0.000 C 
BRANCH   4   5
ATOM      5  C   UNL     1     145.012 133.277 115.919  1.00  0.00    -0.000 C 
BRANCH   5   6
ATOM      6  C   UNL     1     146.318 133.916 115.417  1.00  0.00    -0.000 C 
BRANCH   6   7
ATOM      7  C   UNL     1     146.107 135.336 114.871  1.00  0.00    -0.003 C 
ATOM      8  C   UNL     1     146.722 135.532 113.484  1.00  0.00     0.004 C 
ENDBRANCH   6   7
ENDBRANCH   5   6
ENDBRANCH   4   5
ENDBRANCH   3   4
ENDBRANCH   2   3
ENDBRANCH   1   2
BRANCH   1   9
ATOM      9  C   UNL     1     143.548 127.358 115.019  1.00  0.00     0.000 C 
BRANCH   9  10
ATOM     10  C   UNL     1     145.080 127.444 114.869  1.00  0.00     0.000 C 
BRANCH  10  11
ATOM     11  C   UNL     1     145.881 127.115 116.142  1.00  0.00     0.000 C 
BRANCH  11  12
ATOM     12  C   UNL     1     145.737 128.190 117.234  1.00  0.00     0.002 C 
BRANCH  12  13
ATOM     13  C   UNL     1     145.009 127.668 118.482  1.00  0.00     0.028 C 
BRANCH  13  14
ATOM     14  C   UNL     1     145.498 128.330 119.777  1.00  0.00     0.156 C 
BRANCH  14  15
ATOM     15  O   UNL     1     146.267 129.463 119.478  1.00  0.00    -0.396 OA
ATOM     16  H   UNL     1     145.916 129.828 118.624  1.00  0.00     0.210 HD
ENDBRANCH  14  15
ENDBRANCH  13  14
ENDBRANCH  12  13
ENDBRANCH  11  12
ENDBRANCH  10  11
ENDBRANCH   9  10
ENDBRANCH   1   9
TORSDOF 13
ENDMDL
MODEL 7
REMARK VINA RESULT:    -3.413      4.127      6.280
REMARK INTER + INTRA:          -7.598
REMARK INTER:                  -6.262
REMARK INTRA:                  -1.336
REMARK UNBOUND:                -1.690
REMARK SMILES CCCCCCCCCCCCCCO
REMARK SMILES IDX 8 1 7 2 6 3 5 4 4 5 3 6 2 7 1 8 9 9 10 10 11 11 12 12 13 13
REMARK SMILES IDX 14 14 15 15
REMARK H PARENT 15 16
REMARK Flexibility Score: inf
ROOT
ATOM      1  C   UNL     1     141.938 129.687 115.109  1.00  0.00     0.000 C 
ENDROOT
BRANCH   1   2
ATOM      2  C   UNL     1     142.136 128.158 115.074  1.00  0.00    -0.000 C 
BRANCH   2   3
ATOM      3  C   UNL     1     142.577 127.529 116.408  1.00  0.00    -0.000 C 
BRANCH   3   4
ATOM      4  C   UNL     1     144.090 127.263 116.530  1.00  0.00    -0.000 C 
BRANCH   4   5
ATOM      5  C   UNL     1     144.815 127.165 115.170  1.00  0.00    -0.000 C 
BRANCH   5   6
ATOM      6  C   UNL     1     145.798 128.326 114.944  1.00  0.00    -0.000 C 
BRANCH   6   7
ATOM      7  C   UNL     1     145.774 129.351 116.089  1.00  0.00    -0.003 C 
ATOM      8  C   UNL     1     145.435 130.763 115.611  1.00  0.00     0.004 C 
ENDBRANCH   6   7
ENDBRANCH   5   6
ENDBRANCH   4   5
ENDBRANCH   3   4
ENDBRANCH   2   3
ENDBRANCH   1   2
BRANCH   1   9
ATOM      9  C   UNL     1     140.915 130.236 114.095  1.00  0.00     0.000 C 
BRANCH   9  10
ATOM     10  C   UNL     1     139.449 129.835 114.359  1.00  0.00     0.000 C 
BRANCH  10  11
ATOM     11  C   UNL     1     138.800 128.974 113.260  1.00  0.00     0.000 C 
BRANCH  11  12
ATOM     12  C   UNL     1     138.587 127.513 113.695  1.00  0.00     0.002 C 
BRANCH  12  13
ATOM     13  C   UNL     1     138.493 127.360 115.221  1.00  0.00     0.028 C 
BRANCH  13  14
ATOM     14  C   UNL     1     137.046 127.323 115.728  1.00  0.00     0.156 C 
BRANCH  14  15
ATOM     15  O   UNL     1     137.011 126.877 117.055  1.00  0.00    -0.396 OA
ATOM     16  H   UNL     1     137.879 127.135 117.465  1.00  0.00     0.210 HD
ENDBRANCH  14  15
ENDBRANCH  13  14
ENDBRANCH  12  13
ENDBRANCH  11  12
ENDBRANCH  10  11
ENDBRANCH   9  10
ENDBRANCH   1   9
TORSDOF 13
ENDMDL
MODEL 8
REMARK VINA RESULT:    -3.394      1.670      4.301
REMARK INTER + INTRA:          -7.565
REMARK INTER:                  -5.937
REMARK INTRA:                  -1.628
REMARK UNBOUND:                -1.690
REMARK SMILES CCCCCCCCCCCCCCO
REMARK SMILES IDX 8 1 7 2 6 3 5 4 4 5 3 6 2 7 1 8 9 9 10 10 11 11 12 12 13 13
REMARK SMILES IDX 14 14 15 15
REMARK H PARENT 15 16
REMARK Flexibility Score: inf
ROOT
ATOM      1  C   UNL     1     146.502 131.160 115.865  1.00  0.00     0.000 C 
ENDROOT
BRANCH   1   2
ATOM      2  C   UNL     1     146.016 129.697 115.825  1.00  0.00    -0.000 C 
BRANCH   2   3
ATOM      3  C   UNL     1     145.541 129.206 114.445  1.00  0.00    -0.000 C 
BRANCH   3   4
ATOM      4  C   UNL     1     145.129 127.723 114.391  1.00  0.00    -0.000 C 
BRANCH   4   5
ATOM      5  C   UNL     1     144.174 127.302 115.530  1.00  0.00    -0.000 C 
BRANCH   5   6
ATOM      6  C   UNL     1     142.696 127.369 115.112  1.00  0.00    -0.000 C 
BRANCH   6   7
ATOM      7  C   UNL     1     141.980 128.607 115.674  1.00  0.00    -0.003 C 
ATOM      8  C   UNL     1     140.992 129.219 114.681  1.00  0.00     0.004 C 
ENDBRANCH   6   7
ENDBRANCH   5   6
ENDBRANCH   4   5
ENDBRANCH   3   4
ENDBRANCH   2   3
ENDBRANCH   1   2
BRANCH   1   9
ATOM      9  C   UNL     1     145.580 132.134 116.624  1.00  0.00     0.000 C 
BRANCH   9  10
ATOM     10  C   UNL     1     144.097 132.096 116.202  1.00  0.00     0.000 C 
BRANCH  10  11
ATOM     11  C   UNL     1     143.135 131.508 117.251  1.00  0.00     0.000 C 
BRANCH  11  12
ATOM     12  C   UNL     1     143.857 131.032 118.524  1.00  0.00     0.002 C 
BRANCH  12  13
ATOM     13  C   UNL     1     143.754 129.512 118.726  1.00  0.00     0.028 C 
BRANCH  13  14
ATOM     14  C   UNL     1     144.966 128.925 119.460  1.00  0.00     0.156 C 
BRANCH  14  15
ATOM     15  O   UNL     1     146.085 129.749 119.278  1.00  0.00    -0.396 OA
ATOM     16  H   UNL     1     146.040 130.449 119.980  1.00  0.00     0.210 HD
ENDBRANCH  14  15
ENDBRANCH  13  14
ENDBRANCH  12  13
ENDBRANCH  11  12
ENDBRANCH  10  11
ENDBRANCH   9  10
ENDBRANCH   1   9
TORSDOF 13
ENDMDL
MODEL 9
REMARK VINA RESULT:    -3.351      2.369      4.191
REMARK INTER + INTRA:          -7.491
REMARK INTER:                  -6.283
REMARK INTRA:                  -1.208
REMARK UNBOUND:                -1.690
REMARK SMILES CCCCCCCCCCCCCCO
REMARK SMILES IDX 8 1 7 2 6 3 5 4 4 5 3 6 2 7 1 8 9 9 10 10 11 11 12 12 13 13
REMARK SMILES IDX 14 14 15 15
REMARK H PARENT 15 16
REMARK Flexibility Score: inf
ROOT
ATOM      1  C   UNL     1     143.112 127.702 115.064  1.00  0.00     0.000 C 
ENDROOT
BRANCH   1   2
ATOM      2  C   UNL     1     142.618 127.354 116.483  1.00  0.00    -0.000 C 
BRANCH   2   3
ATOM      3  C   UNL     1     141.643 128.373 117.100  1.00  0.00    -0.000 C 
BRANCH   3   4
ATOM      4  C   UNL     1     140.263 128.443 116.421  1.00  0.00    -0.000 C 
BRANCH   4   5
ATOM      5  C   UNL     1     140.085 129.670 115.499  1.00  0.00    -0.000 C 
BRANCH   5   6
ATOM      6  C   UNL     1     139.865 129.273 114.029  1.00  0.00    -0.000 C 
BRANCH   6   7
ATOM      7  C   UNL     1     138.575 128.464 113.824  1.00  0.00    -0.003 C 
ATOM      8  C   UNL     1     138.840 127.057 113.286  1.00  0.00     0.004 C 
ENDBRANCH   6   7
ENDBRANCH   5   6
ENDBRANCH   4   5
ENDBRANCH   3   4
ENDBRANCH   2   3
ENDBRANCH   1   2
BRANCH   1   9
ATOM      9  C   UNL     1     144.526 127.194 114.722  1.00  0.00     0.000 C 
BRANCH   9  10
ATOM     10  C   UNL     1     145.599 128.291 114.573  1.00  0.00     0.000 C 
BRANCH  10  11
ATOM     11  C   UNL     1     145.073 129.735 114.666  1.00  0.00     0.000 C 
BRANCH  11  12
ATOM     12  C   UNL     1     145.720 130.534 115.812  1.00  0.00     0.002 C 
BRANCH  12  13
ATOM     13  C   UNL     1     144.880 130.502 117.098  1.00  0.00     0.028 C 
BRANCH  13  14
ATOM     14  C   UNL     1     145.276 129.358 118.040  1.00  0.00     0.156 C 
BRANCH  14  15
ATOM     15  O   UNL     1     146.130 129.833 119.044  1.00  0.00    -0.396 OA
ATOM     16  H   UNL     1     145.583 129.908 119.870  1.00  0.00     0.210 HD
ENDBRANCH  14  15
ENDBRANCH  13  14
ENDBRANCH  12  13
ENDBRANCH  11  12
ENDBRANCH  10  11
ENDBRANCH   9  10
ENDBRANCH   1   9
TORSDOF 13
ENDMDL
