MODEL 1
REMARK VINA RESULT:    -3.789      0.000      0.000
REMARK INTER + INTRA:          -7.899
REMARK INTER:                  -5.783
REMARK INTRA:                  -2.116
REMARK UNBOUND:                -2.116
REMARK SMILES OC[C@@H]1O[C@](CO)(O[C@@H]2O[C@H](CO)[C@@H](O)[C@H](O)[C@@H]2O)[C@H](O)[C@@H]1O
REMARK SMILES IDX 8 1 9 2 11 3 14 4 10 5 16 6 18 7 12 8 13 9 15 11 17 13 19 15
REMARK SMILES IDX 5 17 20 18 4 19 22 20 3 21 6 22 7 23 21 25 23 27 2 29 1 30
REMARK H PARENT 13 10 15 12 17 14 19 16 7 24 21 26 23 28 1 31
REMARK Flexibility Score: inf
ROOT
ATOM      1  O   UNL     1     128.003 122.287 133.854  1.00  0.00    -0.313 OA
ENDROOT
BRANCH   1   2
ATOM      2  C   UNL     1     127.230 121.367 134.611  1.00  0.00     0.285 C 
ATOM      3  C   UNL     1     128.020 122.071 136.761  1.00  0.00     0.178 C 
ATOM      4  C   UNL     1     128.873 120.787 136.936  1.00  0.00     0.177 C 
ATOM      5  O   UNL     1     126.904 121.897 135.891  1.00  0.00    -0.341 OA
ATOM      6  C   UNL     1     129.225 120.139 135.587  1.00  0.00     0.179 C 
ATOM      7  C   UNL     1     127.965 120.016 134.725  1.00  0.00     0.202 C 
BRANCH   3   8
ATOM      8  C   UNL     1     128.846 123.332 136.431  1.00  0.00     0.191 C 
BRANCH   8   9
ATOM      9  O   UNL     1     127.994 124.358 135.997  1.00  0.00    -0.394 OA
ATOM     10  H   UNL     1     128.439 125.210 136.241  1.00  0.00     0.210 HD
ENDBRANCH   8   9
ENDBRANCH   3   8
BRANCH   4  11
ATOM     11  O   UNL     1     128.160 119.853 137.709  1.00  0.00    -0.387 OA
ATOM     12  H   UNL     1     127.263 120.242 137.880  1.00  0.00     0.211 HD
ENDBRANCH   4  11
BRANCH   6  13
ATOM     13  O   UNL     1     130.205 120.885 134.911  1.00  0.00    -0.387 OA
ATOM     14  H   UNL     1     131.011 120.309 134.843  1.00  0.00     0.211 HD
ENDBRANCH   6  13
BRANCH   7  15
ATOM     15  O   UNL     1     128.315 119.536 133.452  1.00  0.00    -0.385 OA
ATOM     16  H   UNL     1     129.304 119.437 133.445  1.00  0.00     0.211 HD
ENDBRANCH   7  15
ENDBRANCH   1   2
BRANCH   1  17
ATOM     17  C   UNL     1     127.323 122.973 132.797  1.00  0.00     0.224 C 
ATOM     18  C   UNL     1     127.920 122.599 131.427  1.00  0.00     0.208 C 
ATOM     19  O   UNL     1     127.596 124.347 132.987  1.00  0.00    -0.337 OA
ATOM     20  C   UNL     1     129.138 123.481 131.353  1.00  0.00     0.180 C 
ATOM     21  C   UNL     1     128.670 124.710 132.143  1.00  0.00     0.179 C 
BRANCH  17  22
ATOM     22  C   UNL     1     125.775 122.812 132.813  1.00  0.00     0.225 C 
BRANCH  22  23
ATOM     23  O   UNL     1     125.327 122.183 131.639  1.00  0.00    -0.391 OA
ATOM     24  H   UNL     1     124.880 121.339 131.907  1.00  0.00     0.210 HD
ENDBRANCH  22  23
ENDBRANCH  17  22
BRANCH  18  25
ATOM     25  O   UNL     1     128.244 121.238 131.323  1.00  0.00    -0.385 OA
ATOM     26  H   UNL     1     127.823 120.787 132.100  1.00  0.00     0.211 HD
ENDBRANCH  18  25
BRANCH  20  27
ATOM     27  O   UNL     1     130.235 122.844 131.964  1.00  0.00    -0.387 OA
ATOM     28  H   UNL     1     131.054 123.229 131.557  1.00  0.00     0.211 HD
ENDBRANCH  20  27
BRANCH  21  29
ATOM     29  C   UNL     1     129.768 125.410 132.957  1.00  0.00     0.191 C 
BRANCH  29  30
ATOM     30  O   UNL     1     130.189 124.597 134.018  1.00  0.00    -0.394 OA
ATOM     31  H   UNL     1     129.375 124.142 134.357  1.00  0.00     0.210 HD
ENDBRANCH  29  30
ENDBRANCH  21  29
ENDBRANCH   1  17
TORSDOF 13
ENDMDL
MODEL 2
REMARK VINA RESULT:    -3.783      8.021     10.054
REMARK INTER + INTRA:          -7.890
REMARK INTER:                  -5.772
REMARK INTRA:                  -2.117
REMARK UNBOUND:                -2.116
REMARK SMILES OC[C@@H]1O[C@](CO)(O[C@@H]2O[C@H](CO)[C@@H](O)[C@H](O)[C@@H]2O)[C@H](O)[C@@H]1O
REMARK SMILES IDX 8 1 9 2 11 3 14 4 10 5 16 6 18 7 12 8 13 9 15 11 17 13 19 15
REMARK SMILES IDX 5 17 20 18 4 19 22 20 3 21 6 22 7 23 21 25 23 27 2 29 1 30
REMARK H PARENT 13 10 15 12 17 14 19 16 7 24 21 26 23 28 1 31
REMARK Flexibility Score: inf
ROOT
ATOM      1  O   UNL     1     132.448 130.626 133.908  1.00  0.00    -0.313 OA
ENDROOT
BRANCH   1   2
ATOM      2  C   UNL     1     133.629 130.457 134.678  1.00  0.00     0.285 C 
ATOM      3  C   UNL     1     132.599 130.808 136.813  1.00  0.00     0.178 C 
ATOM      4  C   UNL     1     133.253 132.206 136.967  1.00  0.00     0.177 C 
ATOM      5  O   UNL     1     133.334 129.928 135.965  1.00  0.00    -0.341 OA
ATOM      6  C   UNL     1     133.636 132.817 135.609  1.00  0.00     0.179 C 
ATOM      7  C   UNL     1     134.402 131.788 134.773  1.00  0.00     0.202 C 
BRANCH   3   8
ATOM      8  C   UNL     1     131.096 130.854 136.469  1.00  0.00     0.191 C 
BRANCH   8   9
ATOM      9  O   UNL     1     130.664 129.585 136.056  1.00  0.00    -0.394 OA
ATOM     10  H   UNL     1     130.249 129.710 135.163  1.00  0.00     0.210 HD
ENDBRANCH   8   9
ENDBRANCH   3   8
BRANCH   4  11
ATOM     11  O   UNL     1     134.415 132.096 137.752  1.00  0.00    -0.387 OA
ATOM     12  H   UNL     1     134.133 131.761 138.643  1.00  0.00     0.211 HD
ENDBRANCH   4  11
BRANCH   6  13
ATOM     13  O   UNL     1     132.496 133.256 134.915  1.00  0.00    -0.387 OA
ATOM     14  H   UNL     1     131.796 132.563 135.041  1.00  0.00     0.211 HD
ENDBRANCH   6  13
BRANCH   7  15
ATOM     15  O   UNL     1     134.641 132.312 133.492  1.00  0.00    -0.385 OA
ATOM     16  H   UNL     1     134.455 131.583 132.843  1.00  0.00     0.211 HD
ENDBRANCH   7  15
ENDBRANCH   1   2
BRANCH   1  17
ATOM     17  C   UNL     1     132.217 129.663 132.874  1.00  0.00     0.224 C 
ATOM     18  C   UNL     1     132.236 130.331 131.486  1.00  0.00     0.208 C 
ATOM     19  O   UNL     1     130.898 129.191 133.070  1.00  0.00    -0.337 OA
ATOM     20  C   UNL     1     130.851 130.917 131.391  1.00  0.00     0.180 C 
ATOM     21  C   UNL     1     130.036 129.902 132.203  1.00  0.00     0.179 C 
BRANCH  17  22
ATOM     22  C   UNL     1     133.154 128.421 132.927  1.00  0.00     0.225 C 
BRANCH  22  23
ATOM     23  O   UNL     1     133.915 128.321 131.750  1.00  0.00    -0.391 OA
ATOM     24  H   UNL     1     133.435 128.827 131.043  1.00  0.00     0.210 HD
ENDBRANCH  22  23
ENDBRANCH  17  22
BRANCH  18  25
ATOM     25  O   UNL     1     133.234 131.309 131.361  1.00  0.00    -0.385 OA
ATOM     26  H   UNL     1     133.898 130.953 130.715  1.00  0.00     0.211 HD
ENDBRANCH  18  25
BRANCH  20  27
ATOM     27  O   UNL     1     130.827 132.200 131.968  1.00  0.00    -0.387 OA
ATOM     28  H   UNL     1     130.658 132.076 132.938  1.00  0.00     0.211 HD
ENDBRANCH  20  27
BRANCH  21  29
ATOM     29  C   UNL     1     128.866 130.500 132.996  1.00  0.00     0.191 C 
BRANCH  29  30
ATOM     30  O   UNL     1     129.340 131.309 134.038  1.00  0.00    -0.394 OA
ATOM     31  H   UNL     1     128.579 131.430 134.663  1.00  0.00     0.210 HD
ENDBRANCH  29  30
ENDBRANCH  21  29
ENDBRANCH   1  17
TORSDOF 13
ENDMDL
MODEL 3
REMARK VINA RESULT:    -3.778      8.096     10.084
REMARK INTER + INTRA:          -7.882
REMARK INTER:                  -5.779
REMARK INTRA:                  -2.103
REMARK UNBOUND:                -2.116
REMARK SMILES OC[C@@H]1O[C@](CO)(O[C@@H]2O[C@H](CO)[C@@H](O)[C@H](O)[C@@H]2O)[C@H](O)[C@@H]1O
REMARK SMILES IDX 8 1 9 2 11 3 14 4 10 5 16 6 18 7 12 8 13 9 15 11 17 13 19 15
REMARK SMILES IDX 5 17 20 18 4 19 22 20 3 21 6 22 7 23 21 25 23 27 2 29 1 30
REMARK H PARENT 13 10 15 12 17 14 19 16 7 24 21 26 23 28 1 31
REMARK Flexibility Score: inf
ROOT
ATOM      1  O   UNL     1     123.119 130.429 133.970  1.00  0.00    -0.313 OA
ENDROOT
BRANCH   1   2
ATOM      2  C   UNL     1     122.701 131.547 134.741  1.00  0.00     0.285 C 
ATOM      3  C   UNL     1     122.875 130.470 136.875  1.00  0.00     0.178 C 
ATOM      4  C   UNL     1     121.333 130.379 137.022  1.00  0.00     0.177 C 
ATOM      5  O   UNL     1     123.302 131.537 136.030  1.00  0.00    -0.341 OA
ATOM      6  C   UNL     1     120.619 130.427 135.661  1.00  0.00     0.179 C 
ATOM      7  C   UNL     1     121.163 131.592 134.829  1.00  0.00     0.202 C 
BRANCH   3   8
ATOM      8  C   UNL     1     123.552 129.128 136.531  1.00  0.00     0.191 C 
BRANCH   8   9
ATOM      9  O   UNL     1     124.878 129.352 136.134  1.00  0.00    -0.394 OA
ATOM     10  H   UNL     1     124.957 130.328 135.973  1.00  0.00     0.210 HD
ENDBRANCH   8   9
ENDBRANCH   3   8
BRANCH   4  11
ATOM     11  O   UNL     1     120.873 131.452 137.806  1.00  0.00    -0.387 OA
ATOM     12  H   UNL     1     120.071 131.130 138.296  1.00  0.00     0.211 HD
ENDBRANCH   4  11
BRANCH   6  13
ATOM     13  O   UNL     1     120.779 129.216 134.965  1.00  0.00    -0.387 OA
ATOM     14  H   UNL     1     121.372 128.642 135.517  1.00  0.00     0.211 HD
ENDBRANCH   6  13
BRANCH   7  15
ATOM     15  O   UNL     1     120.593 131.555 133.545  1.00  0.00    -0.385 OA
ATOM     16  H   UNL     1     120.826 132.414 133.103  1.00  0.00     0.211 HD
ENDBRANCH   7  15
ENDBRANCH   1   2
BRANCH   1  17
ATOM     17  C   UNL     1     124.060 130.691 132.923  1.00  0.00     0.224 C 
ATOM     18  C   UNL     1     123.453 130.362 131.546  1.00  0.00     0.208 C 
ATOM     19  O   UNL     1     125.122 129.779 133.117  1.00  0.00    -0.337 OA
ATOM     20  C   UNL     1     123.626 128.868 131.465  1.00  0.00     0.180 C 
ATOM     21  C   UNL     1     124.919 128.669 132.265  1.00  0.00     0.179 C 
BRANCH  17  22
ATOM     22  C   UNL     1     124.678 132.120 132.952  1.00  0.00     0.225 C 
BRANCH  22  23
ATOM     23  O   UNL     1     124.315 132.843 131.804  1.00  0.00    -0.391 OA
ATOM     24  H   UNL     1     124.108 132.184 131.092  1.00  0.00     0.210 HD
ENDBRANCH  22  23
ENDBRANCH  17  22
BRANCH  18  25
ATOM     25  O   UNL     1     122.109 130.747 131.431  1.00  0.00    -0.385 OA
ATOM     26  H   UNL     1     121.567 129.970 131.727  1.00  0.00     0.211 HD
ENDBRANCH  18  25
BRANCH  20  27
ATOM     27  O   UNL     1     122.528 128.221 132.062  1.00  0.00    -0.387 OA
ATOM     28  H   UNL     1     122.771 128.057 133.010  1.00  0.00     0.211 HD
ENDBRANCH  20  27
BRANCH  21  29
ATOM     29  C   UNL     1     124.985 127.365 133.073  1.00  0.00     0.191 C 
BRANCH  29  30
ATOM     30  O   UNL     1     124.058 127.390 134.124  1.00  0.00    -0.394 OA
ATOM     31  H   UNL     1     123.161 127.400 133.702  1.00  0.00     0.210 HD
ENDBRANCH  29  30
ENDBRANCH  21  29
ENDBRANCH   1  17
TORSDOF 13
ENDMDL
MODEL 4
REMARK VINA RESULT:    -3.711      1.300      5.090
REMARK INTER + INTRA:          -7.780
REMARK INTER:                  -6.175
REMARK INTRA:                  -1.605
REMARK UNBOUND:                -2.116
REMARK SMILES OC[C@@H]1O[C@](CO)(O[C@@H]2O[C@H](CO)[C@@H](O)[C@H](O)[C@@H]2O)[C@H](O)[C@@H]1O
REMARK SMILES IDX 8 1 9 2 11 3 14 4 10 5 16 6 18 7 12 8 13 9 15 11 17 13 19 15
REMARK SMILES IDX 5 17 20 18 4 19 22 20 3 21 6 22 7 23 21 25 23 27 2 29 1 30
REMARK H PARENT 13 10 15 12 17 14 19 16 7 24 21 26 23 28 1 31
REMARK Flexibility Score: inf
ROOT
ATOM      1  O   UNL     1     127.888 122.352 134.060  1.00  0.00    -0.313 OA
ENDROOT
BRANCH   1   2
ATOM      2  C   UNL     1     128.091 123.701 133.663  1.00  0.00     0.285 C 
ATOM      3  C   UNL     1     126.441 123.710 131.925  1.00  0.00     0.178 C 
ATOM      4  C   UNL     1     127.523 123.707 130.814  1.00  0.00     0.177 C 
ATOM      5  O   UNL     1     126.892 124.274 133.155  1.00  0.00    -0.341 OA
ATOM      6  C   UNL     1     128.861 123.136 131.313  1.00  0.00     0.179 C 
ATOM      7  C   UNL     1     129.243 123.792 132.643  1.00  0.00     0.202 C 
BRANCH   3   8
ATOM      8  C   UNL     1     125.732 122.353 132.114  1.00  0.00     0.191 C 
BRANCH   8   9
ATOM      9  O   UNL     1     125.831 121.598 130.937  1.00  0.00    -0.394 OA
ATOM     10  H   UNL     1     126.799 121.435 130.793  1.00  0.00     0.210 HD
ENDBRANCH   8   9
ENDBRANCH   3   8
BRANCH   4  11
ATOM     11  O   UNL     1     127.738 125.021 130.364  1.00  0.00    -0.387 OA
ATOM     12  H   UNL     1     128.340 125.459 131.022  1.00  0.00     0.211 HD
ENDBRANCH   4  11
BRANCH   6  13
ATOM     13  O   UNL     1     128.789 121.740 131.462  1.00  0.00    -0.387 OA
ATOM     14  H   UNL     1     129.343 121.504 132.252  1.00  0.00     0.211 HD
ENDBRANCH   6  13
BRANCH   7  15
ATOM     15  O   UNL     1     130.401 123.180 133.150  1.00  0.00    -0.385 OA
ATOM     16  H   UNL     1     131.115 123.871 133.149  1.00  0.00     0.211 HD
ENDBRANCH   7  15
ENDBRANCH   1   2
BRANCH   1  17
ATOM     17  C   UNL     1     127.632 122.128 135.451  1.00  0.00     0.224 C 
ATOM     18  C   UNL     1     128.949 122.013 136.240  1.00  0.00     0.208 C 
ATOM     19  O   UNL     1     127.008 120.862 135.532  1.00  0.00    -0.337 OA
ATOM     20  C   UNL     1     129.358 120.586 135.982  1.00  0.00     0.180 C 
ATOM     21  C   UNL     1     127.993 119.899 135.854  1.00  0.00     0.179 C 
BRANCH  17  22
ATOM     22  C   UNL     1     126.659 123.154 136.103  1.00  0.00     0.225 C 
BRANCH  22  23
ATOM     23  O   UNL     1     125.364 123.015 135.577  1.00  0.00    -0.391 OA
ATOM     24  H   UNL     1     125.095 123.898 135.213  1.00  0.00     0.210 HD
ENDBRANCH  22  23
ENDBRANCH  17  22
BRANCH  18  25
ATOM     25  O   UNL     1     129.925 122.928 135.817  1.00  0.00    -0.385 OA
ATOM     26  H   UNL     1     130.050 123.571 136.563  1.00  0.00     0.211 HD
ENDBRANCH  18  25
BRANCH  20  27
ATOM     27  O   UNL     1     130.106 120.506 134.792  1.00  0.00    -0.387 OA
ATOM     28  H   UNL     1     129.810 121.257 134.215  1.00  0.00     0.211 HD
ENDBRANCH  20  27
BRANCH  21  29
ATOM     29  C   UNL     1     127.945 118.740 134.848  1.00  0.00     0.191 C 
BRANCH  29  30
ATOM     30  O   UNL     1     127.993 119.225 133.534  1.00  0.00    -0.394 OA
ATOM     31  H   UNL     1     128.211 120.191 133.604  1.00  0.00     0.210 HD
ENDBRANCH  29  30
ENDBRANCH  21  29
ENDBRANCH   1  17
TORSDOF 13
ENDMDL
MODEL 5
REMARK VINA RESULT:    -3.707      7.706     10.415
REMARK INTER + INTRA:          -7.774
REMARK INTER:                  -6.172
REMARK INTRA:                  -1.603
REMARK UNBOUND:                -2.116
REMARK SMILES OC[C@@H]1O[C@](CO)(O[C@@H]2O[C@H](CO)[C@@H](O)[C@H](O)[C@@H]2O)[C@H](O)[C@@H]1O
REMARK SMILES IDX 8 1 9 2 11 3 14 4 10 5 16 6 18 7 12 8 13 9 15 11 17 13 19 15
REMARK SMILES IDX 5 17 20 18 4 19 22 20 3 21 6 22 7 23 21 25 23 27 2 29 1 30
REMARK H PARENT 13 10 15 12 17 14 19 16 7 24 21 26 23 28 1 31
REMARK Flexibility Score: inf
ROOT
ATOM      1  O   UNL     1     132.431 130.567 134.098  1.00  0.00    -0.313 OA
ENDROOT
BRANCH   1   2
ATOM      2  C   UNL     1     131.172 130.031 133.718  1.00  0.00     0.285 C 
ATOM      3  C   UNL     1     132.011 128.593 131.994  1.00  0.00     0.178 C 
ATOM      4  C   UNL     1     131.442 129.503 130.874  1.00  0.00     0.177 C 
ATOM      5  O   UNL     1     131.304 128.702 133.227  1.00  0.00    -0.341 OA
ATOM      6  C   UNL     1     131.236 130.950 131.354  1.00  0.00     0.179 C 
ATOM      7  C   UNL     1     130.486 130.952 132.689  1.00  0.00     0.202 C 
BRANCH   3   8
ATOM      8  C   UNL     1     133.540 128.698 132.170  1.00  0.00     0.191 C 
BRANCH   8   9
ATOM      9  O   UNL     1     134.126 129.148 130.978  1.00  0.00    -0.394 OA
ATOM     10  H   UNL     1     134.741 129.884 131.233  1.00  0.00     0.210 HD
ENDBRANCH   8   9
ENDBRANCH   3   8
BRANCH   4  11
ATOM     11  O   UNL     1     130.205 128.995 130.440  1.00  0.00    -0.387 OA
ATOM     12  H   UNL     1     129.562 129.752 130.445  1.00  0.00     0.211 HD
ENDBRANCH   4  11
BRANCH   6  13
ATOM     13  O   UNL     1     132.465 131.617 131.485  1.00  0.00    -0.387 OA
ATOM     14  H   UNL     1     132.949 131.504 130.625  1.00  0.00     0.211 HD
ENDBRANCH   6  13
BRANCH   7  15
ATOM     15  O   UNL     1     130.409 132.267 133.178  1.00  0.00    -0.385 OA
ATOM     16  H   UNL     1     129.449 132.523 133.163  1.00  0.00     0.211 HD
ENDBRANCH   7  15
ENDBRANCH   1   2
BRANCH   1  17
ATOM     17  C   UNL     1     132.768 130.481 135.487  1.00  0.00     0.224 C 
ATOM     18  C   UNL     1     132.189 131.678 136.266  1.00  0.00     0.208 C 
ATOM     19  O   UNL     1     134.174 130.606 135.555  1.00  0.00    -0.337 OA
ATOM     20  C   UNL     1     133.195 132.764 135.985  1.00  0.00     0.180 C 
ATOM     21  C   UNL     1     134.489 131.951 135.857  1.00  0.00     0.179 C 
BRANCH  17  22
ATOM     22  C   UNL     1     132.400 129.126 136.159  1.00  0.00     0.225 C 
BRANCH  22  23
ATOM     23  O   UNL     1     133.204 128.088 135.658  1.00  0.00    -0.391 OA
ATOM     24  H   UNL     1     133.986 128.001 136.263  1.00  0.00     0.210 HD
ENDBRANCH  22  23
ENDBRANCH  17  22
BRANCH  18  25
ATOM     25  O   UNL     1     130.897 132.031 135.850  1.00  0.00    -0.385 OA
ATOM     26  H   UNL     1     130.864 133.023 135.844  1.00  0.00     0.211 HD
ENDBRANCH  18  25
BRANCH  20  27
ATOM     27  O   UNL     1     132.865 133.430 134.790  1.00  0.00    -0.387 OA
ATOM     28  H   UNL     1     132.018 133.919 134.958  1.00  0.00     0.211 HD
ENDBRANCH  20  27
BRANCH  21  29
ATOM     29  C   UNL     1     135.496 132.499 134.836  1.00  0.00     0.191 C 
BRANCH  29  30
ATOM     30  O   UNL     1     135.038 132.284 133.528  1.00  0.00    -0.394 OA
ATOM     31  H   UNL     1     134.053 132.397 133.559  1.00  0.00     0.210 HD
ENDBRANCH  29  30
ENDBRANCH  21  29
ENDBRANCH   1  17
TORSDOF 13
ENDMDL
MODEL 6
REMARK VINA RESULT:    -3.702      7.797     10.814
REMARK INTER + INTRA:          -7.766
REMARK INTER:                  -5.706
REMARK INTRA:                  -2.060
REMARK UNBOUND:                -2.116
REMARK SMILES OC[C@@H]1O[C@](CO)(O[C@@H]2O[C@H](CO)[C@@H](O)[C@H](O)[C@@H]2O)[C@H](O)[C@@H]1O
REMARK SMILES IDX 8 1 9 2 11 3 14 4 10 5 16 6 18 7 12 8 13 9 15 11 17 13 19 15
REMARK SMILES IDX 5 17 20 18 4 19 22 20 3 21 6 22 7 23 21 25 23 27 2 29 1 30
REMARK H PARENT 13 10 15 12 17 14 19 16 7 24 21 26 23 28 1 31
REMARK Flexibility Score: inf
ROOT
ATOM      1  O   UNL     1     132.405 131.294 134.079  1.00  0.00    -0.313 OA
ENDROOT
BRANCH   1   2
ATOM      2  C   UNL     1     132.822 130.907 132.778  1.00  0.00     0.285 C 
ATOM      3  C   UNL     1     130.700 131.239 131.715  1.00  0.00     0.178 C 
ATOM      4  C   UNL     1     130.456 129.712 131.588  1.00  0.00     0.177 C 
ATOM      5  O   UNL     1     132.080 131.590 131.774  1.00  0.00    -0.341 OA
ATOM      6  C   UNL     1     131.265 128.910 132.622  1.00  0.00     0.179 C 
ATOM      7  C   UNL     1     132.723 129.377 132.616  1.00  0.00     0.202 C 
BRANCH   3   8
ATOM      8  C   UNL     1     129.863 131.917 132.819  1.00  0.00     0.191 C 
BRANCH   8   9
ATOM      9  O   UNL     1     130.314 133.230 133.019  1.00  0.00    -0.394 OA
ATOM     10  H   UNL     1     130.233 133.687 132.141  1.00  0.00     0.210 HD
ENDBRANCH   8   9
ENDBRANCH   3   8
BRANCH   4  11
ATOM     11  O   UNL     1     130.826 129.284 130.301  1.00  0.00    -0.387 OA
ATOM     12  H   UNL     1     130.105 129.571 129.681  1.00  0.00     0.211 HD
ENDBRANCH   4  11
BRANCH   6  13
ATOM     13  O   UNL     1     130.715 129.047 133.908  1.00  0.00    -0.387 OA
ATOM     14  H   UNL     1     130.071 128.302 134.028  1.00  0.00     0.211 HD
ENDBRANCH   6  13
BRANCH   7  15
ATOM     15  O   UNL     1     133.425 128.726 133.644  1.00  0.00    -0.385 OA
ATOM     16  H   UNL     1     133.516 129.378 134.388  1.00  0.00     0.211 HD
ENDBRANCH   7  15
ENDBRANCH   1   2
BRANCH   1  17
ATOM     17  C   UNL     1     133.296 132.147 134.807  1.00  0.00     0.224 C 
ATOM     18  C   UNL     1     133.652 131.529 136.173  1.00  0.00     0.208 C 
ATOM     19  O   UNL     1     132.567 133.326 135.083  1.00  0.00    -0.337 OA
ATOM     20  C   UNL     1     132.456 131.891 137.014  1.00  0.00     0.180 C 
ATOM     21  C   UNL     1     132.045 133.233 136.394  1.00  0.00     0.179 C 
BRANCH  17  22
ATOM     22  C   UNL     1     134.569 132.574 134.020  1.00  0.00     0.225 C 
BRANCH  22  23
ATOM     23  O   UNL     1     135.730 132.295 134.761  1.00  0.00    -0.391 OA
ATOM     24  H   UNL     1     135.624 132.724 135.649  1.00  0.00     0.210 HD
ENDBRANCH  22  23
ENDBRANCH  17  22
BRANCH  18  25
ATOM     25  O   UNL     1     133.857 130.142 136.112  1.00  0.00    -0.385 OA
ATOM     26  H   UNL     1     134.432 129.908 136.887  1.00  0.00     0.211 HD
ENDBRANCH  18  25
BRANCH  20  27
ATOM     27  O   UNL     1     131.454 130.913 136.874  1.00  0.00    -0.387 OA
ATOM     28  H   UNL     1     130.942 130.903 137.725  1.00  0.00     0.211 HD
ENDBRANCH  20  27
BRANCH  21  29
ATOM     29  C   UNL     1     130.534 133.502 136.381  1.00  0.00     0.191 C 
BRANCH  29  30
ATOM     30  O   UNL     1     130.236 134.598 135.559  1.00  0.00    -0.394 OA
ATOM     31  H   UNL     1     130.942 135.273 135.734  1.00  0.00     0.210 HD
ENDBRANCH  29  30
ENDBRANCH  21  29
ENDBRANCH   1  17
TORSDOF 13
ENDMDL
MODEL 7
REMARK VINA RESULT:    -3.694      1.484      4.906
REMARK INTER + INTRA:          -7.754
REMARK INTER:                  -5.683
REMARK INTRA:                  -2.071
REMARK UNBOUND:                -2.116
REMARK SMILES OC[C@@H]1O[C@](CO)(O[C@@H]2O[C@H](CO)[C@@H](O)[C@H](O)[C@@H]2O)[C@H](O)[C@@H]1O
REMARK SMILES IDX 8 1 9 2 11 3 14 4 10 5 16 6 18 7 12 8 13 9 15 11 17 13 19 15
REMARK SMILES IDX 5 17 20 18 4 19 22 20 3 21 6 22 7 23 21 25 23 27 2 29 1 30
REMARK H PARENT 13 10 15 12 17 14 19 16 7 24 21 26 23 28 1 31
REMARK Flexibility Score: inf
ROOT
ATOM      1  O   UNL     1     128.457 121.986 134.033  1.00  0.00    -0.313 OA
ENDROOT
BRANCH   1   2
ATOM      2  C   UNL     1     127.944 121.742 132.731  1.00  0.00     0.285 C 
ATOM      3  C   UNL     1     129.308 123.361 131.608  1.00  0.00     0.178 C 
ATOM      4  C   UNL     1     128.104 124.318 131.398  1.00  0.00     0.177 C 
ATOM      5  O   UNL     1     128.929 121.993 131.735  1.00  0.00    -0.341 OA
ATOM      6  C   UNL     1     126.984 124.070 132.421  1.00  0.00     0.179 C 
ATOM      7  C   UNL     1     126.668 122.573 132.493  1.00  0.00     0.202 C 
BRANCH   3   8
ATOM      8  C   UNL     1     130.285 123.816 132.711  1.00  0.00     0.191 C 
BRANCH   8   9
ATOM      9  O   UNL     1     131.203 122.792 132.984  1.00  0.00    -0.394 OA
ATOM     10  H   UNL     1     130.692 122.078 133.447  1.00  0.00     0.210 HD
ENDBRANCH   8   9
ENDBRANCH   3   8
BRANCH   4  11
ATOM     11  O   UNL     1     127.580 124.136 130.107  1.00  0.00    -0.387 OA
ATOM     12  H   UNL     1     128.216 124.558 129.472  1.00  0.00     0.211 HD
ENDBRANCH   4  11
BRANCH   6  13
ATOM     13  O   UNL     1     127.345 124.552 133.691  1.00  0.00    -0.387 OA
ATOM     14  H   UNL     1     128.323 124.724 133.668  1.00  0.00     0.211 HD
ENDBRANCH   6  13
BRANCH   7  15
ATOM     15  O   UNL     1     125.731 122.342 133.514  1.00  0.00    -0.385 OA
ATOM     16  H   UNL     1     125.399 121.413 133.394  1.00  0.00     0.211 HD
ENDBRANCH   7  15
ENDBRANCH   1   2
BRANCH   1  17
ATOM     17  C   UNL     1     128.750 120.833 134.830  1.00  0.00     0.224 C 
ATOM     18  C   UNL     1     128.000 120.891 136.174  1.00  0.00     0.208 C 
ATOM     19  O   UNL     1     130.127 120.915 135.141  1.00  0.00    -0.337 OA
ATOM     20  C   UNL     1     128.873 121.805 136.994  1.00  0.00     0.180 C 
ATOM     21  C   UNL     1     130.262 121.484 136.428  1.00  0.00     0.179 C 
BRANCH  17  22
ATOM     22  C   UNL     1     128.528 119.474 134.106  1.00  0.00     0.225 C 
BRANCH  22  23
ATOM     23  O   UNL     1     127.670 118.647 134.850  1.00  0.00    -0.391 OA
ATOM     24  H   UNL     1     127.319 119.187 135.605  1.00  0.00     0.210 HD
ENDBRANCH  22  23
ENDBRANCH  17  22
BRANCH  18  25
ATOM     25  O   UNL     1     126.690 121.379 136.052  1.00  0.00    -0.385 OA
ATOM     26  H   UNL     1     126.133 120.618 135.743  1.00  0.00     0.211 HD
ENDBRANCH  18  25
BRANCH  20  27
ATOM     27  O   UNL     1     128.508 123.146 136.775  1.00  0.00    -0.387 OA
ATOM     28  H   UNL     1     129.203 123.541 136.187  1.00  0.00     0.211 HD
ENDBRANCH  20  27
BRANCH  21  29
ATOM     29  C   UNL     1     131.230 122.674 136.380  1.00  0.00     0.191 C 
BRANCH  29  30
ATOM     30  O   UNL     1     132.356 122.363 135.605  1.00  0.00    -0.394 OA
ATOM     31  H   UNL     1     132.082 121.618 135.008  1.00  0.00     0.210 HD
ENDBRANCH  29  30
ENDBRANCH  21  29
ENDBRANCH   1  17
TORSDOF 13
ENDMDL
MODEL 8
REMARK VINA RESULT:    -3.691      8.113     10.608
REMARK INTER + INTRA:          -7.749
REMARK INTER:                  -5.939
REMARK INTRA:                  -1.811
REMARK UNBOUND:                -2.116
REMARK SMILES OC[C@@H]1O[C@](CO)(O[C@@H]2O[C@H](CO)[C@@H](O)[C@H](O)[C@@H]2O)[C@H](O)[C@@H]1O
REMARK SMILES IDX 8 1 9 2 11 3 14 4 10 5 16 6 18 7 12 8 13 9 15 11 17 13 19 15
REMARK SMILES IDX 5 17 20 18 4 19 22 20 3 21 6 22 7 23 21 25 23 27 2 29 1 30
REMARK H PARENT 13 10 15 12 17 14 19 16 7 24 21 26 23 28 1 31
REMARK Flexibility Score: inf
ROOT
ATOM      1  O   UNL     1     123.254 130.334 134.163  1.00  0.00    -0.313 OA
ENDROOT
BRANCH   1   2
ATOM      2  C   UNL     1     124.541 129.840 133.823  1.00  0.00     0.285 C 
ATOM      3  C   UNL     1     124.730 131.019 131.745  1.00  0.00     0.178 C 
ATOM      4  C   UNL     1     124.524 129.722 130.920  1.00  0.00     0.177 C 
ATOM      5  O   UNL     1     125.266 130.786 133.045  1.00  0.00    -0.341 OA
ATOM      6  C   UNL     1     123.780 128.640 131.721  1.00  0.00     0.179 C 
ATOM      7  C   UNL     1     124.422 128.482 133.102  1.00  0.00     0.202 C 
BRANCH   3   8
ATOM      8  C   UNL     1     123.502 131.952 131.764  1.00  0.00     0.191 C 
BRANCH   8   9
ATOM      9  O   UNL     1     122.571 131.531 130.803  1.00  0.00    -0.394 OA
ATOM     10  H   UNL     1     122.387 132.321 130.230  1.00  0.00     0.210 HD
ENDBRANCH   8   9
ENDBRANCH   3   8
BRANCH   4  11
ATOM     11  O   UNL     1     125.774 129.210 130.531  1.00  0.00    -0.387 OA
ATOM     12  H   UNL     1     126.171 128.773 131.330  1.00  0.00     0.211 HD
ENDBRANCH   4  11
BRANCH   6  13
ATOM     13  O   UNL     1     122.417 128.958 131.852  1.00  0.00    -0.387 OA
ATOM     14  H   UNL     1     122.354 129.697 132.513  1.00  0.00     0.211 HD
ENDBRANCH   6  13
BRANCH   7  15
ATOM     15  O   UNL     1     123.664 127.582 133.869  1.00  0.00    -0.385 OA
ATOM     16  H   UNL     1     123.724 127.886 134.813  1.00  0.00     0.211 HD
ENDBRANCH   7  15
ENDBRANCH   1   2
BRANCH   1  17
ATOM     17  C   UNL     1     123.109 130.884 135.477  1.00  0.00     0.224 C 
ATOM     18  C   UNL     1     122.339 129.916 136.396  1.00  0.00     0.208 C 
ATOM     19  O   UNL     1     122.290 132.028 135.331  1.00  0.00    -0.337 OA
ATOM     20  C   UNL     1     120.906 130.180 136.016  1.00  0.00     0.180 C 
ATOM     21  C   UNL     1     120.959 131.668 135.647  1.00  0.00     0.179 C 
BRANCH  17  22
ATOM     22  C   UNL     1     124.439 131.360 136.129  1.00  0.00     0.225 C 
BRANCH  22  23
ATOM     23  O   UNL     1     124.606 130.783 137.399  1.00  0.00    -0.391 OA
ATOM     24  H   UNL     1     123.803 131.010 137.936  1.00  0.00     0.210 HD
ENDBRANCH  22  23
ENDBRANCH  17  22
BRANCH  18  25
ATOM     25  O   UNL     1     122.700 128.573 136.204  1.00  0.00    -0.385 OA
ATOM     26  H   UNL     1     123.676 128.517 136.372  1.00  0.00     0.211 HD
ENDBRANCH  18  25
BRANCH  20  27
ATOM     27  O   UNL     1     120.539 129.374 134.922  1.00  0.00    -0.387 OA
ATOM     28  H   UNL     1     121.376 128.978 134.564  1.00  0.00     0.211 HD
ENDBRANCH  20  27
BRANCH  21  29
ATOM     29  C   UNL     1     120.016 132.085 134.510  1.00  0.00     0.191 C 
BRANCH  29  30
ATOM     30  O   UNL     1     120.531 131.684 133.270  1.00  0.00    -0.394 OA
ATOM     31  H   UNL     1     119.945 130.948 132.952  1.00  0.00     0.210 HD
ENDBRANCH  29  30
ENDBRANCH  21  29
ENDBRANCH   1  17
TORSDOF 13
ENDMDL
MODEL 9
REMARK VINA RESULT:    -3.672      8.042     10.598
REMARK INTER + INTRA:          -7.720
REMARK INTER:                  -5.659
REMARK INTRA:                  -2.061
REMARK UNBOUND:                -2.116
REMARK SMILES OC[C@@H]1O[C@](CO)(O[C@@H]2O[C@H](CO)[C@@H](O)[C@H](O)[C@@H]2O)[C@H](O)[C@@H]1O
REMARK SMILES IDX 8 1 9 2 11 3 14 4 10 5 16 6 18 7 12 8 13 9 15 11 17 13 19 15
REMARK SMILES IDX 5 17 20 18 4 19 22 20 3 21 6 22 7 23 21 25 23 27 2 29 1 30
REMARK H PARENT 13 10 15 12 17 14 19 16 7 24 21 26 23 28 1 31
REMARK Flexibility Score: inf
ROOT
ATOM      1  O   UNL     1     122.651 130.217 134.133  1.00  0.00    -0.313 OA
ENDROOT
BRANCH   1   2
ATOM      2  C   UNL     1     122.709 130.760 132.822  1.00  0.00     0.285 C 
ATOM      3  C   UNL     1     123.412 128.744 131.736  1.00  0.00     0.178 C 
ATOM      4  C   UNL     1     124.850 129.287 131.524  1.00  0.00     0.177 C 
ATOM      5  O   UNL     1     122.427 129.769 131.841  1.00  0.00    -0.341 OA
ATOM      6  C   UNL     1     125.202 130.395 132.530  1.00  0.00     0.179 C 
ATOM      7  C   UNL     1     124.075 131.431 132.579  1.00  0.00     0.202 C 
BRANCH   3   8
ATOM      8  C   UNL     1     123.299 127.689 132.856  1.00  0.00     0.191 C 
BRANCH   8   9
ATOM      9  O   UNL     1     121.949 127.456 133.155  1.00  0.00    -0.394 OA
ATOM     10  H   UNL     1     121.626 128.266 133.627  1.00  0.00     0.210 HD
ENDBRANCH   8   9
ENDBRANCH   3   8
BRANCH   4  11
ATOM     11  O   UNL     1     124.966 129.810 130.224  1.00  0.00    -0.387 OA
ATOM     12  H   UNL     1     124.122 129.595 129.747  1.00  0.00     0.211 HD
ENDBRANCH   4  11
BRANCH   6  13
ATOM     13  O   UNL     1     125.427 129.860 133.810  1.00  0.00    -0.387 OA
ATOM     14  H   UNL     1     126.353 129.501 133.816  1.00  0.00     0.211 HD
ENDBRANCH   6  13
BRANCH   7  15
ATOM     15  O   UNL     1     124.350 132.372 133.586  1.00  0.00    -0.385 OA
ATOM     16  H   UNL     1     124.519 131.859 134.420  1.00  0.00     0.211 HD
ENDBRANCH   7  15
ENDBRANCH   1   2
BRANCH   1  17
ATOM     17  C   UNL     1     121.506 130.566 134.919  1.00  0.00     0.224 C 
ATOM     18  C   UNL     1     121.931 131.241 136.237  1.00  0.00     0.208 C 
ATOM     19  O   UNL     1     120.894 129.343 135.279  1.00  0.00    -0.337 OA
ATOM     20  C   UNL     1     122.293 130.063 137.103  1.00  0.00     0.180 C 
ATOM     21  C   UNL     1     121.324 128.995 136.581  1.00  0.00     0.179 C 
BRANCH  17  22
ATOM     22  C   UNL     1     120.435 131.404 134.163  1.00  0.00     0.225 C 
BRANCH  22  23
ATOM     23  O   UNL     1     120.074 132.539 134.908  1.00  0.00    -0.391 OA
ATOM     24  H   UNL     1     120.905 132.914 135.298  1.00  0.00     0.210 HD
ENDBRANCH  22  23
ENDBRANCH  17  22
BRANCH  18  25
ATOM     25  O   UNL     1     123.004 132.131 136.078  1.00  0.00    -0.385 OA
ATOM     26  H   UNL     1     123.332 132.344 136.990  1.00  0.00     0.211 HD
ENDBRANCH  18  25
BRANCH  20  27
ATOM     27  O   UNL     1     123.638 129.706 136.896  1.00  0.00    -0.387 OA
ATOM     28  H   UNL     1     123.636 128.795 136.500  1.00  0.00     0.211 HD
ENDBRANCH  20  27
BRANCH  21  29
ATOM     29  C   UNL     1     121.876 127.562 136.588  1.00  0.00     0.191 C 
BRANCH  29  30
ATOM     30  O   UNL     1     121.062 126.716 135.824  1.00  0.00    -0.394 OA
ATOM     31  H   UNL     1     120.791 127.240 135.026  1.00  0.00     0.210 HD
ENDBRANCH  29  30
ENDBRANCH  21  29
ENDBRANCH   1  17
TORSDOF 13
ENDMDL
