MODEL 1
REMARK VINA RESULT:    -3.789      0.000      0.000
REMARK INTER + INTRA:          -5.825
REMARK INTER:                  -5.119
REMARK INTRA:                  -0.706
REMARK UNBOUND:                -0.706
REMARK SMILES O=C[C@@H](O)[C@@H](O)[C@@H](O)CO
REMARK SMILES IDX 7 1 9 2 10 3 5 5 3 6 2 7 1 8 4 9 6 11 8 13
REMARK H PARENT 10 4 4 10 6 12 8 14
REMARK Flexibility Score: inf
ROOT
ATOM      1  C   UNL     1       8.205  -1.314   9.330  1.00  0.00     0.171 C 
ENDROOT
BRANCH   1   2
ATOM      2  C   UNL     1       9.243  -0.274   9.778  1.00  0.00     0.190 C 
BRANCH   2   3
ATOM      3  O   UNL     1      10.213  -0.892  10.577  1.00  0.00    -0.394 OA
ATOM      4  H   UNL     1      11.033  -0.340  10.491  1.00  0.00     0.210 HD
ENDBRANCH   2   3
ENDBRANCH   1   2
BRANCH   1   5
ATOM      5  C   UNL     1       8.811  -2.732   9.137  1.00  0.00     0.181 C 
BRANCH   5   6
ATOM      6  C   UNL     1       8.378  -3.730  10.232  1.00  0.00     0.209 C 
BRANCH   6   7
ATOM      7  C   UNL     1       8.550  -5.149   9.755  1.00  0.00     0.258 C 
ATOM      8  O   UNL     1       9.557  -5.486   9.152  1.00  0.00    -0.300 OA
ENDBRANCH   6   7
BRANCH   6   9
ATOM      9  O   UNL     1       9.142  -3.535  11.394  1.00  0.00    -0.383 OA
ATOM     10  H   UNL     1       8.524  -3.192  12.091  1.00  0.00     0.211 HD
ENDBRANCH   6   9
ENDBRANCH   5   6
BRANCH   5  11
ATOM     11  O   UNL     1       8.459  -3.243   7.875  1.00  0.00    -0.387 OA
ATOM     12  H   UNL     1       8.044  -2.500   7.365  1.00  0.00     0.211 HD
ENDBRANCH   5  11
ENDBRANCH   1   5
BRANCH   1  13
ATOM     13  O   UNL     1       7.181  -1.371  10.291  1.00  0.00    -0.388 OA
ATOM     14  H   UNL     1       7.489  -1.988  11.006  1.00  0.00     0.211 HD
ENDBRANCH   1  13
TORSDOF 8
ENDMDL
MODEL 2
REMARK VINA RESULT:    -3.766      1.137      1.699
REMARK INTER + INTRA:          -5.793
REMARK INTER:                  -5.154
REMARK INTRA:                  -0.639
REMARK UNBOUND:                -0.706
REMARK SMILES O=C[C@@H](O)[C@@H](O)[C@@H](O)CO
REMARK SMILES IDX 7 1 9 2 10 3 5 5 3 6 2 7 1 8 4 9 6 11 8 13
REMARK H PARENT 10 4 4 10 6 12 8 14
REMARK Flexibility Score: inf
ROOT
ATOM      1  C   UNL     1       9.013  -0.920   9.786  1.00  0.00     0.171 C 
ENDROOT
BRANCH   1   2
ATOM      2  C   UNL     1       8.910   0.332   8.903  1.00  0.00     0.190 C 
BRANCH   2   3
ATOM      3  O   UNL     1       7.575   0.751   8.835  1.00  0.00    -0.394 OA
ATOM      4  H   UNL     1       7.582   1.618   8.351  1.00  0.00     0.210 HD
ENDBRANCH   2   3
ENDBRANCH   1   2
BRANCH   1   5
ATOM      5  C   UNL     1       8.987  -2.242   8.969  1.00  0.00     0.181 C 
BRANCH   5   6
ATOM      6  C   UNL     1       8.612  -3.473   9.823  1.00  0.00     0.209 C 
BRANCH   6   7
ATOM      7  C   UNL     1       9.095  -4.741   9.167  1.00  0.00     0.258 C 
ATOM      8  O   UNL     1       9.905  -4.700   8.254  1.00  0.00    -0.300 OA
ENDBRANCH   6   7
BRANCH   6   9
ATOM      9  O   UNL     1       9.182  -3.366  11.103  1.00  0.00    -0.383 OA
ATOM     10  H   UNL     1      10.135  -3.632  11.016  1.00  0.00     0.211 HD
ENDBRANCH   6   9
ENDBRANCH   5   6
BRANCH   5  11
ATOM     11  O   UNL     1       8.089  -2.131   7.893  1.00  0.00    -0.387 OA
ATOM     12  H   UNL     1       7.203  -1.897   8.276  1.00  0.00     0.211 HD
ENDBRANCH   5  11
ENDBRANCH   1   5
BRANCH   1  13
ATOM     13  O   UNL     1      10.206  -0.851  10.526  1.00  0.00    -0.388 OA
ATOM     14  H   UNL     1      10.062  -1.376  11.357  1.00  0.00     0.211 HD
ENDBRANCH   1  13
TORSDOF 8
ENDMDL
MODEL 3
REMARK VINA RESULT:    -3.681      1.404      3.654
REMARK INTER + INTRA:          -5.678
REMARK INTER:                  -4.931
REMARK INTRA:                  -0.747
REMARK UNBOUND:                -0.706
REMARK SMILES O=C[C@@H](O)[C@@H](O)[C@@H](O)CO
REMARK SMILES IDX 7 1 9 2 10 3 5 5 3 6 2 7 1 8 4 9 6 11 8 13
REMARK H PARENT 10 4 4 10 6 12 8 14
REMARK Flexibility Score: inf
ROOT
ATOM      1  C   UNL     1       8.315  -3.926   9.732  1.00  0.00     0.171 C 
ENDROOT
BRANCH   1   2
ATOM      2  C   UNL     1       8.078  -4.604  11.089  1.00  0.00     0.190 C 
BRANCH   2   3
ATOM      3  O   UNL     1       8.944  -4.058  12.045  1.00  0.00    -0.394 OA
ATOM      4  H   UNL     1       8.563  -4.295  12.930  1.00  0.00     0.210 HD
ENDBRANCH   2   3
ENDBRANCH   1   2
BRANCH   1   5
ATOM      5  C   UNL     1       7.983  -2.407   9.746  1.00  0.00     0.181 C 
BRANCH   5   6
ATOM      6  C   UNL     1       9.238  -1.512   9.651  1.00  0.00     0.209 C 
BRANCH   6   7
ATOM      7  C   UNL     1       8.853  -0.090   9.336  1.00  0.00     0.258 C 
ATOM      8  O   UNL     1       8.522   0.230   8.205  1.00  0.00    -0.300 OA
ENDBRANCH   6   7
BRANCH   6   9
ATOM      9  O   UNL     1       9.948  -1.545  10.862  1.00  0.00    -0.383 OA
ATOM     10  H   UNL     1      10.252  -2.481  10.992  1.00  0.00     0.211 HD
ENDBRANCH   6   9
ENDBRANCH   5   6
BRANCH   5  11
ATOM     11  O   UNL     1       7.105  -2.092   8.694  1.00  0.00    -0.387 OA
ATOM     12  H   UNL     1       6.318  -2.690   8.782  1.00  0.00     0.211 HD
ENDBRANCH   5  11
ENDBRANCH   1   5
BRANCH   1  13
ATOM     13  O   UNL     1       9.660  -4.107   9.367  1.00  0.00    -0.388 OA
ATOM     14  H   UNL     1       9.662  -4.546   8.476  1.00  0.00     0.211 HD
ENDBRANCH   1  13
TORSDOF 8
ENDMDL
MODEL 4
REMARK VINA RESULT:    -3.599      2.577      3.765
REMARK INTER + INTRA:          -5.567
REMARK INTER:                  -4.894
REMARK INTRA:                  -0.674
REMARK UNBOUND:                -0.706
REMARK SMILES O=C[C@@H](O)[C@@H](O)[C@@H](O)CO
REMARK SMILES IDX 7 1 9 2 10 3 5 5 3 6 2 7 1 8 4 9 6 11 8 13
REMARK H PARENT 10 4 4 10 6 12 8 14
REMARK Flexibility Score: inf
ROOT
ATOM      1  C   UNL     1       9.117  -4.704   8.954  1.00  0.00     0.171 C 
ENDROOT
BRANCH   1   2
ATOM      2  C   UNL     1      10.135  -5.395   8.035  1.00  0.00     0.190 C 
BRANCH   2   3
ATOM      3  O   UNL     1      10.653  -6.528   8.674  1.00  0.00    -0.394 OA
ATOM      4  H   UNL     1      11.631  -6.379   8.752  1.00  0.00     0.210 HD
ENDBRANCH   2   3
ENDBRANCH   1   2
BRANCH   1   5
ATOM      5  C   UNL     1       8.710  -5.577  10.173  1.00  0.00     0.181 C 
BRANCH   5   6
ATOM      6  C   UNL     1       8.051  -4.763  11.308  1.00  0.00     0.209 C 
BRANCH   6   7
ATOM      7  C   UNL     1       7.355  -5.677  12.283  1.00  0.00     0.258 C 
ATOM      8  O   UNL     1       7.913  -6.678  12.705  1.00  0.00    -0.300 OA
ENDBRANCH   6   7
BRANCH   6   9
ATOM      9  O   UNL     1       9.021  -4.008  11.989  1.00  0.00    -0.383 OA
ATOM     10  H   UNL     1       9.877  -4.134  11.502  1.00  0.00     0.211 HD
ENDBRANCH   6   9
ENDBRANCH   5   6
BRANCH   5  11
ATOM     11  O   UNL     1       7.838  -6.602   9.768  1.00  0.00    -0.387 OA
ATOM     12  H   UNL     1       7.442  -6.989  10.592  1.00  0.00     0.211 HD
ENDBRANCH   5  11
ENDBRANCH   1   5
BRANCH   1  13
ATOM     13  O   UNL     1       9.669  -3.494   9.408  1.00  0.00    -0.388 OA
ATOM     14  H   UNL     1      10.192  -3.113   8.654  1.00  0.00     0.211 HD
ENDBRANCH   1  13
TORSDOF 8
ENDMDL
MODEL 5
REMARK VINA RESULT:    -3.599      1.166      3.637
REMARK INTER + INTRA:          -5.567
REMARK INTER:                  -4.836
REMARK INTRA:                  -0.731
REMARK UNBOUND:                -0.706
REMARK SMILES O=C[C@@H](O)[C@@H](O)[C@@H](O)CO
REMARK SMILES IDX 7 1 9 2 10 3 5 5 3 6 2 7 1 8 4 9 6 11 8 13
REMARK H PARENT 10 4 4 10 6 12 8 14
REMARK Flexibility Score: inf
ROOT
ATOM      1  C   UNL     1       8.501  -4.157  10.585  1.00  0.00     0.171 C 
ENDROOT
BRANCH   1   2
ATOM      2  C   UNL     1       8.265  -5.665  10.415  1.00  0.00     0.190 C 
BRANCH   2   3
ATOM      3  O   UNL     1       9.497  -6.330  10.359  1.00  0.00    -0.394 OA
ATOM      4  H   UNL     1       9.396  -7.144  10.918  1.00  0.00     0.210 HD
ENDBRANCH   2   3
ENDBRANCH   1   2
BRANCH   1   5
ATOM      5  C   UNL     1       8.776  -3.430   9.239  1.00  0.00     0.181 C 
BRANCH   5   6
ATOM      6  C   UNL     1       9.243  -1.970   9.423  1.00  0.00     0.209 C 
BRANCH   6   7
ATOM      7  C   UNL     1       8.122  -1.011   9.117  1.00  0.00     0.258 C 
ATOM      8  O   UNL     1       7.132  -0.961   9.831  1.00  0.00    -0.300 OA
ENDBRANCH   6   7
BRANCH   6   9
ATOM      9  O   UNL     1       9.682  -1.765  10.742  1.00  0.00    -0.383 OA
ATOM     10  H   UNL     1       9.666  -0.786  10.902  1.00  0.00     0.211 HD
ENDBRANCH   6   9
ENDBRANCH   5   6
BRANCH   5  11
ATOM     11  O   UNL     1       9.737  -4.135   8.493  1.00  0.00    -0.387 OA
ATOM     12  H   UNL     1       9.808  -5.041   8.893  1.00  0.00     0.211 HD
ENDBRANCH   5  11
ENDBRANCH   1   5
BRANCH   1  13
ATOM     13  O   UNL     1       7.370  -3.591  11.199  1.00  0.00    -0.388 OA
ATOM     14  H   UNL     1       7.694  -2.851  11.777  1.00  0.00     0.211 HD
ENDBRANCH   1  13
TORSDOF 8
ENDMDL
MODEL 6
REMARK VINA RESULT:    -3.594      1.809      4.210
REMARK INTER + INTRA:          -5.561
REMARK INTER:                  -5.079
REMARK INTRA:                  -0.482
REMARK UNBOUND:                -0.706
REMARK SMILES O=C[C@@H](O)[C@@H](O)[C@@H](O)CO
REMARK SMILES IDX 7 1 9 2 10 3 5 5 3 6 2 7 1 8 4 9 6 11 8 13
REMARK H PARENT 10 4 4 10 6 12 8 14
REMARK Flexibility Score: inf
ROOT
ATOM      1  C   UNL     1       9.192  -1.956   9.617  1.00  0.00     0.171 C 
ENDROOT
BRANCH   1   2
ATOM      2  C   UNL     1       8.717  -3.328  10.115  1.00  0.00     0.190 C 
BRANCH   2   3
ATOM      3  O   UNL     1       9.149  -3.526  11.432  1.00  0.00    -0.394 OA
ATOM      4  H   UNL     1       9.659  -2.712  11.680  1.00  0.00     0.210 HD
ENDBRANCH   2   3
ENDBRANCH   1   2
BRANCH   1   5
ATOM      5  C   UNL     1       8.020  -1.017   9.213  1.00  0.00     0.181 C 
BRANCH   5   6
ATOM      6  C   UNL     1       8.496   0.299   8.559  1.00  0.00     0.209 C 
BRANCH   6   7
ATOM      7  C   UNL     1       7.339   1.023   7.921  1.00  0.00     0.258 C 
ATOM      8  O   UNL     1       6.250   1.066   8.473  1.00  0.00    -0.300 OA
ENDBRANCH   6   7
BRANCH   6   9
ATOM      9  O   UNL     1       9.091   1.130   9.523  1.00  0.00    -0.383 OA
ATOM     10  H   UNL     1      10.063   0.929   9.515  1.00  0.00     0.211 HD
ENDBRANCH   6   9
ENDBRANCH   5   6
BRANCH   5  11
ATOM     11  O   UNL     1       7.145  -1.682   8.337  1.00  0.00    -0.387 OA
ATOM     12  H   UNL     1       6.223  -1.519   8.667  1.00  0.00     0.211 HD
ENDBRANCH   5  11
ENDBRANCH   1   5
BRANCH   1  13
ATOM     13  O   UNL     1       9.951  -1.346  10.631  1.00  0.00    -0.388 OA
ATOM     14  H   UNL     1      10.222  -0.453  10.292  1.00  0.00     0.211 HD
ENDBRANCH   1  13
TORSDOF 8
ENDMDL
MODEL 7
REMARK VINA RESULT:    -3.567      2.031      3.064
REMARK INTER + INTRA:          -5.524
REMARK INTER:                  -5.028
REMARK INTRA:                  -0.496
REMARK UNBOUND:                -0.706
REMARK SMILES O=C[C@@H](O)[C@@H](O)[C@@H](O)CO
REMARK SMILES IDX 7 1 9 2 10 3 5 5 3 6 2 7 1 8 4 9 6 11 8 13
REMARK H PARENT 10 4 4 10 6 12 8 14
REMARK Flexibility Score: inf
ROOT
ATOM      1  C   UNL     1       9.297   0.814   9.057  1.00  0.00     0.171 C 
ENDROOT
BRANCH   1   2
ATOM      2  C   UNL     1      10.274   1.698   9.847  1.00  0.00     0.190 C 
BRANCH   2   3
ATOM      3  O   UNL     1       9.674   2.933  10.122  1.00  0.00    -0.394 OA
ATOM      4  H   UNL     1       9.855   3.120  11.079  1.00  0.00     0.210 HD
ENDBRANCH   2   3
ENDBRANCH   1   2
BRANCH   1   5
ATOM      5  C   UNL     1       8.974  -0.526   9.775  1.00  0.00     0.181 C 
BRANCH   5   6
ATOM      6  C   UNL     1       8.554  -1.649   8.801  1.00  0.00     0.209 C 
BRANCH   6   7
ATOM      7  C   UNL     1       8.123  -2.877   9.561  1.00  0.00     0.258 C 
ATOM      8  O   UNL     1       8.949  -3.590  10.111  1.00  0.00    -0.300 OA
ENDBRANCH   6   7
BRANCH   6   9
ATOM      9  O   UNL     1       7.497  -1.212   7.986  1.00  0.00    -0.383 OA
ATOM     10  H   UNL     1       6.658  -1.539   8.403  1.00  0.00     0.211 HD
ENDBRANCH   6   9
ENDBRANCH   5   6
BRANCH   5  11
ATOM     11  O   UNL     1      10.081  -0.953  10.528  1.00  0.00    -0.387 OA
ATOM     12  H   UNL     1       9.916  -0.682  11.469  1.00  0.00     0.211 HD
ENDBRANCH   5  11
ENDBRANCH   1   5
BRANCH   1  13
ATOM     13  O   UNL     1       8.106   1.533   8.850  1.00  0.00    -0.388 OA
ATOM     14  H   UNL     1       7.681   1.650   9.740  1.00  0.00     0.211 HD
ENDBRANCH   1  13
TORSDOF 8
ENDMDL
MODEL 8
REMARK VINA RESULT:    -3.565      1.599      2.798
REMARK INTER + INTRA:          -5.521
REMARK INTER:                  -4.837
REMARK INTRA:                  -0.684
REMARK UNBOUND:                -0.706
REMARK SMILES O=C[C@@H](O)[C@@H](O)[C@@H](O)CO
REMARK SMILES IDX 7 1 9 2 10 3 5 5 3 6 2 7 1 8 4 9 6 11 8 13
REMARK H PARENT 10 4 4 10 6 12 8 14
REMARK Flexibility Score: inf
ROOT
ATOM      1  C   UNL     1       9.139  -3.468   9.391  1.00  0.00     0.171 C 
ENDROOT
BRANCH   1   2
ATOM      2  C   UNL     1       8.962  -1.950   9.537  1.00  0.00     0.190 C 
BRANCH   2   3
ATOM      3  O   UNL     1       9.849  -1.464  10.506  1.00  0.00    -0.394 OA
ATOM      4  H   UNL     1      10.661  -1.174  10.016  1.00  0.00     0.210 HD
ENDBRANCH   2   3
ENDBRANCH   1   2
BRANCH   1   5
ATOM      5  C   UNL     1       8.425  -4.273  10.513  1.00  0.00     0.181 C 
BRANCH   5   6
ATOM      6  C   UNL     1       8.595  -5.801  10.365  1.00  0.00     0.209 C 
BRANCH   6   7
ATOM      7  C   UNL     1       8.277  -6.499  11.661  1.00  0.00     0.258 C 
ATOM      8  O   UNL     1       9.172  -6.868  12.406  1.00  0.00    -0.300 OA
ENDBRANCH   6   7
BRANCH   6   9
ATOM      9  O   UNL     1       7.748  -6.286   9.355  1.00  0.00    -0.383 OA
ATOM     10  H   UNL     1       7.317  -7.106   9.711  1.00  0.00     0.211 HD
ENDBRANCH   6   9
ENDBRANCH   5   6
BRANCH   5  11
ATOM     11  O   UNL     1       8.898  -3.872  11.775  1.00  0.00    -0.387 OA
ATOM     12  H   UNL     1       8.106  -3.615  12.314  1.00  0.00     0.211 HD
ENDBRANCH   5  11
ENDBRANCH   1   5
BRANCH   1  13
ATOM     13  O   UNL     1       8.634  -3.862   8.140  1.00  0.00    -0.388 OA
ATOM     14  H   UNL     1       9.383  -4.290   7.647  1.00  0.00     0.211 HD
ENDBRANCH   1  13
TORSDOF 8
ENDMDL
MODEL 9
REMARK VINA RESULT:    -3.517      1.415      2.074
REMARK INTER + INTRA:          -5.457
REMARK INTER:                  -4.824
REMARK INTRA:                  -0.633
REMARK UNBOUND:                -0.706
REMARK SMILES O=C[C@@H](O)[C@@H](O)[C@@H](O)CO
REMARK SMILES IDX 7 1 9 2 10 3 5 5 3 6 2 7 1 8 4 9 6 11 8 13
REMARK H PARENT 10 4 4 10 6 12 8 14
REMARK Flexibility Score: inf
ROOT
ATOM      1  C   UNL     1       8.492  -0.629   8.696  1.00  0.00     0.171 C 
ENDROOT
BRANCH   1   2
ATOM      2  C   UNL     1       9.417  -0.069   9.786  1.00  0.00     0.190 C 
BRANCH   2   3
ATOM      3  O   UNL     1       9.975  -1.125  10.518  1.00  0.00    -0.394 OA
ATOM      4  H   UNL     1      10.475  -0.707  11.267  1.00  0.00     0.210 HD
ENDBRANCH   2   3
ENDBRANCH   1   2
BRANCH   1   5
ATOM      5  C   UNL     1       7.248  -1.362   9.274  1.00  0.00     0.181 C 
BRANCH   5   6
ATOM      6  C   UNL     1       7.446  -2.889   9.392  1.00  0.00     0.209 C 
BRANCH   6   7
ATOM      7  C   UNL     1       8.496  -3.366   8.422  1.00  0.00     0.258 C 
ATOM      8  O   UNL     1       9.559  -3.814   8.825  1.00  0.00    -0.300 OA
ENDBRANCH   6   7
BRANCH   6   9
ATOM      9  O   UNL     1       7.834  -3.227  10.700  1.00  0.00    -0.383 OA
ATOM     10  H   UNL     1       7.181  -2.799  11.313  1.00  0.00     0.211 HD
ENDBRANCH   6   9
ENDBRANCH   5   6
BRANCH   5  11
ATOM     11  O   UNL     1       6.916  -0.837  10.535  1.00  0.00    -0.387 OA
ATOM     12  H   UNL     1       6.284  -0.087  10.381  1.00  0.00     0.211 HD
ENDBRANCH   5  11
ENDBRANCH   1   5
BRANCH   1  13
ATOM     13  O   UNL     1       8.070   0.431   7.875  1.00  0.00    -0.388 OA
ATOM     14  H   UNL     1       7.090   0.326   7.749  1.00  0.00     0.211 HD
ENDBRANCH   1  13
TORSDOF 8
ENDMDL
