MODEL 1
REMARK VINA RESULT:     8.307      0.000      0.000
REMARK INTER + INTRA:          14.751
REMARK INTER:                  15.592
REMARK INTRA:                  -0.841
REMARK UNBOUND:                -0.841
REMARK SMILES O=C([O-])CCCCCCCCCCCCCCC(=O)[O-]
REMARK SMILES IDX 10 1 9 2 8 3 7 4 6 5 5 6 4 7 2 8 1 9 3 10 11 11 12 12 13 13
REMARK SMILES IDX 14 14 15 15 16 16 17 17 18 18 19 19 20 20
REMARK H PARENT
REMARK Flexibility Score: inf
ROOT
ATOM      1  C   UNL     1      20.579 -19.936  26.684  1.00  0.00     0.000 C 
ENDROOT
BRANCH   1   2
ATOM      2  C   UNL     1      20.903 -20.902  25.535  1.00  0.00     0.000 C 
BRANCH   2   3
ATOM      3  C   UNL     1      22.412 -21.145  25.377  1.00  0.00     0.000 C 
BRANCH   3   4
ATOM      4  C   UNL     1      22.945 -20.485  24.099  1.00  0.00     0.000 C 
BRANCH   4   5
ATOM      5  C   UNL     1      24.313 -21.062  23.711  1.00  0.00     0.000 C 
BRANCH   5   6
ATOM      6  C   UNL     1      24.511 -22.503  24.208  1.00  0.00     0.006 C 
BRANCH   6   7
ATOM      7  C   UNL     1      25.985 -22.836  24.481  1.00  0.00     0.053 C 
BRANCH   7   8
ATOM      8  C   UNL     1      26.281 -22.724  25.943  1.00  0.00     0.041 C 
ATOM      9  O   UNL     1      25.444 -22.197  26.722  1.00  0.00    -0.550 OA
ATOM     10  O   UNL     1      27.463 -23.245  26.454  1.00  0.00    -0.550 OA
ENDBRANCH   7   8
ENDBRANCH   6   7
ENDBRANCH   5   6
ENDBRANCH   4   5
ENDBRANCH   3   4
ENDBRANCH   2   3
ENDBRANCH   1   2
BRANCH   1  11
ATOM     11  C   UNL     1      19.102 -19.509  26.699  1.00  0.00     0.000 C 
BRANCH  11  12
ATOM     12  C   UNL     1      18.708 -18.673  25.469  1.00  0.00     0.000 C 
BRANCH  12  13
ATOM     13  C   UNL     1      17.342 -19.066  24.867  1.00  0.00     0.000 C 
BRANCH  13  14
ATOM     14  C   UNL     1      17.413 -19.265  23.345  1.00  0.00     0.000 C 
BRANCH  14  15
ATOM     15  C   UNL     1      16.703 -20.561  22.925  1.00  0.00     0.000 C 
BRANCH  15  16
ATOM     16  C   UNL     1      17.559 -21.447  22.003  1.00  0.00     0.006 C 
BRANCH  16  17
ATOM     17  C   UNL     1      16.882 -22.770  21.604  1.00  0.00     0.053 C 
BRANCH  17  18
ATOM     18  C   UNL     1      17.831 -23.725  20.946  1.00  0.00     0.041 C 
ATOM     19  O   UNL     1      18.137 -23.580  19.733  1.00  0.00    -0.550 OA
ATOM     20  O   UNL     1      18.351 -24.799  21.660  1.00  0.00    -0.550 OA
ENDBRANCH  17  18
ENDBRANCH  16  17
ENDBRANCH  15  16
ENDBRANCH  14  15
ENDBRANCH  13  14
ENDBRANCH  12  13
ENDBRANCH  11  12
ENDBRANCH   1  11
TORSDOF 15
ENDMDL
MODEL 2
REMARK VINA RESULT:     8.309      1.193      7.380
REMARK INTER + INTRA:          14.754
REMARK INTER:                  15.646
REMARK INTRA:                  -0.892
REMARK UNBOUND:                -0.841
REMARK SMILES O=C([O-])CCCCCCCCCCCCCCC(=O)[O-]
REMARK SMILES IDX 10 1 9 2 8 3 7 4 6 5 5 6 4 7 2 8 1 9 3 10 11 11 12 12 13 13
REMARK SMILES IDX 14 14 15 15 16 16 17 17 18 18 19 19 20 20
REMARK H PARENT
REMARK Flexibility Score: inf
ROOT
ATOM      1  C   UNL     1      17.675 -18.726  25.087  1.00  0.00     0.000 C 
ENDROOT
BRANCH   1   2
ATOM      2  C   UNL     1      18.083 -19.244  23.700  1.00  0.00     0.000 C 
BRANCH   2   3
ATOM      3  C   UNL     1      16.917 -19.903  22.948  1.00  0.00     0.000 C 
BRANCH   3   4
ATOM      4  C   UNL     1      17.380 -21.167  22.214  1.00  0.00     0.000 C 
BRANCH   4   5
ATOM      5  C   UNL     1      16.365 -22.306  22.386  1.00  0.00     0.000 C 
BRANCH   5   6
ATOM      6  C   UNL     1      16.637 -23.489  21.444  1.00  0.00     0.006 C 
BRANCH   6   7
ATOM      7  C   UNL     1      18.113 -23.593  21.037  1.00  0.00     0.053 C 
BRANCH   7   8
ATOM      8  C   UNL     1      18.250 -23.505  19.550  1.00  0.00     0.041 C 
ATOM      9  O   UNL     1      18.659 -22.442  19.012  1.00  0.00    -0.550 OA
ATOM     10  O   UNL     1      17.974 -24.613  18.759  1.00  0.00    -0.550 OA
ENDBRANCH   7   8
ENDBRANCH   6   7
ENDBRANCH   5   6
ENDBRANCH   4   5
ENDBRANCH   3   4
ENDBRANCH   2   3
ENDBRANCH   1   2
BRANCH   1  11
ATOM     11  C   UNL     1      18.873 -18.569  26.037  1.00  0.00     0.000 C 
BRANCH  11  12
ATOM     12  C   UNL     1      19.562 -19.907  26.358  1.00  0.00     0.000 C 
BRANCH  12  13
ATOM     13  C   UNL     1      21.093 -19.790  26.519  1.00  0.00     0.000 C 
BRANCH  13  14
ATOM     14  C   UNL     1      21.829 -21.031  25.992  1.00  0.00     0.000 C 
BRANCH  14  15
ATOM     15  C   UNL     1      22.110 -20.907  24.488  1.00  0.00     0.000 C 
BRANCH  15  16
ATOM     16  C   UNL     1      23.572 -20.544  24.174  1.00  0.00     0.006 C 
BRANCH  16  17
ATOM     17  C   UNL     1      24.398 -21.713  23.608  1.00  0.00     0.053 C 
BRANCH  17  18
ATOM     18  C   UNL     1      25.248 -22.373  24.652  1.00  0.00     0.041 C 
ATOM     19  O   UNL     1      25.229 -21.958  25.840  1.00  0.00    -0.550 OA
ATOM     20  O   UNL     1      26.091 -23.423  24.306  1.00  0.00    -0.550 OA
ENDBRANCH  17  18
ENDBRANCH  16  17
ENDBRANCH  15  16
ENDBRANCH  14  15
ENDBRANCH  13  14
ENDBRANCH  12  13
ENDBRANCH  11  12
ENDBRANCH   1  11
TORSDOF 15
ENDMDL
MODEL 3
REMARK VINA RESULT:     8.378      1.180      2.101
REMARK INTER + INTRA:          14.884
REMARK INTER:                  15.849
REMARK INTRA:                  -0.965
REMARK UNBOUND:                -0.841
REMARK SMILES O=C([O-])CCCCCCCCCCCCCCC(=O)[O-]
REMARK SMILES IDX 10 1 9 2 8 3 7 4 6 5 5 6 4 7 2 8 1 9 3 10 11 11 12 12 13 13
REMARK SMILES IDX 14 14 15 15 16 16 17 17 18 18 19 19 20 20
REMARK H PARENT
REMARK Flexibility Score: inf
ROOT
ATOM      1  C   UNL     1      18.807 -18.750  25.640  1.00  0.00     0.000 C 
ENDROOT
BRANCH   1   2
ATOM      2  C   UNL     1      19.544 -19.887  26.364  1.00  0.00     0.000 C 
BRANCH   2   3
ATOM      3  C   UNL     1      21.066 -19.677  26.397  1.00  0.00     0.000 C 
BRANCH   3   4
ATOM      4  C   UNL     1      21.807 -20.970  26.035  1.00  0.00     0.000 C 
BRANCH   4   5
ATOM      5  C   UNL     1      22.146 -21.008  24.538  1.00  0.00     0.000 C 
BRANCH   5   6
ATOM      6  C   UNL     1      23.594 -20.585  24.247  1.00  0.00     0.006 C 
BRANCH   6   7
ATOM      7  C   UNL     1      24.421 -21.711  23.611  1.00  0.00     0.053 C 
BRANCH   7   8
ATOM      8  C   UNL     1      25.266 -22.384  24.646  1.00  0.00     0.041 C 
ATOM      9  O   UNL     1      25.248 -21.983  25.839  1.00  0.00    -0.550 OA
ATOM     10  O   UNL     1      26.038 -23.488  24.303  1.00  0.00    -0.550 OA
ENDBRANCH   7   8
ENDBRANCH   6   7
ENDBRANCH   5   6
ENDBRANCH   4   5
ENDBRANCH   3   4
ENDBRANCH   2   3
ENDBRANCH   1   2
BRANCH   1  11
ATOM     11  C   UNL     1      17.337 -19.091  25.345  1.00  0.00     0.000 C 
BRANCH  11  12
ATOM     12  C   UNL     1      17.017 -19.114  23.841  1.00  0.00     0.000 C 
BRANCH  12  13
ATOM     13  C   UNL     1      18.020 -19.942  23.009  1.00  0.00     0.000 C 
BRANCH  13  14
ATOM     14  C   UNL     1      17.329 -20.748  21.899  1.00  0.00     0.000 C 
BRANCH  14  15
ATOM     15  C   UNL     1      16.577 -21.954  22.480  1.00  0.00     0.000 C 
BRANCH  15  16
ATOM     16  C   UNL     1      16.557 -23.167  21.533  1.00  0.00     0.006 C 
BRANCH  16  17
ATOM     17  C   UNL     1      17.955 -23.683  21.150  1.00  0.00     0.053 C 
BRANCH  17  18
ATOM     18  C   UNL     1      18.204 -23.626  19.673  1.00  0.00     0.041 C 
ATOM     19  O   UNL     1      17.981 -24.635  18.954  1.00  0.00    -0.550 OA
ATOM     20  O   UNL     1      18.717 -22.471  19.094  1.00  0.00    -0.550 OA
ENDBRANCH  17  18
ENDBRANCH  16  17
ENDBRANCH  15  16
ENDBRANCH  14  15
ENDBRANCH  13  14
ENDBRANCH  12  13
ENDBRANCH  11  12
ENDBRANCH   1  11
TORSDOF 15
ENDMDL
MODEL 4
REMARK VINA RESULT:     8.424      0.951      7.615
REMARK INTER + INTRA:          14.969
REMARK INTER:                  15.276
REMARK INTRA:                  -0.307
REMARK UNBOUND:                -0.841
REMARK SMILES O=C([O-])CCCCCCCCCCCCCCC(=O)[O-]
REMARK SMILES IDX 10 1 9 2 8 3 7 4 6 5 5 6 4 7 2 8 1 9 3 10 11 11 12 12 13 13
REMARK SMILES IDX 14 14 15 15 16 16 17 17 18 18 19 19 20 20
REMARK H PARENT
REMARK Flexibility Score: inf
ROOT
ATOM      1  C   UNL     1      18.445 -18.620  25.331  1.00  0.00     0.000 C 
ENDROOT
BRANCH   1   2
ATOM      2  C   UNL     1      17.195 -19.168  24.626  1.00  0.00     0.000 C 
BRANCH   2   3
ATOM      3  C   UNL     1      17.449 -19.503  23.149  1.00  0.00     0.000 C 
BRANCH   3   4
ATOM      4  C   UNL     1      16.687 -20.767  22.732  1.00  0.00     0.000 C 
BRANCH   4   5
ATOM      5  C   UNL     1      17.547 -21.650  21.816  1.00  0.00     0.000 C 
BRANCH   5   6
ATOM      6  C   UNL     1      17.078 -23.113  21.793  1.00  0.00     0.006 C 
BRANCH   6   7
ATOM      7  C   UNL     1      18.082 -24.045  21.100  1.00  0.00     0.053 C 
BRANCH   7   8
ATOM      8  C   UNL     1      18.194 -23.701  19.648  1.00  0.00     0.041 C 
ATOM      9  O   UNL     1      17.766 -24.499  18.773  1.00  0.00    -0.550 OA
ATOM     10  O   UNL     1      18.728 -22.478  19.262  1.00  0.00    -0.550 OA
ENDBRANCH   7   8
ENDBRANCH   6   7
ENDBRANCH   5   6
ENDBRANCH   4   5
ENDBRANCH   3   4
ENDBRANCH   2   3
ENDBRANCH   1   2
BRANCH   1  11
ATOM     11  C   UNL     1      18.904 -19.508  26.498  1.00  0.00     0.000 C 
BRANCH  11  12
ATOM     12  C   UNL     1      20.426 -19.734  26.516  1.00  0.00     0.000 C 
BRANCH  12  13
ATOM     13  C   UNL     1      20.896 -20.843  25.550  1.00  0.00     0.000 C 
BRANCH  13  14
ATOM     14  C   UNL     1      22.421 -21.028  25.575  1.00  0.00     0.000 C 
BRANCH  14  15
ATOM     15  C   UNL     1      22.994 -21.074  24.151  1.00  0.00     0.000 C 
BRANCH  15  16
ATOM     16  C   UNL     1      24.477 -21.486  24.110  1.00  0.00     0.006 C 
BRANCH  16  17
ATOM     17  C   UNL     1      25.077 -21.798  25.492  1.00  0.00     0.053 C 
BRANCH  17  18
ATOM     18  C   UNL     1      26.159 -22.833  25.427  1.00  0.00     0.041 C 
ATOM     19  O   UNL     1      26.235 -23.609  24.439  1.00  0.00    -0.550 OA
ATOM     20  O   UNL     1      27.062 -22.967  26.475  1.00  0.00    -0.550 OA
ENDBRANCH  17  18
ENDBRANCH  16  17
ENDBRANCH  15  16
ENDBRANCH  14  15
ENDBRANCH  13  14
ENDBRANCH  12  13
ENDBRANCH  11  12
ENDBRANCH   1  11
TORSDOF 15
ENDMDL
MODEL 5
REMARK VINA RESULT:     8.830      2.015      3.433
REMARK INTER + INTRA:          15.733
REMARK INTER:                  16.769
REMARK INTRA:                  -1.037
REMARK UNBOUND:                -0.841
REMARK SMILES O=C([O-])CCCCCCCCCCCCCCC(=O)[O-]
REMARK SMILES IDX 10 1 9 2 8 3 7 4 6 5 5 6 4 7 2 8 1 9 3 10 11 11 12 12 13 13
REMARK SMILES IDX 14 14 15 15 16 16 17 17 18 18 19 19 20 20
REMARK H PARENT
REMARK Flexibility Score: inf
ROOT
ATOM      1  C   UNL     1      17.932 -18.500  24.964  1.00  0.00     0.000 C 
ENDROOT
BRANCH   1   2
ATOM      2  C   UNL     1      17.829 -19.121  26.364  1.00  0.00     0.000 C 
BRANCH   2   3
ATOM      3  C   UNL     1      19.203 -19.463  26.962  1.00  0.00     0.000 C 
BRANCH   3   4
ATOM      4  C   UNL     1      20.127 -20.074  25.901  1.00  0.00     0.000 C 
BRANCH   4   5
ATOM      5  C   UNL     1      21.568 -20.173  26.419  1.00  0.00     0.000 C 
BRANCH   5   6
ATOM      6  C   UNL     1      22.334 -21.363  25.818  1.00  0.00     0.006 C 
BRANCH   6   7
ATOM      7  C   UNL     1      22.374 -21.325  24.284  1.00  0.00     0.053 C 
BRANCH   7   8
ATOM      8  C   UNL     1      23.740 -20.942  23.809  1.00  0.00     0.041 C 
ATOM      9  O   UNL     1      24.519 -21.816  23.345  1.00  0.00    -0.550 OA
ATOM     10  O   UNL     1      24.136 -19.611  23.832  1.00  0.00    -0.550 OA
ENDBRANCH   7   8
ENDBRANCH   6   7
ENDBRANCH   5   6
ENDBRANCH   4   5
ENDBRANCH   3   4
ENDBRANCH   2   3
ENDBRANCH   1   2
BRANCH   1  11
ATOM     11  C   UNL     1      17.040 -19.210  23.933  1.00  0.00     0.000 C 
BRANCH  11  12
ATOM     12  C   UNL     1      17.843 -19.871  22.800  1.00  0.00     0.000 C 
BRANCH  12  13
ATOM     13  C   UNL     1      16.979 -20.732  21.852  1.00  0.00     0.000 C 
BRANCH  13  14
ATOM     14  C   UNL     1      16.586 -22.076  22.484  1.00  0.00     0.000 C 
BRANCH  14  15
ATOM     15  C   UNL     1      16.588 -23.199  21.436  1.00  0.00     0.000 C 
BRANCH  15  16
ATOM     16  C   UNL     1      17.744 -24.197  21.623  1.00  0.00     0.006 C 
BRANCH  16  17
ATOM     17  C   UNL     1      18.873 -24.046  20.588  1.00  0.00     0.053 C 
BRANCH  17  18
ATOM     18  C   UNL     1      18.375 -23.554  19.263  1.00  0.00     0.041 C 
ATOM     19  O   UNL     1      17.768 -24.335  18.484  1.00  0.00    -0.550 OA
ATOM     20  O   UNL     1      18.613 -22.242  18.869  1.00  0.00    -0.550 OA
ENDBRANCH  17  18
ENDBRANCH  16  17
ENDBRANCH  15  16
ENDBRANCH  14  15
ENDBRANCH  13  14
ENDBRANCH  12  13
ENDBRANCH  11  12
ENDBRANCH   1  11
TORSDOF 15
ENDMDL
