MODEL 1
REMARK VINA RESULT:    -4.723      0.000      0.000
REMARK INTER + INTRA:          -5.275
REMARK INTER:                  -5.275
REMARK INTRA:                   0.000
REMARK UNBOUND:                 0.000
REMARK SMILES Oc1cc(O)c2c(ccc3ccc(O)c(O)c32)c1
REMARK SMILES IDX 9 1 8 2 7 3 18 4 2 5 3 6 4 7 6 8 17 9 10 10 11 11 12 12
REMARK SMILES IDX 13 13 15 14 16 15 1 17 5 19 14 21
REMARK H PARENT 16 16 1 18 5 20 14 22
REMARK Flexibility Score: inf
ROOT
ATOM      1  C   UNL     1     131.302 115.148 109.168  1.00  0.00     0.009 A 
ATOM      2  C   UNL     1     132.482 115.838 109.417  1.00  0.00     0.009 A 
ATOM      3  C   UNL     1     132.557 117.217 109.196  1.00  0.00    -0.010 A 
ATOM      4  C   UNL     1     133.782 117.876 109.384  1.00  0.00     0.055 A 
ATOM      5  C   UNL     1     133.919 119.221 109.044  1.00  0.00     0.119 A 
ATOM      6  C   UNL     1     132.852 119.897 108.457  1.00  0.00     0.093 A 
ATOM      7  C   UNL     1     131.626 119.251 108.239  1.00  0.00     0.127 A 
ATOM      8  C   UNL     1     131.415 117.935 108.737  1.00  0.00     0.035 A 
ATOM      9  C   UNL     1     130.150 117.260 108.712  1.00  0.00     0.039 A 
ATOM     10  C   UNL     1     130.136 115.841 108.828  1.00  0.00    -0.014 A 
ATOM     11  C   UNL     1     128.944 115.126 108.646  1.00  0.00     0.013 A 
ATOM     12  C   UNL     1     127.747 115.800 108.428  1.00  0.00     0.051 A 
ATOM     13  C   UNL     1     127.708 117.195 108.477  1.00  0.00     0.158 A 
ATOM     14  C   UNL     1     128.892 117.928 108.678  1.00  0.00     0.166 A 
ENDROOT
BRANCH  14  15
ATOM     15  O   UNL     1     128.799 119.295 108.949  1.00  0.00    -0.504 OA
ATOM     16  H   UNL     1     128.506 119.971 108.254  1.00  0.00     0.293 HD
ENDBRANCH  14  15
BRANCH   5  17
ATOM     17  O   UNL     1     135.125 119.887 109.248  1.00  0.00    -0.508 OA
ATOM     18  H   UNL     1     135.153 120.868 109.507  1.00  0.00     0.293 HD
ENDBRANCH   5  17
BRANCH   7  19
ATOM     19  O   UNL     1     130.676 119.889 107.442  1.00  0.00    -0.507 OA
ATOM     20  H   UNL     1     129.963 119.373 106.941  1.00  0.00     0.293 HD
ENDBRANCH   7  19
BRANCH  13  21
ATOM     21  O   UNL     1     126.487 117.857 108.353  1.00  0.00    -0.504 OA
ATOM     22  H   UNL     1     125.661 117.390 107.996  1.00  0.00     0.293 HD
ENDBRANCH  13  21
TORSDOF 4
ENDMDL
MODEL 2
REMARK VINA RESULT:    -4.700     11.293     13.682
REMARK INTER + INTRA:          -5.249
REMARK INTER:                  -5.249
REMARK INTRA:                   0.000
REMARK UNBOUND:                 0.000
REMARK SMILES Oc1cc(O)c2c(ccc3ccc(O)c(O)c32)c1
REMARK SMILES IDX 9 1 8 2 7 3 18 4 2 5 3 6 4 7 6 8 17 9 10 10 11 11 12 12
REMARK SMILES IDX 13 13 15 14 16 15 1 17 5 19 14 21
REMARK H PARENT 16 16 1 18 5 20 14 22
REMARK Flexibility Score: inf
ROOT
ATOM      1  C   UNL     1     133.874 131.216 109.132  1.00  0.00     0.009 A 
ATOM      2  C   UNL     1     133.217 132.405 109.423  1.00  0.00     0.009 A 
ATOM      3  C   UNL     1     131.833 132.508 109.257  1.00  0.00    -0.010 A 
ATOM      4  C   UNL     1     131.206 133.743 109.488  1.00  0.00     0.055 A 
ATOM      5  C   UNL     1     129.851 133.910 109.201  1.00  0.00     0.119 A 
ATOM      6  C   UNL     1     129.133 132.864 108.626  1.00  0.00     0.093 A 
ATOM      7  C   UNL     1     129.746 131.630 108.366  1.00  0.00     0.127 A 
ATOM      8  C   UNL     1     131.076 131.387 108.810  1.00  0.00     0.035 A 
ATOM      9  C   UNL     1     131.725 130.110 108.741  1.00  0.00     0.039 A 
ATOM     10  C   UNL     1     133.147 130.068 108.802  1.00  0.00    -0.014 A 
ATOM     11  C   UNL     1     133.831 128.866 108.576  1.00  0.00     0.013 A 
ATOM     12  C   UNL     1     133.127 127.685 108.367  1.00  0.00     0.051 A 
ATOM     13  C   UNL     1     131.735 127.671 108.470  1.00  0.00     0.158 A 
ATOM     14  C   UNL     1     131.032 128.865 108.715  1.00  0.00     0.166 A 
ENDROOT
BRANCH  14  15
ATOM     15  O   UNL     1     129.675 128.794 109.037  1.00  0.00    -0.504 OA
ATOM     16  H   UNL     1     129.344 128.679 109.988  1.00  0.00     0.293 HD
ENDBRANCH  14  15
BRANCH   5  17
ATOM     17  O   UNL     1     129.216 135.125 109.448  1.00  0.00    -0.508 OA
ATOM     18  H   UNL     1     129.135 135.837 108.730  1.00  0.00     0.293 HD
ENDBRANCH   5  17
BRANCH   7  19
ATOM     19  O   UNL     1     129.060 130.704 107.582  1.00  0.00    -0.507 OA
ATOM     20  H   UNL     1     129.497 129.850 107.254  1.00  0.00     0.293 HD
ENDBRANCH   7  19
BRANCH  13  21
ATOM     21  O   UNL     1     131.044 126.465 108.354  1.00  0.00    -0.504 OA
ATOM     22  H   UNL     1     130.037 126.417 108.454  1.00  0.00     0.293 HD
ENDBRANCH  13  21
TORSDOF 4
ENDMDL
MODEL 3
REMARK VINA RESULT:    -4.644     11.613     14.126
REMARK INTER + INTRA:          -5.187
REMARK INTER:                  -5.187
REMARK INTRA:                   0.000
REMARK UNBOUND:                 0.000
REMARK SMILES Oc1cc(O)c2c(ccc3ccc(O)c(O)c32)c1
REMARK SMILES IDX 9 1 8 2 7 3 18 4 2 5 3 6 4 7 6 8 17 9 10 10 11 11 12 12
REMARK SMILES IDX 13 13 15 14 16 15 1 17 5 19 14 21
REMARK H PARENT 16 16 1 18 5 20 14 22
REMARK Flexibility Score: inf
ROOT
ATOM      1  C   UNL     1     133.516 131.743 109.557  1.00  0.00     0.009 A 
ATOM      2  C   UNL     1     133.392 130.365 109.676  1.00  0.00     0.009 A 
ATOM      3  C   UNL     1     132.188 129.732 109.352  1.00  0.00    -0.010 A 
ATOM      4  C   UNL     1     132.067 128.348 109.553  1.00  0.00     0.055 A 
ATOM      5  C   UNL     1     130.839 127.713 109.366  1.00  0.00     0.119 A 
ATOM      6  C   UNL     1     129.715 128.467 109.038  1.00  0.00     0.093 A 
ATOM      7  C   UNL     1     129.810 129.854 108.855  1.00  0.00     0.127 A 
ATOM      8  C   UNL     1     131.083 130.491 108.871  1.00  0.00     0.035 A 
ATOM      9  C   UNL     1     131.297 131.866 108.530  1.00  0.00     0.039 A 
ATOM     10  C   UNL     1     132.490 132.499 108.981  1.00  0.00    -0.014 A 
ATOM     11  C   UNL     1     132.668 133.879 108.813  1.00  0.00     0.013 A 
ATOM     12  C   UNL     1     131.717 134.633 108.134  1.00  0.00     0.051 A 
ATOM     13  C   UNL     1     130.621 134.007 107.538  1.00  0.00     0.158 A 
ATOM     14  C   UNL     1     130.436 132.619 107.679  1.00  0.00     0.166 A 
ENDROOT
BRANCH  14  15
ATOM     15  O   UNL     1     129.471 131.985 106.894  1.00  0.00    -0.504 OA
ATOM     16  H   UNL     1     128.503 131.902 107.179  1.00  0.00     0.293 HD
ENDBRANCH  14  15
BRANCH   5  17
ATOM     17  O   UNL     1     130.716 126.337 109.542  1.00  0.00    -0.508 OA
ATOM     18  H   UNL     1     129.832 125.860 109.399  1.00  0.00     0.293 HD
ENDBRANCH   5  17
BRANCH   7  19
ATOM     19  O   UNL     1     128.629 130.590 108.763  1.00  0.00    -0.507 OA
ATOM     20  H   UNL     1     128.609 131.525 108.373  1.00  0.00     0.293 HD
ENDBRANCH   7  19
BRANCH  13  21
ATOM     21  O   UNL     1     129.725 134.757 106.778  1.00  0.00    -0.504 OA
ATOM     22  H   UNL     1     129.195 135.522 107.181  1.00  0.00     0.293 HD
ENDBRANCH  13  21
TORSDOF 4
ENDMDL
MODEL 4
REMARK VINA RESULT:    -4.643      1.223      4.980
REMARK INTER + INTRA:          -5.186
REMARK INTER:                  -5.186
REMARK INTRA:                   0.000
REMARK UNBOUND:                 0.000
REMARK SMILES Oc1cc(O)c2c(ccc3ccc(O)c(O)c32)c1
REMARK SMILES IDX 9 1 8 2 7 3 18 4 2 5 3 6 4 7 6 8 17 9 10 10 11 11 12 12
REMARK SMILES IDX 13 13 15 14 16 15 1 17 5 19 14 21
REMARK H PARENT 16 16 1 18 5 20 14 22
REMARK Flexibility Score: inf
ROOT
ATOM      1  C   UNL     1     132.991 115.787 109.510  1.00  0.00     0.009 A 
ATOM      2  C   UNL     1     131.655 115.407 109.546  1.00  0.00     0.009 A 
ATOM      3  C   UNL     1     130.653 116.305 109.165  1.00  0.00    -0.010 A 
ATOM      4  C   UNL     1     129.308 115.919 109.282  1.00  0.00     0.055 A 
ATOM      5  C   UNL     1     128.287 116.838 109.038  1.00  0.00     0.119 A 
ATOM      6  C   UNL     1     128.605 118.160 108.736  1.00  0.00     0.093 A 
ATOM      7  C   UNL     1     129.942 118.571 108.636  1.00  0.00     0.127 A 
ATOM      8  C   UNL     1     130.992 117.611 108.711  1.00  0.00     0.035 A 
ATOM      9  C   UNL     1     132.371 117.908 108.455  1.00  0.00     0.039 A 
ATOM     10  C   UNL     1     133.361 117.020 108.963  1.00  0.00    -0.014 A 
ATOM     11  C   UNL     1     134.720 117.350 108.879  1.00  0.00     0.013 A 
ATOM     12  C   UNL     1     135.122 118.513 108.230  1.00  0.00     0.051 A 
ATOM     13  C   UNL     1     134.182 119.314 107.579  1.00  0.00     0.158 A 
ATOM     14  C   UNL     1     132.814 118.987 107.636  1.00  0.00     0.166 A 
ENDROOT
BRANCH  14  15
ATOM     15  O   UNL     1     131.925 119.663 106.798  1.00  0.00    -0.504 OA
ATOM     16  H   UNL     1     131.029 119.277 106.526  1.00  0.00     0.293 HD
ENDBRANCH  14  15
BRANCH   5  17
ATOM     17  O   UNL     1     126.950 116.457 109.131  1.00  0.00    -0.508 OA
ATOM     18  H   UNL     1     126.328 116.507 108.332  1.00  0.00     0.293 HD
ENDBRANCH   5  17
BRANCH   7  19
ATOM     19  O   UNL     1     130.210 119.937 108.568  1.00  0.00    -0.507 OA
ATOM     20  H   UNL     1     129.542 120.596 108.184  1.00  0.00     0.293 HD
ENDBRANCH   7  19
BRANCH  13  21
ATOM     21  O   UNL     1     134.605 120.424 106.850  1.00  0.00    -0.504 OA
ATOM     22  H   UNL     1     135.234 121.114 107.246  1.00  0.00     0.293 HD
ENDBRANCH  13  21
TORSDOF 4
ENDMDL
MODEL 5
REMARK VINA RESULT:    -4.347      2.824      4.469
REMARK INTER + INTRA:          -4.855
REMARK INTER:                  -4.855
REMARK INTRA:                   0.000
REMARK UNBOUND:                 0.000
REMARK SMILES Oc1cc(O)c2c(ccc3ccc(O)c(O)c32)c1
REMARK SMILES IDX 9 1 8 2 7 3 18 4 2 5 3 6 4 7 6 8 17 9 10 10 11 11 12 12
REMARK SMILES IDX 13 13 15 14 16 15 1 17 5 19 14 21
REMARK H PARENT 16 16 1 18 5 20 14 22
REMARK Flexibility Score: inf
ROOT
ATOM      1  C   UNL     1     132.951 116.366 110.329  1.00  0.00     0.009 A 
ATOM      2  C   UNL     1     131.942 116.523 111.271  1.00  0.00     0.009 A 
ATOM      3  C   UNL     1     131.084 117.626 111.213  1.00  0.00    -0.010 A 
ATOM      4  C   UNL     1     130.122 117.799 112.220  1.00  0.00     0.055 A 
ATOM      5  C   UNL     1     129.345 118.957 112.262  1.00  0.00     0.119 A 
ATOM      6  C   UNL     1     129.568 119.972 111.336  1.00  0.00     0.093 A 
ATOM      7  C   UNL     1     130.540 119.829 110.336  1.00  0.00     0.127 A 
ATOM      8  C   UNL     1     131.220 118.589 110.172  1.00  0.00     0.035 A 
ATOM      9  C   UNL     1     132.102 118.294 109.081  1.00  0.00     0.039 A 
ATOM     10  C   UNL     1     133.036 117.230 109.233  1.00  0.00    -0.014 A 
ATOM     11  C   UNL     1     134.024 117.010 108.264  1.00  0.00     0.013 A 
ATOM     12  C   UNL     1     134.055 117.777 107.104  1.00  0.00     0.051 A 
ATOM     13  C   UNL     1     133.049 118.714 106.856  1.00  0.00     0.158 A 
ATOM     14  C   UNL     1     132.038 118.935 107.810  1.00  0.00     0.166 A 
ENDROOT
BRANCH  14  15
ATOM     15  O   UNL     1     130.927 119.700 107.449  1.00  0.00    -0.504 OA
ATOM     16  H   UNL     1     130.485 120.355 108.083  1.00  0.00     0.293 HD
ENDBRANCH  14  15
BRANCH   5  17
ATOM     17  O   UNL     1     128.373 119.125 113.246  1.00  0.00    -0.508 OA
ATOM     18  H   UNL     1     127.425 118.786 113.119  1.00  0.00     0.293 HD
ENDBRANCH   5  17
BRANCH   7  19
ATOM     19  O   UNL     1     130.888 120.953 109.588  1.00  0.00    -0.507 OA
ATOM     20  H   UNL     1     131.530 120.899 108.805  1.00  0.00     0.293 HD
ENDBRANCH   7  19
BRANCH  13  21
ATOM     21  O   UNL     1     133.034 119.410 105.648  1.00  0.00    -0.504 OA
ATOM     22  H   UNL     1     133.271 120.394 105.598  1.00  0.00     0.293 HD
ENDBRANCH  13  21
TORSDOF 4
ENDMDL
MODEL 6
REMARK VINA RESULT:    -4.341     11.295     12.833
REMARK INTER + INTRA:          -4.848
REMARK INTER:                  -4.848
REMARK INTRA:                   0.000
REMARK UNBOUND:                 0.000
REMARK SMILES Oc1cc(O)c2c(ccc3ccc(O)c(O)c32)c1
REMARK SMILES IDX 9 1 8 2 7 3 18 4 2 5 3 6 4 7 6 8 17 9 10 10 11 11 12 12
REMARK SMILES IDX 13 13 15 14 16 15 1 17 5 19 14 21
REMARK H PARENT 16 16 1 18 5 20 14 22
REMARK Flexibility Score: inf
ROOT
ATOM      1  C   UNL     1     116.407 115.886 110.400  1.00  0.00     0.009 A 
ATOM      2  C   UNL     1     116.540 116.877 111.364  1.00  0.00     0.009 A 
ATOM      3  C   UNL     1     117.617 117.769 111.319  1.00  0.00    -0.010 A 
ATOM      4  C   UNL     1     117.767 118.713 112.347  1.00  0.00     0.055 A 
ATOM      5  C   UNL     1     118.901 119.523 112.399  1.00  0.00     0.119 A 
ATOM      6  C   UNL     1     119.917 119.352 111.462  1.00  0.00     0.093 A 
ATOM      7  C   UNL     1     119.796 118.399 110.440  1.00  0.00     0.127 A 
ATOM      8  C   UNL     1     118.575 117.686 110.269  1.00  0.00     0.035 A 
ATOM      9  C   UNL     1     118.300 116.821 109.160  1.00  0.00     0.039 A 
ATOM     10  C   UNL     1     117.266 115.851 109.297  1.00  0.00    -0.014 A 
ATOM     11  C   UNL     1     117.068 114.880 108.306  1.00  0.00     0.013 A 
ATOM     12  C   UNL     1     117.828 114.899 107.142  1.00  0.00     0.051 A 
ATOM     13  C   UNL     1     118.732 115.938 106.911  1.00  0.00     0.158 A 
ATOM     14  C   UNL     1     118.929 116.933 107.886  1.00  0.00     0.166 A 
ENDROOT
BRANCH  14  15
ATOM     15  O   UNL     1     119.659 118.075 107.546  1.00  0.00    -0.504 OA
ATOM     16  H   UNL     1     120.656 118.053 107.370  1.00  0.00     0.293 HD
ENDBRANCH  14  15
BRANCH   5  17
ATOM     17  O   UNL     1     119.048 120.477 113.404  1.00  0.00    -0.508 OA
ATOM     18  H   UNL     1     119.159 121.462 113.188  1.00  0.00     0.293 HD
ENDBRANCH   5  17
BRANCH   7  19
ATOM     19  O   UNL     1     120.925 118.102 109.677  1.00  0.00    -0.507 OA
ATOM     20  H   UNL     1     121.074 117.184 109.273  1.00  0.00     0.293 HD
ENDBRANCH   7  19
BRANCH  13  21
ATOM     21  O   UNL     1     119.419 116.001 105.699  1.00  0.00    -0.504 OA
ATOM     22  H   UNL     1     120.298 115.517 105.559  1.00  0.00     0.293 HD
ENDBRANCH  13  21
TORSDOF 4
ENDMDL
MODEL 7
REMARK VINA RESULT:    -4.315     11.354     13.768
REMARK INTER + INTRA:          -4.819
REMARK INTER:                  -4.819
REMARK INTRA:                   0.000
REMARK UNBOUND:                 0.000
REMARK SMILES Oc1cc(O)c2c(ccc3ccc(O)c(O)c32)c1
REMARK SMILES IDX 9 1 8 2 7 3 18 4 2 5 3 6 4 7 6 8 17 9 10 10 11 11 12 12
REMARK SMILES IDX 13 13 15 14 16 15 1 17 5 19 14 21
REMARK H PARENT 16 16 1 18 5 20 14 22
REMARK Flexibility Score: inf
ROOT
ATOM      1  C   UNL     1     129.179 130.327 108.405  1.00  0.00     0.009 A 
ATOM      2  C   UNL     1     129.756 129.148 108.863  1.00  0.00     0.009 A 
ATOM      3  C   UNL     1     131.137 129.068 109.067  1.00  0.00    -0.010 A 
ATOM      4  C   UNL     1     131.701 127.845 109.459  1.00  0.00     0.055 A 
ATOM      5  C   UNL     1     133.086 127.700 109.540  1.00  0.00     0.119 A 
ATOM      6  C   UNL     1     133.913 128.758 109.171  1.00  0.00     0.093 A 
ATOM      7  C   UNL     1     133.370 129.982 108.755  1.00  0.00     0.127 A 
ATOM      8  C   UNL     1     131.965 130.203 108.832  1.00  0.00     0.035 A 
ATOM      9  C   UNL     1     131.337 131.469 108.590  1.00  0.00     0.039 A 
ATOM     10  C   UNL     1     129.949 131.487 108.274  1.00  0.00    -0.014 A 
ATOM     11  C   UNL     1     129.329 132.678 107.873  1.00  0.00     0.013 A 
ATOM     12  C   UNL     1     130.043 133.871 107.853  1.00  0.00     0.051 A 
ATOM     13  C   UNL     1     131.359 133.908 108.318  1.00  0.00     0.158 A 
ATOM     14  C   UNL     1     131.992 132.725 108.744  1.00  0.00     0.166 A 
ENDROOT
BRANCH  14  15
ATOM     15  O   UNL     1     133.215 132.818 109.412  1.00  0.00    -0.504 OA
ATOM     16  H   UNL     1     133.290 132.794 110.422  1.00  0.00     0.293 HD
ENDBRANCH  14  15
BRANCH   5  17
ATOM     17  O   UNL     1     133.653 126.496 109.949  1.00  0.00    -0.508 OA
ATOM     18  H   UNL     1     134.592 126.230 109.673  1.00  0.00     0.293 HD
ENDBRANCH   5  17
BRANCH   7  19
ATOM     19  O   UNL     1     134.223 130.920 108.176  1.00  0.00    -0.507 OA
ATOM     20  H   UNL     1     134.996 131.330 108.687  1.00  0.00     0.293 HD
ENDBRANCH   7  19
BRANCH  13  21
ATOM     21  O   UNL     1     132.036 135.125 108.385  1.00  0.00    -0.504 OA
ATOM     22  H   UNL     1     132.955 135.246 107.975  1.00  0.00     0.293 HD
ENDBRANCH  13  21
TORSDOF 4
ENDMDL
MODEL 8
REMARK VINA RESULT:    -4.043     12.001     14.418
REMARK INTER + INTRA:          -4.516
REMARK INTER:                  -4.516
REMARK INTRA:                   0.000
REMARK UNBOUND:                 0.000
REMARK SMILES Oc1cc(O)c2c(ccc3ccc(O)c(O)c32)c1
REMARK SMILES IDX 9 1 8 2 7 3 18 4 2 5 3 6 4 7 6 8 17 9 10 10 11 11 12 12
REMARK SMILES IDX 13 13 15 14 16 15 1 17 5 19 14 21
REMARK H PARENT 16 16 1 18 5 20 14 22
REMARK Flexibility Score: inf
ROOT
ATOM      1  C   UNL     1     129.625 129.857 109.438  1.00  0.00     0.009 A 
ATOM      2  C   UNL     1     129.108 130.758 108.516  1.00  0.00     0.009 A 
ATOM      3  C   UNL     1     129.912 131.775 107.991  1.00  0.00    -0.010 A 
ATOM      4  C   UNL     1     129.344 132.716 107.119  1.00  0.00     0.055 A 
ATOM      5  C   UNL     1     130.086 133.816 106.687  1.00  0.00     0.119 A 
ATOM      6  C   UNL     1     131.377 134.012 107.173  1.00  0.00     0.093 A 
ATOM      7  C   UNL     1     131.955 133.095 108.063  1.00  0.00     0.127 A 
ATOM      8  C   UNL     1     131.279 131.882 108.378  1.00  0.00     0.035 A 
ATOM      9  C   UNL     1     131.859 130.815 109.140  1.00  0.00     0.039 A 
ATOM     10  C   UNL     1     130.989 129.867 109.749  1.00  0.00    -0.014 A 
ATOM     11  C   UNL     1     131.495 128.905 110.633  1.00  0.00     0.013 A 
ATOM     12  C   UNL     1     132.864 128.815 110.865  1.00  0.00     0.051 A 
ATOM     13  C   UNL     1     133.751 129.623 110.151  1.00  0.00     0.158 A 
ATOM     14  C   UNL     1     133.261 130.581 109.245  1.00  0.00     0.166 A 
ENDROOT
BRANCH  14  15
ATOM     15  O   UNL     1     134.159 131.214 108.383  1.00  0.00    -0.504 OA
ATOM     16  H   UNL     1     135.060 131.560 108.690  1.00  0.00     0.293 HD
ENDBRANCH  14  15
BRANCH   5  17
ATOM     17  O   UNL     1     129.537 134.742 105.804  1.00  0.00    -0.508 OA
ATOM     18  H   UNL     1     128.861 135.433 106.112  1.00  0.00     0.293 HD
ENDBRANCH   5  17
BRANCH   7  19
ATOM     19  O   UNL     1     133.142 133.453 108.700  1.00  0.00    -0.507 OA
ATOM     20  H   UNL     1     133.288 134.380 109.084  1.00  0.00     0.293 HD
ENDBRANCH   7  19
BRANCH  13  21
ATOM     21  O   UNL     1     135.125 129.459 110.320  1.00  0.00    -0.504 OA
ATOM     22  H   UNL     1     135.596 129.748 111.170  1.00  0.00     0.293 HD
ENDBRANCH  13  21
TORSDOF 4
ENDMDL
