MODEL 1
REMARK VINA RESULT:    -3.583      0.000      0.000
REMARK INTER + INTRA:          -5.336
REMARK INTER:                  -4.840
REMARK INTRA:                  -0.496
REMARK UNBOUND:                -0.496
REMARK SMILES O=C[C@H](O)[C@@H](O)[C@@H](O)CO
REMARK SMILES IDX 7 1 9 2 10 3 5 5 3 6 2 7 1 8 4 9 6 11 8 13
REMARK H PARENT 10 4 4 10 6 12 8 14
REMARK Flexibility Score: inf
ROOT
ATOM      1  C   UNL     1      21.599   8.596  -6.261  1.00  0.00     0.171 C 
ENDROOT
BRANCH   1   2
ATOM      2  C   UNL     1      22.138   9.937  -6.807  1.00  0.00     0.190 C 
BRANCH   2   3
ATOM      3  O   UNL     1      21.152  10.935  -6.804  1.00  0.00    -0.394 OA
ATOM      4  H   UNL     1      20.578  10.774  -7.597  1.00  0.00     0.210 HD
ENDBRANCH   2   3
ENDBRANCH   1   2
BRANCH   1   5
ATOM      5  C   UNL     1      21.446   7.470  -7.325  1.00  0.00     0.181 C 
BRANCH   5   6
ATOM      6  C   UNL     1      22.108   6.128  -6.910  1.00  0.00     0.209 C 
BRANCH   6   7
ATOM      7  C   UNL     1      22.368   5.225  -8.088  1.00  0.00     0.258 C 
ATOM      8  O   UNL     1      21.449   4.835  -8.791  1.00  0.00    -0.300 OA
ENDBRANCH   6   7
BRANCH   6   9
ATOM      9  O   UNL     1      21.321   5.456  -5.957  1.00  0.00    -0.383 OA
ATOM     10  H   UNL     1      21.906   4.811  -5.481  1.00  0.00     0.211 HD
ENDBRANCH   6   9
ENDBRANCH   5   6
BRANCH   5  11
ATOM     11  O   UNL     1      20.083   7.256  -7.600  1.00  0.00    -0.387 OA
ATOM     12  H   UNL     1      19.627   7.120  -6.729  1.00  0.00     0.211 HD
ENDBRANCH   5  11
ENDBRANCH   1   5
BRANCH   1  13
ATOM     13  O   UNL     1      22.383   8.152  -5.181  1.00  0.00    -0.388 OA
ATOM     14  H   UNL     1      23.330   8.131  -5.476  1.00  0.00     0.211 HD
ENDBRANCH   1  13
TORSDOF 8
ENDMDL
MODEL 2
REMARK VINA RESULT:    -3.509      2.223      3.251
REMARK INTER + INTRA:          -5.236
REMARK INTER:                  -4.477
REMARK INTRA:                  -0.759
REMARK UNBOUND:                -0.496
REMARK SMILES O=C[C@H](O)[C@@H](O)[C@@H](O)CO
REMARK SMILES IDX 7 1 9 2 10 3 5 5 3 6 2 7 1 8 4 9 6 11 8 13
REMARK H PARENT 10 4 4 10 6 12 8 14
REMARK Flexibility Score: inf
ROOT
ATOM      1  C   UNL     1      22.185   9.462  -7.695  1.00  0.00     0.171 C 
ENDROOT
BRANCH   1   2
ATOM      2  C   UNL     1      21.972  10.852  -8.335  1.00  0.00     0.190 C 
BRANCH   2   3
ATOM      3  O   UNL     1      21.092  11.643  -7.580  1.00  0.00    -0.394 OA
ATOM      4  H   UNL     1      20.921  12.466  -8.107  1.00  0.00     0.210 HD
ENDBRANCH   2   3
ENDBRANCH   1   2
BRANCH   1   5
ATOM      5  C   UNL     1      22.183   9.451  -6.138  1.00  0.00     0.181 C 
BRANCH   5   6
ATOM      6  C   UNL     1      22.666   8.109  -5.526  1.00  0.00     0.209 C 
BRANCH   6   7
ATOM      7  C   UNL     1      24.073   7.760  -5.937  1.00  0.00     0.258 C 
ATOM      8  O   UNL     1      25.021   8.421  -5.542  1.00  0.00    -0.300 OA
ENDBRANCH   6   7
BRANCH   6   9
ATOM      9  O   UNL     1      21.794   7.060  -5.870  1.00  0.00    -0.383 OA
ATOM     10  H   UNL     1      21.273   6.819  -5.058  1.00  0.00     0.211 HD
ENDBRANCH   6   9
ENDBRANCH   5   6
BRANCH   5  11
ATOM     11  O   UNL     1      22.980  10.503  -5.653  1.00  0.00    -0.387 OA
ATOM     12  H   UNL     1      22.504  10.898  -4.877  1.00  0.00     0.211 HD
ENDBRANCH   5  11
ENDBRANCH   1   5
BRANCH   1  13
ATOM     13  O   UNL     1      21.250   8.539  -8.198  1.00  0.00    -0.388 OA
ATOM     14  H   UNL     1      21.749   7.748  -8.530  1.00  0.00     0.211 HD
ENDBRANCH   1  13
TORSDOF 8
ENDMDL
MODEL 3
REMARK VINA RESULT:    -3.500      1.460      3.823
REMARK INTER + INTRA:          -5.224
REMARK INTER:                  -4.482
REMARK INTRA:                  -0.742
REMARK UNBOUND:                -0.496
REMARK SMILES O=C[C@H](O)[C@@H](O)[C@@H](O)CO
REMARK SMILES IDX 7 1 9 2 10 3 5 5 3 6 2 7 1 8 4 9 6 11 8 13
REMARK H PARENT 10 4 4 10 6 12 8 14
REMARK Flexibility Score: inf
ROOT
ATOM      1  C   UNL     1      22.836   7.382  -6.293  1.00  0.00     0.171 C 
ENDROOT
BRANCH   1   2
ATOM      2  C   UNL     1      22.504   5.926  -6.689  1.00  0.00     0.190 C 
BRANCH   2   3
ATOM      3  O   UNL     1      21.442   5.410  -5.931  1.00  0.00    -0.394 OA
ATOM      4  H   UNL     1      21.797   4.629  -5.433  1.00  0.00     0.210 HD
ENDBRANCH   2   3
ENDBRANCH   1   2
BRANCH   1   5
ATOM      5  C   UNL     1      21.609   8.338  -6.229  1.00  0.00     0.181 C 
BRANCH   5   6
ATOM      6  C   UNL     1      21.971   9.830  -6.466  1.00  0.00     0.209 C 
BRANCH   6   7
ATOM      7  C   UNL     1      22.396  10.102  -7.886  1.00  0.00     0.258 C 
ATOM      8  O   UNL     1      21.590  10.041  -8.802  1.00  0.00    -0.300 OA
ENDBRANCH   6   7
BRANCH   6   9
ATOM      9  O   UNL     1      22.978  10.247  -5.577  1.00  0.00    -0.383 OA
ATOM     10  H   UNL     1      23.653  10.755  -6.100  1.00  0.00     0.211 HD
ENDBRANCH   6   9
ENDBRANCH   5   6
BRANCH   5  11
ATOM     11  O   UNL     1      20.641   7.936  -7.167  1.00  0.00    -0.387 OA
ATOM     12  H   UNL     1      19.834   8.492  -7.012  1.00  0.00     0.211 HD
ENDBRANCH   5  11
ENDBRANCH   1   5
BRANCH   1  13
ATOM     13  O   UNL     1      23.551   7.413  -5.082  1.00  0.00    -0.388 OA
ATOM     14  H   UNL     1      23.429   8.311  -4.677  1.00  0.00     0.211 HD
ENDBRANCH   1  13
TORSDOF 8
ENDMDL
MODEL 4
REMARK VINA RESULT:    -3.484      1.413      2.043
REMARK INTER + INTRA:          -5.202
REMARK INTER:                  -4.745
REMARK INTRA:                  -0.456
REMARK UNBOUND:                -0.496
REMARK SMILES O=C[C@H](O)[C@@H](O)[C@@H](O)CO
REMARK SMILES IDX 7 1 9 2 10 3 5 5 3 6 2 7 1 8 4 9 6 11 8 13
REMARK H PARENT 10 4 4 10 6 12 8 14
REMARK Flexibility Score: inf
ROOT
ATOM      1  C   UNL     1      21.996   9.966  -7.122  1.00  0.00     0.171 C 
ENDROOT
BRANCH   1   2
ATOM      2  C   UNL     1      21.992  10.875  -8.371  1.00  0.00     0.190 C 
BRANCH   2   3
ATOM      3  O   UNL     1      21.223  12.032  -8.170  1.00  0.00    -0.394 OA
ATOM      4  H   UNL     1      20.697  12.175  -9.000  1.00  0.00     0.210 HD
ENDBRANCH   2   3
ENDBRANCH   1   2
BRANCH   1   5
ATOM      5  C   UNL     1      22.109   8.442  -7.423  1.00  0.00     0.181 C 
BRANCH   5   6
ATOM      6  C   UNL     1      22.689   7.618  -6.242  1.00  0.00     0.209 C 
BRANCH   6   7
ATOM      7  C   UNL     1      22.419   6.142  -6.381  1.00  0.00     0.258 C 
ATOM      8  O   UNL     1      21.359   5.662  -6.010  1.00  0.00    -0.300 OA
ENDBRANCH   6   7
BRANCH   6   9
ATOM      9  O   UNL     1      22.185   8.081  -5.013  1.00  0.00    -0.383 OA
ATOM     10  H   UNL     1      21.317   7.626  -4.849  1.00  0.00     0.211 HD
ENDBRANCH   6   9
ENDBRANCH   5   6
BRANCH   5  11
ATOM     11  O   UNL     1      20.847   7.932  -7.777  1.00  0.00    -0.387 OA
ATOM     12  H   UNL     1      20.278   7.967  -6.964  1.00  0.00     0.211 HD
ENDBRANCH   5  11
ENDBRANCH   1   5
BRANCH   1  13
ATOM     13  O   UNL     1      22.999  10.368  -6.222  1.00  0.00    -0.388 OA
ATOM     14  H   UNL     1      23.711  10.826  -6.740  1.00  0.00     0.211 HD
ENDBRANCH   1  13
TORSDOF 8
ENDMDL
MODEL 5
REMARK VINA RESULT:    -3.428      0.609      3.938
REMARK INTER + INTRA:          -5.126
REMARK INTER:                  -4.423
REMARK INTRA:                  -0.703
REMARK UNBOUND:                -0.496
REMARK SMILES O=C[C@H](O)[C@@H](O)[C@@H](O)CO
REMARK SMILES IDX 7 1 9 2 10 3 5 5 3 6 2 7 1 8 4 9 6 11 8 13
REMARK H PARENT 10 4 4 10 6 12 8 14
REMARK Flexibility Score: inf
ROOT
ATOM      1  C   UNL     1      22.021   6.155  -7.057  1.00  0.00     0.171 C 
ENDROOT
BRANCH   1   2
ATOM      2  C   UNL     1      22.042   5.448  -8.430  1.00  0.00     0.190 C 
BRANCH   2   3
ATOM      3  O   UNL     1      20.747   5.159  -8.886  1.00  0.00    -0.394 OA
ATOM      4  H   UNL     1      20.443   5.946  -9.408  1.00  0.00     0.210 HD
ENDBRANCH   2   3
ENDBRANCH   1   2
BRANCH   1   5
ATOM      5  C   UNL     1      21.149   7.443  -6.997  1.00  0.00     0.181 C 
BRANCH   5   6
ATOM      6  C   UNL     1      21.663   8.495  -5.977  1.00  0.00     0.209 C 
BRANCH   6   7
ATOM      7  C   UNL     1      22.062   9.790  -6.636  1.00  0.00     0.258 C 
ATOM      8  O   UNL     1      21.223  10.631  -6.922  1.00  0.00    -0.300 OA
ENDBRANCH   6   7
BRANCH   6   9
ATOM      9  O   UNL     1      22.742   7.984  -5.233  1.00  0.00    -0.383 OA
ATOM     10  H   UNL     1      23.312   8.751  -4.960  1.00  0.00     0.211 HD
ENDBRANCH   6   9
ENDBRANCH   5   6
BRANCH   5  11
ATOM     11  O   UNL     1      21.072   8.026  -8.274  1.00  0.00    -0.387 OA
ATOM     12  H   UNL     1      20.907   7.292  -8.922  1.00  0.00     0.211 HD
ENDBRANCH   5  11
ENDBRANCH   1   5
BRANCH   1  13
ATOM     13  O   UNL     1      21.645   5.255  -6.044  1.00  0.00    -0.388 OA
ATOM     14  H   UNL     1      21.648   4.340  -6.429  1.00  0.00     0.211 HD
ENDBRANCH   1  13
TORSDOF 8
ENDMDL
MODEL 6
REMARK VINA RESULT:    -3.411      1.240      2.597
REMARK INTER + INTRA:          -5.103
REMARK INTER:                  -4.452
REMARK INTRA:                  -0.651
REMARK UNBOUND:                -0.496
REMARK SMILES O=C[C@H](O)[C@@H](O)[C@@H](O)CO
REMARK SMILES IDX 7 1 9 2 10 3 5 5 3 6 2 7 1 8 4 9 6 11 8 13
REMARK H PARENT 10 4 4 10 6 12 8 14
REMARK Flexibility Score: inf
ROOT
ATOM      1  C   UNL     1      22.454   9.718  -6.874  1.00  0.00     0.171 C 
ENDROOT
BRANCH   1   2
ATOM      2  C   UNL     1      23.859  10.207  -6.460  1.00  0.00     0.190 C 
BRANCH   2   3
ATOM      3  O   UNL     1      23.838  10.858  -5.216  1.00  0.00    -0.394 OA
ATOM      4  H   UNL     1      22.885  10.962  -4.962  1.00  0.00     0.210 HD
ENDBRANCH   2   3
ENDBRANCH   1   2
BRANCH   1   5
ATOM      5  C   UNL     1      21.881   8.562  -6.002  1.00  0.00     0.181 C 
BRANCH   5   6
ATOM      6  C   UNL     1      21.159   7.462  -6.826  1.00  0.00     0.209 C 
BRANCH   6   7
ATOM      7  C   UNL     1      21.932   6.169  -6.864  1.00  0.00     0.258 C 
ATOM      8  O   UNL     1      21.765   5.316  -6.005  1.00  0.00    -0.300 OA
ENDBRANCH   6   7
BRANCH   6   9
ATOM      9  O   UNL     1      20.904   7.904  -8.137  1.00  0.00    -0.383 OA
ATOM     10  H   UNL     1      20.905   7.109  -8.732  1.00  0.00     0.211 HD
ENDBRANCH   6   9
ENDBRANCH   5   6
BRANCH   5  11
ATOM     11  O   UNL     1      22.912   7.980  -5.244  1.00  0.00    -0.387 OA
ATOM     12  H   UNL     1      23.705   7.906  -5.836  1.00  0.00     0.211 HD
ENDBRANCH   5  11
ENDBRANCH   1   5
BRANCH   1  13
ATOM     13  O   UNL     1      21.550  10.795  -6.923  1.00  0.00    -0.388 OA
ATOM     14  H   UNL     1      21.733  11.311  -7.751  1.00  0.00     0.211 HD
ENDBRANCH   1  13
TORSDOF 8
ENDMDL
MODEL 7
REMARK VINA RESULT:    -3.368      2.812      3.760
REMARK INTER + INTRA:          -5.045
REMARK INTER:                  -4.528
REMARK INTRA:                  -0.516
REMARK UNBOUND:                -0.496
REMARK SMILES O=C[C@H](O)[C@@H](O)[C@@H](O)CO
REMARK SMILES IDX 7 1 9 2 10 3 5 5 3 6 2 7 1 8 4 9 6 11 8 13
REMARK H PARENT 10 4 4 10 6 12 8 14
REMARK Flexibility Score: inf
ROOT
ATOM      1  C   UNL     1      21.643  10.859  -8.093  1.00  0.00     0.171 C 
ENDROOT
BRANCH   1   2
ATOM      2  C   UNL     1      22.613  11.821  -8.815  1.00  0.00     0.190 C 
BRANCH   2   3
ATOM      3  O   UNL     1      22.118  13.133  -8.845  1.00  0.00    -0.394 OA
ATOM      4  H   UNL     1      21.671  13.252  -9.723  1.00  0.00     0.210 HD
ENDBRANCH   2   3
ENDBRANCH   1   2
BRANCH   1   5
ATOM      5  C   UNL     1      22.311   9.592  -7.483  1.00  0.00     0.181 C 
BRANCH   5   6
ATOM      6  C   UNL     1      23.541   9.908  -6.589  1.00  0.00     0.209 C 
BRANCH   6   7
ATOM      7  C   UNL     1      24.317   8.670  -6.218  1.00  0.00     0.258 C 
ATOM      8  O   UNL     1      23.740   7.655  -5.858  1.00  0.00    -0.300 OA
ENDBRANCH   6   7
BRANCH   6   9
ATOM      9  O   UNL     1      23.150  10.593  -5.424  1.00  0.00    -0.383 OA
ATOM     10  H   UNL     1      23.923  10.597  -4.800  1.00  0.00     0.211 HD
ENDBRANCH   6   9
ENDBRANCH   5   6
BRANCH   5  11
ATOM     11  O   UNL     1      21.364   8.865  -6.739  1.00  0.00    -0.387 OA
ATOM     12  H   UNL     1      20.912   8.245  -7.367  1.00  0.00     0.211 HD
ENDBRANCH   5  11
ENDBRANCH   1   5
BRANCH   1  13
ATOM     13  O   UNL     1      20.902  11.547  -7.115  1.00  0.00    -0.388 OA
ATOM     14  H   UNL     1      20.720  12.462  -7.455  1.00  0.00     0.211 HD
ENDBRANCH   1  13
TORSDOF 8
ENDMDL
MODEL 8
REMARK VINA RESULT:    -3.235      1.126      3.993
REMARK INTER + INTRA:          -4.866
REMARK INTER:                  -4.312
REMARK INTRA:                  -0.554
REMARK UNBOUND:                -0.496
REMARK SMILES O=C[C@H](O)[C@@H](O)[C@@H](O)CO
REMARK SMILES IDX 7 1 9 2 10 3 5 5 3 6 2 7 1 8 4 9 6 11 8 13
REMARK H PARENT 10 4 4 10 6 12 8 14
REMARK Flexibility Score: inf
ROOT
ATOM      1  C   UNL     1      22.593   5.848  -6.239  1.00  0.00     0.171 C 
ENDROOT
BRANCH   1   2
ATOM      2  C   UNL     1      23.252   4.984  -7.337  1.00  0.00     0.190 C 
BRANCH   2   3
ATOM      3  O   UNL     1      22.360   4.035  -7.858  1.00  0.00    -0.394 OA
ATOM      4  H   UNL     1      21.543   4.527  -8.131  1.00  0.00     0.210 HD
ENDBRANCH   2   3
ENDBRANCH   1   2
BRANCH   1   5
ATOM      5  C   UNL     1      22.506   7.367  -6.566  1.00  0.00     0.181 C 
BRANCH   5   6
ATOM      6  C   UNL     1      21.719   7.678  -7.869  1.00  0.00     0.209 C 
BRANCH   6   7
ATOM      7  C   UNL     1      21.940   9.088  -8.353  1.00  0.00     0.258 C 
ATOM      8  O   UNL     1      21.593  10.043  -7.675  1.00  0.00    -0.300 OA
ENDBRANCH   6   7
BRANCH   6   9
ATOM      9  O   UNL     1      20.343   7.444  -7.690  1.00  0.00    -0.383 OA
ATOM     10  H   UNL     1      20.244   6.629  -7.131  1.00  0.00     0.211 HD
ENDBRANCH   6   9
ENDBRANCH   5   6
BRANCH   5  11
ATOM     11  O   UNL     1      21.919   8.054  -5.489  1.00  0.00    -0.387 OA
ATOM     12  H   UNL     1      22.602   8.111  -4.771  1.00  0.00     0.211 HD
ENDBRANCH   5  11
ENDBRANCH   1   5
BRANCH   1  13
ATOM     13  O   UNL     1      21.324   5.340  -5.907  1.00  0.00    -0.388 OA
ATOM     14  H   UNL     1      21.250   4.426  -6.286  1.00  0.00     0.211 HD
ENDBRANCH   1  13
TORSDOF 8
ENDMDL
MODEL 9
REMARK VINA RESULT:    -3.208      2.031      4.631
REMARK INTER + INTRA:          -4.830
REMARK INTER:                  -4.307
REMARK INTRA:                  -0.523
REMARK UNBOUND:                -0.496
REMARK SMILES O=C[C@H](O)[C@@H](O)[C@@H](O)CO
REMARK SMILES IDX 7 1 9 2 10 3 5 5 3 6 2 7 1 8 4 9 6 11 8 13
REMARK H PARENT 10 4 4 10 6 12 8 14
REMARK Flexibility Score: inf
ROOT
ATOM      1  C   UNL     1      21.619   8.554  -6.481  1.00  0.00     0.171 C 
ENDROOT
BRANCH   1   2
ATOM      2  C   UNL     1      22.295   7.369  -5.756  1.00  0.00     0.190 C 
BRANCH   2   3
ATOM      3  O   UNL     1      23.586   7.698  -5.315  1.00  0.00    -0.394 OA
ATOM      4  H   UNL     1      24.194   6.989  -5.651  1.00  0.00     0.210 HD
ENDBRANCH   2   3
ENDBRANCH   1   2
BRANCH   1   5
ATOM      5  C   UNL     1      22.580   9.710  -6.882  1.00  0.00     0.181 C 
BRANCH   5   6
ATOM      6  C   UNL     1      22.003  10.646  -7.979  1.00  0.00     0.209 C 
BRANCH   6   7
ATOM      7  C   UNL     1      23.078  11.395  -8.723  1.00  0.00     0.258 C 
ATOM      8  O   UNL     1      24.216  11.457  -8.282  1.00  0.00    -0.300 OA
ENDBRANCH   6   7
BRANCH   6   9
ATOM      9  O   UNL     1      21.082  11.555  -7.427  1.00  0.00    -0.383 OA
ATOM     10  H   UNL     1      21.228  11.577  -6.444  1.00  0.00     0.211 HD
ENDBRANCH   6   9
ENDBRANCH   5   6
BRANCH   5  11
ATOM     11  O   UNL     1      22.914  10.469  -5.746  1.00  0.00    -0.387 OA
ATOM     12  H   UNL     1      23.376  11.287  -6.065  1.00  0.00     0.211 HD
ENDBRANCH   5  11
ENDBRANCH   1   5
BRANCH   1  13
ATOM     13  O   UNL     1      20.896   8.101  -7.599  1.00  0.00    -0.388 OA
ATOM     14  H   UNL     1      21.544   7.740  -8.258  1.00  0.00     0.211 HD
ENDBRANCH   1  13
TORSDOF 8
ENDMDL
