MODEL 1
REMARK VINA RESULT:    -1.986      0.000      0.000
REMARK INTER + INTRA:          -1.986
REMARK INTER:                  -1.986
REMARK INTRA:                   0.000
REMARK UNBOUND:                 0.000
REMARK SMILES CC(=O)[O-]
REMARK SMILES IDX 1 1 2 2 3 3 4 4
REMARK H PARENT
REMARK Flexibility Score: inf
ROOT
ATOM      1  C   UNL     1      21.356  51.672  51.895  1.00  0.00     0.063 C 
ATOM      2  C   UNL     1      21.599  51.550  50.429  1.00  0.00     0.038 C 
ATOM      3  O   UNL     1      22.294  50.601  49.980  1.00  0.00    -0.550 OA
ATOM      4  O   UNL     1      21.016  52.454  49.549  1.00  0.00    -0.550 OA
ENDROOT
TORSDOF 0
ENDMDL
MODEL 2
REMARK VINA RESULT:    -1.982      0.096      1.621
REMARK INTER + INTRA:          -1.982
REMARK INTER:                  -1.982
REMARK INTRA:                   0.000
REMARK UNBOUND:                 0.000
REMARK SMILES CC(=O)[O-]
REMARK SMILES IDX 1 1 2 2 3 3 4 4
REMARK H PARENT
REMARK Flexibility Score: inf
ROOT
ATOM      1  C   UNL     1      21.333  51.700  51.869  1.00  0.00     0.063 C 
ATOM      2  C   UNL     1      21.573  51.567  50.403  1.00  0.00     0.038 C 
ATOM      3  O   UNL     1      21.033  52.370  49.598  1.00  0.00    -0.550 OA
ATOM      4  O   UNL     1      22.438  50.589  49.926  1.00  0.00    -0.550 OA
ENDROOT
TORSDOF 0
ENDMDL
MODEL 3
REMARK VINA RESULT:    -1.952      1.358      2.040
REMARK INTER + INTRA:          -1.952
REMARK INTER:                  -1.952
REMARK INTRA:                   0.000
REMARK UNBOUND:                 0.000
REMARK SMILES CC(=O)[O-]
REMARK SMILES IDX 1 1 2 2 3 3 4 4
REMARK H PARENT
REMARK Flexibility Score: inf
ROOT
ATOM      1  C   UNL     1      22.750  50.741  49.952  1.00  0.00     0.063 C 
ATOM      2  C   UNL     1      21.610  51.614  50.355  1.00  0.00     0.038 C 
ATOM      3  O   UNL     1      21.030  52.332  49.498  1.00  0.00    -0.550 OA
ATOM      4  O   UNL     1      21.150  51.598  51.666  1.00  0.00    -0.550 OA
ENDROOT
TORSDOF 0
ENDMDL
MODEL 4
REMARK VINA RESULT:    -1.832      1.806      1.989
REMARK INTER + INTRA:          -1.832
REMARK INTER:                  -1.832
REMARK INTRA:                   0.000
REMARK UNBOUND:                 0.000
REMARK SMILES CC(=O)[O-]
REMARK SMILES IDX 1 1 2 2 3 3 4 4
REMARK H PARENT
REMARK Flexibility Score: inf
ROOT
ATOM      1  C   UNL     1      21.957  53.833  50.166  1.00  0.00     0.063 C 
ATOM      2  C   UNL     1      21.509  52.629  49.409  1.00  0.00     0.038 C 
ATOM      3  O   UNL     1      20.975  51.663  50.016  1.00  0.00    -0.550 OA
ATOM      4  O   UNL     1      21.629  52.592  48.025  1.00  0.00    -0.550 OA
ENDROOT
TORSDOF 0
ENDMDL
MODEL 5
REMARK VINA RESULT:    -1.732      9.693     10.327
REMARK INTER + INTRA:          -1.732
REMARK INTER:                  -1.732
REMARK INTRA:                   0.000
REMARK UNBOUND:                 0.000
REMARK SMILES CC(=O)[O-]
REMARK SMILES IDX 1 1 2 2 3 3 4 4
REMARK H PARENT
REMARK Flexibility Score: inf
ROOT
ATOM      1  C   UNL     1      19.004  53.912  39.513  1.00  0.00     0.063 C 
ATOM      2  C   UNL     1      19.270  53.843  40.979  1.00  0.00     0.038 C 
ATOM      3  O   UNL     1      18.879  54.769  41.737  1.00  0.00    -0.550 OA
ATOM      4  O   UNL     1      19.903  52.731  41.520  1.00  0.00    -0.550 OA
ENDROOT
TORSDOF 0
ENDMDL
MODEL 6
REMARK VINA RESULT:    -1.727      9.567     10.033
REMARK INTER + INTRA:          -1.727
REMARK INTER:                  -1.727
REMARK INTRA:                   0.000
REMARK UNBOUND:                 0.000
REMARK SMILES CC(=O)[O-]
REMARK SMILES IDX 1 1 2 2 3 3 4 4
REMARK H PARENT
REMARK Flexibility Score: inf
ROOT
ATOM      1  C   UNL     1      20.975  52.744  41.622  1.00  0.00     0.063 C 
ATOM      2  C   UNL     1      19.851  53.130  40.720  1.00  0.00     0.038 C 
ATOM      3  O   UNL     1      19.703  52.551  39.612  1.00  0.00    -0.550 OA
ATOM      4  O   UNL     1      18.934  54.092  41.124  1.00  0.00    -0.550 OA
ENDROOT
TORSDOF 0
ENDMDL
MODEL 7
REMARK VINA RESULT:    -1.717      1.740      2.146
REMARK INTER + INTRA:          -1.717
REMARK INTER:                  -1.717
REMARK INTRA:                   0.000
REMARK UNBOUND:                 0.000
REMARK SMILES CC(=O)[O-]
REMARK SMILES IDX 1 1 2 2 3 3 4 4
REMARK H PARENT
REMARK Flexibility Score: inf
ROOT
ATOM      1  C   UNL     1      21.474  52.465  48.969  1.00  0.00     0.063 C 
ATOM      2  C   UNL     1      21.387  52.632  50.448  1.00  0.00     0.038 C 
ATOM      3  O   UNL     1      21.279  51.623  51.194  1.00  0.00    -0.550 OA
ATOM      4  O   UNL     1      21.480  53.899  51.012  1.00  0.00    -0.550 OA
ENDROOT
TORSDOF 0
ENDMDL
MODEL 8
REMARK VINA RESULT:    -1.707      9.419     10.034
REMARK INTER + INTRA:          -1.707
REMARK INTER:                  -1.707
REMARK INTRA:                   0.000
REMARK UNBOUND:                 0.000
REMARK SMILES CC(=O)[O-]
REMARK SMILES IDX 1 1 2 2 3 3 4 4
REMARK H PARENT
REMARK Flexibility Score: inf
ROOT
ATOM      1  C   UNL     1      20.873  52.736  41.508  1.00  0.00     0.063 C 
ATOM      2  C   UNL     1      19.702  53.459  40.934  1.00  0.00     0.038 C 
ATOM      3  O   UNL     1      19.095  54.324  41.618  1.00  0.00    -0.550 OA
ATOM      4  O   UNL     1      19.309  53.218  39.623  1.00  0.00    -0.550 OA
ENDROOT
TORSDOF 0
ENDMDL
MODEL 9
REMARK VINA RESULT:    -1.694     23.873     24.115
REMARK INTER + INTRA:          -1.694
REMARK INTER:                  -1.694
REMARK INTRA:                   0.000
REMARK UNBOUND:                 0.000
REMARK SMILES CC(=O)[O-]
REMARK SMILES IDX 1 1 2 2 3 3 4 4
REMARK H PARENT
REMARK Flexibility Score: inf
ROOT
ATOM      1  C   UNL     1       5.638  37.975  37.023  1.00  0.00     0.063 C 
ATOM      2  C   UNL     1       6.992  38.440  36.607  1.00  0.00     0.038 C 
ATOM      3  O   UNL     1       7.287  39.663  36.668  1.00  0.00    -0.550 OA
ATOM      4  O   UNL     1       7.951  37.520  36.201  1.00  0.00    -0.550 OA
ENDROOT
TORSDOF 0
ENDMDL
