MODEL 1
REMARK VINA RESULT:    -5.456      0.000      0.000
REMARK INTER + INTRA:          -6.159
REMARK INTER:                  -5.935
REMARK INTRA:                  -0.225
REMARK UNBOUND:                -0.225
REMARK SMILES O=C([O-])c1ccccc1O
REMARK SMILES IDX 4 1 9 2 5 3 8 4 6 5 7 6 2 7 1 8 3 9 10 10
REMARK H PARENT 10 11
REMARK Flexibility Score: inf
ROOT
ATOM      1  C   UNL     1     -11.771 -17.369  29.539  1.00  0.00     0.039 A 
ATOM      2  C   UNL     1     -13.115 -17.077  29.205  1.00  0.00     0.124 A 
ATOM      3  C   UNL     1     -10.746 -16.916  28.682  1.00  0.00     0.014 A 
ATOM      4  C   UNL     1     -13.406 -16.351  28.040  1.00  0.00     0.047 A 
ATOM      5  C   UNL     1     -11.050 -16.194  27.526  1.00  0.00     0.001 A 
ATOM      6  C   UNL     1     -12.377 -15.912  27.206  1.00  0.00     0.004 A 
ENDROOT
BRANCH   1   7
ATOM      7  C   UNL     1     -11.417 -18.135  30.761  1.00  0.00     0.075 C 
ATOM      8  O   UNL     1     -12.129 -18.044  31.798  1.00  0.00    -0.545 OA
ATOM      9  O   UNL     1     -10.303 -18.964  30.792  1.00  0.00    -0.545 OA
ENDBRANCH   1   7
BRANCH   2  10
ATOM     10  O   UNL     1     -14.161 -17.505  30.023  1.00  0.00    -0.507 OA
ATOM     11  H   UNL     1     -14.683 -18.352  29.823  1.00  0.00     0.293 HD
ENDBRANCH   2  10
TORSDOF 2
ENDMDL
MODEL 2
REMARK VINA RESULT:    -5.281      2.274      3.787
REMARK INTER + INTRA:          -5.968
REMARK INTER:                  -5.745
REMARK INTRA:                  -0.223
REMARK UNBOUND:                -0.225
REMARK SMILES O=C([O-])c1ccccc1O
REMARK SMILES IDX 4 1 9 2 5 3 8 4 6 5 7 6 2 7 1 8 3 9 10 10
REMARK H PARENT 10 11
REMARK Flexibility Score: inf
ROOT
ATOM      1  C   UNL     1     -10.905 -17.081  29.324  1.00  0.00     0.039 A 
ATOM      2  C   UNL     1     -10.939 -18.466  29.607  1.00  0.00     0.124 A 
ATOM      3  C   UNL     1     -10.148 -16.236  30.162  1.00  0.00     0.014 A 
ATOM      4  C   UNL     1     -10.228 -18.975  30.705  1.00  0.00     0.047 A 
ATOM      5  C   UNL     1      -9.445 -16.755  31.250  1.00  0.00     0.001 A 
ATOM      6  C   UNL     1      -9.484 -18.122  31.521  1.00  0.00     0.004 A 
ENDROOT
BRANCH   1   7
ATOM      7  C   UNL     1     -11.643 -16.500  28.173  1.00  0.00     0.075 C 
ATOM      8  O   UNL     1     -12.903 -16.531  28.143  1.00  0.00    -0.545 OA
ATOM      9  O   UNL     1     -10.969 -15.912  27.110  1.00  0.00    -0.545 OA
ENDBRANCH   1   7
BRANCH   2  10
ATOM     10  O   UNL     1     -11.675 -19.340  28.806  1.00  0.00    -0.507 OA
ATOM     11  H   UNL     1     -11.921 -19.108  27.850  1.00  0.00     0.293 HD
ENDBRANCH   2  10
TORSDOF 2
ENDMDL
MODEL 3
REMARK VINA RESULT:    -5.271      1.838      3.542
REMARK INTER + INTRA:          -5.958
REMARK INTER:                  -5.789
REMARK INTRA:                  -0.169
REMARK UNBOUND:                -0.225
REMARK SMILES O=C([O-])c1ccccc1O
REMARK SMILES IDX 4 1 9 2 5 3 8 4 6 5 7 6 2 7 1 8 3 9 10 10
REMARK H PARENT 10 11
REMARK Flexibility Score: inf
ROOT
ATOM      1  C   UNL     1     -11.929 -17.234  29.229  1.00  0.00     0.039 A 
ATOM      2  C   UNL     1     -12.866 -17.730  30.165  1.00  0.00     0.124 A 
ATOM      3  C   UNL     1     -10.555 -17.429  29.477  1.00  0.00     0.014 A 
ATOM      4  C   UNL     1     -12.421 -18.401  31.315  1.00  0.00     0.047 A 
ATOM      5  C   UNL     1     -10.126 -18.099  30.625  1.00  0.00     0.001 A 
ATOM      6  C   UNL     1     -11.057 -18.584  31.542  1.00  0.00     0.004 A 
ENDROOT
BRANCH   1   7
ATOM      7  C   UNL     1     -12.356 -16.518  28.000  1.00  0.00     0.075 C 
ATOM      8  O   UNL     1     -11.547 -16.349  27.048  1.00  0.00    -0.545 OA
ATOM      9  O   UNL     1     -13.646 -16.019  27.870  1.00  0.00    -0.545 OA
ENDBRANCH   1   7
BRANCH   2  10
ATOM     10  O   UNL     1     -14.236 -17.560  29.962  1.00  0.00    -0.507 OA
ATOM     11  H   UNL     1     -14.846 -18.344  29.755  1.00  0.00     0.293 HD
ENDBRANCH   2  10
TORSDOF 2
ENDMDL
MODEL 4
REMARK VINA RESULT:    -5.208      1.843      2.369
REMARK INTER + INTRA:          -5.889
REMARK INTER:                  -5.636
REMARK INTRA:                  -0.253
REMARK UNBOUND:                -0.225
REMARK SMILES O=C([O-])c1ccccc1O
REMARK SMILES IDX 4 1 9 2 5 3 8 4 6 5 7 6 2 7 1 8 3 9 10 10
REMARK H PARENT 10 11
REMARK Flexibility Score: inf
ROOT
ATOM      1  C   UNL     1     -11.165 -17.170  30.668  1.00  0.00     0.039 A 
ATOM      2  C   UNL     1     -10.982 -18.215  29.733  1.00  0.00     0.124 A 
ATOM      3  C   UNL     1     -11.927 -16.046  30.288  1.00  0.00     0.014 A 
ATOM      4  C   UNL     1     -11.555 -18.120  28.455  1.00  0.00     0.047 A 
ATOM      5  C   UNL     1     -12.492 -15.965  29.014  1.00  0.00     0.001 A 
ATOM      6  C   UNL     1     -12.307 -17.000  28.099  1.00  0.00     0.004 A 
ENDROOT
BRANCH   1   7
ATOM      7  C   UNL     1     -10.576 -17.228  32.030  1.00  0.00     0.075 C 
ATOM      8  O   UNL     1     -11.293 -17.009  33.044  1.00  0.00    -0.545 OA
ATOM      9  O   UNL     1      -9.231 -17.523  32.220  1.00  0.00    -0.545 OA
ENDBRANCH   1   7
BRANCH   2  10
ATOM     10  O   UNL     1     -10.235 -19.346  30.064  1.00  0.00    -0.507 OA
ATOM     11  H   UNL     1     -10.200 -20.158  29.457  1.00  0.00     0.293 HD
ENDBRANCH   2  10
TORSDOF 2
ENDMDL
MODEL 5
REMARK VINA RESULT:    -5.204      1.411      1.910
REMARK INTER + INTRA:          -5.885
REMARK INTER:                  -5.631
REMARK INTRA:                  -0.254
REMARK UNBOUND:                -0.225
REMARK SMILES O=C([O-])c1ccccc1O
REMARK SMILES IDX 4 1 9 2 5 3 8 4 6 5 7 6 2 7 1 8 3 9 10 10
REMARK H PARENT 10 11
REMARK Flexibility Score: inf
ROOT
ATOM      1  C   UNL     1     -11.542 -18.046  30.683  1.00  0.00     0.039 A 
ATOM      2  C   UNL     1     -12.899 -18.283  30.362  1.00  0.00     0.124 A 
ATOM      3  C   UNL     1     -10.893 -16.932  30.111  1.00  0.00     0.014 A 
ATOM      4  C   UNL     1     -13.573 -17.416  29.488  1.00  0.00     0.047 A 
ATOM      5  C   UNL     1     -11.577 -16.077  29.244  1.00  0.00     0.001 A 
ATOM      6  C   UNL     1     -12.914 -16.319  28.933  1.00  0.00     0.004 A 
ENDROOT
BRANCH   1   7
ATOM      7  C   UNL     1     -10.789 -18.938  31.602  1.00  0.00     0.075 C 
ATOM      8  O   UNL     1      -9.651 -19.373  31.278  1.00  0.00    -0.545 OA
ATOM      9  O   UNL     1     -11.316 -19.311  32.833  1.00  0.00    -0.545 OA
ENDBRANCH   1   7
BRANCH   2  10
ATOM     10  O   UNL     1     -13.580 -19.372  30.904  1.00  0.00    -0.507 OA
ATOM     11  H   UNL     1     -13.652 -20.256  30.411  1.00  0.00     0.293 HD
ENDBRANCH   2  10
TORSDOF 2
ENDMDL
MODEL 6
REMARK VINA RESULT:    -5.049      1.952      3.790
REMARK INTER + INTRA:          -5.716
REMARK INTER:                  -5.470
REMARK INTRA:                  -0.246
REMARK UNBOUND:                -0.225
REMARK SMILES O=C([O-])c1ccccc1O
REMARK SMILES IDX 4 1 9 2 5 3 8 4 6 5 7 6 2 7 1 8 3 9 10 10
REMARK H PARENT 10 11
REMARK Flexibility Score: inf
ROOT
ATOM      1  C   UNL     1     -11.568 -17.168  30.450  1.00  0.00     0.039 A 
ATOM      2  C   UNL     1     -10.454 -18.028  30.590  1.00  0.00     0.124 A 
ATOM      3  C   UNL     1     -11.535 -15.907  31.080  1.00  0.00     0.014 A 
ATOM      4  C   UNL     1      -9.344 -17.619  31.345  1.00  0.00     0.047 A 
ATOM      5  C   UNL     1     -10.423 -15.513  31.828  1.00  0.00     0.001 A 
ATOM      6  C   UNL     1      -9.330 -16.367  31.960  1.00  0.00     0.004 A 
ENDROOT
BRANCH   1   7
ATOM      7  C   UNL     1     -12.764 -17.560  29.662  1.00  0.00     0.075 C 
ATOM      8  O   UNL     1     -13.237 -18.725  29.758  1.00  0.00    -0.545 OA
ATOM      9  O   UNL     1     -13.387 -16.660  28.806  1.00  0.00    -0.545 OA
ENDBRANCH   1   7
BRANCH   2  10
ATOM     10  O   UNL     1     -10.443 -19.285  29.985  1.00  0.00    -0.507 OA
ATOM     11  H   UNL     1     -10.235 -20.128  30.510  1.00  0.00     0.293 HD
ENDBRANCH   2  10
TORSDOF 2
ENDMDL
MODEL 7
REMARK VINA RESULT:    -5.035      2.277      3.828
REMARK INTER + INTRA:          -5.701
REMARK INTER:                  -5.491
REMARK INTRA:                  -0.210
REMARK UNBOUND:                -0.225
REMARK SMILES O=C([O-])c1ccccc1O
REMARK SMILES IDX 4 1 9 2 5 3 8 4 6 5 7 6 2 7 1 8 3 9 10 10
REMARK H PARENT 10 11
REMARK Flexibility Score: inf
ROOT
ATOM      1  C   UNL     1     -11.174 -17.031  29.566  1.00  0.00     0.039 A 
ATOM      2  C   UNL     1     -10.874 -16.293  30.736  1.00  0.00     0.124 A 
ATOM      3  C   UNL     1     -10.735 -18.368  29.476  1.00  0.00     0.014 A 
ATOM      4  C   UNL     1     -10.153 -16.896  31.778  1.00  0.00     0.047 A 
ATOM      5  C   UNL     1     -10.019 -18.955  30.522  1.00  0.00     0.001 A 
ATOM      6  C   UNL     1      -9.729 -18.220  31.671  1.00  0.00     0.004 A 
ENDROOT
BRANCH   1   7
ATOM      7  C   UNL     1     -11.933 -16.433  28.438  1.00  0.00     0.075 C 
ATOM      8  O   UNL     1     -13.150 -16.135  28.577  1.00  0.00    -0.545 OA
ATOM      9  O   UNL     1     -11.326 -16.190  27.212  1.00  0.00    -0.545 OA
ENDBRANCH   1   7
BRANCH   2  10
ATOM     10  O   UNL     1     -11.288 -14.968  30.869  1.00  0.00    -0.507 OA
ATOM     11  H   UNL     1     -10.675 -14.253  31.245  1.00  0.00     0.293 HD
ENDBRANCH   2  10
TORSDOF 2
ENDMDL
MODEL 8
REMARK VINA RESULT:    -5.003      2.110      3.031
REMARK INTER + INTRA:          -5.667
REMARK INTER:                  -5.418
REMARK INTRA:                  -0.248
REMARK UNBOUND:                -0.225
REMARK SMILES O=C([O-])c1ccccc1O
REMARK SMILES IDX 4 1 9 2 5 3 8 4 6 5 7 6 2 7 1 8 3 9 10 10
REMARK H PARENT 10 11
REMARK Flexibility Score: inf
ROOT
ATOM      1  C   UNL     1     -10.459 -16.762  30.954  1.00  0.00     0.039 A 
ATOM      2  C   UNL     1     -11.553 -17.056  31.801  1.00  0.00     0.124 A 
ATOM      3  C   UNL     1     -10.691 -16.625  29.570  1.00  0.00     0.014 A 
ATOM      4  C   UNL     1     -12.839 -17.206  31.259  1.00  0.00     0.047 A 
ATOM      5  C   UNL     1     -11.976 -16.776  29.044  1.00  0.00     0.001 A 
ATOM      6  C   UNL     1     -13.048 -17.066  29.887  1.00  0.00     0.004 A 
ENDROOT
BRANCH   1   7
ATOM      7  C   UNL     1      -9.082 -16.595  31.485  1.00  0.00     0.075 C 
ATOM      8  O   UNL     1      -8.421 -15.554  31.225  1.00  0.00    -0.545 OA
ATOM      9  O   UNL     1      -8.493 -17.575  32.274  1.00  0.00    -0.545 OA
ENDBRANCH   1   7
BRANCH   2  10
ATOM     10  O   UNL     1     -11.371 -17.200  33.177  1.00  0.00    -0.507 OA
ATOM     11  H   UNL     1     -10.538 -17.633  33.562  1.00  0.00     0.293 HD
ENDBRANCH   2  10
TORSDOF 2
ENDMDL
MODEL 9
REMARK VINA RESULT:    -4.996      2.213      3.078
REMARK INTER + INTRA:          -5.659
REMARK INTER:                  -5.421
REMARK INTRA:                  -0.238
REMARK UNBOUND:                -0.225
REMARK SMILES O=C([O-])c1ccccc1O
REMARK SMILES IDX 4 1 9 2 5 3 8 4 6 5 7 6 2 7 1 8 3 9 10 10
REMARK H PARENT 10 11
REMARK Flexibility Score: inf
ROOT
ATOM      1  C   UNL     1     -10.786 -16.783  30.588  1.00  0.00     0.039 A 
ATOM      2  C   UNL     1     -11.067 -16.499  29.231  1.00  0.00     0.124 A 
ATOM      3  C   UNL     1     -11.837 -17.219  31.421  1.00  0.00     0.014 A 
ATOM      4  C   UNL     1     -12.372 -16.652  28.739  1.00  0.00     0.047 A 
ATOM      5  C   UNL     1     -13.131 -17.367  30.917  1.00  0.00     0.001 A 
ATOM      6  C   UNL     1     -13.398 -17.085  29.579  1.00  0.00     0.004 A 
ENDROOT
BRANCH   1   7
ATOM      7  C   UNL     1      -9.420 -16.634  31.151  1.00  0.00     0.075 C 
ATOM      8  O   UNL     1      -8.681 -15.681  30.786  1.00  0.00    -0.545 OA
ATOM      9  O   UNL     1      -8.927 -17.535  32.087  1.00  0.00    -0.545 OA
ENDBRANCH   1   7
BRANCH   2  10
ATOM     10  O   UNL     1     -10.058 -16.065  28.370  1.00  0.00    -0.507 OA
ATOM     11  H   UNL     1      -9.603 -16.697  27.720  1.00  0.00     0.293 HD
ENDBRANCH   2  10
TORSDOF 2
ENDMDL
