MODEL 1
REMARK VINA RESULT:    17.937      0.000      0.000
REMARK INTER + INTRA:          27.031
REMARK INTER:                  26.850
REMARK INTRA:                   0.181
REMARK UNBOUND:                 0.181
REMARK SMILES C=C(CC[C@H](C(=O)[O-])[C@H]1[C@H](O)C[C@]2(C)C3=C(CC[C@]12C)[C@@]1(C)CC[C@H](OC(C)=O)C(C)(C)[C@@H]1CC3)C(C)C
REMARK SMILES IDX 4 1 5 2 6 3 7 4 8 5 9 6 10 7 19 8 12 9 13 10 18 11 20 12
REMARK SMILES IDX 14 13 15 14 17 15 16 16 35 17 21 18 34 19 33 20 23 21 22 22
REMARK SMILES IDX 30 23 24 24 25 25 31 26 32 27 11 28 26 30 27 31 29 32 28 33
REMARK SMILES IDX 3 34 2 35 1 36 36 37 37 38 38 39
REMARK H PARENT 11 29
REMARK Flexibility Score: inf
ROOT
ATOM      1  C   UNL     1     -14.548  40.124  14.756  1.00  0.00     0.014 C 
ENDROOT
BRANCH   1   2
ATOM      2  C   UNL     1     -15.725  39.891  15.762  1.00  0.00     0.042 C 
BRANCH   2   3
ATOM      3  C   UNL     1     -15.314  40.037  17.210  1.00  0.00     0.045 C 
ATOM      4  O   UNL     1     -14.091  40.125  17.503  1.00  0.00    -0.550 OA
ATOM      5  O   UNL     1     -16.257  40.125  18.230  1.00  0.00    -0.550 OA
ENDBRANCH   2   3
BRANCH   2   6
ATOM      6  C   UNL     1     -16.577  38.594  15.516  1.00  0.00     0.033 C 
ATOM      7  C   UNL     1     -16.018  37.346  16.232  1.00  0.00     0.119 C 
ATOM      8  C   UNL     1     -18.138  38.604  15.739  1.00  0.00    -0.017 C 
ATOM      9  C   UNL     1     -17.230  36.563  16.726  1.00  0.00     0.043 C 
ATOM     10  C   UNL     1     -18.468  37.067  15.937  1.00  0.00    -0.003 C 
ATOM     11  C   UNL     1     -18.855  39.251  14.495  1.00  0.00     0.012 C 
ATOM     12  C   UNL     1     -18.546  39.413  17.004  1.00  0.00     0.013 C 
ATOM     13  C   UNL     1     -19.739  36.756  16.779  1.00  0.00     0.017 C 
ATOM     14  C   UNL     1     -18.630  36.345  14.572  1.00  0.00    -0.064 C 
ATOM     15  C   UNL     1     -19.865  38.338  13.815  1.00  0.00     0.032 C 
ATOM     16  C   UNL     1     -19.246  36.982  13.524  1.00  0.00    -0.064 C 
ATOM     17  C   UNL     1     -18.148  34.899  14.459  1.00  0.00     0.032 C 
ATOM     18  C   UNL     1     -19.538  36.273  12.172  1.00  0.00    -0.008 C 
ATOM     19  C   UNL     1     -18.614  34.146  13.216  1.00  0.00     0.009 C 
ATOM     20  C   UNL     1     -18.534  35.074  11.996  1.00  0.00     0.009 C 
ATOM     21  C   UNL     1     -19.319  37.243  10.968  1.00  0.00     0.015 C 
ATOM     22  C   UNL     1     -21.032  35.854  12.233  1.00  0.00     0.016 C 
ATOM     23  C   UNL     1     -18.507  34.339  10.594  1.00  0.00     0.005 C 
ATOM     24  C   UNL     1     -19.408  36.542   9.603  1.00  0.00     0.047 C 
ATOM     25  C   UNL     1     -18.380  35.410   9.469  1.00  0.00     0.182 C 
ATOM     26  C   UNL     1     -19.731  33.406  10.349  1.00  0.00     0.015 C 
ATOM     27  C   UNL     1     -17.233  33.450  10.502  1.00  0.00     0.015 C 
BRANCH   7  28
ATOM     28  O   UNL     1     -15.276  36.555  15.340  1.00  0.00    -0.393 OA
ATOM     29  H   UNL     1     -14.350  36.905  15.341  1.00  0.00     0.210 HD
ENDBRANCH   7  28
BRANCH  25  30
ATOM     30  O   UNL     1     -18.528  34.790   8.190  1.00  0.00    -0.462 OA
BRANCH  30  31
ATOM     31  C   UNL     1     -19.093  35.429   7.075  1.00  0.00     0.302 C 
ATOM     32  O   UNL     1     -19.452  36.633   7.129  1.00  0.00    -0.253 OA
ATOM     33  C   UNL     1     -19.220  34.683   5.794  1.00  0.00     0.139 C 
ENDBRANCH  30  31
ENDBRANCH  25  30
ENDBRANCH   2   6
ENDBRANCH   1   2
BRANCH   1  34
ATOM     34  C   UNL     1     -15.018  40.107  13.291  1.00  0.00     0.031 C 
BRANCH  34  35
ATOM     35  C   UNL     1     -14.710  38.781  12.637  1.00  0.00    -0.075 C 
ATOM     36  C   UNL     1     -13.467  38.537  12.170  1.00  0.00     0.008 C 
BRANCH  35  37
ATOM     37  C   UNL     1     -15.827  37.753  12.481  1.00  0.00     0.008 C 
ATOM     38  C   UNL     1     -16.939  38.266  11.555  1.00  0.00     0.012 C 
ATOM     39  C   UNL     1     -15.268  36.411  11.989  1.00  0.00     0.012 C 
ENDBRANCH  35  37
ENDBRANCH  34  35
ENDBRANCH   1  34
TORSDOF 9
ENDMDL
