MODEL 1
REMARK VINA RESULT:    -4.035      0.000      0.000
REMARK INTER + INTRA:          -4.035
REMARK INTER:                  -4.035
REMARK INTRA:                   0.000
REMARK UNBOUND:                 0.000
REMARK SMILES CC1=CC[C@H]2C[C@@H]1C2(C)C
REMARK SMILES IDX 1 1 2 2 3 3 4 4 5 5 6 6 7 7 8 8 9 9 10 10
REMARK H PARENT
REMARK Flexibility Score: inf
ROOT
ATOM      1  C   UNL     1       7.657  19.252  26.295  1.00  0.00     0.039 C 
ATOM      2  C   UNL     1       7.893  19.269  24.815  1.00  0.00    -0.074 C 
ATOM      3  C   UNL     1       9.115  19.585  24.293  1.00  0.00    -0.027 C 
ATOM      4  C   UNL     1       9.281  19.613  22.760  1.00  0.00     0.031 C 
ATOM      5  C   UNL     1       7.935  19.206  22.065  1.00  0.00    -0.000 C 
ATOM      6  C   UNL     1       7.444  17.949  22.812  1.00  0.00     0.013 C 
ATOM      7  C   UNL     1       6.784  18.918  23.814  1.00  0.00     0.021 C 
ATOM      8  C   UNL     1       6.747  19.987  22.691  1.00  0.00    -0.026 C 
ATOM      9  C   UNL     1       6.959  21.476  23.083  1.00  0.00     0.012 C 
ATOM     10  C   UNL     1       5.464  19.889  21.827  1.00  0.00     0.012 C 
ENDROOT
TORSDOF 0
ENDMDL
MODEL 2
REMARK VINA RESULT:    -3.691     12.162     14.921
REMARK INTER + INTRA:          -3.691
REMARK INTER:                  -3.691
REMARK INTRA:                   0.000
REMARK UNBOUND:                 0.000
REMARK SMILES CC1=CC[C@H]2C[C@@H]1C2(C)C
REMARK SMILES IDX 1 1 2 2 3 3 4 4 5 5 6 6 7 7 8 8 9 9 10 10
REMARK H PARENT
REMARK Flexibility Score: inf
ROOT
ATOM      1  C   UNL     1      12.260  17.773  34.154  1.00  0.00     0.039 C 
ATOM      2  C   UNL     1      13.068  17.476  35.380  1.00  0.00    -0.074 C 
ATOM      3  C   UNL     1      14.045  18.325  35.812  1.00  0.00    -0.027 C 
ATOM      4  C   UNL     1      14.859  17.944  37.065  1.00  0.00     0.031 C 
ATOM      5  C   UNL     1      14.337  16.587  37.654  1.00  0.00    -0.000 C 
ATOM      6  C   UNL     1      12.800  16.709  37.682  1.00  0.00     0.013 C 
ATOM      7  C   UNL     1      12.828  16.214  36.222  1.00  0.00     0.021 C 
ATOM      8  C   UNL     1      14.187  15.531  36.524  1.00  0.00    -0.026 C 
ATOM      9  C   UNL     1      15.258  15.488  35.399  1.00  0.00     0.012 C 
ATOM     10  C   UNL     1      14.013  14.097  37.085  1.00  0.00     0.012 C 
ENDROOT
TORSDOF 0
ENDMDL
MODEL 3
REMARK VINA RESULT:    -3.682     14.266     15.723
REMARK INTER + INTRA:          -3.682
REMARK INTER:                  -3.682
REMARK INTRA:                   0.000
REMARK UNBOUND:                 0.000
REMARK SMILES CC1=CC[C@H]2C[C@@H]1C2(C)C
REMARK SMILES IDX 1 1 2 2 3 3 4 4 5 5 6 6 7 7 8 8 9 9 10 10
REMARK H PARENT
REMARK Flexibility Score: inf
ROOT
ATOM      1  C   UNL     1      16.798  17.398  38.545  1.00  0.00     0.039 C 
ATOM      2  C   UNL     1      15.638  17.275  37.606  1.00  0.00    -0.074 C 
ATOM      3  C   UNL     1      14.999  18.377  37.115  1.00  0.00    -0.027 C 
ATOM      4  C   UNL     1      13.792  18.178  36.175  1.00  0.00     0.031 C 
ATOM      5  C   UNL     1      13.553  16.648  35.923  1.00  0.00    -0.000 C 
ATOM      6  C   UNL     1      14.942  16.055  35.609  1.00  0.00     0.013 C 
ATOM      7  C   UNL     1      15.120  15.909  37.133  1.00  0.00     0.021 C 
ATOM      8  C   UNL     1      13.576  15.870  37.268  1.00  0.00    -0.026 C 
ATOM      9  C   UNL     1      12.927  16.526  38.519  1.00  0.00     0.012 C 
ATOM     10  C   UNL     1      13.008  14.435  37.121  1.00  0.00     0.012 C 
ENDROOT
TORSDOF 0
ENDMDL
MODEL 4
REMARK VINA RESULT:    -3.630     13.634     15.457
REMARK INTER + INTRA:          -3.630
REMARK INTER:                  -3.630
REMARK INTRA:                   0.000
REMARK UNBOUND:                 0.000
REMARK SMILES CC1=CC[C@H]2C[C@@H]1C2(C)C
REMARK SMILES IDX 1 1 2 2 3 3 4 4 5 5 6 6 7 7 8 8 9 9 10 10
REMARK H PARENT
REMARK Flexibility Score: inf
ROOT
ATOM      1  C   UNL     1      16.068  14.365  36.347  1.00  0.00     0.039 C 
ATOM      2  C   UNL     1      15.028  15.441  36.268  1.00  0.00    -0.074 C 
ATOM      3  C   UNL     1      14.932  16.260  35.180  1.00  0.00    -0.027 C 
ATOM      4  C   UNL     1      13.857  17.366  35.177  1.00  0.00     0.031 C 
ATOM      5  C   UNL     1      13.008  17.295  36.494  1.00  0.00    -0.000 C 
ATOM      6  C   UNL     1      12.650  15.807  36.680  1.00  0.00     0.013 C 
ATOM      7  C   UNL     1      14.009  15.666  37.394  1.00  0.00     0.021 C 
ATOM      8  C   UNL     1      13.940  17.178  37.731  1.00  0.00    -0.026 C 
ATOM      9  C   UNL     1      15.265  17.992  37.745  1.00  0.00     0.012 C 
ATOM     10  C   UNL     1      13.188  17.452  39.058  1.00  0.00     0.012 C 
ENDROOT
TORSDOF 0
ENDMDL
MODEL 5
REMARK VINA RESULT:    -3.603      3.273      4.751
REMARK INTER + INTRA:          -3.603
REMARK INTER:                  -3.603
REMARK INTRA:                   0.000
REMARK UNBOUND:                 0.000
REMARK SMILES CC1=CC[C@H]2C[C@@H]1C2(C)C
REMARK SMILES IDX 1 1 2 2 3 3 4 4 5 5 6 6 7 7 8 8 9 9 10 10
REMARK H PARENT
REMARK Flexibility Score: inf
ROOT
ATOM      1  C   UNL     1       7.658  19.255  26.372  1.00  0.00     0.039 C 
ATOM      2  C   UNL     1       9.153  19.336  26.427  1.00  0.00    -0.074 C 
ATOM      3  C   UNL     1       9.866  18.690  27.396  1.00  0.00    -0.027 C 
ATOM      4  C   UNL     1      11.401  18.841  27.412  1.00  0.00     0.031 C 
ATOM      5  C   UNL     1      11.867  19.730  26.207  1.00  0.00    -0.000 C 
ATOM      6  C   UNL     1      11.110  19.194  24.975  1.00  0.00     0.013 C 
ATOM      7  C   UNL     1       9.959  20.132  25.391  1.00  0.00     0.021 C 
ATOM      8  C   UNL     1      11.002  21.018  26.121  1.00  0.00    -0.026 C 
ATOM      9  C   UNL     1      10.578  21.720  27.442  1.00  0.00     0.012 C 
ATOM     10  C   UNL     1      11.630  22.082  25.185  1.00  0.00     0.012 C 
ENDROOT
TORSDOF 0
ENDMDL
MODEL 6
REMARK VINA RESULT:    -3.574     13.638     15.341
REMARK INTER + INTRA:          -3.574
REMARK INTER:                  -3.574
REMARK INTRA:                   0.000
REMARK UNBOUND:                 0.000
REMARK SMILES CC1=CC[C@H]2C[C@@H]1C2(C)C
REMARK SMILES IDX 1 1 2 2 3 3 4 4 5 5 6 6 7 7 8 8 9 9 10 10
REMARK H PARENT
REMARK Flexibility Score: inf
ROOT
ATOM      1  C   UNL     1      12.363  14.717  38.414  1.00  0.00     0.039 C 
ATOM      2  C   UNL     1      13.228  15.418  37.412  1.00  0.00    -0.074 C 
ATOM      3  C   UNL     1      14.255  14.775  36.784  1.00  0.00    -0.027 C 
ATOM      4  C   UNL     1      15.125  15.566  35.785  1.00  0.00     0.031 C 
ATOM      5  C   UNL     1      14.591  17.034  35.652  1.00  0.00    -0.000 C 
ATOM      6  C   UNL     1      13.063  16.910  35.487  1.00  0.00     0.013 C 
ATOM      7  C   UNL     1      12.993  16.886  37.027  1.00  0.00     0.021 C 
ATOM      8  C   UNL     1      14.343  17.648  37.058  1.00  0.00    -0.026 C 
ATOM      9  C   UNL     1      15.347  17.324  38.199  1.00  0.00     0.012 C 
ATOM     10  C   UNL     1      14.153  19.185  36.999  1.00  0.00     0.012 C 
ENDROOT
TORSDOF 0
ENDMDL
MODEL 7
REMARK VINA RESULT:    -3.560      1.122      2.440
REMARK INTER + INTRA:          -3.560
REMARK INTER:                  -3.560
REMARK INTRA:                   0.000
REMARK UNBOUND:                 0.000
REMARK SMILES CC1=CC[C@H]2C[C@@H]1C2(C)C
REMARK SMILES IDX 1 1 2 2 3 3 4 4 5 5 6 6 7 7 8 8 9 9 10 10
REMARK H PARENT
REMARK Flexibility Score: inf
ROOT
ATOM      1  C   UNL     1       7.383  18.943  26.921  1.00  0.00     0.039 C 
ATOM      2  C   UNL     1       7.502  19.766  25.674  1.00  0.00    -0.074 C 
ATOM      3  C   UNL     1       6.819  20.938  25.526  1.00  0.00    -0.027 C 
ATOM      4  C   UNL     1       6.964  21.720  24.205  1.00  0.00     0.031 C 
ATOM      5  C   UNL     1       7.968  20.983  23.252  1.00  0.00    -0.000 C 
ATOM      6  C   UNL     1       9.185  20.621  24.127  1.00  0.00     0.013 C 
ATOM      7  C   UNL     1       8.411  19.344  24.510  1.00  0.00     0.021 C 
ATOM      8  C   UNL     1       7.629  19.469  23.177  1.00  0.00    -0.026 C 
ATOM      9  C   UNL     1       6.135  19.041  23.155  1.00  0.00     0.012 C 
ATOM     10  C   UNL     1       8.353  18.765  22.001  1.00  0.00     0.012 C 
ENDROOT
TORSDOF 0
ENDMDL
MODEL 8
REMARK VINA RESULT:    -3.541      1.356      3.358
REMARK INTER + INTRA:          -3.541
REMARK INTER:                  -3.541
REMARK INTRA:                   0.000
REMARK UNBOUND:                 0.000
REMARK SMILES CC1=CC[C@H]2C[C@@H]1C2(C)C
REMARK SMILES IDX 1 1 2 2 3 3 4 4 5 5 6 6 7 7 8 8 9 9 10 10
REMARK H PARENT
REMARK Flexibility Score: inf
ROOT
ATOM      1  C   UNL     1       7.108  18.133  22.869  1.00  0.00     0.039 C 
ATOM      2  C   UNL     1       7.772  19.165  23.728  1.00  0.00    -0.074 C 
ATOM      3  C   UNL     1       9.132  19.250  23.817  1.00  0.00    -0.027 C 
ATOM      4  C   UNL     1       9.749  20.317  24.744  1.00  0.00     0.031 C 
ATOM      5  C   UNL     1       8.616  21.173  25.408  1.00  0.00    -0.000 C 
ATOM      6  C   UNL     1       7.647  21.543  24.266  1.00  0.00     0.013 C 
ATOM      7  C   UNL     1       6.962  20.189  24.537  1.00  0.00     0.021 C 
ATOM      8  C   UNL     1       7.509  20.248  25.986  1.00  0.00    -0.026 C 
ATOM      9  C   UNL     1       7.933  18.919  26.671  1.00  0.00     0.012 C 
ATOM     10  C   UNL     1       6.556  21.006  26.945  1.00  0.00     0.012 C 
ENDROOT
TORSDOF 0
ENDMDL
MODEL 9
REMARK VINA RESULT:    -3.528     13.199     15.362
REMARK INTER + INTRA:          -3.528
REMARK INTER:                  -3.528
REMARK INTRA:                   0.000
REMARK UNBOUND:                 0.000
REMARK SMILES CC1=CC[C@H]2C[C@@H]1C2(C)C
REMARK SMILES IDX 1 1 2 2 3 3 4 4 5 5 6 6 7 7 8 8 9 9 10 10
REMARK H PARENT
REMARK Flexibility Score: inf
ROOT
ATOM      1  C   UNL     1      15.874  14.708  35.818  1.00  0.00     0.039 C 
ATOM      2  C   UNL     1      14.873  15.552  36.544  1.00  0.00    -0.074 C 
ATOM      3  C   UNL     1      13.762  15.005  37.118  1.00  0.00    -0.027 C 
ATOM      4  C   UNL     1      12.756  15.936  37.825  1.00  0.00     0.031 C 
ATOM      5  C   UNL     1      13.268  17.417  37.776  1.00  0.00    -0.000 C 
ATOM      6  C   UNL     1      14.755  17.359  38.182  1.00  0.00     0.013 C 
ATOM      7  C   UNL     1      15.052  17.070  36.697  1.00  0.00     0.021 C 
ATOM      8  C   UNL     1      13.723  17.784  36.336  1.00  0.00    -0.026 C 
ATOM      9  C   UNL     1      12.898  17.243  35.135  1.00  0.00     0.012 C 
ATOM     10  C   UNL     1      13.907  19.311  36.152  1.00  0.00     0.012 C 
ENDROOT
TORSDOF 0
ENDMDL
