MODEL 1
REMARK VINA RESULT:    -4.109      0.000      0.000
REMARK INTER + INTRA:          -9.513
REMARK INTER:                  -7.232
REMARK INTRA:                  -2.281
REMARK UNBOUND:                -2.281
REMARK SMILES CCCCCCC=CCCCCCCCC(=O)[O-]
REMARK SMILES IDX 10 1 11 2 12 3 13 4 14 5 15 6 16 7 17 8 18 9 9 10 8 11 7 12
REMARK SMILES IDX 6 13 5 14 4 15 3 16 2 17 1 18
REMARK H PARENT
REMARK Flexibility Score: inf
ROOT
ATOM      1  C   UNL     1     123.154 123.888 123.583  1.00  0.00     0.004 C 
ENDROOT
BRANCH   1   2
ATOM      2  C   UNL     1     122.188 124.547 124.587  1.00  0.00     0.000 C 
BRANCH   2   3
ATOM      3  C   UNL     1     122.518 126.004 124.955  1.00  0.00     0.000 C 
BRANCH   3   4
ATOM      4  C   UNL     1     121.446 126.999 124.491  1.00  0.00     0.000 C 
BRANCH   4   5
ATOM      5  C   UNL     1     120.051 126.359 124.533  1.00  0.00     0.006 C 
BRANCH   5   6
ATOM      6  C   UNL     1     119.346 126.410 123.171  1.00  0.00     0.053 C 
BRANCH   6   7
ATOM      7  C   UNL     1     118.351 125.302 123.020  1.00  0.00     0.041 C 
ATOM      8  O   UNL     1     118.716 124.101 123.131  1.00  0.00    -0.550 OA
ATOM      9  O   UNL     1     117.025 125.593 122.725  1.00  0.00    -0.550 OA
ENDBRANCH   6   7
ENDBRANCH   5   6
ENDBRANCH   4   5
ENDBRANCH   3   4
ENDBRANCH   2   3
ENDBRANCH   1   2
BRANCH   1  10
ATOM     10  C   UNL     1     124.478 124.648 123.398  1.00  0.00     0.027 C 
BRANCH  10  11
ATOM     11  C   UNL     1     124.889 124.715 121.945  1.00  0.00    -0.031 C 
ATOM     12  C   UNL     1     124.580 125.718 121.099  1.00  0.00    -0.031 C 
BRANCH  12  13
ATOM     13  C   UNL     1     123.813 126.959 121.476  1.00  0.00     0.027 C 
BRANCH  13  14
ATOM     14  C   UNL     1     122.363 126.894 120.971  1.00  0.00     0.004 C 
BRANCH  14  15
ATOM     15  C   UNL     1     122.176 125.894 119.816  1.00  0.00     0.000 C 
BRANCH  15  16
ATOM     16  C   UNL     1     121.039 124.878 120.016  1.00  0.00    -0.000 C 
BRANCH  16  17
ATOM     17  C   UNL     1     119.681 125.394 119.518  1.00  0.00    -0.003 C 
ATOM     18  C   UNL     1     118.627 124.290 119.550  1.00  0.00     0.004 C 
ENDBRANCH  16  17
ENDBRANCH  15  16
ENDBRANCH  14  15
ENDBRANCH  13  14
ENDBRANCH  12  13
ENDBRANCH  10  11
ENDBRANCH   1  10
TORSDOF 13
ENDMDL
MODEL 2
REMARK VINA RESULT:    -4.027      1.187      1.850
REMARK INTER + INTRA:          -9.368
REMARK INTER:                  -6.978
REMARK INTRA:                  -2.390
REMARK UNBOUND:                -2.281
REMARK SMILES CCCCCCC=CCCCCCCCC(=O)[O-]
REMARK SMILES IDX 10 1 11 2 12 3 13 4 14 5 15 6 16 7 17 8 18 9 9 10 8 11 7 12
REMARK SMILES IDX 6 13 5 14 4 15 3 16 2 17 1 18
REMARK H PARENT
REMARK Flexibility Score: inf
ROOT
ATOM      1  C   UNL     1     123.998 123.405 123.205  1.00  0.00     0.004 C 
ENDROOT
BRANCH   1   2
ATOM      2  C   UNL     1     124.054 124.739 123.975  1.00  0.00     0.000 C 
BRANCH   2   3
ATOM      3  C   UNL     1     122.791 125.085 124.781  1.00  0.00     0.000 C 
BRANCH   3   4
ATOM      4  C   UNL     1     122.547 126.596 124.898  1.00  0.00     0.000 C 
BRANCH   4   5
ATOM      5  C   UNL     1     121.220 126.989 124.233  1.00  0.00     0.006 C 
BRANCH   5   6
ATOM      6  C   UNL     1     120.136 125.920 124.420  1.00  0.00     0.053 C 
BRANCH   6   7
ATOM      7  C   UNL     1     119.000 126.110 123.463  1.00  0.00     0.041 C 
ATOM      8  O   UNL     1     117.954 125.417 123.575  1.00  0.00    -0.550 OA
ATOM      9  O   UNL     1     119.109 127.030 122.429  1.00  0.00    -0.550 OA
ENDBRANCH   6   7
ENDBRANCH   5   6
ENDBRANCH   4   5
ENDBRANCH   3   4
ENDBRANCH   2   3
ENDBRANCH   1   2
BRANCH   1  10
ATOM     10  C   UNL     1     125.241 123.131 122.340  1.00  0.00     0.027 C 
BRANCH  10  11
ATOM     11  C   UNL     1     124.949 123.309 120.868  1.00  0.00    -0.031 C 
ATOM     12  C   UNL     1     125.121 124.453 120.178  1.00  0.00    -0.031 C 
BRANCH  12  13
ATOM     13  C   UNL     1     125.674 125.732 120.752  1.00  0.00     0.027 C 
BRANCH  13  14
ATOM     14  C   UNL     1     124.739 126.920 120.475  1.00  0.00     0.004 C 
BRANCH  14  15
ATOM     15  C   UNL     1     123.444 126.866 121.305  1.00  0.00     0.000 C 
BRANCH  15  16
ATOM     16  C   UNL     1     122.180 126.496 120.509  1.00  0.00    -0.000 C 
BRANCH  16  17
ATOM     17  C   UNL     1     121.618 125.118 120.888  1.00  0.00    -0.003 C 
ATOM     18  C   UNL     1     120.448 124.734 119.985  1.00  0.00     0.004 C 
ENDBRANCH  16  17
ENDBRANCH  15  16
ENDBRANCH  14  15
ENDBRANCH  13  14
ENDBRANCH  12  13
ENDBRANCH  10  11
ENDBRANCH   1  10
TORSDOF 13
ENDMDL
MODEL 3
REMARK VINA RESULT:    -4.004      2.075      4.273
REMARK INTER + INTRA:          -9.329
REMARK INTER:                  -6.587
REMARK INTRA:                  -2.742
REMARK UNBOUND:                -2.281
REMARK SMILES CCCCCCC=CCCCCCCCC(=O)[O-]
REMARK SMILES IDX 10 1 11 2 12 3 13 4 14 5 15 6 16 7 17 8 18 9 9 10 8 11 7 12
REMARK SMILES IDX 6 13 5 14 4 15 3 16 2 17 1 18
REMARK H PARENT
REMARK Flexibility Score: inf
ROOT
ATOM      1  C   UNL     1     125.174 124.473 122.388  1.00  0.00     0.004 C 
ENDROOT
BRANCH   1   2
ATOM      2  C   UNL     1     124.389 124.916 123.638  1.00  0.00     0.000 C 
BRANCH   2   3
ATOM      3  C   UNL     1     123.348 126.022 123.401  1.00  0.00     0.000 C 
BRANCH   3   4
ATOM      4  C   UNL     1     123.100 126.305 121.912  1.00  0.00     0.000 C 
BRANCH   4   5
ATOM      5  C   UNL     1     121.636 126.698 121.666  1.00  0.00     0.006 C 
BRANCH   5   6
ATOM      6  C   UNL     1     120.921 127.116 122.957  1.00  0.00     0.053 C 
BRANCH   6   7
ATOM      7  C   UNL     1     119.638 126.367 123.147  1.00  0.00     0.041 C 
ATOM      8  O   UNL     1     119.153 126.222 124.301  1.00  0.00    -0.550 OA
ATOM      9  O   UNL     1     118.996 125.800 122.054  1.00  0.00    -0.550 OA
ENDBRANCH   6   7
ENDBRANCH   5   6
ENDBRANCH   4   5
ENDBRANCH   3   4
ENDBRANCH   2   3
ENDBRANCH   1   2
BRANCH   1  10
ATOM     10  C   UNL     1     124.981 122.991 122.022  1.00  0.00     0.027 C 
BRANCH  10  11
ATOM     11  C   UNL     1     124.043 122.822 120.849  1.00  0.00    -0.031 C 
ATOM     12  C   UNL     1     122.798 122.309 120.920  1.00  0.00    -0.031 C 
BRANCH  12  13
ATOM     13  C   UNL     1     122.121 121.862 122.190  1.00  0.00     0.027 C 
BRANCH  13  14
ATOM     14  C   UNL     1     121.231 122.973 122.769  1.00  0.00     0.004 C 
BRANCH  14  15
ATOM     15  C   UNL     1     121.339 123.087 124.300  1.00  0.00     0.000 C 
BRANCH  15  16
ATOM     16  C   UNL     1     121.954 121.862 125.000  1.00  0.00    -0.000 C 
BRANCH  16  17
ATOM     17  C   UNL     1     123.060 122.236 125.997  1.00  0.00    -0.003 C 
ATOM     18  C   UNL     1     124.424 121.753 125.512  1.00  0.00     0.004 C 
ENDBRANCH  16  17
ENDBRANCH  15  16
ENDBRANCH  14  15
ENDBRANCH  13  14
ENDBRANCH  12  13
ENDBRANCH  10  11
ENDBRANCH   1  10
TORSDOF 13
ENDMDL
MODEL 4
REMARK VINA RESULT:    -4.002      1.671      3.903
REMARK INTER + INTRA:          -9.325
REMARK INTER:                  -6.806
REMARK INTRA:                  -2.519
REMARK UNBOUND:                -2.281
REMARK SMILES CCCCCCC=CCCCCCCCC(=O)[O-]
REMARK SMILES IDX 10 1 11 2 12 3 13 4 14 5 15 6 16 7 17 8 18 9 9 10 8 11 7 12
REMARK SMILES IDX 6 13 5 14 4 15 3 16 2 17 1 18
REMARK H PARENT
REMARK Flexibility Score: inf
ROOT
ATOM      1  C   UNL     1     123.537 124.891 121.894  1.00  0.00     0.004 C 
ENDROOT
BRANCH   1   2
ATOM      2  C   UNL     1     123.388 126.265 121.213  1.00  0.00     0.000 C 
BRANCH   2   3
ATOM      3  C   UNL     1     122.036 126.511 120.521  1.00  0.00     0.000 C 
BRANCH   3   4
ATOM      4  C   UNL     1     121.356 125.217 120.054  1.00  0.00     0.000 C 
BRANCH   4   5
ATOM      5  C   UNL     1     119.833 125.398 119.971  1.00  0.00     0.006 C 
BRANCH   5   6
ATOM      6  C   UNL     1     119.139 124.195 119.320  1.00  0.00     0.053 C 
BRANCH   6   7
ATOM      7  C   UNL     1     117.724 124.052 119.790  1.00  0.00     0.041 C 
ATOM      8  O   UNL     1     117.402 124.411 120.954  1.00  0.00    -0.550 OA
ATOM      9  O   UNL     1     116.768 123.490 118.954  1.00  0.00    -0.550 OA
ENDBRANCH   6   7
ENDBRANCH   5   6
ENDBRANCH   4   5
ENDBRANCH   3   4
ENDBRANCH   2   3
ENDBRANCH   1   2
BRANCH   1  10
ATOM     10  C   UNL     1     124.453 124.902 123.130  1.00  0.00     0.027 C 
BRANCH  10  11
ATOM     11  C   UNL     1     123.736 124.400 124.363  1.00  0.00    -0.031 C 
ATOM     12  C   UNL     1     122.969 125.156 125.173  1.00  0.00    -0.031 C 
BRANCH  12  13
ATOM     13  C   UNL     1     122.665 126.616 124.958  1.00  0.00     0.027 C 
BRANCH  13  14
ATOM     14  C   UNL     1     121.296 126.809 124.286  1.00  0.00     0.004 C 
BRANCH  14  15
ATOM     15  C   UNL     1     120.272 125.737 124.699  1.00  0.00     0.000 C 
BRANCH  15  16
ATOM     16  C   UNL     1     119.803 124.815 123.559  1.00  0.00    -0.000 C 
BRANCH  16  17
ATOM     17  C   UNL     1     120.118 123.335 123.818  1.00  0.00    -0.003 C 
ATOM     18  C   UNL     1     120.484 122.616 122.523  1.00  0.00     0.004 C 
ENDBRANCH  16  17
ENDBRANCH  15  16
ENDBRANCH  14  15
ENDBRANCH  13  14
ENDBRANCH  12  13
ENDBRANCH  10  11
ENDBRANCH   1  10
TORSDOF 13
ENDMDL
MODEL 5
REMARK VINA RESULT:    -3.987      2.939      5.254
REMARK INTER + INTRA:          -9.299
REMARK INTER:                  -6.489
REMARK INTRA:                  -2.809
REMARK UNBOUND:                -2.281
REMARK SMILES CCCCCCC=CCCCCCCCC(=O)[O-]
REMARK SMILES IDX 10 1 11 2 12 3 13 4 14 5 15 6 16 7 17 8 18 9 9 10 8 11 7 12
REMARK SMILES IDX 6 13 5 14 4 15 3 16 2 17 1 18
REMARK H PARENT
REMARK Flexibility Score: inf
ROOT
ATOM      1  C   UNL     1     119.692 124.827 123.516  1.00  0.00     0.004 C 
ENDROOT
BRANCH   1   2
ATOM      2  C   UNL     1     119.818 125.723 122.268  1.00  0.00     0.000 C 
BRANCH   2   3
ATOM      3  C   UNL     1     120.458 125.053 121.041  1.00  0.00     0.000 C 
BRANCH   3   4
ATOM      4  C   UNL     1     121.977 125.265 120.964  1.00  0.00     0.000 C 
BRANCH   4   5
ATOM      5  C   UNL     1     122.318 126.761 120.903  1.00  0.00     0.006 C 
BRANCH   5   6
ATOM      6  C   UNL     1     123.754 127.049 121.358  1.00  0.00     0.053 C 
BRANCH   6   7
ATOM      7  C   UNL     1     124.761 126.394 120.464  1.00  0.00     0.041 C 
ATOM      8  O   UNL     1     125.639 125.632 120.948  1.00  0.00    -0.550 OA
ATOM      9  O   UNL     1     124.749 126.651 119.098  1.00  0.00    -0.550 OA
ENDBRANCH   6   7
ENDBRANCH   5   6
ENDBRANCH   4   5
ENDBRANCH   3   4
ENDBRANCH   2   3
ENDBRANCH   1   2
BRANCH   1  10
ATOM     10  C   UNL     1     120.176 125.494 124.815  1.00  0.00     0.027 C 
BRANCH  10  11
ATOM     11  C   UNL     1     121.201 126.572 124.544  1.00  0.00    -0.031 C 
ATOM     12  C   UNL     1     122.530 126.440 124.726  1.00  0.00    -0.031 C 
BRANCH  12  13
ATOM     13  C   UNL     1     123.216 125.181 125.189  1.00  0.00     0.027 C 
BRANCH  13  14
ATOM     14  C   UNL     1     124.200 124.659 124.129  1.00  0.00     0.004 C 
BRANCH  14  15
ATOM     15  C   UNL     1     123.751 123.327 123.503  1.00  0.00     0.000 C 
BRANCH  15  16
ATOM     16  C   UNL     1     123.187 122.298 124.500  1.00  0.00    -0.000 C 
BRANCH  16  17
ATOM     17  C   UNL     1     121.739 121.896 124.188  1.00  0.00    -0.003 C 
ATOM     18  C   UNL     1     121.538 121.685 122.689  1.00  0.00     0.004 C 
ENDBRANCH  16  17
ENDBRANCH  15  16
ENDBRANCH  14  15
ENDBRANCH  13  14
ENDBRANCH  12  13
ENDBRANCH  10  11
ENDBRANCH   1  10
TORSDOF 13
ENDMDL
MODEL 6
REMARK VINA RESULT:    -3.945      0.963      1.925
REMARK INTER + INTRA:          -9.225
REMARK INTER:                  -6.874
REMARK INTRA:                  -2.351
REMARK UNBOUND:                -2.281
REMARK SMILES CCCCCCC=CCCCCCCCC(=O)[O-]
REMARK SMILES IDX 10 1 11 2 12 3 13 4 14 5 15 6 16 7 17 8 18 9 9 10 8 11 7 12
REMARK SMILES IDX 6 13 5 14 4 15 3 16 2 17 1 18
REMARK H PARENT
REMARK Flexibility Score: inf
ROOT
ATOM      1  C   UNL     1     122.718 123.790 124.824  1.00  0.00     0.004 C 
ENDROOT
BRANCH   1   2
ATOM      2  C   UNL     1     123.365 125.109 125.291  1.00  0.00     0.000 C 
BRANCH   2   3
ATOM      3  C   UNL     1     123.045 126.339 124.425  1.00  0.00     0.000 C 
BRANCH   3   4
ATOM      4  C   UNL     1     121.818 127.119 124.919  1.00  0.00     0.000 C 
BRANCH   4   5
ATOM      5  C   UNL     1     120.672 127.038 123.900  1.00  0.00     0.006 C 
BRANCH   5   6
ATOM      6  C   UNL     1     119.489 126.212 124.421  1.00  0.00     0.053 C 
BRANCH   6   7
ATOM      7  C   UNL     1     118.775 125.505 123.311  1.00  0.00     0.041 C 
ATOM      8  O   UNL     1     119.309 124.515 122.742  1.00  0.00    -0.550 OA
ATOM      9  O   UNL     1     117.535 125.960 122.881  1.00  0.00    -0.550 OA
ENDBRANCH   6   7
ENDBRANCH   5   6
ENDBRANCH   4   5
ENDBRANCH   3   4
ENDBRANCH   2   3
ENDBRANCH   1   2
BRANCH   1  10
ATOM     10  C   UNL     1     122.718 123.601 123.297  1.00  0.00     0.027 C 
BRANCH  10  11
ATOM     11  C   UNL     1     123.897 122.774 122.835  1.00  0.00    -0.031 C 
ATOM     12  C   UNL     1     125.032 123.272 122.308  1.00  0.00    -0.031 C 
BRANCH  12  13
ATOM     13  C   UNL     1     125.331 124.739 122.133  1.00  0.00     0.027 C 
BRANCH  13  14
ATOM     14  C   UNL     1     124.774 125.269 120.803  1.00  0.00     0.004 C 
BRANCH  14  15
ATOM     15  C   UNL     1     124.147 126.667 120.933  1.00  0.00     0.000 C 
BRANCH  15  16
ATOM     16  C   UNL     1     122.619 126.713 120.747  1.00  0.00    -0.000 C 
BRANCH  16  17
ATOM     17  C   UNL     1     122.032 125.368 120.296  1.00  0.00    -0.003 C 
ATOM     18  C   UNL     1     120.654 125.554 119.667  1.00  0.00     0.004 C 
ENDBRANCH  16  17
ENDBRANCH  15  16
ENDBRANCH  14  15
ENDBRANCH  13  14
ENDBRANCH  12  13
ENDBRANCH  10  11
ENDBRANCH   1  10
TORSDOF 13
ENDMDL
MODEL 7
REMARK VINA RESULT:    -3.912      2.151      4.022
REMARK INTER + INTRA:          -9.166
REMARK INTER:                  -6.507
REMARK INTRA:                  -2.659
REMARK UNBOUND:                -2.281
REMARK SMILES CCCCCCC=CCCCCCCCC(=O)[O-]
REMARK SMILES IDX 10 1 11 2 12 3 13 4 14 5 15 6 16 7 17 8 18 9 9 10 8 11 7 12
REMARK SMILES IDX 6 13 5 14 4 15 3 16 2 17 1 18
REMARK H PARENT
REMARK Flexibility Score: inf
ROOT
ATOM      1  C   UNL     1     124.014 124.616 124.141  1.00  0.00     0.004 C 
ENDROOT
BRANCH   1   2
ATOM      2  C   UNL     1     123.894 123.088 123.984  1.00  0.00     0.000 C 
BRANCH   2   3
ATOM      3  C   UNL     1     124.129 122.276 125.269  1.00  0.00     0.000 C 
BRANCH   3   4
ATOM      4  C   UNL     1     122.903 121.457 125.695  1.00  0.00     0.000 C 
BRANCH   4   5
ATOM      5  C   UNL     1     121.753 121.630 124.692  1.00  0.00     0.006 C 
BRANCH   5   6
ATOM      6  C   UNL     1     120.474 122.154 125.357  1.00  0.00     0.053 C 
BRANCH   6   7
ATOM      7  C   UNL     1     119.248 121.729 124.610  1.00  0.00     0.041 C 
ATOM      8  O   UNL     1     118.438 122.591 124.177  1.00  0.00    -0.550 OA
ATOM      9  O   UNL     1     118.982 120.379 124.422  1.00  0.00    -0.550 OA
ENDBRANCH   6   7
ENDBRANCH   5   6
ENDBRANCH   4   5
ENDBRANCH   3   4
ENDBRANCH   2   3
ENDBRANCH   1   2
BRANCH   1  10
ATOM     10  C   UNL     1     123.218 125.186 125.328  1.00  0.00     0.027 C 
BRANCH  10  11
ATOM     11  C   UNL     1     122.617 126.535 125.004  1.00  0.00    -0.031 C 
ATOM     12  C   UNL     1     121.364 126.735 124.551  1.00  0.00    -0.031 C 
BRANCH  12  13
ATOM     13  C   UNL     1     120.342 125.650 124.335  1.00  0.00     0.027 C 
BRANCH  13  14
ATOM     14  C   UNL     1     119.935 125.552 122.856  1.00  0.00     0.004 C 
BRANCH  14  15
ATOM     15  C   UNL     1     120.682 124.437 122.104  1.00  0.00     0.000 C 
BRANCH  15  16
ATOM     16  C   UNL     1     121.905 124.907 121.296  1.00  0.00    -0.000 C 
BRANCH  16  17
ATOM     17  C   UNL     1     121.824 126.387 120.896  1.00  0.00    -0.003 C 
ATOM     18  C   UNL     1     123.116 127.122 121.242  1.00  0.00     0.004 C 
ENDBRANCH  16  17
ENDBRANCH  15  16
ENDBRANCH  14  15
ENDBRANCH  13  14
ENDBRANCH  12  13
ENDBRANCH  10  11
ENDBRANCH   1  10
TORSDOF 13
ENDMDL
MODEL 8
REMARK VINA RESULT:    -3.911      2.287      4.134
REMARK INTER + INTRA:          -9.164
REMARK INTER:                  -6.536
REMARK INTRA:                  -2.628
REMARK UNBOUND:                -2.281
REMARK SMILES CCCCCCC=CCCCCCCCC(=O)[O-]
REMARK SMILES IDX 10 1 11 2 12 3 13 4 14 5 15 6 16 7 17 8 18 9 9 10 8 11 7 12
REMARK SMILES IDX 6 13 5 14 4 15 3 16 2 17 1 18
REMARK H PARENT
REMARK Flexibility Score: inf
ROOT
ATOM      1  C   UNL     1     122.628 125.317 125.002  1.00  0.00     0.004 C 
ENDROOT
BRANCH   1   2
ATOM      2  C   UNL     1     122.327 126.815 124.796  1.00  0.00     0.000 C 
BRANCH   2   3
ATOM      3  C   UNL     1     121.003 127.125 124.077  1.00  0.00     0.000 C 
BRANCH   3   4
ATOM      4  C   UNL     1     120.225 125.863 123.679  1.00  0.00     0.000 C 
BRANCH   4   5
ATOM      5  C   UNL     1     119.847 125.899 122.191  1.00  0.00     0.006 C 
BRANCH   5   6
ATOM      6  C   UNL     1     121.069 126.096 121.285  1.00  0.00     0.053 C 
BRANCH   6   7
ATOM      7  C   UNL     1     120.909 125.384 119.977  1.00  0.00     0.041 C 
ATOM      8  O   UNL     1     121.910 124.878 119.404  1.00  0.00    -0.550 OA
ATOM      9  O   UNL     1     119.660 125.310 119.375  1.00  0.00    -0.550 OA
ENDBRANCH   6   7
ENDBRANCH   5   6
ENDBRANCH   4   5
ENDBRANCH   3   4
ENDBRANCH   2   3
ENDBRANCH   1   2
BRANCH   1  10
ATOM     10  C   UNL     1     124.014 124.883 124.494  1.00  0.00     0.027 C 
BRANCH  10  11
ATOM     11  C   UNL     1     124.174 125.141 123.013  1.00  0.00    -0.031 C 
ATOM     12  C   UNL     1     124.179 124.191 122.058  1.00  0.00    -0.031 C 
BRANCH  12  13
ATOM     13  C   UNL     1     123.979 122.718 122.306  1.00  0.00     0.027 C 
BRANCH  13  14
ATOM     14  C   UNL     1     122.591 122.255 121.836  1.00  0.00     0.004 C 
BRANCH  14  15
ATOM     15  C   UNL     1     121.509 122.420 122.918  1.00  0.00     0.000 C 
BRANCH  15  16
ATOM     16  C   UNL     1     121.494 121.319 123.994  1.00  0.00    -0.000 C 
BRANCH  16  17
ATOM     17  C   UNL     1     121.897 121.835 125.382  1.00  0.00    -0.003 C 
ATOM     18  C   UNL     1     123.313 121.394 125.743  1.00  0.00     0.004 C 
ENDBRANCH  16  17
ENDBRANCH  15  16
ENDBRANCH  14  15
ENDBRANCH  13  14
ENDBRANCH  12  13
ENDBRANCH  10  11
ENDBRANCH   1  10
TORSDOF 13
ENDMDL
MODEL 9
REMARK VINA RESULT:    -3.842      1.631      4.262
REMARK INTER + INTRA:          -9.042
REMARK INTER:                  -6.782
REMARK INTRA:                  -2.260
REMARK UNBOUND:                -2.281
REMARK SMILES CCCCCCC=CCCCCCCCC(=O)[O-]
REMARK SMILES IDX 10 1 11 2 12 3 13 4 14 5 15 6 16 7 17 8 18 9 9 10 8 11 7 12
REMARK SMILES IDX 6 13 5 14 4 15 3 16 2 17 1 18
REMARK H PARENT
REMARK Flexibility Score: inf
ROOT
ATOM      1  C   UNL     1     121.697 125.670 120.750  1.00  0.00     0.004 C 
ENDROOT
BRANCH   1   2
ATOM      2  C   UNL     1     120.228 125.322 120.439  1.00  0.00     0.000 C 
BRANCH   2   3
ATOM      3  C   UNL     1     119.797 123.895 120.820  1.00  0.00     0.000 C 
BRANCH   3   4
ATOM      4  C   UNL     1     118.857 123.855 122.033  1.00  0.00     0.000 C 
BRANCH   4   5
ATOM      5  C   UNL     1     117.732 124.890 121.888  1.00  0.00     0.006 C 
BRANCH   5   6
ATOM      6  C   UNL     1     117.394 125.572 123.220  1.00  0.00     0.053 C 
BRANCH   6   7
ATOM      7  C   UNL     1     115.947 125.414 123.571  1.00  0.00     0.041 C 
ATOM      8  O   UNL     1     115.185 126.417 123.587  1.00  0.00    -0.550 OA
ATOM      9  O   UNL     1     115.447 124.165 123.914  1.00  0.00    -0.550 OA
ENDBRANCH   6   7
ENDBRANCH   5   6
ENDBRANCH   4   5
ENDBRANCH   3   4
ENDBRANCH   2   3
ENDBRANCH   1   2
BRANCH   1  10
ATOM     10  C   UNL     1     121.869 126.914 121.639  1.00  0.00     0.027 C 
BRANCH  10  11
ATOM     11  C   UNL     1     120.777 127.016 122.678  1.00  0.00    -0.031 C 
ATOM     12  C   UNL     1     120.958 126.886 124.007  1.00  0.00    -0.031 C 
BRANCH  12  13
ATOM     13  C   UNL     1     122.288 126.661 124.678  1.00  0.00     0.027 C 
BRANCH  13  14
ATOM     14  C   UNL     1     122.637 125.166 124.742  1.00  0.00     0.004 C 
BRANCH  14  15
ATOM     15  C   UNL     1     124.053 124.860 124.224  1.00  0.00     0.000 C 
BRANCH  15  16
ATOM     16  C   UNL     1     124.158 123.622 123.316  1.00  0.00    -0.000 C 
BRANCH  16  17
ATOM     17  C   UNL     1     122.797 122.966 123.040  1.00  0.00    -0.003 C 
ATOM     18  C   UNL     1     122.805 122.225 121.705  1.00  0.00     0.004 C 
ENDBRANCH  16  17
ENDBRANCH  15  16
ENDBRANCH  14  15
ENDBRANCH  13  14
ENDBRANCH  12  13
ENDBRANCH  10  11
ENDBRANCH   1  10
TORSDOF 13
ENDMDL
