MODEL 1
REMARK VINA RESULT:    -2.068      0.000      0.000
REMARK INTER + INTRA:          -1.878
REMARK INTER:                  -2.249
REMARK INTRA:                   0.371
REMARK UNBOUND:                 0.371
REMARK SMILES C[C@@H]1[C@H](C)CC[C@@]2(C(=O)[O-])CC[C@]3(C)C(=CC[C@@H]4[C@]5(C)CC[C@@H](O)C(C)(C)[C@H]5CC[C@@]43C)[C@H]12
REMARK SMILES IDX 7 1 6 2 11 3 33 4 5 5 12 6 15 7 2 8 3 9 13 10 16 11 1 12
REMARK SMILES IDX 4 13 14 14 31 15 17 16 18 17 30 18 32 19 19 20 29 21 28 22
REMARK SMILES IDX 21 23 20 24 25 25 22 26 23 27 26 28 27 29 8 30 9 31 10 32
REMARK SMILES IDX 24 33
REMARK H PARENT 24 34
REMARK Flexibility Score: inf
ROOT
ATOM      1  C   UNL     1      -1.463 -14.973  21.336  1.00  0.00     0.017 C 
ATOM      2  C   UNL     1      -2.049 -16.408  21.609  1.00  0.00     0.014 C 
ATOM      3  C   UNL     1      -0.435 -14.629  22.426  1.00  0.00     0.014 C 
ATOM      4  C   UNL     1      -0.692 -14.982  19.982  1.00  0.00     0.030 C 
ATOM      5  C   UNL     1      -2.256 -17.285  20.353  1.00  0.00     0.004 C 
ATOM      6  C   UNL     1       0.107 -13.203  22.271  1.00  0.00     0.013 C 
ATOM      7  C   UNL     1       0.354 -13.859  19.775  1.00  0.00    -0.063 C 
ATOM      8  C   UNL     1      -1.591 -15.390  18.750  1.00  0.00    -0.003 C 
ATOM      9  C   UNL     1      -2.660 -16.487  19.097  1.00  0.00    -0.011 C 
ATOM     10  C   UNL     1       0.751 -12.839  20.864  1.00  0.00    -0.006 C 
ATOM     11  C   UNL     1       1.101 -13.936  18.659  1.00  0.00    -0.027 C 
ATOM     12  C   UNL     1      -2.139 -14.223  17.897  1.00  0.00     0.008 C 
ATOM     13  C   UNL     1      -4.124 -16.011  19.190  1.00  0.00     0.008 C 
ATOM     14  C   UNL     1       0.151 -11.475  20.404  1.00  0.00     0.017 C 
ATOM     15  C   UNL     1       2.356 -12.706  20.974  1.00  0.00    -0.020 C 
ATOM     16  C   UNL     1       2.351 -13.164  18.384  1.00  0.00     0.032 C 
ATOM     17  C   UNL     1       3.008 -12.363  19.556  1.00  0.00     0.006 C 
ATOM     18  C   UNL     1       2.960 -14.054  21.485  1.00  0.00     0.008 C 
ATOM     19  C   UNL     1       2.691 -11.556  21.999  1.00  0.00     0.012 C 
ATOM     20  C   UNL     1       4.614 -12.431  19.508  1.00  0.00    -0.025 C 
ATOM     21  C   UNL     1       4.497 -14.143  21.441  1.00  0.00     0.005 C 
ATOM     22  C   UNL     1       5.062 -13.851  20.026  1.00  0.00     0.003 C 
ATOM     23  C   UNL     1       5.147 -12.211  18.045  1.00  0.00     0.010 C 
ATOM     24  C   UNL     1       5.216 -11.252  20.349  1.00  0.00     0.012 C 
ATOM     25  C   UNL     1       6.590 -14.217  19.828  1.00  0.00    -0.006 C 
ATOM     26  C   UNL     1       6.644 -12.521  17.875  1.00  0.00     0.033 C 
ATOM     27  C   UNL     1       6.993 -13.939  18.342  1.00  0.00     0.120 C 
ATOM     28  C   UNL     1       7.535 -13.474  20.810  1.00  0.00     0.014 C 
ATOM     29  C   UNL     1       6.795 -15.739  20.077  1.00  0.00     0.014 C 
ENDROOT
BRANCH   1  30
ATOM     30  C   UNL     1      -2.597 -13.956  21.431  1.00  0.00     0.048 C 
ATOM     31  O   UNL     1      -2.827 -13.135  20.512  1.00  0.00    -0.550 OA
ATOM     32  O   UNL     1      -3.341 -13.859  22.603  1.00  0.00    -0.550 OA
ENDBRANCH   1  30
BRANCH  27  33
ATOM     33  O   UNL     1       8.374 -14.139  18.152  1.00  0.00    -0.393 OA
ATOM     34  H   UNL     1       8.755 -13.293  17.795  1.00  0.00     0.210 HD
ENDBRANCH  27  33
TORSDOF 2
ENDMDL
