MODEL 1
REMARK VINA RESULT:    -5.877      0.000      0.000
REMARK INTER + INTRA:          -7.453
REMARK INTER:                  -7.080
REMARK INTRA:                  -0.373
REMARK UNBOUND:                -0.373
REMARK SMILES Oc1cc(O)c2c(c1)O[C@@H](c1ccc(O)c(O)c1)[C@H](O)C2
REMARK SMILES IDX 21 1 19 2 10 3 9 4 7 5 8 6 2 7 3 8 4 9 6 10 20 11 11 13
REMARK SMILES IDX 18 14 12 15 16 16 13 17 14 18 17 19 15 21 5 23 1 25
REMARK H PARENT 20 12 17 20 15 22 5 24 1 26
REMARK Flexibility Score: inf
ROOT
ATOM      1  C   UNL     1      -3.714  -8.173  39.435  1.00  0.00     0.079 C 
ATOM      2  C   UNL     1      -3.410  -9.292  40.448  1.00  0.00     0.164 C 
ATOM      3  C   UNL     1      -3.322 -10.645  39.716  1.00  0.00     0.232 C 
ATOM      4  O   UNL     1      -2.346 -10.579  38.675  1.00  0.00    -0.482 OA
ATOM      5  C   UNL     1      -2.149  -9.429  37.901  1.00  0.00     0.131 A 
ATOM      6  C   UNL     1      -1.300  -9.486  36.792  1.00  0.00     0.093 A 
ATOM      7  C   UNL     1      -1.092  -8.347  36.005  1.00  0.00     0.122 A 
ATOM      8  C   UNL     1      -1.736  -7.150  36.330  1.00  0.00     0.092 A 
ATOM      9  C   UNL     1      -2.585  -7.081  37.443  1.00  0.00     0.126 A 
ATOM     10  C   UNL     1      -2.781  -8.218  38.248  1.00  0.00     0.039 A 
ENDROOT
BRANCH   2  11
ATOM     11  O   UNL     1      -4.423  -9.343  41.418  1.00  0.00    -0.389 OA
ATOM     12  H   UNL     1      -5.060  -8.613  41.205  1.00  0.00     0.211 HD
ENDBRANCH   2  11
BRANCH   3  13
ATOM     13  C   UNL     1      -2.968 -11.760  40.672  1.00  0.00    -0.001 A 
ATOM     14  C   UNL     1      -1.784 -11.703  41.428  1.00  0.00     0.057 A 
ATOM     15  C   UNL     1      -3.845 -12.842  40.852  1.00  0.00     0.012 A 
ATOM     16  C   UNL     1      -1.469 -12.722  42.334  1.00  0.00     0.157 A 
ATOM     17  C   UNL     1      -3.533 -13.860  41.756  1.00  0.00     0.050 A 
ATOM     18  C   UNL     1      -2.345 -13.808  42.499  1.00  0.00     0.157 A 
BRANCH  16  19
ATOM     19  O   UNL     1      -0.283 -12.637  43.062  1.00  0.00    -0.504 OA
ATOM     20  H   UNL     1       0.432 -13.352  43.012  1.00  0.00     0.293 HD
ENDBRANCH  16  19
BRANCH  18  21
ATOM     21  O   UNL     1      -2.037 -14.825  43.400  1.00  0.00    -0.504 OA
ATOM     22  H   UNL     1      -1.200 -15.389  43.297  1.00  0.00     0.293 HD
ENDBRANCH  18  21
ENDBRANCH   3  13
BRANCH   9  23
ATOM     23  O   UNL     1      -3.235  -5.884  37.750  1.00  0.00    -0.507 OA
ATOM     24  H   UNL     1      -3.285  -5.121  37.085  1.00  0.00     0.293 HD
ENDBRANCH   9  23
BRANCH   7  25
ATOM     25  O   UNL     1      -0.249  -8.396  34.896  1.00  0.00    -0.508 OA
ATOM     26  H   UNL     1       0.200  -7.562  34.535  1.00  0.00     0.293 HD
ENDBRANCH   7  25
TORSDOF 6
ENDMDL
MODEL 2
REMARK VINA RESULT:    -5.683      2.356      7.842
REMARK INTER + INTRA:          -7.219
REMARK INTER:                  -7.455
REMARK INTRA:                   0.236
REMARK UNBOUND:                -0.373
REMARK SMILES Oc1cc(O)c2c(c1)O[C@@H](c1ccc(O)c(O)c1)[C@H](O)C2
REMARK SMILES IDX 21 1 19 2 10 3 9 4 7 5 8 6 2 7 3 8 4 9 6 10 20 11 11 13
REMARK SMILES IDX 18 14 12 15 16 16 13 17 14 18 17 19 15 21 5 23 1 25
REMARK H PARENT 20 12 17 20 15 22 5 24 1 26
REMARK Flexibility Score: inf
ROOT
ATOM      1  C   UNL     1      -0.821  -9.478  37.459  1.00  0.00     0.079 C 
ATOM      2  C   UNL     1      -1.214  -8.212  36.676  1.00  0.00     0.164 C 
ATOM      3  C   UNL     1      -2.749  -8.121  36.574  1.00  0.00     0.232 C 
ATOM      4  O   UNL     1      -3.332  -8.151  37.878  1.00  0.00    -0.482 OA
ATOM      5  C   UNL     1      -2.814  -8.937  38.914  1.00  0.00     0.131 A 
ATOM      6  C   UNL     1      -3.527  -9.051  40.111  1.00  0.00     0.093 A 
ATOM      7  C   UNL     1      -3.027  -9.834  41.158  1.00  0.00     0.122 A 
ATOM      8  C   UNL     1      -1.810 -10.504  41.006  1.00  0.00     0.092 A 
ATOM      9  C   UNL     1      -1.083 -10.392  39.812  1.00  0.00     0.126 A 
ATOM     10  C   UNL     1      -1.573  -9.590  38.765  1.00  0.00     0.039 A 
ENDROOT
BRANCH   2  11
ATOM     11  O   UNL     1      -0.656  -8.258  35.389  1.00  0.00    -0.389 OA
ATOM     12  H   UNL     1       0.114  -7.631  35.389  1.00  0.00     0.211 HD
ENDBRANCH   2  11
BRANCH   3  13
ATOM     13  C   UNL     1      -3.173  -6.860  35.859  1.00  0.00    -0.001 A 
ATOM     14  C   UNL     1      -4.035  -5.941  36.483  1.00  0.00     0.057 A 
ATOM     15  C   UNL     1      -2.671  -6.569  34.580  1.00  0.00     0.012 A 
ATOM     16  C   UNL     1      -4.407  -4.759  35.833  1.00  0.00     0.157 A 
ATOM     17  C   UNL     1      -3.041  -5.390  33.928  1.00  0.00     0.050 A 
ATOM     18  C   UNL     1      -3.910  -4.481  34.548  1.00  0.00     0.157 A 
BRANCH  16  19
ATOM     19  O   UNL     1      -5.269  -3.873  36.479  1.00  0.00    -0.504 OA
ATOM     20  H   UNL     1      -5.373  -2.910  36.182  1.00  0.00     0.293 HD
ENDBRANCH  16  19
BRANCH  18  21
ATOM     21  O   UNL     1      -4.278  -3.306  33.895  1.00  0.00    -0.504 OA
ATOM     22  H   UNL     1      -3.585  -2.674  33.511  1.00  0.00     0.293 HD
ENDBRANCH  18  21
ENDBRANCH   3  13
BRANCH   9  23
ATOM     23  O   UNL     1       0.124 -11.076  39.664  1.00  0.00    -0.507 OA
ATOM     24  H   UNL     1       0.457 -11.724  40.369  1.00  0.00     0.293 HD
ENDBRANCH   9  23
BRANCH   7  25
ATOM     25  O   UNL     1      -3.734  -9.955  42.353  1.00  0.00    -0.508 OA
ATOM     26  H   UNL     1      -4.060  -9.140  42.861  1.00  0.00     0.293 HD
ENDBRANCH   7  25
TORSDOF 6
ENDMDL
MODEL 3
REMARK VINA RESULT:    -5.679      2.271      3.962
REMARK INTER + INTRA:          -7.214
REMARK INTER:                  -6.973
REMARK INTRA:                  -0.241
REMARK UNBOUND:                -0.373
REMARK SMILES Oc1cc(O)c2c(c1)O[C@@H](c1ccc(O)c(O)c1)[C@H](O)C2
REMARK SMILES IDX 21 1 19 2 10 3 9 4 7 5 8 6 2 7 3 8 4 9 6 10 20 11 11 13
REMARK SMILES IDX 18 14 12 15 16 16 13 17 14 18 17 19 15 21 5 23 1 25
REMARK H PARENT 20 12 17 20 15 22 5 24 1 26
REMARK Flexibility Score: inf
ROOT
ATOM      1  C   UNL     1      -1.966  -8.514  35.999  1.00  0.00     0.079 C 
ATOM      2  C   UNL     1      -2.444  -9.223  37.279  1.00  0.00     0.164 C 
ATOM      3  C   UNL     1      -2.466  -8.221  38.449  1.00  0.00     0.232 C 
ATOM      4  O   UNL     1      -3.283  -7.096  38.119  1.00  0.00    -0.482 OA
ATOM      5  C   UNL     1      -3.333  -6.558  36.827  1.00  0.00     0.131 A 
ATOM      6  C   UNL     1      -4.018  -5.360  36.610  1.00  0.00     0.093 A 
ATOM      7  C   UNL     1      -4.080  -4.805  35.326  1.00  0.00     0.122 A 
ATOM      8  C   UNL     1      -3.453  -5.454  34.258  1.00  0.00     0.092 A 
ATOM      9  C   UNL     1      -2.769  -6.660  34.464  1.00  0.00     0.126 A 
ATOM     10  C   UNL     1      -2.723  -7.230  35.749  1.00  0.00     0.039 A 
ENDROOT
BRANCH   2  11
ATOM     11  O   UNL     1      -1.581 -10.287  37.583  1.00  0.00    -0.389 OA
ATOM     12  H   UNL     1      -1.301 -10.685  36.718  1.00  0.00     0.211 HD
ENDBRANCH   2  11
BRANCH   3  13
ATOM     13  C   UNL     1      -2.984  -8.869  39.712  1.00  0.00    -0.001 A 
ATOM     14  C   UNL     1      -2.093  -9.424  40.647  1.00  0.00     0.057 A 
ATOM     15  C   UNL     1      -4.361  -8.879  39.989  1.00  0.00     0.012 A 
ATOM     16  C   UNL     1      -2.569 -10.000  41.830  1.00  0.00     0.157 A 
ATOM     17  C   UNL     1      -4.839  -9.453  41.169  1.00  0.00     0.050 A 
ATOM     18  C   UNL     1      -3.949 -10.017  42.093  1.00  0.00     0.157 A 
BRANCH  16  19
ATOM     19  O   UNL     1      -1.657 -10.548  42.731  1.00  0.00    -0.504 OA
ATOM     20  H   UNL     1      -0.663 -10.580  42.537  1.00  0.00     0.293 HD
ENDBRANCH  16  19
BRANCH  18  21
ATOM     21  O   UNL     1      -4.430 -10.590  43.269  1.00  0.00    -0.504 OA
ATOM     22  H   UNL     1      -5.220 -11.225  43.266  1.00  0.00     0.293 HD
ENDBRANCH  18  21
ENDBRANCH   3  13
BRANCH   9  23
ATOM     23  O   UNL     1      -2.135  -7.293  33.393  1.00  0.00    -0.507 OA
ATOM     24  H   UNL     1      -1.444  -6.814  32.826  1.00  0.00     0.293 HD
ENDBRANCH   9  23
BRANCH   7  25
ATOM     25  O   UNL     1      -4.757  -3.609  35.102  1.00  0.00    -0.508 OA
ATOM     26  H   UNL     1      -4.287  -2.798  34.716  1.00  0.00     0.293 HD
ENDBRANCH   7  25
TORSDOF 6
ENDMDL
MODEL 4
REMARK VINA RESULT:    -5.612      2.564      7.596
REMARK INTER + INTRA:          -7.134
REMARK INTER:                  -6.822
REMARK INTRA:                  -0.312
REMARK UNBOUND:                -0.373
REMARK SMILES Oc1cc(O)c2c(c1)O[C@@H](c1ccc(O)c(O)c1)[C@H](O)C2
REMARK SMILES IDX 21 1 19 2 10 3 9 4 7 5 8 6 2 7 3 8 4 9 6 10 20 11 11 13
REMARK SMILES IDX 18 14 12 15 16 16 13 17 14 18 17 19 15 21 5 23 1 25
REMARK H PARENT 20 12 17 20 15 22 5 24 1 26
REMARK Flexibility Score: inf
ROOT
ATOM      1  C   UNL     1      -5.013  -8.133  39.385  1.00  0.00     0.079 C 
ATOM      2  C   UNL     1      -5.045  -7.581  37.949  1.00  0.00     0.164 C 
ATOM      3  C   UNL     1      -3.699  -6.905  37.624  1.00  0.00     0.232 C 
ATOM      4  O   UNL     1      -2.624  -7.825  37.824  1.00  0.00    -0.482 OA
ATOM      5  C   UNL     1      -2.624  -8.764  38.862  1.00  0.00     0.131 A 
ATOM      6  C   UNL     1      -1.472  -9.517  39.105  1.00  0.00     0.093 A 
ATOM      7  C   UNL     1      -1.451 -10.461  40.139  1.00  0.00     0.122 A 
ATOM      8  C   UNL     1      -2.587 -10.649  40.931  1.00  0.00     0.092 A 
ATOM      9  C   UNL     1      -3.750  -9.903  40.693  1.00  0.00     0.126 A 
ATOM     10  C   UNL     1      -3.781  -8.969  39.642  1.00  0.00     0.039 A 
ENDROOT
BRANCH   2  11
ATOM     11  O   UNL     1      -6.086  -6.649  37.821  1.00  0.00    -0.389 OA
ATOM     12  H   UNL     1      -6.092  -6.354  36.874  1.00  0.00     0.211 HD
ENDBRANCH   2  11
BRANCH   3  13
ATOM     13  C   UNL     1      -3.673  -6.399  36.200  1.00  0.00    -0.001 A 
ATOM     14  C   UNL     1      -3.858  -5.033  35.925  1.00  0.00     0.057 A 
ATOM     15  C   UNL     1      -3.414  -7.283  35.140  1.00  0.00     0.012 A 
ATOM     16  C   UNL     1      -3.807  -4.558  34.609  1.00  0.00     0.157 A 
ATOM     17  C   UNL     1      -3.363  -6.812  33.826  1.00  0.00     0.050 A 
ATOM     18  C   UNL     1      -3.560  -5.451  33.553  1.00  0.00     0.157 A 
BRANCH  16  19
ATOM     19  O   UNL     1      -4.002  -3.198  34.372  1.00  0.00    -0.504 OA
ATOM     20  H   UNL     1      -4.746  -2.857  33.776  1.00  0.00     0.293 HD
ENDBRANCH  16  19
BRANCH  18  21
ATOM     21  O   UNL     1      -3.508  -4.985  32.240  1.00  0.00    -0.504 OA
ATOM     22  H   UNL     1      -2.642  -4.661  31.826  1.00  0.00     0.293 HD
ENDBRANCH  18  21
ENDBRANCH   3  13
BRANCH   9  23
ATOM     23  O   UNL     1      -4.874 -10.088  41.499  1.00  0.00    -0.507 OA
ATOM     24  H   UNL     1      -5.414  -9.304  41.846  1.00  0.00     0.293 HD
ENDBRANCH   9  23
BRANCH   7  25
ATOM     25  O   UNL     1      -0.306 -11.213  40.389  1.00  0.00    -0.508 OA
ATOM     26  H   UNL     1       0.596 -10.773  40.536  1.00  0.00     0.293 HD
ENDBRANCH   7  25
TORSDOF 6
ENDMDL
MODEL 5
REMARK VINA RESULT:    -5.574      2.796      7.828
REMARK INTER + INTRA:          -7.088
REMARK INTER:                  -6.849
REMARK INTRA:                  -0.239
REMARK UNBOUND:                -0.373
REMARK SMILES Oc1cc(O)c2c(c1)O[C@@H](c1ccc(O)c(O)c1)[C@H](O)C2
REMARK SMILES IDX 21 1 19 2 10 3 9 4 7 5 8 6 2 7 3 8 4 9 6 10 20 11 11 13
REMARK SMILES IDX 18 14 12 15 16 16 13 17 14 18 17 19 15 21 5 23 1 25
REMARK H PARENT 20 12 17 20 15 22 5 24 1 26
REMARK Flexibility Score: inf
ROOT
ATOM      1  C   UNL     1      -1.886  -8.649  39.559  1.00  0.00     0.079 C 
ATOM      2  C   UNL     1      -2.090  -7.556  38.495  1.00  0.00     0.164 C 
ATOM      3  C   UNL     1      -3.258  -7.945  37.569  1.00  0.00     0.232 C 
ATOM      4  O   UNL     1      -4.440  -8.176  38.338  1.00  0.00    -0.482 OA
ATOM      5  C   UNL     1      -4.408  -8.779  39.601  1.00  0.00     0.131 A 
ATOM      6  C   UNL     1      -5.609  -9.129  40.224  1.00  0.00     0.093 A 
ATOM      7  C   UNL     1      -5.598  -9.735  41.486  1.00  0.00     0.122 A 
ATOM      8  C   UNL     1      -4.381  -9.990  42.124  1.00  0.00     0.092 A 
ATOM      9  C   UNL     1      -3.171  -9.638  41.511  1.00  0.00     0.126 A 
ATOM     10  C   UNL     1      -3.179  -9.011  40.252  1.00  0.00     0.039 A 
ENDROOT
BRANCH   2  11
ATOM     11  O   UNL     1      -0.917  -7.404  37.739  1.00  0.00    -0.389 OA
ATOM     12  H   UNL     1      -0.160  -7.407  38.381  1.00  0.00     0.211 HD
ENDBRANCH   2  11
BRANCH   3  13
ATOM     13  C   UNL     1      -3.524  -6.866  36.545  1.00  0.00    -0.001 A 
ATOM     14  C   UNL     1      -4.341  -5.767  36.861  1.00  0.00     0.057 A 
ATOM     15  C   UNL     1      -2.916  -6.926  35.281  1.00  0.00     0.012 A 
ATOM     16  C   UNL     1      -4.566  -4.753  35.923  1.00  0.00     0.157 A 
ATOM     17  C   UNL     1      -3.139  -5.916  34.342  1.00  0.00     0.050 A 
ATOM     18  C   UNL     1      -3.964  -4.828  34.656  1.00  0.00     0.157 A 
BRANCH  16  19
ATOM     19  O   UNL     1      -5.387  -3.681  36.269  1.00  0.00    -0.504 OA
ATOM     20  H   UNL     1      -6.393  -3.715  36.154  1.00  0.00     0.293 HD
ENDBRANCH  16  19
BRANCH  18  21
ATOM     21  O   UNL     1      -4.184  -3.822  33.717  1.00  0.00    -0.504 OA
ATOM     22  H   UNL     1      -3.620  -2.980  33.698  1.00  0.00     0.293 HD
ENDBRANCH  18  21
ENDBRANCH   3  13
BRANCH   9  23
ATOM     23  O   UNL     1      -1.960  -9.911  42.150  1.00  0.00    -0.507 OA
ATOM     24  H   UNL     1      -1.916 -10.098  43.145  1.00  0.00     0.293 HD
ENDBRANCH   9  23
BRANCH   7  25
ATOM     25  O   UNL     1      -6.791 -10.089  42.113  1.00  0.00    -0.508 OA
ATOM     26  H   UNL     1      -6.921  -9.970  43.111  1.00  0.00     0.293 HD
ENDBRANCH   7  25
TORSDOF 6
ENDMDL
MODEL 6
REMARK VINA RESULT:    -5.296      1.388      2.877
REMARK INTER + INTRA:          -6.753
REMARK INTER:                  -6.384
REMARK INTRA:                  -0.369
REMARK UNBOUND:                -0.373
REMARK SMILES Oc1cc(O)c2c(c1)O[C@@H](c1ccc(O)c(O)c1)[C@H](O)C2
REMARK SMILES IDX 21 1 19 2 10 3 9 4 7 5 8 6 2 7 3 8 4 9 6 10 20 11 11 13
REMARK SMILES IDX 18 14 12 15 16 16 13 17 14 18 17 19 15 21 5 23 1 25
REMARK H PARENT 20 12 17 20 15 22 5 24 1 26
REMARK Flexibility Score: inf
ROOT
ATOM      1  C   UNL     1      -0.892  -9.228  36.816  1.00  0.00     0.079 C 
ATOM      2  C   UNL     1      -1.148 -10.379  37.806  1.00  0.00     0.164 C 
ATOM      3  C   UNL     1      -1.505  -9.803  39.189  1.00  0.00     0.232 C 
ATOM      4  O   UNL     1      -2.626  -8.924  39.083  1.00  0.00    -0.482 OA
ATOM      5  C   UNL     1      -2.818  -8.082  37.981  1.00  0.00     0.131 A 
ATOM      6  C   UNL     1      -3.839  -7.129  38.016  1.00  0.00     0.093 A 
ATOM      7  C   UNL     1      -4.047  -6.277  36.924  1.00  0.00     0.122 A 
ATOM      8  C   UNL     1      -3.228  -6.381  35.796  1.00  0.00     0.092 A 
ATOM      9  C   UNL     1      -2.205  -7.338  35.748  1.00  0.00     0.126 A 
ATOM     10  C   UNL     1      -2.007  -8.209  36.835  1.00  0.00     0.039 A 
ENDROOT
BRANCH   2  11
ATOM     11  O   UNL     1      -0.001 -11.182  37.908  1.00  0.00    -0.389 OA
ATOM     12  H   UNL     1       0.722 -10.603  38.265  1.00  0.00     0.211 HD
ENDBRANCH   2  11
BRANCH   3  13
ATOM     13  C   UNL     1      -1.818 -10.905  40.174  1.00  0.00    -0.001 A 
ATOM     14  C   UNL     1      -0.983 -11.131  41.282  1.00  0.00     0.057 A 
ATOM     15  C   UNL     1      -2.976 -11.684  40.020  1.00  0.00     0.012 A 
ATOM     16  C   UNL     1      -1.287 -12.133  42.211  1.00  0.00     0.157 A 
ATOM     17  C   UNL     1      -3.282 -12.685  40.944  1.00  0.00     0.050 A 
ATOM     18  C   UNL     1      -2.441 -12.917  42.041  1.00  0.00     0.157 A 
BRANCH  16  19
ATOM     19  O   UNL     1      -0.432 -12.334  43.294  1.00  0.00    -0.504 OA
ATOM     20  H   UNL     1       0.253 -13.080  43.308  1.00  0.00     0.293 HD
ENDBRANCH  16  19
BRANCH  18  21
ATOM     21  O   UNL     1      -2.748 -13.917  42.962  1.00  0.00    -0.504 OA
ATOM     22  H   UNL     1      -2.288 -14.820  42.938  1.00  0.00     0.293 HD
ENDBRANCH  18  21
ENDBRANCH   3  13
BRANCH   9  23
ATOM     23  O   UNL     1      -1.384  -7.425  34.622  1.00  0.00    -0.507 OA
ATOM     24  H   UNL     1      -0.562  -6.841  34.518  1.00  0.00     0.293 HD
ENDBRANCH   9  23
BRANCH   7  25
ATOM     25  O   UNL     1      -5.060  -5.321  36.953  1.00  0.00    -0.508 OA
ATOM     26  H   UNL     1      -5.544  -5.037  36.109  1.00  0.00     0.293 HD
ENDBRANCH   7  25
TORSDOF 6
ENDMDL
MODEL 7
REMARK VINA RESULT:    -5.241      1.965      7.200
REMARK INTER + INTRA:          -6.686
REMARK INTER:                  -6.311
REMARK INTRA:                  -0.376
REMARK UNBOUND:                -0.373
REMARK SMILES Oc1cc(O)c2c(c1)O[C@@H](c1ccc(O)c(O)c1)[C@H](O)C2
REMARK SMILES IDX 21 1 19 2 10 3 9 4 7 5 8 6 2 7 3 8 4 9 6 10 20 11 11 13
REMARK SMILES IDX 18 14 12 15 16 16 13 17 14 18 17 19 15 21 5 23 1 25
REMARK H PARENT 20 12 17 20 15 22 5 24 1 26
REMARK Flexibility Score: inf
ROOT
ATOM      1  C   UNL     1      -4.967 -12.453  42.632  1.00  0.00     0.079 C 
ATOM      2  C   UNL     1      -4.409 -11.504  41.556  1.00  0.00     0.164 C 
ATOM      3  C   UNL     1      -2.955 -11.130  41.897  1.00  0.00     0.232 C 
ATOM      4  O   UNL     1      -2.162 -12.311  42.038  1.00  0.00    -0.482 OA
ATOM      5  C   UNL     1      -2.662 -13.487  42.611  1.00  0.00     0.131 A 
ATOM      6  C   UNL     1      -1.790 -14.546  42.873  1.00  0.00     0.093 A 
ATOM      7  C   UNL     1      -2.270 -15.730  43.446  1.00  0.00     0.122 A 
ATOM      8  C   UNL     1      -3.628 -15.851  43.758  1.00  0.00     0.092 A 
ATOM      9  C   UNL     1      -4.513 -14.796  43.494  1.00  0.00     0.126 A 
ATOM     10  C   UNL     1      -4.037 -13.613  42.899  1.00  0.00     0.039 A 
ENDROOT
BRANCH   2  11
ATOM     11  O   UNL     1      -5.195 -10.343  41.493  1.00  0.00    -0.389 OA
ATOM     12  H   UNL     1      -4.575  -9.587  41.324  1.00  0.00     0.211 HD
ENDBRANCH   2  11
BRANCH   3  13
ATOM     13  C   UNL     1      -2.355 -10.244  40.831  1.00  0.00    -0.001 A 
ATOM     14  C   UNL     1      -2.248 -10.695  39.504  1.00  0.00     0.057 A 
ATOM     15  C   UNL     1      -1.944  -8.938  41.146  1.00  0.00     0.012 A 
ATOM     16  C   UNL     1      -1.718  -9.865  38.510  1.00  0.00     0.157 A 
ATOM     17  C   UNL     1      -1.415  -8.107  40.156  1.00  0.00     0.050 A 
ATOM     18  C   UNL     1      -1.297  -8.564  38.836  1.00  0.00     0.157 A 
BRANCH  16  19
ATOM     19  O   UNL     1      -1.620 -10.348  37.206  1.00  0.00    -0.504 OA
ATOM     20  H   UNL     1      -1.693 -11.336  36.991  1.00  0.00     0.293 HD
ENDBRANCH  16  19
BRANCH  18  21
ATOM     21  O   UNL     1      -0.769  -7.733  37.850  1.00  0.00    -0.504 OA
ATOM     22  H   UNL     1      -0.824  -6.723  37.922  1.00  0.00     0.293 HD
ENDBRANCH  18  21
ENDBRANCH   3  13
BRANCH   9  23
ATOM     23  O   UNL     1      -5.864 -14.921  43.822  1.00  0.00    -0.507 OA
ATOM     24  H   UNL     1      -6.162 -15.170  44.758  1.00  0.00     0.293 HD
ENDBRANCH   9  23
BRANCH   7  25
ATOM     25  O   UNL     1      -1.407 -16.790  43.714  1.00  0.00    -0.508 OA
ATOM     26  H   UNL     1      -1.733 -17.641  44.158  1.00  0.00     0.293 HD
ENDBRANCH   7  25
TORSDOF 6
ENDMDL
MODEL 8
REMARK VINA RESULT:    -5.184      2.842      7.108
REMARK INTER + INTRA:          -6.618
REMARK INTER:                  -6.325
REMARK INTRA:                  -0.293
REMARK UNBOUND:                -0.373
REMARK SMILES Oc1cc(O)c2c(c1)O[C@@H](c1ccc(O)c(O)c1)[C@H](O)C2
REMARK SMILES IDX 21 1 19 2 10 3 9 4 7 5 8 6 2 7 3 8 4 9 6 10 20 11 11 13
REMARK SMILES IDX 18 14 12 15 16 16 13 17 14 18 17 19 15 21 5 23 1 25
REMARK H PARENT 20 12 17 20 15 22 5 24 1 26
REMARK Flexibility Score: inf
ROOT
ATOM      1  C   UNL     1      -1.705 -10.839  41.617  1.00  0.00     0.079 C 
ATOM      2  C   UNL     1      -2.774  -9.749  41.418  1.00  0.00     0.164 C 
ATOM      3  C   UNL     1      -3.884 -10.276  40.488  1.00  0.00     0.232 C 
ATOM      4  O   UNL     1      -4.436 -11.484  41.014  1.00  0.00    -0.482 OA
ATOM      5  C   UNL     1      -3.655 -12.443  41.670  1.00  0.00     0.131 A 
ATOM      6  C   UNL     1      -4.222 -13.674  42.010  1.00  0.00     0.093 A 
ATOM      7  C   UNL     1      -3.458 -14.647  42.665  1.00  0.00     0.122 A 
ATOM      8  C   UNL     1      -2.121 -14.385  42.979  1.00  0.00     0.092 A 
ATOM      9  C   UNL     1      -1.543 -13.151  42.648  1.00  0.00     0.126 A 
ATOM     10  C   UNL     1      -2.315 -12.164  42.008  1.00  0.00     0.039 A 
ENDROOT
BRANCH   2  11
ATOM     11  O   UNL     1      -2.188  -8.605  40.855  1.00  0.00    -0.389 OA
ATOM     12  H   UNL     1      -1.241  -8.833  40.664  1.00  0.00     0.211 HD
ENDBRANCH   2  11
BRANCH   3  13
ATOM     13  C   UNL     1      -4.981  -9.252  40.315  1.00  0.00    -0.001 A 
ATOM     14  C   UNL     1      -5.026  -8.441  39.167  1.00  0.00     0.057 A 
ATOM     15  C   UNL     1      -5.998  -9.134  41.276  1.00  0.00     0.012 A 
ATOM     16  C   UNL     1      -6.057  -7.511  38.992  1.00  0.00     0.157 A 
ATOM     17  C   UNL     1      -7.028  -8.207  41.104  1.00  0.00     0.050 A 
ATOM     18  C   UNL     1      -7.063  -7.391  39.965  1.00  0.00     0.157 A 
BRANCH  16  19
ATOM     19  O   UNL     1      -6.065  -6.718  37.845  1.00  0.00    -0.504 OA
ATOM     20  H   UNL     1      -5.461  -5.912  37.744  1.00  0.00     0.293 HD
ENDBRANCH  16  19
BRANCH  18  21
ATOM     21  O   UNL     1      -8.092  -6.466  39.797  1.00  0.00    -0.504 OA
ATOM     22  H   UNL     1      -8.885  -6.435  40.427  1.00  0.00     0.293 HD
ENDBRANCH  18  21
ENDBRANCH   3  13
BRANCH   9  23
ATOM     23  O   UNL     1      -0.204 -12.905  42.954  1.00  0.00    -0.507 OA
ATOM     24  H   UNL     1       0.307 -12.140  42.527  1.00  0.00     0.293 HD
ENDBRANCH   9  23
BRANCH   7  25
ATOM     25  O   UNL     1      -4.015 -15.878  43.004  1.00  0.00    -0.508 OA
ATOM     26  H   UNL     1      -4.300 -16.543  42.295  1.00  0.00     0.293 HD
ENDBRANCH   7  25
TORSDOF 6
ENDMDL
MODEL 9
REMARK VINA RESULT:    -5.166      2.828      4.630
REMARK INTER + INTRA:          -6.596
REMARK INTER:                  -6.245
REMARK INTRA:                  -0.351
REMARK UNBOUND:                -0.373
REMARK SMILES Oc1cc(O)c2c(c1)O[C@@H](c1ccc(O)c(O)c1)[C@H](O)C2
REMARK SMILES IDX 21 1 19 2 10 3 9 4 7 5 8 6 2 7 3 8 4 9 6 10 20 11 11 13
REMARK SMILES IDX 18 14 12 15 16 16 13 17 14 18 17 19 15 21 5 23 1 25
REMARK H PARENT 20 12 17 20 15 22 5 24 1 26
REMARK Flexibility Score: inf
ROOT
ATOM      1  C   UNL     1      -3.983  -5.837  35.825  1.00  0.00     0.079 C 
ATOM      2  C   UNL     1      -3.246  -6.627  36.922  1.00  0.00     0.164 C 
ATOM      3  C   UNL     1      -3.131  -8.106  36.508  1.00  0.00     0.232 C 
ATOM      4  O   UNL     1      -2.484  -8.214  35.238  1.00  0.00    -0.482 OA
ATOM      5  C   UNL     1      -2.689  -7.285  34.211  1.00  0.00     0.131 A 
ATOM      6  C   UNL     1      -2.161  -7.540  32.942  1.00  0.00     0.093 A 
ATOM      7  C   UNL     1      -2.355  -6.624  31.901  1.00  0.00     0.122 A 
ATOM      8  C   UNL     1      -3.080  -5.452  32.132  1.00  0.00     0.092 A 
ATOM      9  C   UNL     1      -3.609  -5.184  33.403  1.00  0.00     0.126 A 
ATOM     10  C   UNL     1      -3.398  -6.092  34.456  1.00  0.00     0.039 A 
ENDROOT
BRANCH   2  11
ATOM     11  O   UNL     1      -3.948  -6.526  38.133  1.00  0.00    -0.389 OA
ATOM     12  H   UNL     1      -3.525  -5.792  38.649  1.00  0.00     0.211 HD
ENDBRANCH   2  11
BRANCH   3  13
ATOM     13  C   UNL     1      -2.362  -8.902  37.536  1.00  0.00    -0.001 A 
ATOM     14  C   UNL     1      -2.880 -10.107  38.040  1.00  0.00     0.057 A 
ATOM     15  C   UNL     1      -1.095  -8.469  37.963  1.00  0.00     0.012 A 
ATOM     16  C   UNL     1      -2.157 -10.860  38.973  1.00  0.00     0.157 A 
ATOM     17  C   UNL     1      -0.371  -9.218  38.894  1.00  0.00     0.050 A 
ATOM     18  C   UNL     1      -0.896 -10.413  39.404  1.00  0.00     0.157 A 
BRANCH  16  19
ATOM     19  O   UNL     1      -2.705 -12.047  39.456  1.00  0.00    -0.504 OA
ATOM     20  H   UNL     1      -2.131 -12.846  39.697  1.00  0.00     0.293 HD
ENDBRANCH  16  19
BRANCH  18  21
ATOM     21  O   UNL     1      -0.171 -11.158  40.332  1.00  0.00    -0.504 OA
ATOM     22  H   UNL     1       0.537 -11.823  40.043  1.00  0.00     0.293 HD
ENDBRANCH  18  21
ENDBRANCH   3  13
BRANCH   9  23
ATOM     23  O   UNL     1      -4.344  -4.017  33.619  1.00  0.00    -0.507 OA
ATOM     24  H   UNL     1      -5.187  -3.815  33.095  1.00  0.00     0.293 HD
ENDBRANCH   9  23
BRANCH   7  25
ATOM     25  O   UNL     1      -1.835  -6.872  30.632  1.00  0.00    -0.508 OA
ATOM     26  H   UNL     1      -1.993  -7.753  30.158  1.00  0.00     0.293 HD
ENDBRANCH   7  25
TORSDOF 6
ENDMDL
