MODEL 1
REMARK VINA RESULT:    -5.624      0.000      0.000
REMARK INTER + INTRA:          -6.380
REMARK INTER:                  -6.117
REMARK INTRA:                  -0.263
REMARK UNBOUND:                -0.263
REMARK SMILES CC(=O)c1cc(C)ccc1O
REMARK SMILES IDX 7 1 6 2 5 3 4 4 10 5 9 6 8 7 2 8 3 9 1 10 11 11
REMARK H PARENT 11 12
REMARK Flexibility Score: inf
ROOT
ATOM      1  C   UNL     1      31.344  10.399 105.306  1.00  0.00     0.044 C 
ATOM      2  C   UNL     1      31.185   8.924 105.525  1.00  0.00    -0.050 A 
ATOM      3  C   UNL     1      31.723   8.319 106.670  1.00  0.00     0.019 A 
ATOM      4  C   UNL     1      31.607   6.930 106.879  1.00  0.00     0.059 A 
ATOM      5  C   UNL     1      30.968   6.144 105.892  1.00  0.00     0.126 A 
ATOM      6  C   UNL     1      30.443   6.754 104.744  1.00  0.00     0.047 A 
ATOM      7  C   UNL     1      30.554   8.132 104.559  1.00  0.00     0.007 A 
ENDROOT
BRANCH   4   8
ATOM      8  C   UNL     1      32.176   6.343 108.122  1.00  0.00     0.163 C 
ATOM      9  O   UNL     1      31.726   5.245 108.548  1.00  0.00    -0.294 OA
ATOM     10  C   UNL     1      33.272   7.008 108.897  1.00  0.00     0.093 C 
ENDBRANCH   4   8
BRANCH   5  11
ATOM     11  O   UNL     1      30.872   4.760 106.031  1.00  0.00    -0.507 OA
ATOM     12  H   UNL     1      30.826   4.144 105.227  1.00  0.00     0.293 HD
ENDBRANCH   5  11
TORSDOF 2
ENDMDL
MODEL 2
REMARK VINA RESULT:    -5.216      1.446      3.656
REMARK INTER + INTRA:          -5.936
REMARK INTER:                  -5.766
REMARK INTRA:                  -0.171
REMARK UNBOUND:                -0.263
REMARK SMILES CC(=O)c1cc(C)ccc1O
REMARK SMILES IDX 7 1 6 2 5 3 4 4 10 5 9 6 8 7 2 8 3 9 1 10 11 11
REMARK H PARENT 11 12
REMARK Flexibility Score: inf
ROOT
ATOM      1  C   UNL     1      32.215   7.803 109.744  1.00  0.00     0.044 C 
ATOM      2  C   UNL     1      31.945   7.033 108.486  1.00  0.00    -0.050 A 
ATOM      3  C   UNL     1      31.441   7.686 107.352  1.00  0.00     0.019 A 
ATOM      4  C   UNL     1      31.156   6.973 106.171  1.00  0.00     0.059 A 
ATOM      5  C   UNL     1      31.352   5.572 106.156  1.00  0.00     0.126 A 
ATOM      6  C   UNL     1      31.845   4.924 107.297  1.00  0.00     0.047 A 
ATOM      7  C   UNL     1      32.135   5.646 108.455  1.00  0.00     0.007 A 
ENDROOT
BRANCH   4   8
ATOM      8  C   UNL     1      30.644   7.720 104.990  1.00  0.00     0.163 C 
ATOM      9  O   UNL     1      30.188   7.079 104.005  1.00  0.00    -0.294 OA
ATOM     10  C   UNL     1      30.646   9.216 104.921  1.00  0.00     0.093 C 
ENDBRANCH   4   8
BRANCH   5  11
ATOM     11  O   UNL     1      31.037   4.818 105.027  1.00  0.00    -0.507 OA
ATOM     12  H   UNL     1      30.077   4.648 104.748  1.00  0.00     0.293 HD
ENDBRANCH   5  11
TORSDOF 2
ENDMDL
MODEL 3
REMARK VINA RESULT:    -5.186      1.687      2.583
REMARK INTER + INTRA:          -5.904
REMARK INTER:                  -5.769
REMARK INTRA:                  -0.135
REMARK UNBOUND:                -0.263
REMARK SMILES CC(=O)c1cc(C)ccc1O
REMARK SMILES IDX 7 1 6 2 5 3 4 4 10 5 9 6 8 7 2 8 3 9 1 10 11 11
REMARK H PARENT 11 12
REMARK Flexibility Score: inf
ROOT
ATOM      1  C   UNL     1      30.233   7.135 104.154  1.00  0.00     0.044 C 
ATOM      2  C   UNL     1      30.871   6.621 105.409  1.00  0.00    -0.050 A 
ATOM      3  C   UNL     1      31.396   7.517 106.353  1.00  0.00     0.019 A 
ATOM      4  C   UNL     1      32.023   7.051 107.525  1.00  0.00     0.059 A 
ATOM      5  C   UNL     1      32.151   5.655 107.721  1.00  0.00     0.126 A 
ATOM      6  C   UNL     1      31.635   4.766 106.767  1.00  0.00     0.047 A 
ATOM      7  C   UNL     1      31.005   5.243 105.618  1.00  0.00     0.007 A 
ENDROOT
BRANCH   4   8
ATOM      8  C   UNL     1      32.541   8.044 108.503  1.00  0.00     0.163 C 
ATOM      9  O   UNL     1      31.777   8.472 109.412  1.00  0.00    -0.294 OA
ATOM     10  C   UNL     1      33.946   8.562 108.457  1.00  0.00     0.093 C 
ENDBRANCH   4   8
BRANCH   5  11
ATOM     11  O   UNL     1      32.807   5.147 108.841  1.00  0.00    -0.507 OA
ATOM     12  H   UNL     1      33.543   5.665 109.309  1.00  0.00     0.293 HD
ENDBRANCH   5  11
TORSDOF 2
ENDMDL
MODEL 4
REMARK VINA RESULT:    -5.108      2.215      3.614
REMARK INTER + INTRA:          -5.819
REMARK INTER:                  -5.567
REMARK INTRA:                  -0.251
REMARK UNBOUND:                -0.263
REMARK SMILES CC(=O)c1cc(C)ccc1O
REMARK SMILES IDX 7 1 6 2 5 3 4 4 10 5 9 6 8 7 2 8 3 9 1 10 11 11
REMARK H PARENT 11 12
REMARK Flexibility Score: inf
ROOT
ATOM      1  C   UNL     1      33.250   3.249 107.379  1.00  0.00     0.044 C 
ATOM      2  C   UNL     1      32.618   4.573 107.071  1.00  0.00    -0.050 A 
ATOM      3  C   UNL     1      32.940   5.704 107.835  1.00  0.00     0.019 A 
ATOM      4  C   UNL     1      32.334   6.950 107.577  1.00  0.00     0.059 A 
ATOM      5  C   UNL     1      31.361   7.036 106.553  1.00  0.00     0.126 A 
ATOM      6  C   UNL     1      31.036   5.898 105.801  1.00  0.00     0.047 A 
ATOM      7  C   UNL     1      31.654   4.675 106.060  1.00  0.00     0.007 A 
ENDROOT
BRANCH   4   8
ATOM      8  C   UNL     1      32.729   8.122 108.403  1.00  0.00     0.163 C 
ATOM      9  O   UNL     1      31.912   8.590 109.242  1.00  0.00    -0.294 OA
ATOM     10  C   UNL     1      34.071   8.777 108.281  1.00  0.00     0.093 C 
ENDBRANCH   4   8
BRANCH   5  11
ATOM     11  O   UNL     1      30.700   8.236 106.294  1.00  0.00    -0.507 OA
ATOM     12  H   UNL     1      29.768   8.419 106.650  1.00  0.00     0.293 HD
ENDBRANCH   5  11
TORSDOF 2
ENDMDL
MODEL 5
REMARK VINA RESULT:    -4.911      2.086      3.773
REMARK INTER + INTRA:          -5.604
REMARK INTER:                  -5.298
REMARK INTRA:                  -0.306
REMARK UNBOUND:                -0.263
REMARK SMILES CC(=O)c1cc(C)ccc1O
REMARK SMILES IDX 7 1 6 2 5 3 4 4 10 5 9 6 8 7 2 8 3 9 1 10 11 11
REMARK H PARENT 11 12
REMARK Flexibility Score: inf
ROOT
ATOM      1  C   UNL     1      33.180   6.564 109.213  1.00  0.00     0.044 C 
ATOM      2  C   UNL     1      32.413   6.780 107.943  1.00  0.00    -0.050 A 
ATOM      3  C   UNL     1      32.389   8.046 107.340  1.00  0.00     0.019 A 
ATOM      4  C   UNL     1      31.651   8.275 106.162  1.00  0.00     0.059 A 
ATOM      5  C   UNL     1      30.898   7.210 105.612  1.00  0.00     0.126 A 
ATOM      6  C   UNL     1      30.917   5.951 106.228  1.00  0.00     0.047 A 
ATOM      7  C   UNL     1      31.663   5.738 107.386  1.00  0.00     0.007 A 
ENDROOT
BRANCH   4   8
ATOM      8  C   UNL     1      31.679   9.631 105.551  1.00  0.00     0.163 C 
ATOM      9  O   UNL     1      30.593  10.194 105.248  1.00  0.00    -0.294 OA
ATOM     10  C   UNL     1      32.957  10.364 105.278  1.00  0.00     0.093 C 
ENDBRANCH   4   8
BRANCH   5  11
ATOM     11  O   UNL     1      30.113   7.401 104.476  1.00  0.00    -0.507 OA
ATOM     12  H   UNL     1      30.463   7.896 103.663  1.00  0.00     0.293 HD
ENDBRANCH   5  11
TORSDOF 2
ENDMDL
MODEL 6
REMARK VINA RESULT:    -4.836      1.367      2.582
REMARK INTER + INTRA:          -5.523
REMARK INTER:                  -5.232
REMARK INTRA:                  -0.292
REMARK UNBOUND:                -0.263
REMARK SMILES CC(=O)c1cc(C)ccc1O
REMARK SMILES IDX 7 1 6 2 5 3 4 4 10 5 9 6 8 7 2 8 3 9 1 10 11 11
REMARK H PARENT 11 12
REMARK Flexibility Score: inf
ROOT
ATOM      1  C   UNL     1      29.843   7.259 103.693  1.00  0.00     0.044 C 
ATOM      2  C   UNL     1      30.673   7.415 104.932  1.00  0.00    -0.050 A 
ATOM      3  C   UNL     1      30.991   6.295 105.715  1.00  0.00     0.019 A 
ATOM      4  C   UNL     1      31.746   6.428 106.897  1.00  0.00     0.059 A 
ATOM      5  C   UNL     1      32.150   7.720 107.307  1.00  0.00     0.126 A 
ATOM      6  C   UNL     1      31.817   8.836 106.526  1.00  0.00     0.047 A 
ATOM      7  C   UNL     1      31.080   8.687 105.351  1.00  0.00     0.007 A 
ENDROOT
BRANCH   4   8
ATOM      8  C   UNL     1      32.076   5.204 107.676  1.00  0.00     0.163 C 
ATOM      9  O   UNL     1      31.657   5.095 108.861  1.00  0.00    -0.294 OA
ATOM     10  C   UNL     1      32.891   4.083 107.107  1.00  0.00     0.093 C 
ENDBRANCH   4   8
BRANCH   5  11
ATOM     11  O   UNL     1      32.856   7.906 108.494  1.00  0.00    -0.507 OA
ATOM     12  H   UNL     1      33.419   7.168 108.902  1.00  0.00     0.293 HD
ENDBRANCH   5  11
TORSDOF 2
ENDMDL
MODEL 7
REMARK VINA RESULT:    -4.721      2.134      4.505
REMARK INTER + INTRA:          -5.398
REMARK INTER:                  -5.140
REMARK INTRA:                  -0.258
REMARK UNBOUND:                -0.263
REMARK SMILES CC(=O)c1cc(C)ccc1O
REMARK SMILES IDX 7 1 6 2 5 3 4 4 10 5 9 6 8 7 2 8 3 9 1 10 11 11
REMARK H PARENT 11 12
REMARK Flexibility Score: inf
ROOT
ATOM      1  C   UNL     1      33.246   3.569 107.066  1.00  0.00     0.044 C 
ATOM      2  C   UNL     1      32.669   4.921 107.361  1.00  0.00    -0.050 A 
ATOM      3  C   UNL     1      32.048   5.661 106.344  1.00  0.00     0.019 A 
ATOM      4  C   UNL     1      31.526   6.945 106.597  1.00  0.00     0.059 A 
ATOM      5  C   UNL     1      31.670   7.497 107.892  1.00  0.00     0.126 A 
ATOM      6  C   UNL     1      32.303   6.757 108.900  1.00  0.00     0.047 A 
ATOM      7  C   UNL     1      32.803   5.481 108.637  1.00  0.00     0.007 A 
ENDROOT
BRANCH   4   8
ATOM      8  C   UNL     1      30.856   7.677 105.488  1.00  0.00     0.163 C 
ATOM      9  O   UNL     1      30.815   8.937 105.516  1.00  0.00    -0.294 OA
ATOM     10  C   UNL     1      30.225   6.973 104.325  1.00  0.00     0.093 C 
ENDBRANCH   4   8
BRANCH   5  11
ATOM     11  O   UNL     1      31.213   8.783 108.176  1.00  0.00    -0.507 OA
ATOM     12  H   UNL     1      30.226   8.985 108.291  1.00  0.00     0.293 HD
ENDBRANCH   5  11
TORSDOF 2
ENDMDL
MODEL 8
REMARK VINA RESULT:    -4.644      2.329      2.965
REMARK INTER + INTRA:          -5.314
REMARK INTER:                  -5.178
REMARK INTRA:                  -0.136
REMARK UNBOUND:                -0.263
REMARK SMILES CC(=O)c1cc(C)ccc1O
REMARK SMILES IDX 7 1 6 2 5 3 4 4 10 5 9 6 8 7 2 8 3 9 1 10 11 11
REMARK H PARENT 11 12
REMARK Flexibility Score: inf
ROOT
ATOM      1  C   UNL     1      35.797  10.167 107.034  1.00  0.00     0.044 C 
ATOM      2  C   UNL     1      34.424   9.620 106.783  1.00  0.00    -0.050 A 
ATOM      3  C   UNL     1      33.894   8.630 107.624  1.00  0.00     0.019 A 
ATOM      4  C   UNL     1      32.617   8.084 107.387  1.00  0.00     0.059 A 
ATOM      5  C   UNL     1      31.886   8.526 106.259  1.00  0.00     0.126 A 
ATOM      6  C   UNL     1      32.427   9.507 105.416  1.00  0.00     0.047 A 
ATOM      7  C   UNL     1      33.687  10.046 105.672  1.00  0.00     0.007 A 
ENDROOT
BRANCH   4   8
ATOM      8  C   UNL     1      32.094   7.054 108.323  1.00  0.00     0.163 C 
ATOM      9  O   UNL     1      31.360   7.409 109.286  1.00  0.00    -0.294 OA
ATOM     10  C   UNL     1      32.403   5.596 108.170  1.00  0.00     0.093 C 
ENDBRANCH   4   8
BRANCH   5  11
ATOM     11  O   UNL     1      30.639   7.980 105.956  1.00  0.00    -0.507 OA
ATOM     12  H   UNL     1      29.918   7.874 106.661  1.00  0.00     0.293 HD
ENDBRANCH   5  11
TORSDOF 2
ENDMDL
MODEL 9
REMARK VINA RESULT:    -4.581      3.750      4.575
REMARK INTER + INTRA:          -5.245
REMARK INTER:                  -4.956
REMARK INTRA:                  -0.290
REMARK UNBOUND:                -0.263
REMARK SMILES CC(=O)c1cc(C)ccc1O
REMARK SMILES IDX 7 1 6 2 5 3 4 4 10 5 9 6 8 7 2 8 3 9 1 10 11 11
REMARK H PARENT 11 12
REMARK Flexibility Score: inf
ROOT
ATOM      1  C   UNL     1      32.276   6.884 108.821  1.00  0.00     0.044 C 
ATOM      2  C   UNL     1      32.605   7.855 107.728  1.00  0.00    -0.050 A 
ATOM      3  C   UNL     1      33.818   8.559 107.751  1.00  0.00     0.019 A 
ATOM      4  C   UNL     1      34.132   9.496 106.747  1.00  0.00     0.059 A 
ATOM      5  C   UNL     1      33.183   9.746 105.727  1.00  0.00     0.126 A 
ATOM      6  C   UNL     1      31.968   9.048 105.717  1.00  0.00     0.047 A 
ATOM      7  C   UNL     1      31.678   8.114 106.712  1.00  0.00     0.007 A 
ENDROOT
BRANCH   4   8
ATOM      8  C   UNL     1      35.442  10.198 106.807  1.00  0.00     0.163 C 
ATOM      9  O   UNL     1      36.249  10.082 105.844  1.00  0.00    -0.294 OA
ATOM     10  C   UNL     1      35.848  11.047 107.972  1.00  0.00     0.093 C 
ENDBRANCH   4   8
BRANCH   5  11
ATOM     11  O   UNL     1      33.429  10.700 104.740  1.00  0.00    -0.507 OA
ATOM     12  H   UNL     1      34.201  10.608 104.090  1.00  0.00     0.293 HD
ENDBRANCH   5  11
TORSDOF 2
ENDMDL
