MODEL 1
REMARK VINA RESULT:    -5.251      0.000      0.000
REMARK INTER + INTRA:          -6.464
REMARK INTER:                  -6.325
REMARK INTRA:                  -0.139
REMARK UNBOUND:                -0.139
REMARK SMILES COC(=O)c1cc(O)c(O)c(O)c1
REMARK SMILES IDX 5 1 13 2 11 3 9 4 7 5 6 6 3 7 4 8 2 9 1 10 12 11 8 13 10 15
REMARK H PARENT 12 12 8 14 10 16
REMARK Flexibility Score: inf
ROOT
ATOM      1  C   UNL     1      -5.452   8.772 -15.459  1.00  0.00     0.067 A 
ATOM      2  C   UNL     1      -6.700   8.209 -15.155  1.00  0.00     0.066 A 
ATOM      3  C   UNL     1      -7.201   8.252 -13.847  1.00  0.00     0.162 A 
ATOM      4  C   UNL     1      -6.460   8.860 -12.824  1.00  0.00     0.200 A 
ATOM      5  C   UNL     1      -5.200   9.431 -13.122  1.00  0.00     0.162 A 
ATOM      6  C   UNL     1      -4.711   9.381 -14.433  1.00  0.00     0.066 A 
ENDROOT
BRANCH   1   7
ATOM      7  C   UNL     1      -4.929   8.724 -16.843  1.00  0.00     0.338 C 
ATOM      8  O   UNL     1      -3.876   8.077 -17.100  1.00  0.00    -0.246 OA
BRANCH   7   9
ATOM      9  O   UNL     1      -5.604   9.397 -17.868  1.00  0.00    -0.465 OA
ATOM     10  C   UNL     1      -5.766  10.809 -17.883  1.00  0.00     0.282 C 
ENDBRANCH   7   9
ENDBRANCH   1   7
BRANCH   3  11
ATOM     11  O   UNL     1      -8.442   7.689 -13.555  1.00  0.00    -0.504 OA
ATOM     12  H   UNL     1      -9.276   7.942 -14.072  1.00  0.00     0.293 HD
ENDBRANCH   3  11
BRANCH   5  13
ATOM     13  O   UNL     1      -4.406  10.052 -12.156  1.00  0.00    -0.504 OA
ATOM     14  H   UNL     1      -3.993  10.967 -12.265  1.00  0.00     0.293 HD
ENDBRANCH   5  13
BRANCH   4  15
ATOM     15  O   UNL     1      -7.006   8.875 -11.538  1.00  0.00    -0.502 OA
ATOM     16  H   UNL     1      -6.526   9.230 -10.724  1.00  0.00     0.293 HD
ENDBRANCH   4  15
TORSDOF 5
ENDMDL
MODEL 2
REMARK VINA RESULT:    -5.208      2.266      3.741
REMARK INTER + INTRA:          -6.413
REMARK INTER:                  -6.295
REMARK INTRA:                  -0.118
REMARK UNBOUND:                -0.139
REMARK SMILES COC(=O)c1cc(O)c(O)c(O)c1
REMARK SMILES IDX 5 1 13 2 11 3 9 4 7 5 6 6 3 7 4 8 2 9 1 10 12 11 8 13 10 15
REMARK H PARENT 12 12 8 14 10 16
REMARK Flexibility Score: inf
ROOT
ATOM      1  C   UNL     1      -7.151   8.996 -14.410  1.00  0.00     0.067 A 
ATOM      2  C   UNL     1      -7.456  10.036 -13.519  1.00  0.00     0.066 A 
ATOM      3  C   UNL     1      -8.785  10.308 -13.171  1.00  0.00     0.162 A 
ATOM      4  C   UNL     1      -9.829   9.543 -13.709  1.00  0.00     0.200 A 
ATOM      5  C   UNL     1      -9.531   8.492 -14.607  1.00  0.00     0.162 A 
ATOM      6  C   UNL     1      -8.199   8.231 -14.948  1.00  0.00     0.066 A 
ENDROOT
BRANCH   1   7
ATOM      7  C   UNL     1      -5.744   8.713 -14.774  1.00  0.00     0.338 C 
ATOM      8  O   UNL     1      -4.806   9.078 -14.011  1.00  0.00    -0.246 OA
BRANCH   7   9
ATOM      9  O   UNL     1      -5.454   8.037 -15.965  1.00  0.00    -0.465 OA
ATOM     10  C   UNL     1      -5.072   8.711 -17.157  1.00  0.00     0.282 C 
ENDBRANCH   7   9
ENDBRANCH   1   7
BRANCH   3  11
ATOM     11  O   UNL     1      -9.077  11.344 -12.286  1.00  0.00    -0.504 OA
ATOM     12  H   UNL     1      -8.948  12.316 -12.543  1.00  0.00     0.293 HD
ENDBRANCH   3  11
BRANCH   5  13
ATOM     13  O   UNL     1     -10.518   7.689 -15.182  1.00  0.00    -0.504 OA
ATOM     14  H   UNL     1     -11.478   7.976 -15.313  1.00  0.00     0.293 HD
ENDBRANCH   5  13
BRANCH   4  15
ATOM     15  O   UNL     1     -11.136   9.857 -13.327  1.00  0.00    -0.502 OA
ATOM     16  H   UNL     1     -11.571   9.530 -12.477  1.00  0.00     0.293 HD
ENDBRANCH   4  15
TORSDOF 5
ENDMDL
MODEL 3
REMARK VINA RESULT:    -5.196      2.287      3.133
REMARK INTER + INTRA:          -6.398
REMARK INTER:                  -6.282
REMARK INTRA:                  -0.116
REMARK UNBOUND:                -0.139
REMARK SMILES COC(=O)c1cc(O)c(O)c(O)c1
REMARK SMILES IDX 5 1 13 2 11 3 9 4 7 5 6 6 3 7 4 8 2 9 1 10 12 11 8 13 10 15
REMARK H PARENT 12 12 8 14 10 16
REMARK Flexibility Score: inf
ROOT
ATOM      1  C   UNL     1      -7.195   9.001 -14.388  1.00  0.00     0.067 A 
ATOM      2  C   UNL     1      -8.248   8.212 -14.876  1.00  0.00     0.066 A 
ATOM      3  C   UNL     1      -9.572   8.488 -14.512  1.00  0.00     0.162 A 
ATOM      4  C   UNL     1      -9.863   9.558 -13.655  1.00  0.00     0.200 A 
ATOM      5  C   UNL     1      -8.808  10.360 -13.159  1.00  0.00     0.162 A 
ATOM      6  C   UNL     1      -7.489  10.073 -13.530  1.00  0.00     0.066 A 
ENDROOT
BRANCH   1   7
ATOM      7  C   UNL     1      -5.798   8.705 -14.777  1.00  0.00     0.338 C 
ATOM      8  O   UNL     1      -4.843   9.066 -14.033  1.00  0.00    -0.246 OA
BRANCH   7   9
ATOM      9  O   UNL     1      -5.535   8.023 -15.970  1.00  0.00    -0.465 OA
ATOM     10  C   UNL     1      -5.072   8.678 -17.144  1.00  0.00     0.282 C 
ENDBRANCH   7   9
ENDBRANCH   1   7
BRANCH   3  11
ATOM     11  O   UNL     1     -10.610   7.697 -15.001  1.00  0.00    -0.504 OA
ATOM     12  H   UNL     1     -10.446   6.965 -15.682  1.00  0.00     0.293 HD
ENDBRANCH   3  11
BRANCH   5  13
ATOM     13  O   UNL     1      -9.022  11.442 -12.302  1.00  0.00    -0.504 OA
ATOM     14  H   UNL     1      -9.929  11.718 -11.954  1.00  0.00     0.293 HD
ENDBRANCH   5  13
BRANCH   4  15
ATOM     15  O   UNL     1     -11.201   9.789 -13.325  1.00  0.00    -0.502 OA
ATOM     16  H   UNL     1     -11.980   9.548 -13.919  1.00  0.00     0.293 HD
ENDBRANCH   4  15
TORSDOF 5
ENDMDL
MODEL 4
REMARK VINA RESULT:    -5.130      0.172      2.342
REMARK INTER + INTRA:          -6.319
REMARK INTER:                  -6.186
REMARK INTRA:                  -0.132
REMARK UNBOUND:                -0.139
REMARK SMILES COC(=O)c1cc(O)c(O)c(O)c1
REMARK SMILES IDX 5 1 13 2 11 3 9 4 7 5 6 6 3 7 4 8 2 9 1 10 12 11 8 13 10 15
REMARK H PARENT 12 12 8 14 10 16
REMARK Flexibility Score: inf
ROOT
ATOM      1  C   UNL     1      -5.464   8.800 -15.447  1.00  0.00     0.067 A 
ATOM      2  C   UNL     1      -4.669   9.276 -14.394  1.00  0.00     0.066 A 
ATOM      3  C   UNL     1      -5.139   9.241 -13.075  1.00  0.00     0.162 A 
ATOM      4  C   UNL     1      -6.411   8.727 -12.789  1.00  0.00     0.200 A 
ATOM      5  C   UNL     1      -7.220   8.244 -13.845  1.00  0.00     0.162 A 
ATOM      6  C   UNL     1      -6.739   8.285 -15.159  1.00  0.00     0.066 A 
ENDROOT
BRANCH   1   7
ATOM      7  C   UNL     1      -4.961   8.839 -16.839  1.00  0.00     0.338 C 
ATOM      8  O   UNL     1      -3.876   8.267 -17.137  1.00  0.00    -0.246 OA
BRANCH   7   9
ATOM      9  O   UNL     1      -5.693   9.510 -17.826  1.00  0.00    -0.465 OA
ATOM     10  C   UNL     1      -5.726  10.928 -17.927  1.00  0.00     0.282 C 
ENDBRANCH   7   9
ENDBRANCH   1   7
BRANCH   3  11
ATOM     11  O   UNL     1      -4.342   9.717 -12.035  1.00  0.00    -0.504 OA
ATOM     12  H   UNL     1      -4.253  10.709 -11.845  1.00  0.00     0.293 HD
ENDBRANCH   3  11
BRANCH   5  13
ATOM     13  O   UNL     1      -8.497   7.719 -13.637  1.00  0.00    -0.504 OA
ATOM     14  H   UNL     1      -8.744   6.751 -13.790  1.00  0.00     0.293 HD
ENDBRANCH   5  13
BRANCH   4  15
ATOM     15  O   UNL     1      -6.831   8.715 -11.457  1.00  0.00    -0.502 OA
ATOM     16  H   UNL     1      -7.798   8.699 -11.168  1.00  0.00     0.293 HD
ENDBRANCH   4  15
TORSDOF 5
ENDMDL
MODEL 5
REMARK VINA RESULT:    -5.045      2.603      4.544
REMARK INTER + INTRA:          -6.217
REMARK INTER:                  -6.111
REMARK INTRA:                  -0.105
REMARK UNBOUND:                -0.139
REMARK SMILES COC(=O)c1cc(O)c(O)c(O)c1
REMARK SMILES IDX 5 1 13 2 11 3 9 4 7 5 6 6 3 7 4 8 2 9 1 10 12 11 8 13 10 15
REMARK H PARENT 12 12 8 14 10 16
REMARK Flexibility Score: inf
ROOT
ATOM      1  C   UNL     1      -7.395   9.088 -13.301  1.00  0.00     0.067 A 
ATOM      2  C   UNL     1      -6.217   8.747 -12.622  1.00  0.00     0.066 A 
ATOM      3  C   UNL     1      -5.058   9.519 -12.774  1.00  0.00     0.162 A 
ATOM      4  C   UNL     1      -5.062  10.646 -13.609  1.00  0.00     0.200 A 
ATOM      5  C   UNL     1      -6.246  10.998 -14.297  1.00  0.00     0.162 A 
ATOM      6  C   UNL     1      -7.397  10.217 -14.137  1.00  0.00     0.066 A 
ENDROOT
BRANCH   1   7
ATOM      7  C   UNL     1      -8.617   8.269 -13.136  1.00  0.00     0.338 C 
ATOM      8  O   UNL     1      -8.565   7.173 -12.511  1.00  0.00    -0.246 OA
BRANCH   7   9
ATOM      9  O   UNL     1      -9.832   8.712 -13.672  1.00  0.00    -0.465 OA
ATOM     10  C   UNL     1     -11.048   8.695 -12.934  1.00  0.00     0.282 C 
ENDBRANCH   7   9
ENDBRANCH   1   7
BRANCH   3  11
ATOM     11  O   UNL     1      -3.892   9.171 -12.095  1.00  0.00    -0.504 OA
ATOM     12  H   UNL     1      -3.746   9.424 -11.124  1.00  0.00     0.293 HD
ENDBRANCH   3  11
BRANCH   5  13
ATOM     13  O   UNL     1      -6.325  12.105 -15.145  1.00  0.00    -0.504 OA
ATOM     14  H   UNL     1      -7.009  12.207 -15.882  1.00  0.00     0.293 HD
ENDBRANCH   5  13
BRANCH   4  15
ATOM     15  O   UNL     1      -3.879  11.381 -13.724  1.00  0.00    -0.502 OA
ATOM     16  H   UNL     1      -3.798  12.244 -14.240  1.00  0.00     0.293 HD
ENDBRANCH   4  15
TORSDOF 5
ENDMDL
MODEL 6
REMARK VINA RESULT:    -5.016      2.674      4.643
REMARK INTER + INTRA:          -6.182
REMARK INTER:                  -6.066
REMARK INTRA:                  -0.115
REMARK UNBOUND:                -0.139
REMARK SMILES COC(=O)c1cc(O)c(O)c(O)c1
REMARK SMILES IDX 5 1 13 2 11 3 9 4 7 5 6 6 3 7 4 8 2 9 1 10 12 11 8 13 10 15
REMARK H PARENT 12 12 8 14 10 16
REMARK Flexibility Score: inf
ROOT
ATOM      1  C   UNL     1      -7.491   9.482 -12.815  1.00  0.00     0.067 A 
ATOM      2  C   UNL     1      -7.476  10.522 -13.756  1.00  0.00     0.066 A 
ATOM      3  C   UNL     1      -6.267  11.104 -14.154  1.00  0.00     0.162 A 
ATOM      4  C   UNL     1      -5.053  10.654 -13.617  1.00  0.00     0.200 A 
ATOM      5  C   UNL     1      -5.058   9.604 -12.668  1.00  0.00     0.162 A 
ATOM      6  C   UNL     1      -6.274   9.032 -12.278  1.00  0.00     0.066 A 
ENDROOT
BRANCH   1   7
ATOM      7  C   UNL     1      -8.773   8.870 -12.398  1.00  0.00     0.338 C 
ATOM      8  O   UNL     1      -8.858   8.267 -11.292  1.00  0.00    -0.246 OA
BRANCH   7   9
ATOM      9  O   UNL     1      -9.894   8.963 -13.231  1.00  0.00    -0.465 OA
ATOM     10  C   UNL     1     -11.089   9.628 -12.840  1.00  0.00     0.282 C 
ENDBRANCH   7   9
ENDBRANCH   1   7
BRANCH   3  11
ATOM     11  O   UNL     1      -6.262  12.138 -15.089  1.00  0.00    -0.504 OA
ATOM     12  H   UNL     1      -7.054  12.307 -15.699  1.00  0.00     0.293 HD
ENDBRANCH   3  11
BRANCH   5  13
ATOM     13  O   UNL     1      -3.889   9.104 -12.090  1.00  0.00    -0.504 OA
ATOM     14  H   UNL     1      -3.003   9.039 -12.571  1.00  0.00     0.293 HD
ENDBRANCH   5  13
BRANCH   4  15
ATOM     15  O   UNL     1      -3.875  11.269 -14.050  1.00  0.00    -0.502 OA
ATOM     16  H   UNL     1      -3.144  11.589 -13.432  1.00  0.00     0.293 HD
ENDBRANCH   4  15
TORSDOF 5
ENDMDL
MODEL 7
REMARK VINA RESULT:    -4.906      2.166      4.346
REMARK INTER + INTRA:          -6.049
REMARK INTER:                  -5.943
REMARK INTRA:                  -0.106
REMARK UNBOUND:                -0.139
REMARK SMILES COC(=O)c1cc(O)c(O)c(O)c1
REMARK SMILES IDX 5 1 13 2 11 3 9 4 7 5 6 6 3 7 4 8 2 9 1 10 12 11 8 13 10 15
REMARK H PARENT 12 12 8 14 10 16
REMARK Flexibility Score: inf
ROOT
ATOM      1  C   UNL     1      -7.989   9.066 -14.592  1.00  0.00     0.067 A 
ATOM      2  C   UNL     1      -7.088   8.353 -15.396  1.00  0.00     0.066 A 
ATOM      3  C   UNL     1      -5.770   8.800 -15.556  1.00  0.00     0.162 A 
ATOM      4  C   UNL     1      -5.334   9.966 -14.911  1.00  0.00     0.200 A 
ATOM      5  C   UNL     1      -6.237  10.691 -14.098  1.00  0.00     0.162 A 
ATOM      6  C   UNL     1      -7.551  10.234 -13.948  1.00  0.00     0.066 A 
ENDROOT
BRANCH   1   7
ATOM      7  C   UNL     1      -9.381   8.588 -14.427  1.00  0.00     0.338 C 
ATOM      8  O   UNL     1      -9.990   8.060 -15.399  1.00  0.00    -0.246 OA
BRANCH   7   9
ATOM      9  O   UNL     1     -10.023   8.721 -13.190  1.00  0.00    -0.465 OA
ATOM     10  C   UNL     1     -11.084   9.641 -12.970  1.00  0.00     0.282 C 
ENDBRANCH   7   9
ENDBRANCH   1   7
BRANCH   3  11
ATOM     11  O   UNL     1      -4.881   8.085 -16.357  1.00  0.00    -0.504 OA
ATOM     12  H   UNL     1      -4.989   8.044 -17.364  1.00  0.00     0.293 HD
ENDBRANCH   3  11
BRANCH   5  13
ATOM     13  O   UNL     1      -5.874  11.861 -13.427  1.00  0.00    -0.504 OA
ATOM     14  H   UNL     1      -5.339  11.880 -12.570  1.00  0.00     0.293 HD
ENDBRANCH   5  13
BRANCH   4  15
ATOM     15  O   UNL     1      -4.009  10.366 -15.104  1.00  0.00    -0.502 OA
ATOM     16  H   UNL     1      -3.731  11.139 -15.691  1.00  0.00     0.293 HD
ENDBRANCH   4  15
TORSDOF 5
ENDMDL
MODEL 8
REMARK VINA RESULT:    -4.899      2.266      4.676
REMARK INTER + INTRA:          -6.041
REMARK INTER:                  -5.929
REMARK INTRA:                  -0.112
REMARK UNBOUND:                -0.139
REMARK SMILES COC(=O)c1cc(O)c(O)c(O)c1
REMARK SMILES IDX 5 1 13 2 11 3 9 4 7 5 6 6 3 7 4 8 2 9 1 10 12 11 8 13 10 15
REMARK H PARENT 12 12 8 14 10 16
REMARK Flexibility Score: inf
ROOT
ATOM      1  C   UNL     1      -8.119   9.075 -14.508  1.00  0.00     0.067 A 
ATOM      2  C   UNL     1      -7.718  10.297 -13.949  1.00  0.00     0.066 A 
ATOM      3  C   UNL     1      -6.425  10.790 -14.169  1.00  0.00     0.162 A 
ATOM      4  C   UNL     1      -5.515  10.067 -14.952  1.00  0.00     0.200 A 
ATOM      5  C   UNL     1      -5.911   8.833 -15.520  1.00  0.00     0.162 A 
ATOM      6  C   UNL     1      -7.206   8.352 -15.292  1.00  0.00     0.066 A 
ENDROOT
BRANCH   1   7
ATOM      7  C   UNL     1      -9.487   8.560 -14.273  1.00  0.00     0.338 C 
ATOM      8  O   UNL     1     -10.107   7.961 -15.196  1.00  0.00    -0.246 OA
BRANCH   7   9
ATOM      9  O   UNL     1     -10.093   8.734 -13.023  1.00  0.00    -0.465 OA
ATOM     10  C   UNL     1     -11.237   9.558 -12.833  1.00  0.00     0.282 C 
ENDBRANCH   7   9
ENDBRANCH   1   7
BRANCH   3  11
ATOM     11  O   UNL     1      -6.035  12.005 -13.608  1.00  0.00    -0.504 OA
ATOM     12  H   UNL     1      -5.497  12.047 -12.751  1.00  0.00     0.293 HD
ENDBRANCH   3  11
BRANCH   5  13
ATOM     13  O   UNL     1      -5.059   8.058 -16.310  1.00  0.00    -0.504 OA
ATOM     14  H   UNL     1      -4.968   7.055 -16.229  1.00  0.00     0.293 HD
ENDBRANCH   5  13
BRANCH   4  15
ATOM     15  O   UNL     1      -4.239  10.604 -15.139  1.00  0.00    -0.502 OA
ATOM     16  H   UNL     1      -3.514  10.163 -15.687  1.00  0.00     0.293 HD
ENDBRANCH   4  15
TORSDOF 5
ENDMDL
MODEL 9
REMARK VINA RESULT:    -4.717      5.259      7.031
REMARK INTER + INTRA:          -5.821
REMARK INTER:                  -5.737
REMARK INTRA:                  -0.084
REMARK UNBOUND:                -0.139
REMARK SMILES COC(=O)c1cc(O)c(O)c(O)c1
REMARK SMILES IDX 5 1 13 2 11 3 9 4 7 5 6 6 3 7 4 8 2 9 1 10 12 11 8 13 10 15
REMARK H PARENT 12 12 8 14 10 16
REMARK Flexibility Score: inf
ROOT
ATOM      1  C   UNL     1     -10.632  10.413 -12.711  1.00  0.00     0.067 A 
ATOM      2  C   UNL     1     -10.929  11.782 -12.635  1.00  0.00     0.066 A 
ATOM      3  C   UNL     1     -12.238  12.214 -12.387  1.00  0.00     0.162 A 
ATOM      4  C   UNL     1     -13.270  11.281 -12.211  1.00  0.00     0.200 A 
ATOM      5  C   UNL     1     -12.980   9.899 -12.285  1.00  0.00     0.162 A 
ATOM      6  C   UNL     1     -11.667   9.481 -12.535  1.00  0.00     0.066 A 
ENDROOT
BRANCH   1   7
ATOM      7  C   UNL     1      -9.246   9.963 -12.973  1.00  0.00     0.338 C 
ATOM      8  O   UNL     1      -8.921   9.544 -14.119  1.00  0.00    -0.246 OA
BRANCH   7   9
ATOM      9  O   UNL     1      -8.293  10.005 -11.948  1.00  0.00    -0.465 OA
ATOM     10  C   UNL     1      -6.896  10.074 -12.201  1.00  0.00     0.282 C 
ENDBRANCH   7   9
ENDBRANCH   1   7
BRANCH   3  11
ATOM     11  O   UNL     1     -12.523  13.576 -12.314  1.00  0.00    -0.504 OA
ATOM     12  H   UNL     1     -12.554  14.158 -13.144  1.00  0.00     0.293 HD
ENDBRANCH   3  11
BRANCH   5  13
ATOM     13  O   UNL     1     -13.955   8.913 -12.121  1.00  0.00    -0.504 OA
ATOM     14  H   UNL     1     -14.511   8.800 -11.285  1.00  0.00     0.293 HD
ENDBRANCH   5  13
BRANCH   4  15
ATOM     15  O   UNL     1     -14.557  11.766 -11.966  1.00  0.00    -0.502 OA
ATOM     16  H   UNL     1     -15.106  12.280 -12.639  1.00  0.00     0.293 HD
ENDBRANCH   4  15
TORSDOF 5
ENDMDL
