MODEL 1
REMARK VINA RESULT:    -3.021      0.000      0.000
REMARK INTER + INTRA:          -4.134
REMARK INTER:                  -3.904
REMARK INTRA:                  -0.229
REMARK UNBOUND:                -0.229
REMARK SMILES CCCCCCC(=O)[O-]
REMARK SMILES IDX 5 1 6 2 7 3 8 4 9 5 4 6 3 7 2 8 1 9
REMARK H PARENT
REMARK Flexibility Score: inf
ROOT
ATOM      1  C   UNL     1      29.671  17.778  50.478  1.00  0.00     0.006 C 
ENDROOT
BRANCH   1   2
ATOM      2  C   UNL     1      28.685  16.689  50.925  1.00  0.00     0.053 C 
BRANCH   2   3
ATOM      3  C   UNL     1      27.351  17.263  51.286  1.00  0.00     0.041 C 
ATOM      4  O   UNL     1      27.195  17.871  52.379  1.00  0.00    -0.550 OA
ATOM      5  O   UNL     1      26.269  17.102  50.429  1.00  0.00    -0.550 OA
ENDBRANCH   2   3
ENDBRANCH   1   2
BRANCH   1   6
ATOM      6  C   UNL     1      31.127  17.419  50.821  1.00  0.00     0.000 C 
BRANCH   6   7
ATOM      7  C   UNL     1      31.231  16.406  51.971  1.00  0.00    -0.000 C 
BRANCH   7   8
ATOM      8  C   UNL     1      32.499  15.543  51.886  1.00  0.00    -0.003 C 
ATOM      9  C   UNL     1      33.125  15.621  50.497  1.00  0.00     0.004 C 
ENDBRANCH   7   8
ENDBRANCH   6   7
ENDBRANCH   1   6
TORSDOF 5
ENDMDL
MODEL 2
REMARK VINA RESULT:    -2.952     16.741     17.821
REMARK INTER + INTRA:          -4.045
REMARK INTER:                  -3.852
REMARK INTRA:                  -0.193
REMARK UNBOUND:                -0.229
REMARK SMILES CCCCCCC(=O)[O-]
REMARK SMILES IDX 5 1 6 2 7 3 8 4 9 5 4 6 3 7 2 8 1 9
REMARK H PARENT
REMARK Flexibility Score: inf
ROOT
ATOM      1  C   UNL     1      20.132  30.160  55.185  1.00  0.00     0.006 C 
ENDROOT
BRANCH   1   2
ATOM      2  C   UNL     1      20.462  29.484  56.523  1.00  0.00     0.053 C 
BRANCH   2   3
ATOM      3  C   UNL     1      21.503  30.242  57.287  1.00  0.00     0.041 C 
ATOM      4  O   UNL     1      22.648  30.422  56.793  1.00  0.00    -0.550 OA
ATOM      5  O   UNL     1      21.219  30.727  58.558  1.00  0.00    -0.550 OA
ENDBRANCH   2   3
ENDBRANCH   1   2
BRANCH   1   6
ATOM      6  C   UNL     1      19.120  29.349  54.359  1.00  0.00     0.000 C 
BRANCH   6   7
ATOM      7  C   UNL     1      18.102  30.240  53.630  1.00  0.00    -0.000 C 
BRANCH   7   8
ATOM      8  C   UNL     1      16.654  29.768  53.828  1.00  0.00    -0.003 C 
ATOM      9  C   UNL     1      16.389  29.403  55.286  1.00  0.00     0.004 C 
ENDBRANCH   7   8
ENDBRANCH   6   7
ENDBRANCH   1   6
TORSDOF 5
ENDMDL
MODEL 3
REMARK VINA RESULT:    -2.881     16.429     17.685
REMARK INTER + INTRA:          -3.953
REMARK INTER:                  -3.783
REMARK INTRA:                  -0.169
REMARK UNBOUND:                -0.229
REMARK SMILES CCCCCCC(=O)[O-]
REMARK SMILES IDX 5 1 6 2 7 3 8 4 9 5 4 6 3 7 2 8 1 9
REMARK H PARENT
REMARK Flexibility Score: inf
ROOT
ATOM      1  C   UNL     1      20.705  30.264  55.514  1.00  0.00     0.006 C 
ENDROOT
BRANCH   1   2
ATOM      2  C   UNL     1      21.545  29.591  56.609  1.00  0.00     0.053 C 
BRANCH   2   3
ATOM      3  C   UNL     1      21.008  29.879  57.977  1.00  0.00     0.041 C 
ATOM      4  O   UNL     1      21.271  30.972  58.546  1.00  0.00    -0.550 OA
ATOM      5  O   UNL     1      20.238  28.928  58.637  1.00  0.00    -0.550 OA
ENDBRANCH   2   3
ENDBRANCH   1   2
BRANCH   1   6
ATOM      6  C   UNL     1      19.433  29.465  55.184  1.00  0.00     0.000 C 
BRANCH   6   7
ATOM      7  C   UNL     1      18.610  30.104  54.055  1.00  0.00    -0.000 C 
BRANCH   7   8
ATOM      8  C   UNL     1      17.106  29.822  54.187  1.00  0.00    -0.003 C 
ATOM      9  C   UNL     1      16.797  29.083  55.486  1.00  0.00     0.004 C 
ENDBRANCH   7   8
ENDBRANCH   6   7
ENDBRANCH   1   6
TORSDOF 5
ENDMDL
MODEL 4
REMARK VINA RESULT:    -2.825     12.177     13.817
REMARK INTER + INTRA:          -3.880
REMARK INTER:                  -3.739
REMARK INTRA:                  -0.141
REMARK UNBOUND:                -0.229
REMARK SMILES CCCCCCC(=O)[O-]
REMARK SMILES IDX 5 1 6 2 7 3 8 4 9 5 4 6 3 7 2 8 1 9
REMARK H PARENT
REMARK Flexibility Score: inf
ROOT
ATOM      1  C   UNL     1      16.624  18.758  48.004  1.00  0.00     0.006 C 
ENDROOT
BRANCH   1   2
ATOM      2  C   UNL     1      16.604  17.874  46.750  1.00  0.00     0.053 C 
BRANCH   2   3
ATOM      3  C   UNL     1      15.209  17.490  46.363  1.00  0.00     0.041 C 
ATOM      4  O   UNL     1      15.005  16.475  45.645  1.00  0.00    -0.550 OA
ATOM      5  O   UNL     1      14.134  18.269  46.773  1.00  0.00    -0.550 OA
ENDBRANCH   2   3
ENDBRANCH   1   2
BRANCH   1   6
ATOM      6  C   UNL     1      17.438  18.126  49.147  1.00  0.00     0.000 C 
BRANCH   6   7
ATOM      7  C   UNL     1      16.661  18.080  50.471  1.00  0.00    -0.000 C 
BRANCH   7   8
ATOM      8  C   UNL     1      17.363  17.229  51.540  1.00  0.00    -0.003 C 
ATOM      9  C   UNL     1      18.848  17.071  51.228  1.00  0.00     0.004 C 
ENDBRANCH   7   8
ENDBRANCH   6   7
ENDBRANCH   1   6
TORSDOF 5
ENDMDL
MODEL 5
REMARK VINA RESULT:    -2.821     16.909     17.480
REMARK INTER + INTRA:          -3.875
REMARK INTER:                  -3.737
REMARK INTRA:                  -0.139
REMARK UNBOUND:                -0.229
REMARK SMILES CCCCCCC(=O)[O-]
REMARK SMILES IDX 5 1 6 2 7 3 8 4 9 5 4 6 3 7 2 8 1 9
REMARK H PARENT
REMARK Flexibility Score: inf
ROOT
ATOM      1  C   UNL     1      19.633  29.486  54.401  1.00  0.00     0.006 C 
ENDROOT
BRANCH   1   2
ATOM      2  C   UNL     1      18.215  29.283  54.954  1.00  0.00     0.053 C 
BRANCH   2   3
ATOM      3  C   UNL     1      17.178  29.891  54.063  1.00  0.00     0.041 C 
ATOM      4  O   UNL     1      15.973  29.533  54.153  1.00  0.00    -0.550 OA
ATOM      5  O   UNL     1      17.545  30.834  53.111  1.00  0.00    -0.550 OA
ENDBRANCH   2   3
ENDBRANCH   1   2
BRANCH   1   6
ATOM      6  C   UNL     1      20.520  30.298  55.360  1.00  0.00     0.000 C 
BRANCH   6   7
ATOM      7  C   UNL     1      20.923  29.501  56.610  1.00  0.00    -0.000 C 
BRANCH   7   8
ATOM      8  C   UNL     1      21.809  30.310  57.568  1.00  0.00    -0.003 C 
ATOM      9  C   UNL     1      21.052  30.671  58.843  1.00  0.00     0.004 C 
ENDBRANCH   7   8
ENDBRANCH   6   7
ENDBRANCH   1   6
TORSDOF 5
ENDMDL
MODEL 6
REMARK VINA RESULT:    -2.774     12.443     13.596
REMARK INTER + INTRA:          -3.814
REMARK INTER:                  -3.628
REMARK INTRA:                  -0.186
REMARK UNBOUND:                -0.229
REMARK SMILES CCCCCCC(=O)[O-]
REMARK SMILES IDX 5 1 6 2 7 3 8 4 9 5 4 6 3 7 2 8 1 9
REMARK H PARENT
REMARK Flexibility Score: inf
ROOT
ATOM      1  C   UNL     1      16.151  18.747  48.375  1.00  0.00     0.006 C 
ENDROOT
BRANCH   1   2
ATOM      2  C   UNL     1      17.105  18.046  47.398  1.00  0.00     0.053 C 
BRANCH   2   3
ATOM      3  C   UNL     1      16.521  17.950  46.023  1.00  0.00     0.041 C 
ATOM      4  O   UNL     1      15.475  17.278  45.823  1.00  0.00    -0.550 OA
ATOM      5  O   UNL     1      17.148  18.581  44.955  1.00  0.00    -0.550 OA
ENDBRANCH   2   3
ENDBRANCH   1   2
BRANCH   1   6
ATOM      6  C   UNL     1      16.440  18.372  49.839  1.00  0.00     0.000 C 
BRANCH   6   7
ATOM      7  C   UNL     1      17.876  17.867  50.047  1.00  0.00    -0.000 C 
BRANCH   7   8
ATOM      8  C   UNL     1      18.067  17.169  51.401  1.00  0.00    -0.003 C 
ATOM      9  C   UNL     1      16.778  17.190  52.217  1.00  0.00     0.004 C 
ENDBRANCH   7   8
ENDBRANCH   6   7
ENDBRANCH   1   6
TORSDOF 5
ENDMDL
MODEL 7
REMARK VINA RESULT:    -2.755     16.835     17.819
REMARK INTER + INTRA:          -3.789
REMARK INTER:                  -3.620
REMARK INTRA:                  -0.169
REMARK UNBOUND:                -0.229
REMARK SMILES CCCCCCC(=O)[O-]
REMARK SMILES IDX 5 1 6 2 7 3 8 4 9 5 4 6 3 7 2 8 1 9
REMARK H PARENT
REMARK Flexibility Score: inf
ROOT
ATOM      1  C   UNL     1      19.178  29.486  55.149  1.00  0.00     0.006 C 
ENDROOT
BRANCH   1   2
ATOM      2  C   UNL     1      20.539  30.163  55.365  1.00  0.00     0.053 C 
BRANCH   2   3
ATOM      3  C   UNL     1      21.057  29.939  56.751  1.00  0.00     0.041 C 
ATOM      4  O   UNL     1      22.197  30.365  57.080  1.00  0.00    -0.550 OA
ATOM      5  O   UNL     1      20.293  29.236  57.675  1.00  0.00    -0.550 OA
ENDBRANCH   2   3
ENDBRANCH   1   2
BRANCH   1   6
ATOM      6  C   UNL     1      18.558  29.849  53.789  1.00  0.00     0.000 C 
BRANCH   6   7
ATOM      7  C   UNL     1      17.034  30.026  53.863  1.00  0.00    -0.000 C 
BRANCH   7   8
ATOM      8  C   UNL     1      16.415  29.327  55.082  1.00  0.00    -0.003 C 
ATOM      9  C   UNL     1      15.579  28.122  54.659  1.00  0.00     0.004 C 
ENDBRANCH   7   8
ENDBRANCH   6   7
ENDBRANCH   1   6
TORSDOF 5
ENDMDL
MODEL 8
REMARK VINA RESULT:    -2.737     11.703     13.717
REMARK INTER + INTRA:          -3.766
REMARK INTER:                  -3.580
REMARK INTRA:                  -0.186
REMARK UNBOUND:                -0.229
REMARK SMILES CCCCCCC(=O)[O-]
REMARK SMILES IDX 5 1 6 2 7 3 8 4 9 5 4 6 3 7 2 8 1 9
REMARK H PARENT
REMARK Flexibility Score: inf
ROOT
ATOM      1  C   UNL     1      16.204  18.361  49.849  1.00  0.00     0.006 C 
ENDROOT
BRANCH   1   2
ATOM      2  C   UNL     1      17.706  18.045  49.878  1.00  0.00     0.053 C 
BRANCH   2   3
ATOM      3  C   UNL     1      18.103  17.349  51.142  1.00  0.00     0.041 C 
ATOM      4  O   UNL     1      19.225  16.784  51.231  1.00  0.00    -0.550 OA
ATOM      5  O   UNL     1      17.221  17.299  52.216  1.00  0.00    -0.550 OA
ENDBRANCH   2   3
ENDBRANCH   1   2
BRANCH   1   6
ATOM      6  C   UNL     1      15.683  18.576  48.417  1.00  0.00     0.000 C 
BRANCH   6   7
ATOM      7  C   UNL     1      16.692  18.131  47.348  1.00  0.00    -0.000 C 
BRANCH   7   8
ATOM      8  C   UNL     1      16.055  17.978  45.959  1.00  0.00    -0.003 C 
ATOM      9  C   UNL     1      14.792  17.124  46.026  1.00  0.00     0.004 C 
ENDBRANCH   7   8
ENDBRANCH   6   7
ENDBRANCH   1   6
TORSDOF 5
ENDMDL
MODEL 9
REMARK VINA RESULT:    -2.657     12.552     13.886
REMARK INTER + INTRA:          -3.663
REMARK INTER:                  -3.406
REMARK INTRA:                  -0.257
REMARK UNBOUND:                -0.229
REMARK SMILES CCCCCCC(=O)[O-]
REMARK SMILES IDX 5 1 6 2 7 3 8 4 9 5 4 6 3 7 2 8 1 9
REMARK H PARENT
REMARK Flexibility Score: inf
ROOT
ATOM      1  C   UNL     1      17.345  18.210  49.761  1.00  0.00     0.006 C 
ENDROOT
BRANCH   1   2
ATOM      2  C   UNL     1      15.811  18.269  49.777  1.00  0.00     0.053 C 
BRANCH   2   3
ATOM      3  C   UNL     1      15.247  18.432  48.400  1.00  0.00     0.041 C 
ATOM      4  O   UNL     1      14.060  18.825  48.242  1.00  0.00    -0.550 OA
ATOM      5  O   UNL     1      16.023  18.124  47.289  1.00  0.00    -0.550 OA
ENDBRANCH   2   3
ENDBRANCH   1   2
BRANCH   1   6
ATOM      6  C   UNL     1      17.908  17.420  50.955  1.00  0.00     0.000 C 
BRANCH   6   7
ATOM      7  C   UNL     1      16.824  17.032  51.972  1.00  0.00    -0.000 C 
BRANCH   7   8
ATOM      8  C   UNL     1      16.999  17.742  53.323  1.00  0.00    -0.003 C 
ATOM      9  C   UNL     1      15.749  18.534  53.694  1.00  0.00     0.004 C 
ENDBRANCH   7   8
ENDBRANCH   6   7
ENDBRANCH   1   6
TORSDOF 5
ENDMDL
