MODEL 1
REMARK VINA RESULT:    -2.920      0.000      0.000
REMARK INTER + INTRA:          -3.321
REMARK INTER:                  -3.261
REMARK INTRA:                  -0.060
REMARK UNBOUND:                -0.060
REMARK SMILES CCCC(=O)[O-]
REMARK SMILES IDX 3 1 4 2 5 3 6 4 2 5 1 6
REMARK H PARENT
REMARK Flexibility Score: inf
ROOT
ATOM      1  C   UNL     1     -24.128 -14.962  -1.030  1.00  0.00     0.052 C 
ENDROOT
BRANCH   1   2
ATOM      2  C   UNL     1     -22.832 -14.796  -0.300  1.00  0.00     0.041 C 
ATOM      3  O   UNL     1     -21.947 -15.688  -0.371  1.00  0.00    -0.550 OA
ATOM      4  O   UNL     1     -22.584 -13.634   0.419  1.00  0.00    -0.550 OA
ENDBRANCH   1   2
BRANCH   1   5
ATOM      5  C   UNL     1     -25.306 -14.617  -0.114  1.00  0.00     0.003 C 
ATOM      6  C   UNL     1     -25.635 -15.777   0.821  1.00  0.00     0.004 C 
ENDBRANCH   1   5
TORSDOF 2
ENDMDL
MODEL 2
REMARK VINA RESULT:    -2.888      1.976      2.799
REMARK INTER + INTRA:          -3.286
REMARK INTER:                  -3.280
REMARK INTRA:                  -0.006
REMARK UNBOUND:                -0.060
REMARK SMILES CCCC(=O)[O-]
REMARK SMILES IDX 3 1 4 2 5 3 6 4 2 5 1 6
REMARK H PARENT
REMARK Flexibility Score: inf
ROOT
ATOM      1  C   UNL     1     -24.439 -14.928  -1.011  1.00  0.00     0.052 C 
ENDROOT
BRANCH   1   2
ATOM      2  C   UNL     1     -25.110 -14.885   0.325  1.00  0.00     0.041 C 
ATOM      3  O   UNL     1     -25.976 -15.747   0.626  1.00  0.00    -0.550 OA
ATOM      4  O   UNL     1     -24.745 -13.921   1.255  1.00  0.00    -0.550 OA
ENDBRANCH   1   2
BRANCH   1   5
ATOM      5  C   UNL     1     -22.951 -14.591  -0.874  1.00  0.00     0.003 C 
ATOM      6  C   UNL     1     -22.214 -15.666  -0.080  1.00  0.00     0.004 C 
ENDBRANCH   1   5
TORSDOF 2
ENDMDL
MODEL 3
REMARK VINA RESULT:    -2.848     14.704     15.201
REMARK INTER + INTRA:          -3.242
REMARK INTER:                  -3.214
REMARK INTRA:                  -0.027
REMARK UNBOUND:                -0.060
REMARK SMILES CCCC(=O)[O-]
REMARK SMILES IDX 3 1 4 2 5 3 6 4 2 5 1 6
REMARK H PARENT
REMARK Flexibility Score: inf
ROOT
ATOM      1  C   UNL     1     -29.207  -8.197 -11.146  1.00  0.00     0.052 C 
ENDROOT
BRANCH   1   2
ATOM      2  C   UNL     1     -28.983  -8.229 -12.625  1.00  0.00     0.041 C 
ATOM      3  O   UNL     1     -27.828  -8.051 -13.094  1.00  0.00    -0.550 OA
ATOM      4  O   UNL     1     -30.040  -8.503 -13.482  1.00  0.00    -0.550 OA
ENDBRANCH   1   2
BRANCH   1   5
ATOM      5  C   UNL     1     -28.905  -6.803 -10.589  1.00  0.00     0.003 C 
ATOM      6  C   UNL     1     -29.632  -5.722 -11.385  1.00  0.00     0.004 C 
ENDBRANCH   1   5
TORSDOF 2
ENDMDL
MODEL 4
REMARK VINA RESULT:    -2.836     14.222     14.830
REMARK INTER + INTRA:          -3.228
REMARK INTER:                  -3.192
REMARK INTRA:                  -0.036
REMARK UNBOUND:                -0.060
REMARK SMILES CCCC(=O)[O-]
REMARK SMILES IDX 3 1 4 2 5 3 6 4 2 5 1 6
REMARK H PARENT
REMARK Flexibility Score: inf
ROOT
ATOM      1  C   UNL     1     -29.143  -8.306 -11.227  1.00  0.00     0.052 C 
ENDROOT
BRANCH   1   2
ATOM      2  C   UNL     1     -29.093  -6.972 -10.552  1.00  0.00     0.041 C 
ATOM      3  O   UNL     1     -28.601  -6.864  -9.398  1.00  0.00    -0.550 OA
ATOM      4  O   UNL     1     -29.546  -5.840 -11.217  1.00  0.00    -0.550 OA
ENDBRANCH   1   2
BRANCH   1   5
ATOM      5  C   UNL     1     -28.719  -8.181 -12.693  1.00  0.00     0.003 C 
ATOM      6  C   UNL     1     -29.900  -8.417 -13.630  1.00  0.00     0.004 C 
ENDBRANCH   1   5
TORSDOF 2
ENDMDL
MODEL 5
REMARK VINA RESULT:    -2.801     14.675     15.209
REMARK INTER + INTRA:          -3.189
REMARK INTER:                  -3.159
REMARK INTRA:                  -0.031
REMARK UNBOUND:                -0.060
REMARK SMILES CCCC(=O)[O-]
REMARK SMILES IDX 3 1 4 2 5 3 6 4 2 5 1 6
REMARK H PARENT
REMARK Flexibility Score: inf
ROOT
ATOM      1  C   UNL     1     -29.445  -5.864 -11.410  1.00  0.00     0.052 C 
ENDROOT
BRANCH   1   2
ATOM      2  C   UNL     1     -29.046  -7.015 -10.541  1.00  0.00     0.041 C 
ATOM      3  O   UNL     1     -29.162  -8.195 -10.961  1.00  0.00    -0.550 OA
ATOM      4  O   UNL     1     -28.501  -6.780  -9.285  1.00  0.00    -0.550 OA
ENDBRANCH   1   2
BRANCH   1   5
ATOM      5  C   UNL     1     -29.446  -6.281 -12.883  1.00  0.00     0.003 C 
ATOM      6  C   UNL     1     -30.868  -6.370 -13.430  1.00  0.00     0.004 C 
ENDBRANCH   1   5
TORSDOF 2
ENDMDL
MODEL 6
REMARK VINA RESULT:    -2.782      2.191      2.727
REMARK INTER + INTRA:          -3.168
REMARK INTER:                  -3.139
REMARK INTRA:                  -0.029
REMARK UNBOUND:                -0.060
REMARK SMILES CCCC(=O)[O-]
REMARK SMILES IDX 3 1 4 2 5 3 6 4 2 5 1 6
REMARK H PARENT
REMARK Flexibility Score: inf
ROOT
ATOM      1  C   UNL     1     -22.235 -15.540  -0.005  1.00  0.00     0.052 C 
ENDROOT
BRANCH   1   2
ATOM      2  C   UNL     1     -23.375 -14.991  -0.802  1.00  0.00     0.041 C 
ATOM      3  O   UNL     1     -23.154 -14.311  -1.838  1.00  0.00    -0.550 OA
ATOM      4  O   UNL     1     -24.683 -15.270  -0.428  1.00  0.00    -0.550 OA
ENDBRANCH   1   2
BRANCH   1   5
ATOM      5  C   UNL     1     -22.756 -16.391   1.157  1.00  0.00     0.003 C 
ATOM      6  C   UNL     1     -22.216 -15.888   2.493  1.00  0.00     0.004 C 
ENDBRANCH   1   5
TORSDOF 2
ENDMDL
MODEL 7
REMARK VINA RESULT:    -2.778      2.517      3.193
REMARK INTER + INTRA:          -3.162
REMARK INTER:                  -3.114
REMARK INTRA:                  -0.048
REMARK UNBOUND:                -0.060
REMARK SMILES CCCC(=O)[O-]
REMARK SMILES IDX 3 1 4 2 5 3 6 4 2 5 1 6
REMARK H PARENT
REMARK Flexibility Score: inf
ROOT
ATOM      1  C   UNL     1     -22.740 -15.477   1.207  1.00  0.00     0.052 C 
ENDROOT
BRANCH   1   2
ATOM      2  C   UNL     1     -23.639 -16.650   1.436  1.00  0.00     0.041 C 
ATOM      3  O   UNL     1     -23.151 -17.788   1.661  1.00  0.00    -0.550 OA
ATOM      4  O   UNL     1     -25.017 -16.477   1.449  1.00  0.00    -0.550 OA
ENDBRANCH   1   2
BRANCH   1   5
ATOM      5  C   UNL     1     -22.185 -15.499  -0.220  1.00  0.00     0.003 C 
ATOM      6  C   UNL     1     -23.132 -14.798  -1.190  1.00  0.00     0.004 C 
ENDBRANCH   1   5
TORSDOF 2
ENDMDL
MODEL 8
REMARK VINA RESULT:    -2.770     15.794     16.306
REMARK INTER + INTRA:          -3.154
REMARK INTER:                  -3.100
REMARK INTRA:                  -0.054
REMARK UNBOUND:                -0.060
REMARK SMILES CCCC(=O)[O-]
REMARK SMILES IDX 3 1 4 2 5 3 6 4 2 5 1 6
REMARK H PARENT
REMARK Flexibility Score: inf
ROOT
ATOM      1  C   UNL     1     -29.186  -6.114 -12.772  1.00  0.00     0.052 C 
ENDROOT
BRANCH   1   2
ATOM      2  C   UNL     1     -30.291  -6.976 -13.295  1.00  0.00     0.041 C 
ATOM      3  O   UNL     1     -31.399  -6.466 -13.606  1.00  0.00    -0.550 OA
ATOM      4  O   UNL     1     -30.080  -8.336 -13.484  1.00  0.00    -0.550 OA
ENDBRANCH   1   2
BRANCH   1   5
ATOM      5  C   UNL     1     -29.482  -5.678 -11.334  1.00  0.00     0.003 C 
ATOM      6  C   UNL     1     -29.072  -6.757 -10.335  1.00  0.00     0.004 C 
ENDBRANCH   1   5
TORSDOF 2
ENDMDL
MODEL 9
REMARK VINA RESULT:    -2.665      2.272      3.264
REMARK INTER + INTRA:          -3.037
REMARK INTER:                  -2.982
REMARK INTRA:                  -0.055
REMARK UNBOUND:                -0.060
REMARK SMILES CCCC(=O)[O-]
REMARK SMILES IDX 3 1 4 2 5 3 6 4 2 5 1 6
REMARK H PARENT
REMARK Flexibility Score: inf
ROOT
ATOM      1  C   UNL     1     -23.207 -16.388   1.037  1.00  0.00     0.052 C 
ENDROOT
BRANCH   1   2
ATOM      2  C   UNL     1     -24.450 -15.658   1.435  1.00  0.00     0.041 C 
ATOM      3  O   UNL     1     -24.381 -14.657   2.194  1.00  0.00    -0.550 OA
ATOM      4  O   UNL     1     -25.681 -16.056   0.928  1.00  0.00    -0.550 OA
ENDBRANCH   1   2
BRANCH   1   5
ATOM      5  C   UNL     1     -22.279 -15.468   0.237  1.00  0.00     0.003 C 
ATOM      6  C   UNL     1     -22.979 -14.926  -1.006  1.00  0.00     0.004 C 
ENDBRANCH   1   5
TORSDOF 2
ENDMDL
