MODEL 1
REMARK VINA RESULT:     0.000      0.000      0.000
REMARK INTER + INTRA:           0.000
REMARK INTER:                   0.000
REMARK INTRA:                   0.000
REMARK UNBOUND:                 0.000
REMARK SMILES CC(=O)[O-]
REMARK SMILES IDX 1 1 2 2 3 3 4 4
REMARK H PARENT
REMARK Flexibility Score: inf
ROOT
ATOM      1  C   UNL     1     189.522 195.141 200.583  1.00  0.00     0.063 C 
ATOM      2  C   UNL     1     189.713 196.228 199.580  1.00  0.00     0.038 C 
ATOM      3  O   UNL     1     188.717 196.834 199.108  1.00  0.00    -0.550 OA
ATOM      4  O   UNL     1     190.988 196.538 199.122  1.00  0.00    -0.550 OA
ENDROOT
TORSDOF 0
ENDMDL
MODEL 2
REMARK VINA RESULT:     0.000     25.722     25.840
REMARK INTER + INTRA:           0.000
REMARK INTER:                   0.000
REMARK INTRA:                   0.000
REMARK UNBOUND:                 0.000
REMARK SMILES CC(=O)[O-]
REMARK SMILES IDX 1 1 2 2 3 3 4 4
REMARK H PARENT
REMARK Flexibility Score: inf
ROOT
ATOM      1  C   UNL     1     184.567 177.127 181.631  1.00  0.00     0.063 C 
ATOM      2  C   UNL     1     184.147 178.557 181.675  1.00  0.00     0.038 C 
ATOM      3  O   UNL     1     185.012 179.470 181.658  1.00  0.00    -0.550 OA
ATOM      4  O   UNL     1     182.802 178.884 181.791  1.00  0.00    -0.550 OA
ENDROOT
TORSDOF 0
ENDMDL
MODEL 3
REMARK VINA RESULT:     0.000     20.121     20.310
REMARK INTER + INTRA:           0.000
REMARK INTER:                   0.000
REMARK INTRA:                   0.000
REMARK UNBOUND:                 0.000
REMARK SMILES CC(=O)[O-]
REMARK SMILES IDX 1 1 2 2 3 3 4 4
REMARK H PARENT
REMARK Flexibility Score: inf
ROOT
ATOM      1  C   UNL     1     184.567 189.297 181.631  1.00  0.00     0.063 C 
ATOM      2  C   UNL     1     184.615 187.823 181.858  1.00  0.00     0.038 C 
ATOM      3  O   UNL     1     183.548 187.174 182.012  1.00  0.00    -0.550 OA
ATOM      4  O   UNL     1     185.838 187.172 181.954  1.00  0.00    -0.550 OA
ENDROOT
TORSDOF 0
ENDMDL
MODEL 4
REMARK VINA RESULT:     0.000     20.075     20.409
REMARK INTER + INTRA:           0.000
REMARK INTER:                   0.000
REMARK INTRA:                   0.000
REMARK UNBOUND:                 0.000
REMARK SMILES CC(=O)[O-]
REMARK SMILES IDX 1 1 2 2 3 3 4 4
REMARK H PARENT
REMARK Flexibility Score: inf
ROOT
ATOM      1  C   UNL     1     182.904 189.949 181.134  1.00  0.00     0.063 C 
ATOM      2  C   UNL     1     182.097 189.200 182.140  1.00  0.00     0.038 C 
ATOM      3  O   UNL     1     181.570 189.809 183.107  1.00  0.00    -0.550 OA
ATOM      4  O   UNL     1     181.970 187.820 182.043  1.00  0.00    -0.550 OA
ENDROOT
TORSDOF 0
ENDMDL
MODEL 5
REMARK VINA RESULT:     0.000     16.821     17.080
REMARK INTER + INTRA:           0.000
REMARK INTER:                   0.000
REMARK INTRA:                   0.000
REMARK UNBOUND:                 0.000
REMARK SMILES CC(=O)[O-]
REMARK SMILES IDX 1 1 2 2 3 3 4 4
REMARK H PARENT
REMARK Flexibility Score: inf
ROOT
ATOM      1  C   UNL     1     182.904 189.949 185.686  1.00  0.00     0.063 C 
ATOM      2  C   UNL     1     184.168 189.558 184.998  1.00  0.00     0.038 C 
ATOM      3  O   UNL     1     185.215 190.236 185.166  1.00  0.00    -0.550 OA
ATOM      4  O   UNL     1     184.181 188.477 184.126  1.00  0.00    -0.550 OA
ENDROOT
TORSDOF 0
ENDMDL
MODEL 6
REMARK VINA RESULT:     0.000     15.932     16.234
REMARK INTER + INTRA:           0.000
REMARK INTER:                   0.000
REMARK INTRA:                   0.000
REMARK UNBOUND:                 0.000
REMARK SMILES CC(=O)[O-]
REMARK SMILES IDX 1 1 2 2 3 3 4 4
REMARK H PARENT
REMARK Flexibility Score: inf
ROOT
ATOM      1  C   UNL     1     182.584 191.232 185.401  1.00  0.00     0.063 C 
ATOM      2  C   UNL     1     183.940 191.817 185.192  1.00  0.00     0.038 C 
ATOM      3  O   UNL     1     184.541 192.375 186.146  1.00  0.00    -0.550 OA
ATOM      4  O   UNL     1     184.520 191.796 183.930  1.00  0.00    -0.550 OA
ENDROOT
TORSDOF 0
ENDMDL
MODEL 7
REMARK VINA RESULT:     0.000     21.274     21.736
REMARK INTER + INTRA:           0.000
REMARK INTER:                   0.000
REMARK INTRA:                   0.000
REMARK UNBOUND:                 0.000
REMARK SMILES CC(=O)[O-]
REMARK SMILES IDX 1 1 2 2 3 3 4 4
REMARK H PARENT
REMARK Flexibility Score: inf
ROOT
ATOM      1  C   UNL     1     178.717 192.299 181.458  1.00  0.00     0.063 C 
ATOM      2  C   UNL     1     177.443 192.064 182.196  1.00  0.00     0.038 C 
ATOM      3  O   UNL     1     176.348 192.440 181.702  1.00  0.00    -0.550 OA
ATOM      4  O   UNL     1     177.466 191.479 183.456  1.00  0.00    -0.550 OA
ENDROOT
TORSDOF 0
ENDMDL
MODEL 8
REMARK VINA RESULT:     0.000     20.225     20.731
REMARK INTER + INTRA:           0.000
REMARK INTER:                   0.000
REMARK INTRA:                   0.000
REMARK UNBOUND:                 0.000
REMARK SMILES CC(=O)[O-]
REMARK SMILES IDX 1 1 2 2 3 3 4 4
REMARK H PARENT
REMARK Flexibility Score: inf
ROOT
ATOM      1  C   UNL     1     178.746 194.138 182.102  1.00  0.00     0.063 C 
ATOM      2  C   UNL     1     177.555 194.383 182.965  1.00  0.00     0.038 C 
ATOM      3  O   UNL     1     176.505 194.869 182.470  1.00  0.00    -0.550 OA
ATOM      4  O   UNL     1     177.619 194.127 184.328  1.00  0.00    -0.550 OA
ENDROOT
TORSDOF 0
ENDMDL
MODEL 9
REMARK VINA RESULT:     0.000     11.733     12.347
REMARK INTER + INTRA:           0.000
REMARK INTER:                   0.000
REMARK INTRA:                   0.000
REMARK UNBOUND:                 0.000
REMARK SMILES CC(=O)[O-]
REMARK SMILES IDX 1 1 2 2 3 3 4 4
REMARK H PARENT
REMARK Flexibility Score: inf
ROOT
ATOM      1  C   UNL     1     178.746 194.138 197.888  1.00  0.00     0.063 C 
ATOM      2  C   UNL     1     177.997 194.425 196.630  1.00  0.00     0.038 C 
ATOM      3  O   UNL     1     178.620 194.601 195.551  1.00  0.00    -0.550 OA
ATOM      4  O   UNL     1     176.615 194.554 196.657  1.00  0.00    -0.550 OA
ENDROOT
TORSDOF 0
ENDMDL
