MODEL 1
REMARK VINA RESULT:     2.896      0.000      0.000
REMARK INTER + INTRA:           5.795
REMARK INTER:                   7.635
REMARK INTRA:                  -1.840
REMARK UNBOUND:                -1.840
REMARK SMILES CCCCCCCCCCCCCCCCCCCCCCCCCCCCCC(=O)[O-]
REMARK SMILES IDX 16 1 17 2 18 3 19 4 20 5 21 6 22 7 23 8 24 9 25 10 26 11
REMARK SMILES IDX 27 12 28 13 29 14 30 15 31 16 32 17 15 18 14 19 13 20 12 21
REMARK SMILES IDX 11 22 10 23 9 24 8 25 7 26 6 27 5 28 4 29 3 30 2 31 1 32
REMARK H PARENT
REMARK Flexibility Score: inf
ROOT
ATOM      1  C   UNL     1      -6.430   7.894   2.702  1.00  0.00     0.000 C 
ENDROOT
BRANCH   1   2
ATOM      2  C   UNL     1      -6.885   9.333   3.006  1.00  0.00     0.000 C 
BRANCH   2   3
ATOM      3  C   UNL     1      -8.134   9.732   2.203  1.00  0.00     0.000 C 
BRANCH   3   4
ATOM      4  C   UNL     1      -9.434   9.603   3.017  1.00  0.00     0.000 C 
BRANCH   4   5
ATOM      5  C   UNL     1      -9.619   8.196   3.608  1.00  0.00     0.000 C 
BRANCH   5   6
ATOM      6  C   UNL     1     -10.078   8.223   5.076  1.00  0.00     0.000 C 
BRANCH   6   7
ATOM      7  C   UNL     1      -8.905   8.105   6.064  1.00  0.00     0.000 C 
BRANCH   7   8
ATOM      8  C   UNL     1      -8.300   9.474   6.417  1.00  0.00     0.000 C 
BRANCH   8   9
ATOM      9  C   UNL     1      -6.803   9.397   6.774  1.00  0.00     0.000 C 
BRANCH   9  10
ATOM     10  C   UNL     1      -6.488   9.380   8.281  1.00  0.00     0.000 C 
BRANCH  10  11
ATOM     11  C   UNL     1      -5.271   8.510   8.632  1.00  0.00     0.000 C 
BRANCH  11  12
ATOM     12  C   UNL     1      -5.680   7.319   9.513  1.00  0.00     0.000 C 
BRANCH  12  13
ATOM     13  C   UNL     1      -5.720   5.992   8.737  1.00  0.00     0.006 C 
BRANCH  13  14
ATOM     14  C   UNL     1      -7.102   5.691   8.143  1.00  0.00     0.053 C 
BRANCH  14  15
ATOM     15  C   UNL     1      -7.875   4.782   9.047  1.00  0.00     0.041 C 
ATOM     16  O   UNL     1      -9.075   5.042   9.332  1.00  0.00    -0.550 OA
ATOM     17  O   UNL     1      -7.266   3.661   9.596  1.00  0.00    -0.550 OA
ENDBRANCH  14  15
ENDBRANCH  13  14
ENDBRANCH  12  13
ENDBRANCH  11  12
ENDBRANCH  10  11
ENDBRANCH   9  10
ENDBRANCH   8   9
ENDBRANCH   7   8
ENDBRANCH   6   7
ENDBRANCH   5   6
ENDBRANCH   4   5
ENDBRANCH   3   4
ENDBRANCH   2   3
ENDBRANCH   1   2
BRANCH   1  18
ATOM     18  C   UNL     1      -4.962   7.821   2.250  1.00  0.00     0.000 C 
BRANCH  18  19
ATOM     19  C   UNL     1      -4.529   6.395   1.873  1.00  0.00     0.000 C 
BRANCH  19  20
ATOM     20  C   UNL     1      -3.028   6.342   1.550  1.00  0.00     0.000 C 
BRANCH  20  21
ATOM     21  C   UNL     1      -2.471   4.907   1.514  1.00  0.00     0.000 C 
BRANCH  21  22
ATOM     22  C   UNL     1      -0.936   4.805   1.417  1.00  0.00     0.000 C 
BRANCH  22  23
ATOM     23  C   UNL     1      -0.390   3.399   1.102  1.00  0.00     0.000 C 
BRANCH  23  24
ATOM     24  C   UNL     1       1.078   3.390   0.625  1.00  0.00    -0.000 C 
BRANCH  24  25
ATOM     25  C   UNL     1       1.363   2.275  -0.397  1.00  0.00    -0.000 C 
BRANCH  25  26
ATOM     26  C   UNL     1       2.212   1.138   0.191  1.00  0.00    -0.000 C 
BRANCH  26  27
ATOM     27  C   UNL     1       2.835   0.244  -0.891  1.00  0.00    -0.000 C 
BRANCH  27  28
ATOM     28  C   UNL     1       3.435  -1.025  -0.273  1.00  0.00    -0.000 C 
BRANCH  28  29
ATOM     29  C   UNL     1       2.645  -2.273  -0.699  1.00  0.00    -0.000 C 
BRANCH  29  30
ATOM     30  C   UNL     1       2.535  -2.421  -2.228  1.00  0.00    -0.000 C 
BRANCH  30  31
ATOM     31  C   UNL     1       1.127  -2.767  -2.745  1.00  0.00    -0.003 C 
ATOM     32  C   UNL     1       0.988  -4.229  -3.171  1.00  0.00     0.004 C 
ENDBRANCH  30  31
ENDBRANCH  29  30
ENDBRANCH  28  29
ENDBRANCH  27  28
ENDBRANCH  26  27
ENDBRANCH  25  26
ENDBRANCH  24  25
ENDBRANCH  23  24
ENDBRANCH  22  23
ENDBRANCH  21  22
ENDBRANCH  20  21
ENDBRANCH  19  20
ENDBRANCH  18  19
ENDBRANCH   1  18
TORSDOF 28
ENDMDL
MODEL 2
REMARK VINA RESULT:     3.016      4.032     12.390
REMARK INTER + INTRA:           6.114
REMARK INTER:                   8.564
REMARK INTRA:                  -2.451
REMARK UNBOUND:                -1.840
REMARK SMILES CCCCCCCCCCCCCCCCCCCCCCCCCCCCCC(=O)[O-]
REMARK SMILES IDX 16 1 17 2 18 3 19 4 20 5 21 6 22 7 23 8 24 9 25 10 26 11
REMARK SMILES IDX 27 12 28 13 29 14 30 15 31 16 32 17 15 18 14 19 13 20 12 21
REMARK SMILES IDX 11 22 10 23 9 24 8 25 7 26 6 27 5 28 4 29 3 30 2 31 1 32
REMARK H PARENT
REMARK Flexibility Score: inf
ROOT
ATOM      1  C   UNL     1      -7.749   8.804   4.007  1.00  0.00     0.000 C 
ENDROOT
BRANCH   1   2
ATOM      2  C   UNL     1      -6.611   9.044   2.999  1.00  0.00     0.000 C 
BRANCH   2   3
ATOM      3  C   UNL     1      -6.053   7.732   2.425  1.00  0.00     0.000 C 
BRANCH   3   4
ATOM      4  C   UNL     1      -4.525   7.764   2.239  1.00  0.00     0.000 C 
BRANCH   4   5
ATOM      5  C   UNL     1      -4.018   6.617   1.348  1.00  0.00     0.000 C 
BRANCH   5   6
ATOM      6  C   UNL     1      -2.702   6.006   1.858  1.00  0.00     0.000 C 
BRANCH   6   7
ATOM      7  C   UNL     1      -2.284   4.757   1.064  1.00  0.00     0.000 C 
BRANCH   7   8
ATOM      8  C   UNL     1      -1.201   3.940   1.789  1.00  0.00     0.000 C 
BRANCH   8   9
ATOM      9  C   UNL     1       0.170   4.003   1.091  1.00  0.00     0.000 C 
BRANCH   9  10
ATOM     10  C   UNL     1       0.425   2.901   0.045  1.00  0.00     0.000 C 
BRANCH  10  11
ATOM     11  C   UNL     1       1.639   3.190  -0.851  1.00  0.00     0.000 C 
BRANCH  11  12
ATOM     12  C   UNL     1       2.206   1.893  -1.448  1.00  0.00     0.000 C 
BRANCH  12  13
ATOM     13  C   UNL     1       2.432   0.801  -0.391  1.00  0.00     0.006 C 
BRANCH  13  14
ATOM     14  C   UNL     1       3.346  -0.328  -0.885  1.00  0.00     0.053 C 
BRANCH  14  15
ATOM     15  C   UNL     1       2.626  -1.640  -0.850  1.00  0.00     0.041 C 
ATOM     16  O   UNL     1       2.777  -2.471  -1.785  1.00  0.00    -0.550 OA
ATOM     17  O   UNL     1       1.770  -1.937   0.202  1.00  0.00    -0.550 OA
ENDBRANCH  14  15
ENDBRANCH  13  14
ENDBRANCH  12  13
ENDBRANCH  11  12
ENDBRANCH  10  11
ENDBRANCH   9  10
ENDBRANCH   8   9
ENDBRANCH   7   8
ENDBRANCH   6   7
ENDBRANCH   5   6
ENDBRANCH   4   5
ENDBRANCH   3   4
ENDBRANCH   2   3
ENDBRANCH   1   2
BRANCH   1  18
ATOM     18  C   UNL     1      -8.526   7.508   3.725  1.00  0.00     0.000 C 
BRANCH  18  19
ATOM     19  C   UNL     1      -9.714   7.310   4.681  1.00  0.00     0.000 C 
BRANCH  19  20
ATOM     20  C   UNL     1      -9.414   6.211   5.711  1.00  0.00     0.000 C 
BRANCH  20  21
ATOM     21  C   UNL     1      -8.871   6.765   7.042  1.00  0.00     0.000 C 
BRANCH  21  22
ATOM     22  C   UNL     1      -9.924   7.427   7.951  1.00  0.00     0.000 C 
BRANCH  22  23
ATOM     23  C   UNL     1      -9.827   8.962   8.059  1.00  0.00     0.000 C 
BRANCH  23  24
ATOM     24  C   UNL     1      -9.400   9.466   9.454  1.00  0.00    -0.000 C 
BRANCH  24  25
ATOM     25  C   UNL     1      -7.892   9.764   9.541  1.00  0.00    -0.000 C 
BRANCH  25  26
ATOM     26  C   UNL     1      -7.253   9.982   8.162  1.00  0.00    -0.000 C 
BRANCH  26  27
ATOM     27  C   UNL     1      -6.079   9.027   7.896  1.00  0.00    -0.000 C 
BRANCH  27  28
ATOM     28  C   UNL     1      -5.762   8.190   9.140  1.00  0.00    -0.000 C 
BRANCH  28  29
ATOM     29  C   UNL     1      -4.912   6.962   8.776  1.00  0.00    -0.000 C 
BRANCH  29  30
ATOM     30  C   UNL     1      -5.431   5.661   9.418  1.00  0.00    -0.000 C 
BRANCH  30  31
ATOM     31  C   UNL     1      -6.963   5.561   9.530  1.00  0.00    -0.003 C 
ATOM     32  C   UNL     1      -7.456   4.127   9.725  1.00  0.00     0.004 C 
ENDBRANCH  30  31
ENDBRANCH  29  30
ENDBRANCH  28  29
ENDBRANCH  27  28
ENDBRANCH  26  27
ENDBRANCH  25  26
ENDBRANCH  24  25
ENDBRANCH  23  24
ENDBRANCH  22  23
ENDBRANCH  21  22
ENDBRANCH  20  21
ENDBRANCH  19  20
ENDBRANCH  18  19
ENDBRANCH   1  18
TORSDOF 28
ENDMDL
MODEL 3
REMARK VINA RESULT:     3.130      4.453     11.401
REMARK INTER + INTRA:           6.415
REMARK INTER:                   7.530
REMARK INTRA:                  -1.116
REMARK UNBOUND:                -1.840
REMARK SMILES CCCCCCCCCCCCCCCCCCCCCCCCCCCCCC(=O)[O-]
REMARK SMILES IDX 16 1 17 2 18 3 19 4 20 5 21 6 22 7 23 8 24 9 25 10 26 11
REMARK SMILES IDX 27 12 28 13 29 14 30 15 31 16 32 17 15 18 14 19 13 20 12 21
REMARK SMILES IDX 11 22 10 23 9 24 8 25 7 26 6 27 5 28 4 29 3 30 2 31 1 32
REMARK H PARENT
REMARK Flexibility Score: inf
ROOT
ATOM      1  C   UNL     1      -7.830   8.873   5.032  1.00  0.00     0.000 C 
ENDROOT
BRANCH   1   2
ATOM      2  C   UNL     1      -7.255  10.064   4.245  1.00  0.00     0.000 C 
BRANCH   2   3
ATOM      3  C   UNL     1      -6.689   9.644   2.879  1.00  0.00     0.000 C 
BRANCH   3   4
ATOM      4  C   UNL     1      -6.302   8.155   2.825  1.00  0.00     0.000 C 
BRANCH   4   5
ATOM      5  C   UNL     1      -4.968   7.922   2.098  1.00  0.00     0.000 C 
BRANCH   5   6
ATOM      6  C   UNL     1      -4.466   6.474   2.226  1.00  0.00     0.000 C 
BRANCH   6   7
ATOM      7  C   UNL     1      -3.347   6.144   1.224  1.00  0.00     0.000 C 
BRANCH   7   8
ATOM      8  C   UNL     1      -2.314   5.165   1.805  1.00  0.00     0.000 C 
BRANCH   8   9
ATOM      9  C   UNL     1      -1.918   4.050   0.818  1.00  0.00     0.000 C 
BRANCH   9  10
ATOM     10  C   UNL     1      -0.431   3.650   0.842  1.00  0.00     0.000 C 
BRANCH  10  11
ATOM     11  C   UNL     1      -0.050   2.825   2.081  1.00  0.00     0.000 C 
BRANCH  11  12
ATOM     12  C   UNL     1       1.277   3.314   2.683  1.00  0.00     0.000 C 
BRANCH  12  13
ATOM     13  C   UNL     1       1.122   3.829   4.123  1.00  0.00     0.006 C 
BRANCH  13  14
ATOM     14  C   UNL     1       1.073   5.360   4.206  1.00  0.00     0.053 C 
BRANCH  14  15
ATOM     15  C   UNL     1       1.696   5.973   2.991  1.00  0.00     0.041 C 
ATOM     16  O   UNL     1       2.626   6.814   3.111  1.00  0.00    -0.550 OA
ATOM     17  O   UNL     1       1.232   5.636   1.725  1.00  0.00    -0.550 OA
ENDBRANCH  14  15
ENDBRANCH  13  14
ENDBRANCH  12  13
ENDBRANCH  11  12
ENDBRANCH  10  11
ENDBRANCH   9  10
ENDBRANCH   8   9
ENDBRANCH   7   8
ENDBRANCH   6   7
ENDBRANCH   5   6
ENDBRANCH   4   5
ENDBRANCH   3   4
ENDBRANCH   2   3
ENDBRANCH   1   2
BRANCH   1  18
ATOM     18  C   UNL     1      -9.326   8.649   4.758  1.00  0.00     0.000 C 
BRANCH  18  19
ATOM     19  C   UNL     1      -9.954   7.615   5.707  1.00  0.00     0.000 C 
BRANCH  19  20
ATOM     20  C   UNL     1      -9.043   6.389   5.866  1.00  0.00     0.000 C 
BRANCH  20  21
ATOM     21  C   UNL     1      -8.451   6.258   7.282  1.00  0.00     0.000 C 
BRANCH  21  22
ATOM     22  C   UNL     1      -9.351   5.534   8.302  1.00  0.00     0.000 C 
BRANCH  22  23
ATOM     23  C   UNL     1      -9.608   6.302   9.613  1.00  0.00     0.000 C 
BRANCH  23  24
ATOM     24  C   UNL     1      -8.737   7.565   9.780  1.00  0.00    -0.000 C 
BRANCH  24  25
ATOM     25  C   UNL     1      -9.338   8.797   9.079  1.00  0.00    -0.000 C 
BRANCH  25  26
ATOM     26  C   UNL     1      -8.359   9.978   9.017  1.00  0.00    -0.000 C 
BRANCH  26  27
ATOM     27  C   UNL     1      -7.102   9.662   8.193  1.00  0.00    -0.000 C 
BRANCH  27  28
ATOM     28  C   UNL     1      -5.836  10.119   8.928  1.00  0.00    -0.000 C 
BRANCH  28  29
ATOM     29  C   UNL     1      -4.829   8.966   9.061  1.00  0.00    -0.000 C 
BRANCH  29  30
ATOM     30  C   UNL     1      -5.443   7.591   8.735  1.00  0.00    -0.000 C 
BRANCH  30  31
ATOM     31  C   UNL     1      -5.557   6.633   9.934  1.00  0.00    -0.003 C 
ATOM     32  C   UNL     1      -5.512   5.160   9.528  1.00  0.00     0.004 C 
ENDBRANCH  30  31
ENDBRANCH  29  30
ENDBRANCH  28  29
ENDBRANCH  27  28
ENDBRANCH  26  27
ENDBRANCH  25  26
ENDBRANCH  24  25
ENDBRANCH  23  24
ENDBRANCH  22  23
ENDBRANCH  21  22
ENDBRANCH  20  21
ENDBRANCH  19  20
ENDBRANCH  18  19
ENDBRANCH   1  18
TORSDOF 28
ENDMDL
MODEL 4
REMARK VINA RESULT:     3.332      4.451     12.349
REMARK INTER + INTRA:           6.947
REMARK INTER:                   9.487
REMARK INTRA:                  -2.541
REMARK UNBOUND:                -1.840
REMARK SMILES CCCCCCCCCCCCCCCCCCCCCCCCCCCCCC(=O)[O-]
REMARK SMILES IDX 16 1 17 2 18 3 19 4 20 5 21 6 22 7 23 8 24 9 25 10 26 11
REMARK SMILES IDX 27 12 28 13 29 14 30 15 31 16 32 17 15 18 14 19 13 20 12 21
REMARK SMILES IDX 11 22 10 23 9 24 8 25 7 26 6 27 5 28 4 29 3 30 2 31 1 32
REMARK H PARENT
REMARK Flexibility Score: inf
ROOT
ATOM      1  C   UNL     1      -6.813   8.912   3.407  1.00  0.00     0.000 C 
ENDROOT
BRANCH   1   2
ATOM      2  C   UNL     1      -5.668   8.798   2.385  1.00  0.00     0.000 C 
BRANCH   2   3
ATOM      3  C   UNL     1      -5.196   7.347   2.196  1.00  0.00     0.000 C 
BRANCH   3   4
ATOM      4  C   UNL     1      -3.690   7.244   1.894  1.00  0.00     0.000 C 
BRANCH   4   5
ATOM      5  C   UNL     1      -3.333   5.964   1.121  1.00  0.00     0.000 C 
BRANCH   5   6
ATOM      6  C   UNL     1      -2.577   4.939   1.985  1.00  0.00     0.000 C 
BRANCH   6   7
ATOM      7  C   UNL     1      -1.463   4.219   1.208  1.00  0.00     0.000 C 
BRANCH   7   8
ATOM      8  C   UNL     1      -0.061   4.585   1.723  1.00  0.00     0.000 C 
BRANCH   8   9
ATOM      9  C   UNL     1       1.070   4.064   0.817  1.00  0.00     0.000 C 
BRANCH   9  10
ATOM     10  C   UNL     1       0.685   2.893  -0.105  1.00  0.00     0.000 C 
BRANCH  10  11
ATOM     11  C   UNL     1       1.594   2.774  -1.339  1.00  0.00     0.000 C 
BRANCH  11  12
ATOM     12  C   UNL     1       2.323   1.421  -1.359  1.00  0.00     0.000 C 
BRANCH  12  13
ATOM     13  C   UNL     1       2.587   0.867   0.050  1.00  0.00     0.006 C 
BRANCH  13  14
ATOM     14  C   UNL     1       2.318  -0.639   0.159  1.00  0.00     0.053 C 
BRANCH  14  15
ATOM     15  C   UNL     1       3.209  -1.401  -0.771  1.00  0.00     0.041 C 
ATOM     16  O   UNL     1       2.713  -2.100  -1.694  1.00  0.00    -0.550 OA
ATOM     17  O   UNL     1       4.588  -1.360  -0.604  1.00  0.00    -0.550 OA
ENDBRANCH  14  15
ENDBRANCH  13  14
ENDBRANCH  12  13
ENDBRANCH  11  12
ENDBRANCH  10  11
ENDBRANCH   9  10
ENDBRANCH   8   9
ENDBRANCH   7   8
ENDBRANCH   6   7
ENDBRANCH   5   6
ENDBRANCH   4   5
ENDBRANCH   3   4
ENDBRANCH   2   3
ENDBRANCH   1   2
BRANCH   1  18
ATOM     18  C   UNL     1      -7.868   7.807   3.241  1.00  0.00     0.000 C 
BRANCH  18  19
ATOM     19  C   UNL     1      -9.297   8.306   3.512  1.00  0.00     0.000 C 
BRANCH  19  20
ATOM     20  C   UNL     1     -10.080   7.298   4.366  1.00  0.00     0.000 C 
BRANCH  20  21
ATOM     21  C   UNL     1      -9.507   7.140   5.787  1.00  0.00     0.000 C 
BRANCH  21  22
ATOM     22  C   UNL     1      -9.211   8.461   6.522  1.00  0.00     0.000 C 
BRANCH  22  23
ATOM     23  C   UNL     1      -7.773   8.607   7.058  1.00  0.00     0.000 C 
BRANCH  23  24
ATOM     24  C   UNL     1      -7.692   9.206   8.479  1.00  0.00    -0.000 C 
BRANCH  24  25
ATOM     25  C   UNL     1      -6.742   8.420   9.400  1.00  0.00    -0.000 C 
BRANCH  25  26
ATOM     26  C   UNL     1      -5.560   7.801   8.639  1.00  0.00    -0.000 C 
BRANCH  26  27
ATOM     27  C   UNL     1      -5.406   6.297   8.907  1.00  0.00    -0.000 C 
BRANCH  27  28
ATOM     28  C   UNL     1      -6.392   5.829   9.984  1.00  0.00    -0.000 C 
BRANCH  28  29
ATOM     29  C   UNL     1      -6.693   4.328   9.842  1.00  0.00    -0.000 C 
BRANCH  29  30
ATOM     30  C   UNL     1      -8.172   4.040   9.523  1.00  0.00    -0.000 C 
BRANCH  30  31
ATOM     31  C   UNL     1      -8.857   5.089   8.629  1.00  0.00    -0.003 C 
ATOM     32  C   UNL     1      -9.711   6.081   9.417  1.00  0.00     0.004 C 
ENDBRANCH  30  31
ENDBRANCH  29  30
ENDBRANCH  28  29
ENDBRANCH  27  28
ENDBRANCH  26  27
ENDBRANCH  25  26
ENDBRANCH  24  25
ENDBRANCH  23  24
ENDBRANCH  22  23
ENDBRANCH  21  22
ENDBRANCH  20  21
ENDBRANCH  19  20
ENDBRANCH  18  19
ENDBRANCH   1  18
TORSDOF 28
ENDMDL
MODEL 5
REMARK VINA RESULT:     3.379      1.546      2.422
REMARK INTER + INTRA:           7.071
REMARK INTER:                   8.677
REMARK INTRA:                  -1.606
REMARK UNBOUND:                -1.840
REMARK SMILES CCCCCCCCCCCCCCCCCCCCCCCCCCCCCC(=O)[O-]
REMARK SMILES IDX 16 1 17 2 18 3 19 4 20 5 21 6 22 7 23 8 24 9 25 10 26 11
REMARK SMILES IDX 27 12 28 13 29 14 30 15 31 16 32 17 15 18 14 19 13 20 12 21
REMARK SMILES IDX 11 22 10 23 9 24 8 25 7 26 6 27 5 28 4 29 3 30 2 31 1 32
REMARK H PARENT
REMARK Flexibility Score: inf
ROOT
ATOM      1  C   UNL     1      -5.002   7.917   2.123  1.00  0.00     0.000 C 
ENDROOT
BRANCH   1   2
ATOM      2  C   UNL     1      -6.445   8.027   2.646  1.00  0.00     0.000 C 
BRANCH   2   3
ATOM      3  C   UNL     1      -6.791   9.450   3.113  1.00  0.00     0.000 C 
BRANCH   3   4
ATOM      4  C   UNL     1      -7.304   9.495   4.564  1.00  0.00     0.000 C 
BRANCH   4   5
ATOM      5  C   UNL     1      -8.812   9.787   4.643  1.00  0.00     0.000 C 
BRANCH   5   6
ATOM      6  C   UNL     1      -9.649   8.831   3.778  1.00  0.00     0.000 C 
BRANCH   6   7
ATOM      7  C   UNL     1      -9.659   7.393   4.324  1.00  0.00     0.000 C 
BRANCH   7   8
ATOM      8  C   UNL     1      -9.853   7.350   5.849  1.00  0.00     0.000 C 
BRANCH   8   9
ATOM      9  C   UNL     1      -9.383   6.026   6.480  1.00  0.00     0.000 C 
BRANCH   9  10
ATOM     10  C   UNL     1      -9.340   6.011   8.019  1.00  0.00     0.000 C 
BRANCH  10  11
ATOM     11  C   UNL     1      -9.656   4.631   8.617  1.00  0.00     0.000 C 
BRANCH  11  12
ATOM     12  C   UNL     1      -8.483   4.115   9.465  1.00  0.00     0.000 C 
BRANCH  12  13
ATOM     13  C   UNL     1      -7.609   5.250  10.023  1.00  0.00     0.006 C 
BRANCH  13  14
ATOM     14  C   UNL     1      -6.114   5.037   9.753  1.00  0.00     0.053 C 
BRANCH  14  15
ATOM     15  C   UNL     1      -5.495   6.286   9.208  1.00  0.00     0.041 C 
ATOM     16  O   UNL     1      -6.200   7.314   9.023  1.00  0.00    -0.550 OA
ATOM     17  O   UNL     1      -4.146   6.309   8.879  1.00  0.00    -0.550 OA
ENDBRANCH  14  15
ENDBRANCH  13  14
ENDBRANCH  12  13
ENDBRANCH  11  12
ENDBRANCH  10  11
ENDBRANCH   9  10
ENDBRANCH   8   9
ENDBRANCH   7   8
ENDBRANCH   6   7
ENDBRANCH   5   6
ENDBRANCH   4   5
ENDBRANCH   3   4
ENDBRANCH   2   3
ENDBRANCH   1   2
BRANCH   1  18
ATOM     18  C   UNL     1      -4.429   6.497   2.260  1.00  0.00     0.000 C 
BRANCH  18  19
ATOM     19  C   UNL     1      -3.398   6.167   1.168  1.00  0.00     0.000 C 
BRANCH  19  20
ATOM     20  C   UNL     1      -2.003   5.951   1.775  1.00  0.00     0.000 C 
BRANCH  20  21
ATOM     21  C   UNL     1      -1.201   4.846   1.062  1.00  0.00     0.000 C 
BRANCH  21  22
ATOM     22  C   UNL     1      -0.015   4.279   1.865  1.00  0.00     0.000 C 
BRANCH  22  23
ATOM     23  C   UNL     1       0.562   2.951   1.336  1.00  0.00     0.000 C 
BRANCH  23  24
ATOM     24  C   UNL     1       1.052   3.019  -0.127  1.00  0.00    -0.000 C 
BRANCH  24  25
ATOM     25  C   UNL     1       1.977   1.846  -0.497  1.00  0.00    -0.000 C 
BRANCH  25  26
ATOM     26  C   UNL     1       1.859   0.669   0.482  1.00  0.00    -0.000 C 
BRANCH  26  27
ATOM     27  C   UNL     1       3.153  -0.152   0.580  1.00  0.00    -0.000 C 
BRANCH  27  28
ATOM     28  C   UNL     1       3.735  -0.424  -0.812  1.00  0.00    -0.000 C 
BRANCH  28  29
ATOM     29  C   UNL     1       3.694  -1.924  -1.143  1.00  0.00    -0.000 C 
BRANCH  29  30
ATOM     30  C   UNL     1       2.261  -2.468  -1.291  1.00  0.00    -0.000 C 
BRANCH  30  31
ATOM     31  C   UNL     1       1.793  -2.674  -2.742  1.00  0.00    -0.003 C 
ATOM     32  C   UNL     1       1.019  -3.977  -2.942  1.00  0.00     0.004 C 
ENDBRANCH  30  31
ENDBRANCH  29  30
ENDBRANCH  28  29
ENDBRANCH  27  28
ENDBRANCH  26  27
ENDBRANCH  25  26
ENDBRANCH  24  25
ENDBRANCH  23  24
ENDBRANCH  22  23
ENDBRANCH  21  22
ENDBRANCH  20  21
ENDBRANCH  19  20
ENDBRANCH  18  19
ENDBRANCH   1  18
TORSDOF 28
ENDMDL
MODEL 6
REMARK VINA RESULT:     3.619      4.340     12.407
REMARK INTER + INTRA:           7.702
REMARK INTER:                   9.587
REMARK INTRA:                  -1.886
REMARK UNBOUND:                -1.840
REMARK SMILES CCCCCCCCCCCCCCCCCCCCCCCCCCCCCC(=O)[O-]
REMARK SMILES IDX 16 1 17 2 18 3 19 4 20 5 21 6 22 7 23 8 24 9 25 10 26 11
REMARK SMILES IDX 27 12 28 13 29 14 30 15 31 16 32 17 15 18 14 19 13 20 12 21
REMARK SMILES IDX 11 22 10 23 9 24 8 25 7 26 6 27 5 28 4 29 3 30 2 31 1 32
REMARK H PARENT
REMARK Flexibility Score: inf
ROOT
ATOM      1  C   UNL     1      -5.793   9.724   3.389  1.00  0.00     0.000 C 
ENDROOT
BRANCH   1   2
ATOM      2  C   UNL     1      -5.743   8.922   2.077  1.00  0.00     0.000 C 
BRANCH   2   3
ATOM      3  C   UNL     1      -5.368   7.449   2.306  1.00  0.00     0.000 C 
BRANCH   3   4
ATOM      4  C   UNL     1      -3.848   7.208   2.275  1.00  0.00     0.000 C 
BRANCH   4   5
ATOM      5  C   UNL     1      -3.433   6.220   1.173  1.00  0.00     0.000 C 
BRANCH   5   6
ATOM      6  C   UNL     1      -2.665   5.005   1.722  1.00  0.00     0.000 C 
BRANCH   6   7
ATOM      7  C   UNL     1      -1.241   4.898   1.154  1.00  0.00     0.000 C 
BRANCH   7   8
ATOM      8  C   UNL     1      -0.378   3.887   1.926  1.00  0.00     0.000 C 
BRANCH   8   9
ATOM      9  C   UNL     1       0.440   2.963   1.004  1.00  0.00     0.000 C 
BRANCH   9  10
ATOM     10  C   UNL     1       1.009   3.634  -0.259  1.00  0.00     0.000 C 
BRANCH  10  11
ATOM     11  C   UNL     1       1.576   2.628  -1.272  1.00  0.00     0.000 C 
BRANCH  11  12
ATOM     12  C   UNL     1       1.858   1.272  -0.605  1.00  0.00     0.000 C 
BRANCH  12  13
ATOM     13  C   UNL     1       3.066   0.548  -1.220  1.00  0.00     0.006 C 
BRANCH  13  14
ATOM     14  C   UNL     1       3.706  -0.463  -0.259  1.00  0.00     0.053 C 
BRANCH  14  15
ATOM     15  C   UNL     1       3.379  -1.863  -0.676  1.00  0.00     0.041 C 
ATOM     16  O   UNL     1       4.129  -2.817  -0.335  1.00  0.00    -0.550 OA
ATOM     17  O   UNL     1       2.261  -2.114  -1.461  1.00  0.00    -0.550 OA
ENDBRANCH  14  15
ENDBRANCH  13  14
ENDBRANCH  12  13
ENDBRANCH  11  12
ENDBRANCH  10  11
ENDBRANCH   9  10
ENDBRANCH   8   9
ENDBRANCH   7   8
ENDBRANCH   6   7
ENDBRANCH   5   6
ENDBRANCH   4   5
ENDBRANCH   3   4
ENDBRANCH   2   3
ENDBRANCH   1   2
BRANCH   1  18
ATOM     18  C   UNL     1      -7.022   9.379   4.247  1.00  0.00     0.000 C 
BRANCH  18  19
ATOM     19  C   UNL     1      -8.348   9.643   3.515  1.00  0.00     0.000 C 
BRANCH  19  20
ATOM     20  C   UNL     1      -8.815   8.394   2.752  1.00  0.00     0.000 C 
BRANCH  20  21
ATOM     21  C   UNL     1      -9.925   7.621   3.486  1.00  0.00     0.000 C 
BRANCH  21  22
ATOM     22  C   UNL     1      -9.487   6.933   4.793  1.00  0.00     0.000 C 
BRANCH  22  23
ATOM     23  C   UNL     1     -10.054   7.555   6.085  1.00  0.00     0.000 C 
BRANCH  23  24
ATOM     24  C   UNL     1      -8.974   7.956   7.112  1.00  0.00    -0.000 C 
BRANCH  24  25
ATOM     25  C   UNL     1      -9.048   7.124   8.405  1.00  0.00    -0.000 C 
BRANCH  25  26
ATOM     26  C   UNL     1      -8.988   5.612   8.138  1.00  0.00    -0.000 C 
BRANCH  26  27
ATOM     27  C   UNL     1      -7.880   4.913   8.938  1.00  0.00    -0.000 C 
BRANCH  27  28
ATOM     28  C   UNL     1      -6.531   5.611   8.730  1.00  0.00    -0.000 C 
BRANCH  28  29
ATOM     29  C   UNL     1      -5.838   5.884  10.075  1.00  0.00    -0.000 C 
BRANCH  29  30
ATOM     30  C   UNL     1      -4.750   6.970   9.980  1.00  0.00    -0.000 C 
BRANCH  30  31
ATOM     31  C   UNL     1      -4.831   7.860   8.727  1.00  0.00    -0.003 C 
ATOM     32  C   UNL     1      -5.841   9.000   8.868  1.00  0.00     0.004 C 
ENDBRANCH  30  31
ENDBRANCH  29  30
ENDBRANCH  28  29
ENDBRANCH  27  28
ENDBRANCH  26  27
ENDBRANCH  25  26
ENDBRANCH  24  25
ENDBRANCH  23  24
ENDBRANCH  22  23
ENDBRANCH  21  22
ENDBRANCH  20  21
ENDBRANCH  19  20
ENDBRANCH  18  19
ENDBRANCH   1  18
TORSDOF 28
ENDMDL
MODEL 7
REMARK VINA RESULT:     3.803      4.578     13.437
REMARK INTER + INTRA:           8.187
REMARK INTER:                   9.777
REMARK INTRA:                  -1.590
REMARK UNBOUND:                -1.840
REMARK SMILES CCCCCCCCCCCCCCCCCCCCCCCCCCCCCC(=O)[O-]
REMARK SMILES IDX 16 1 17 2 18 3 19 4 20 5 21 6 22 7 23 8 24 9 25 10 26 11
REMARK SMILES IDX 27 12 28 13 29 14 30 15 31 16 32 17 15 18 14 19 13 20 12 21
REMARK SMILES IDX 11 22 10 23 9 24 8 25 7 26 6 27 5 28 4 29 3 30 2 31 1 32
REMARK H PARENT
REMARK Flexibility Score: inf
ROOT
ATOM      1  C   UNL     1      -4.269   7.465   2.249  1.00  0.00     0.000 C 
ENDROOT
BRANCH   1   2
ATOM      2  C   UNL     1      -3.796   6.322   1.334  1.00  0.00     0.000 C 
BRANCH   2   3
ATOM      3  C   UNL     1      -2.409   5.792   1.730  1.00  0.00     0.000 C 
BRANCH   3   4
ATOM      4  C   UNL     1      -1.902   4.684   0.790  1.00  0.00     0.000 C 
BRANCH   4   5
ATOM      5  C   UNL     1      -1.104   3.602   1.535  1.00  0.00     0.000 C 
BRANCH   5   6
ATOM      6  C   UNL     1       0.380   3.574   1.132  1.00  0.00     0.000 C 
BRANCH   6   7
ATOM      7  C   UNL     1       1.066   2.245   1.490  1.00  0.00     0.000 C 
BRANCH   7   8
ATOM      8  C   UNL     1       1.821   1.637   0.296  1.00  0.00     0.000 C 
BRANCH   8   9
ATOM      9  C   UNL     1       2.209   0.163   0.514  1.00  0.00     0.000 C 
BRANCH   9  10
ATOM     10  C   UNL     1       3.627  -0.219   0.050  1.00  0.00     0.000 C 
BRANCH  10  11
ATOM     11  C   UNL     1       3.630  -1.183  -1.146  1.00  0.00     0.000 C 
BRANCH  11  12
ATOM     12  C   UNL     1       2.558  -2.272  -0.980  1.00  0.00     0.000 C 
BRANCH  12  13
ATOM     13  C   UNL     1       1.938  -2.704  -2.319  1.00  0.00     0.006 C 
BRANCH  13  14
ATOM     14  C   UNL     1       0.684  -3.570  -2.143  1.00  0.00     0.053 C 
BRANCH  14  15
ATOM     15  C   UNL     1       0.410  -4.357  -3.386  1.00  0.00     0.041 C 
ATOM     16  O   UNL     1       1.350  -4.643  -4.175  1.00  0.00    -0.550 OA
ATOM     17  O   UNL     1      -0.886  -4.755  -3.688  1.00  0.00    -0.550 OA
ENDBRANCH  14  15
ENDBRANCH  13  14
ENDBRANCH  12  13
ENDBRANCH  11  12
ENDBRANCH  10  11
ENDBRANCH   9  10
ENDBRANCH   8   9
ENDBRANCH   7   8
ENDBRANCH   6   7
ENDBRANCH   5   6
ENDBRANCH   4   5
ENDBRANCH   3   4
ENDBRANCH   2   3
ENDBRANCH   1   2
BRANCH   1  18
ATOM     18  C   UNL     1      -5.799   7.513   2.393  1.00  0.00     0.000 C 
BRANCH  18  19
ATOM     19  C   UNL     1      -6.303   8.869   2.914  1.00  0.00     0.000 C 
BRANCH  19  20
ATOM     20  C   UNL     1      -7.827   8.987   2.762  1.00  0.00     0.000 C 
BRANCH  20  21
ATOM     21  C   UNL     1      -8.553   9.179   4.106  1.00  0.00     0.000 C 
BRANCH  21  22
ATOM     22  C   UNL     1      -9.794   8.289   4.310  1.00  0.00     0.000 C 
BRANCH  22  23
ATOM     23  C   UNL     1      -9.502   6.788   4.500  1.00  0.00     0.000 C 
BRANCH  23  24
ATOM     24  C   UNL     1      -8.770   6.454   5.817  1.00  0.00    -0.000 C 
BRANCH  24  25
ATOM     25  C   UNL     1      -9.659   6.657   7.057  1.00  0.00    -0.000 C 
BRANCH  25  26
ATOM     26  C   UNL     1      -9.815   5.375   7.889  1.00  0.00    -0.000 C 
BRANCH  26  27
ATOM     27  C   UNL     1      -9.591   5.611   9.389  1.00  0.00    -0.000 C 
BRANCH  27  28
ATOM     28  C   UNL     1      -8.454   4.729   9.919  1.00  0.00    -0.000 C 
BRANCH  28  29
ATOM     29  C   UNL     1      -7.134   5.037   9.194  1.00  0.00    -0.000 C 
BRANCH  29  30
ATOM     30  C   UNL     1      -6.464   6.331   9.692  1.00  0.00    -0.000 C 
BRANCH  30  31
ATOM     31  C   UNL     1      -5.344   6.871   8.785  1.00  0.00    -0.003 C 
ATOM     32  C   UNL     1      -4.033   6.098   8.928  1.00  0.00     0.004 C 
ENDBRANCH  30  31
ENDBRANCH  29  30
ENDBRANCH  28  29
ENDBRANCH  27  28
ENDBRANCH  26  27
ENDBRANCH  25  26
ENDBRANCH  24  25
ENDBRANCH  23  24
ENDBRANCH  22  23
ENDBRANCH  21  22
ENDBRANCH  20  21
ENDBRANCH  19  20
ENDBRANCH  18  19
ENDBRANCH   1  18
TORSDOF 28
ENDMDL
MODEL 8
REMARK VINA RESULT:     3.913      4.092     12.456
REMARK INTER + INTRA:           8.477
REMARK INTER:                  10.720
REMARK INTRA:                  -2.243
REMARK UNBOUND:                -1.840
REMARK SMILES CCCCCCCCCCCCCCCCCCCCCCCCCCCCCC(=O)[O-]
REMARK SMILES IDX 16 1 17 2 18 3 19 4 20 5 21 6 22 7 23 8 24 9 25 10 26 11
REMARK SMILES IDX 27 12 28 13 29 14 30 15 31 16 32 17 15 18 14 19 13 20 12 21
REMARK SMILES IDX 11 22 10 23 9 24 8 25 7 26 6 27 5 28 4 29 3 30 2 31 1 32
REMARK H PARENT
REMARK Flexibility Score: inf
ROOT
ATOM      1  C   UNL     1      -6.130   7.901   2.081  1.00  0.00     0.000 C 
ENDROOT
BRANCH   1   2
ATOM      2  C   UNL     1      -5.181   6.795   2.577  1.00  0.00     0.000 C 
BRANCH   2   3
ATOM      3  C   UNL     1      -3.734   7.012   2.107  1.00  0.00     0.000 C 
BRANCH   3   4
ATOM      4  C   UNL     1      -3.361   6.137   0.896  1.00  0.00     0.000 C 
BRANCH   4   5
ATOM      5  C   UNL     1      -2.341   5.043   1.254  1.00  0.00     0.000 C 
BRANCH   5   6
ATOM      6  C   UNL     1      -1.027   5.616   1.812  1.00  0.00     0.000 C 
BRANCH   6   7
ATOM      7  C   UNL     1       0.203   4.797   1.384  1.00  0.00     0.000 C 
BRANCH   7   8
ATOM      8  C   UNL     1      -0.068   3.284   1.404  1.00  0.00     0.000 C 
BRANCH   8   9
ATOM      9  C   UNL     1       0.764   2.536   2.463  1.00  0.00     0.000 C 
BRANCH   9  10
ATOM     10  C   UNL     1       1.012   1.045   2.170  1.00  0.00     0.000 C 
BRANCH  10  11
ATOM     11  C   UNL     1       2.482   0.730   1.851  1.00  0.00     0.000 C 
BRANCH  11  12
ATOM     12  C   UNL     1       2.661   0.378   0.366  1.00  0.00     0.000 C 
BRANCH  12  13
ATOM     13  C   UNL     1       3.488  -0.900   0.154  1.00  0.00     0.006 C 
BRANCH  13  14
ATOM     14  C   UNL     1       3.383  -1.447  -1.276  1.00  0.00     0.053 C 
BRANCH  14  15
ATOM     15  C   UNL     1       2.246  -2.414  -1.387  1.00  0.00     0.041 C 
ATOM     16  O   UNL     1       1.580  -2.729  -0.365  1.00  0.00    -0.550 OA
ATOM     17  O   UNL     1       1.936  -2.987  -2.614  1.00  0.00    -0.550 OA
ENDBRANCH  14  15
ENDBRANCH  13  14
ENDBRANCH  12  13
ENDBRANCH  11  12
ENDBRANCH  10  11
ENDBRANCH   9  10
ENDBRANCH   8   9
ENDBRANCH   7   8
ENDBRANCH   6   7
ENDBRANCH   5   6
ENDBRANCH   4   5
ENDBRANCH   3   4
ENDBRANCH   2   3
ENDBRANCH   1   2
BRANCH   1  18
ATOM     18  C   UNL     1      -6.561   8.858   3.203  1.00  0.00     0.000 C 
BRANCH  18  19
ATOM     19  C   UNL     1      -7.907   9.543   2.914  1.00  0.00     0.000 C 
BRANCH  19  20
ATOM     20  C   UNL     1      -8.906   9.298   4.054  1.00  0.00     0.000 C 
BRANCH  20  21
ATOM     21  C   UNL     1      -9.455   7.859   4.075  1.00  0.00     0.000 C 
BRANCH  21  22
ATOM     22  C   UNL     1      -8.830   6.938   5.141  1.00  0.00     0.000 C 
BRANCH  22  23
ATOM     23  C   UNL     1      -9.545   6.935   6.506  1.00  0.00     0.000 C 
BRANCH  23  24
ATOM     24  C   UNL     1      -9.500   8.292   7.241  1.00  0.00    -0.000 C 
BRANCH  24  25
ATOM     25  C   UNL     1      -8.232   8.460   8.097  1.00  0.00    -0.000 C 
BRANCH  25  26
ATOM     26  C   UNL     1      -7.122   9.228   7.363  1.00  0.00    -0.000 C 
BRANCH  26  27
ATOM     27  C   UNL     1      -5.774   9.162   8.095  1.00  0.00    -0.000 C 
BRANCH  27  28
ATOM     28  C   UNL     1      -5.903   8.389   9.413  1.00  0.00    -0.000 C 
BRANCH  28  29
ATOM     29  C   UNL     1      -4.739   7.401   9.589  1.00  0.00    -0.000 C 
BRANCH  29  30
ATOM     30  C   UNL     1      -5.152   5.937   9.346  1.00  0.00    -0.000 C 
BRANCH  30  31
ATOM     31  C   UNL     1      -6.547   5.561   9.876  1.00  0.00    -0.003 C 
ATOM     32  C   UNL     1      -7.466   4.994   8.795  1.00  0.00     0.004 C 
ENDBRANCH  30  31
ENDBRANCH  29  30
ENDBRANCH  28  29
ENDBRANCH  27  28
ENDBRANCH  26  27
ENDBRANCH  25  26
ENDBRANCH  24  25
ENDBRANCH  23  24
ENDBRANCH  22  23
ENDBRANCH  21  22
ENDBRANCH  20  21
ENDBRANCH  19  20
ENDBRANCH  18  19
ENDBRANCH   1  18
TORSDOF 28
ENDMDL
MODEL 9
REMARK VINA RESULT:     5.654      1.661      2.062
REMARK INTER + INTRA:          13.070
REMARK INTER:                  14.330
REMARK INTRA:                  -1.261
REMARK UNBOUND:                -1.840
REMARK SMILES CCCCCCCCCCCCCCCCCCCCCCCCCCCCCC(=O)[O-]
REMARK SMILES IDX 16 1 17 2 18 3 19 4 20 5 21 6 22 7 23 8 24 9 25 10 26 11
REMARK SMILES IDX 27 12 28 13 29 14 30 15 31 16 32 17 15 18 14 19 13 20 12 21
REMARK SMILES IDX 11 22 10 23 9 24 8 25 7 26 6 27 5 28 4 29 3 30 2 31 1 32
REMARK H PARENT
REMARK Flexibility Score: inf
ROOT
ATOM      1  C   UNL     1      -6.736   8.204   2.902  1.00  0.00     0.000 C 
ENDROOT
BRANCH   1   2
ATOM      2  C   UNL     1      -7.225   9.579   3.392  1.00  0.00     0.000 C 
BRANCH   2   3
ATOM      3  C   UNL     1      -8.388  10.122   2.546  1.00  0.00     0.000 C 
BRANCH   3   4
ATOM      4  C   UNL     1      -9.731   9.445   2.872  1.00  0.00     0.000 C 
BRANCH   4   5
ATOM      5  C   UNL     1      -9.608   7.917   2.978  1.00  0.00     0.000 C 
BRANCH   5   6
ATOM      6  C   UNL     1     -10.125   7.370   4.320  1.00  0.00     0.000 C 
BRANCH   6   7
ATOM      7  C   UNL     1      -9.132   7.594   5.472  1.00  0.00     0.000 C 
BRANCH   7   8
ATOM      8  C   UNL     1      -9.792   8.258   6.692  1.00  0.00     0.000 C 
BRANCH   8   9
ATOM      9  C   UNL     1      -8.797   9.052   7.559  1.00  0.00     0.000 C 
BRANCH   9  10
ATOM     10  C   UNL     1      -9.041   8.972   9.077  1.00  0.00     0.000 C 
BRANCH  10  11
ATOM     11  C   UNL     1      -7.973   8.151   9.816  1.00  0.00     0.000 C 
BRANCH  11  12
ATOM     12  C   UNL     1      -8.105   6.655   9.490  1.00  0.00     0.000 C 
BRANCH  12  13
ATOM     13  C   UNL     1      -6.871   6.095   8.762  1.00  0.00     0.006 C 
BRANCH  13  14
ATOM     14  C   UNL     1      -5.776   5.620   9.725  1.00  0.00     0.053 C 
BRANCH  14  15
ATOM     15  C   UNL     1      -4.484   6.319   9.439  1.00  0.00     0.041 C 
ATOM     16  O   UNL     1      -4.323   7.520   9.787  1.00  0.00    -0.550 OA
ATOM     17  O   UNL     1      -3.466   5.655   8.767  1.00  0.00    -0.550 OA
ENDBRANCH  14  15
ENDBRANCH  13  14
ENDBRANCH  12  13
ENDBRANCH  11  12
ENDBRANCH  10  11
ENDBRANCH   9  10
ENDBRANCH   8   9
ENDBRANCH   7   8
ENDBRANCH   6   7
ENDBRANCH   5   6
ENDBRANCH   4   5
ENDBRANCH   3   4
ENDBRANCH   2   3
ENDBRANCH   1   2
BRANCH   1  18
ATOM     18  C   UNL     1      -5.256   8.216   2.488  1.00  0.00     0.000 C 
BRANCH  18  19
ATOM     19  C   UNL     1      -4.702   6.805   2.230  1.00  0.00     0.000 C 
BRANCH  19  20
ATOM     20  C   UNL     1      -3.234   6.863   1.781  1.00  0.00     0.000 C 
BRANCH  20  21
ATOM     21  C   UNL     1      -2.777   5.586   1.051  1.00  0.00     0.000 C 
BRANCH  21  22
ATOM     22  C   UNL     1      -1.551   4.885   1.667  1.00  0.00     0.000 C 
BRANCH  22  23
ATOM     23  C   UNL     1      -1.019   3.675   0.874  1.00  0.00     0.000 C 
BRANCH  23  24
ATOM     24  C   UNL     1       0.433   3.285   1.227  1.00  0.00    -0.000 C 
BRANCH  24  25
ATOM     25  C   UNL     1       1.443   3.727   0.153  1.00  0.00    -0.000 C 
BRANCH  25  26
ATOM     26  C   UNL     1       1.307   2.927  -1.151  1.00  0.00    -0.000 C 
BRANCH  26  27
ATOM     27  C   UNL     1       1.460   1.414  -0.936  1.00  0.00    -0.000 C 
BRANCH  27  28
ATOM     28  C   UNL     1       2.828   1.084  -0.327  1.00  0.00    -0.000 C 
BRANCH  28  29
ATOM     29  C   UNL     1       2.929  -0.408   0.027  1.00  0.00    -0.000 C 
BRANCH  29  30
ATOM     30  C   UNL     1       3.287  -1.290  -1.184  1.00  0.00    -0.000 C 
BRANCH  30  31
ATOM     31  C   UNL     1       2.507  -2.614  -1.273  1.00  0.00    -0.003 C 
ATOM     32  C   UNL     1       1.777  -2.790  -2.604  1.00  0.00     0.004 C 
ENDBRANCH  30  31
ENDBRANCH  29  30
ENDBRANCH  28  29
ENDBRANCH  27  28
ENDBRANCH  26  27
ENDBRANCH  25  26
ENDBRANCH  24  25
ENDBRANCH  23  24
ENDBRANCH  22  23
ENDBRANCH  21  22
ENDBRANCH  20  21
ENDBRANCH  19  20
ENDBRANCH  18  19
ENDBRANCH   1  18
TORSDOF 28
ENDMDL
