MODEL 1
REMARK VINA RESULT:    -2.122      0.000      0.000
REMARK INTER + INTRA:          -6.186
REMARK INTER:                  -3.735
REMARK INTRA:                  -2.451
REMARK UNBOUND:                -2.451
REMARK SMILES CCCCCCCCCCCCCCC(=O)[O-]
REMARK SMILES IDX 9 1 10 2 11 3 12 4 13 5 14 6 15 7 16 8 17 9 8 10 7 11 6 12
REMARK SMILES IDX 5 13 4 14 3 15 2 16 1 17
REMARK H PARENT
REMARK Flexibility Score: inf
ROOT
ATOM      1  C   UNL     1      -0.540  15.800  -1.000  1.00  0.00     0.000 C 
ENDROOT
BRANCH   1   2
ATOM      2  C   UNL     1       0.697  16.129  -1.863  1.00  0.00     0.000 C 
BRANCH   2   3
ATOM      3  C   UNL     1       0.675  15.467  -3.254  1.00  0.00     0.000 C 
BRANCH   3   4
ATOM      4  C   UNL     1       1.656  14.295  -3.426  1.00  0.00     0.000 C 
BRANCH   4   5
ATOM      5  C   UNL     1       1.017  13.083  -4.120  1.00  0.00     0.006 C 
BRANCH   5   6
ATOM      6  C   UNL     1      -0.196  13.507  -4.953  1.00  0.00     0.053 C 
BRANCH   6   7
ATOM      7  C   UNL     1       0.100  13.376  -6.414  1.00  0.00     0.041 C 
ATOM      8  O   UNL     1      -0.798  12.996  -7.210  1.00  0.00    -0.550 OA
ATOM      9  O   UNL     1       1.352  13.725  -6.903  1.00  0.00    -0.550 OA
ENDBRANCH   6   7
ENDBRANCH   5   6
ENDBRANCH   4   5
ENDBRANCH   3   4
ENDBRANCH   2   3
ENDBRANCH   1   2
BRANCH   1  10
ATOM     10  C   UNL     1      -1.795  15.549  -1.854  1.00  0.00     0.000 C 
BRANCH  10  11
ATOM     11  C   UNL     1      -2.520  14.247  -1.476  1.00  0.00    -0.000 C 
BRANCH  11  12
ATOM     12  C   UNL     1      -1.568  13.045  -1.383  1.00  0.00    -0.000 C 
BRANCH  12  13
ATOM     13  C   UNL     1      -1.681  12.360  -0.016  1.00  0.00    -0.000 C 
BRANCH  13  14
ATOM     14  C   UNL     1      -0.296  11.968   0.519  1.00  0.00    -0.000 C 
BRANCH  14  15
ATOM     15  C   UNL     1       0.790  12.000  -0.568  1.00  0.00    -0.000 C 
BRANCH  15  16
ATOM     16  C   UNL     1       2.017  12.827  -0.155  1.00  0.00    -0.003 C 
ATOM     17  C   UNL     1       1.700  13.717   1.044  1.00  0.00     0.004 C 
ENDBRANCH  15  16
ENDBRANCH  14  15
ENDBRANCH  13  14
ENDBRANCH  12  13
ENDBRANCH  11  12
ENDBRANCH  10  11
ENDBRANCH   1  10
TORSDOF 13
ENDMDL
MODEL 2
REMARK VINA RESULT:    -2.053      1.123      3.379
REMARK INTER + INTRA:          -6.064
REMARK INTER:                  -3.851
REMARK INTRA:                  -2.213
REMARK UNBOUND:                -2.451
REMARK SMILES CCCCCCCCCCCCCCC(=O)[O-]
REMARK SMILES IDX 9 1 10 2 11 3 12 4 13 5 14 6 15 7 16 8 17 9 8 10 7 11 6 12
REMARK SMILES IDX 5 13 4 14 3 15 2 16 1 17
REMARK H PARENT
REMARK Flexibility Score: inf
ROOT
ATOM      1  C   UNL     1       1.405  12.907  -1.022  1.00  0.00     0.000 C 
ENDROOT
BRANCH   1   2
ATOM      2  C   UNL     1       2.135  12.122  -2.132  1.00  0.00     0.000 C 
BRANCH   2   3
ATOM      3  C   UNL     1       1.808  12.611  -3.556  1.00  0.00     0.000 C 
BRANCH   3   4
ATOM      4  C   UNL     1       1.764  14.140  -3.718  1.00  0.00     0.000 C 
BRANCH   4   5
ATOM      5  C   UNL     1       0.755  14.595  -4.783  1.00  0.00     0.006 C 
BRANCH   5   6
ATOM      6  C   UNL     1      -0.006  13.399  -5.361  1.00  0.00     0.053 C 
BRANCH   6   7
ATOM      7  C   UNL     1       0.183  13.322  -6.843  1.00  0.00     0.041 C 
ATOM      8  O   UNL     1       1.329  13.467  -7.343  1.00  0.00    -0.550 OA
ATOM      9  O   UNL     1      -0.897  13.039  -7.668  1.00  0.00    -0.550 OA
ENDBRANCH   6   7
ENDBRANCH   5   6
ENDBRANCH   4   5
ENDBRANCH   3   4
ENDBRANCH   2   3
ENDBRANCH   1   2
BRANCH   1  10
ATOM     10  C   UNL     1       0.104  12.214  -0.578  1.00  0.00     0.000 C 
BRANCH  10  11
ATOM     11  C   UNL     1      -1.093  13.176  -0.530  1.00  0.00    -0.000 C 
BRANCH  11  12
ATOM     12  C   UNL     1      -1.554  13.621  -1.927  1.00  0.00    -0.000 C 
BRANCH  12  13
ATOM     13  C   UNL     1      -1.480  15.146  -2.069  1.00  0.00    -0.000 C 
BRANCH  13  14
ATOM     14  C   UNL     1      -0.831  15.783  -0.831  1.00  0.00    -0.000 C 
BRANCH  14  15
ATOM     15  C   UNL     1       0.429  16.593  -1.173  1.00  0.00    -0.000 C 
BRANCH  15  16
ATOM     16  C   UNL     1       0.121  17.841  -2.014  1.00  0.00    -0.003 C 
ATOM     17  C   UNL     1       0.997  17.891  -3.263  1.00  0.00     0.004 C 
ENDBRANCH  15  16
ENDBRANCH  14  15
ENDBRANCH  13  14
ENDBRANCH  12  13
ENDBRANCH  11  12
ENDBRANCH  10  11
ENDBRANCH   1  10
TORSDOF 13
ENDMDL
MODEL 3
REMARK VINA RESULT:    -2.015      3.577      5.383
REMARK INTER + INTRA:          -5.997
REMARK INTER:                  -4.101
REMARK INTRA:                  -1.896
REMARK UNBOUND:                -2.451
REMARK SMILES CCCCCCCCCCCCCCC(=O)[O-]
REMARK SMILES IDX 9 1 10 2 11 3 12 4 13 5 14 6 15 7 16 8 17 9 8 10 7 11 6 12
REMARK SMILES IDX 5 13 4 14 3 15 2 16 1 17
REMARK H PARENT
REMARK Flexibility Score: inf
ROOT
ATOM      1  C   UNL     1      -2.064  13.713  -1.866  1.00  0.00     0.000 C 
ENDROOT
BRANCH   1   2
ATOM      2  C   UNL     1      -2.410  13.425  -0.389  1.00  0.00     0.000 C 
BRANCH   2   3
ATOM      3  C   UNL     1      -1.687  12.193   0.188  1.00  0.00     0.000 C 
BRANCH   3   4
ATOM      4  C   UNL     1      -2.617  11.068   0.672  1.00  0.00     0.000 C 
BRANCH   4   5
ATOM      5  C   UNL     1      -1.912   9.706   0.746  1.00  0.00     0.006 C 
BRANCH   5   6
ATOM      6  C   UNL     1      -0.390   9.878   0.752  1.00  0.00     0.053 C 
BRANCH   6   7
ATOM      7  C   UNL     1       0.288   8.554   0.597  1.00  0.00     0.041 C 
ATOM      8  O   UNL     1       0.701   8.182  -0.532  1.00  0.00    -0.550 OA
ATOM      9  O   UNL     1       0.511   7.753   1.709  1.00  0.00    -0.550 OA
ENDBRANCH   6   7
ENDBRANCH   5   6
ENDBRANCH   4   5
ENDBRANCH   3   4
ENDBRANCH   2   3
ENDBRANCH   1   2
BRANCH   1  10
ATOM     10  C   UNL     1      -1.107  14.910  -2.016  1.00  0.00     0.000 C 
BRANCH  10  11
ATOM     11  C   UNL     1      -0.123  14.738  -3.184  1.00  0.00    -0.000 C 
BRANCH  11  12
ATOM     12  C   UNL     1       0.115  13.265  -3.549  1.00  0.00    -0.000 C 
BRANCH  12  13
ATOM     13  C   UNL     1       1.489  12.793  -3.058  1.00  0.00    -0.000 C 
BRANCH  13  14
ATOM     14  C   UNL     1       1.379  12.109  -1.688  1.00  0.00    -0.000 C 
BRANCH  14  15
ATOM     15  C   UNL     1       2.475  12.560  -0.710  1.00  0.00    -0.000 C 
BRANCH  15  16
ATOM     16  C   UNL     1       2.373  14.050  -0.354  1.00  0.00    -0.003 C 
ATOM     17  C   UNL     1       1.319  14.287   0.724  1.00  0.00     0.004 C 
ENDBRANCH  15  16
ENDBRANCH  14  15
ENDBRANCH  13  14
ENDBRANCH  12  13
ENDBRANCH  11  12
ENDBRANCH  10  11
ENDBRANCH   1  10
TORSDOF 13
ENDMDL
MODEL 4
REMARK VINA RESULT:    -1.939      7.501      9.257
REMARK INTER + INTRA:          -5.864
REMARK INTER:                  -3.855
REMARK INTRA:                  -2.009
REMARK UNBOUND:                -2.451
REMARK SMILES CCCCCCCCCCCCCCC(=O)[O-]
REMARK SMILES IDX 9 1 10 2 11 3 12 4 13 5 14 6 15 7 16 8 17 9 8 10 7 11 6 12
REMARK SMILES IDX 5 13 4 14 3 15 2 16 1 17
REMARK H PARENT
REMARK Flexibility Score: inf
ROOT
ATOM      1  C   UNL     1      -3.462   9.219 -10.619  1.00  0.00     0.000 C 
ENDROOT
BRANCH   1   2
ATOM      2  C   UNL     1      -4.033  10.355 -11.495  1.00  0.00     0.000 C 
BRANCH   2   3
ATOM      3  C   UNL     1      -2.952  11.213 -12.180  1.00  0.00     0.000 C 
BRANCH   3   4
ATOM      4  C   UNL     1      -3.136  12.731 -12.018  1.00  0.00     0.000 C 
BRANCH   4   5
ATOM      5  C   UNL     1      -2.446  13.281 -10.761  1.00  0.00     0.006 C 
BRANCH   5   6
ATOM      6  C   UNL     1      -0.923  13.196 -10.891  1.00  0.00     0.053 C 
BRANCH   6   7
ATOM      7  C   UNL     1      -0.263  13.630  -9.621  1.00  0.00     0.041 C 
ATOM      8  O   UNL     1      -0.731  13.271  -8.508  1.00  0.00    -0.550 OA
ATOM      9  O   UNL     1       0.900  14.388  -9.666  1.00  0.00    -0.550 OA
ENDBRANCH   6   7
ENDBRANCH   5   6
ENDBRANCH   4   5
ENDBRANCH   3   4
ENDBRANCH   2   3
ENDBRANCH   1   2
BRANCH   1  10
ATOM     10  C   UNL     1      -3.571   9.533  -9.116  1.00  0.00     0.000 C 
BRANCH  10  11
ATOM     11  C   UNL     1      -2.304  10.197  -8.556  1.00  0.00    -0.000 C 
BRANCH  11  12
ATOM     12  C   UNL     1      -1.015   9.629  -9.170  1.00  0.00    -0.000 C 
BRANCH  12  13
ATOM     13  C   UNL     1      -0.554   8.376  -8.416  1.00  0.00    -0.000 C 
BRANCH  13  14
ATOM     14  C   UNL     1      -0.470   7.167  -9.360  1.00  0.00    -0.000 C 
BRANCH  14  15
ATOM     15  C   UNL     1      -1.654   6.202  -9.194  1.00  0.00    -0.000 C 
BRANCH  15  16
ATOM     16  C   UNL     1      -2.287   6.276  -7.797  1.00  0.00    -0.003 C 
ATOM     17  C   UNL     1      -3.801   6.096  -7.870  1.00  0.00     0.004 C 
ENDBRANCH  15  16
ENDBRANCH  14  15
ENDBRANCH  13  14
ENDBRANCH  12  13
ENDBRANCH  11  12
ENDBRANCH  10  11
ENDBRANCH   1  10
TORSDOF 13
ENDMDL
MODEL 5
REMARK VINA RESULT:    -1.932      7.750     10.158
REMARK INTER + INTRA:          -5.851
REMARK INTER:                  -3.445
REMARK INTRA:                  -2.405
REMARK UNBOUND:                -2.451
REMARK SMILES CCCCCCCCCCCCCCC(=O)[O-]
REMARK SMILES IDX 9 1 10 2 11 3 12 4 13 5 14 6 15 7 16 8 17 9 8 10 7 11 6 12
REMARK SMILES IDX 5 13 4 14 3 15 2 16 1 17
REMARK H PARENT
REMARK Flexibility Score: inf
ROOT
ATOM      1  C   UNL     1      -1.664   6.399 -10.341  1.00  0.00     0.000 C 
ENDROOT
BRANCH   1   2
ATOM      2  C   UNL     1      -1.729   5.561  -9.045  1.00  0.00     0.000 C 
BRANCH   2   3
ATOM      3  C   UNL     1      -2.281   6.336  -7.834  1.00  0.00     0.000 C 
BRANCH   3   4
ATOM      4  C   UNL     1      -1.239   6.673  -6.754  1.00  0.00     0.000 C 
BRANCH   4   5
ATOM      5  C   UNL     1       0.048   5.846  -6.893  1.00  0.00     0.006 C 
BRANCH   5   6
ATOM      6  C   UNL     1       1.107   6.312  -5.890  1.00  0.00     0.053 C 
BRANCH   6   7
ATOM      7  C   UNL     1       1.982   7.361  -6.499  1.00  0.00     0.041 C 
ATOM      8  O   UNL     1       2.099   7.440  -7.750  1.00  0.00    -0.550 OA
ATOM      9  O   UNL     1       2.629   8.283  -5.688  1.00  0.00    -0.550 OA
ENDBRANCH   6   7
ENDBRANCH   5   6
ENDBRANCH   4   5
ENDBRANCH   3   4
ENDBRANCH   2   3
ENDBRANCH   1   2
BRANCH   1  10
ATOM     10  C   UNL     1      -0.476   7.377 -10.341  1.00  0.00     0.000 C 
BRANCH  10  11
ATOM     11  C   UNL     1      -0.920   8.849 -10.336  1.00  0.00    -0.000 C 
BRANCH  11  12
ATOM     12  C   UNL     1      -0.672   9.539  -8.986  1.00  0.00    -0.000 C 
BRANCH  12  13
ATOM     13  C   UNL     1      -1.992   9.988  -8.349  1.00  0.00    -0.000 C 
BRANCH  13  14
ATOM     14  C   UNL     1      -3.145   9.912  -9.360  1.00  0.00    -0.000 C 
BRANCH  14  15
ATOM     15  C   UNL     1      -4.369   9.165  -8.808  1.00  0.00    -0.000 C 
BRANCH  15  16
ATOM     16  C   UNL     1      -4.932   8.136  -9.799  1.00  0.00    -0.003 C 
ATOM     17  C   UNL     1      -4.578   8.508 -11.237  1.00  0.00     0.004 C 
ENDBRANCH  15  16
ENDBRANCH  14  15
ENDBRANCH  13  14
ENDBRANCH  12  13
ENDBRANCH  11  12
ENDBRANCH  10  11
ENDBRANCH   1  10
TORSDOF 13
ENDMDL
MODEL 6
REMARK VINA RESULT:    -1.924      1.181      2.111
REMARK INTER + INTRA:          -5.838
REMARK INTER:                  -3.651
REMARK INTRA:                  -2.186
REMARK UNBOUND:                -2.451
REMARK SMILES CCCCCCCCCCCCCCC(=O)[O-]
REMARK SMILES IDX 9 1 10 2 11 3 12 4 13 5 14 6 15 7 16 8 17 9 8 10 7 11 6 12
REMARK SMILES IDX 5 13 4 14 3 15 2 16 1 17
REMARK H PARENT
REMARK Flexibility Score: inf
ROOT
ATOM      1  C   UNL     1       0.667  14.890  -0.674  1.00  0.00     0.000 C 
ENDROOT
BRANCH   1   2
ATOM      2  C   UNL     1       1.902  14.246  -1.339  1.00  0.00     0.000 C 
BRANCH   2   3
ATOM      3  C   UNL     1       1.642  12.831  -1.889  1.00  0.00     0.000 C 
BRANCH   3   4
ATOM      4  C   UNL     1       1.149  12.786  -3.345  1.00  0.00     0.000 C 
BRANCH   4   5
ATOM      5  C   UNL     1       1.683  13.953  -4.189  1.00  0.00     0.006 C 
BRANCH   5   6
ATOM      6  C   UNL     1       0.614  14.457  -5.163  1.00  0.00     0.053 C 
BRANCH   6   7
ATOM      7  C   UNL     1       0.504  13.542  -6.341  1.00  0.00     0.041 C 
ATOM      8  O   UNL     1      -0.622  13.292  -6.846  1.00  0.00    -0.550 OA
ATOM      9  O   UNL     1       1.650  13.007  -6.914  1.00  0.00    -0.550 OA
ENDBRANCH   6   7
ENDBRANCH   5   6
ENDBRANCH   4   5
ENDBRANCH   3   4
ENDBRANCH   2   3
ENDBRANCH   1   2
BRANCH   1  10
ATOM     10  C   UNL     1       0.081  16.034  -1.520  1.00  0.00     0.000 C 
BRANCH  10  11
ATOM     11  C   UNL     1      -1.357  15.752  -1.985  1.00  0.00    -0.000 C 
BRANCH  11  12
ATOM     12  C   UNL     1      -1.794  14.304  -1.716  1.00  0.00    -0.000 C 
BRANCH  12  13
ATOM     13  C   UNL     1      -2.980  14.259  -0.746  1.00  0.00    -0.000 C 
BRANCH  13  14
ATOM     14  C   UNL     1      -2.814  13.124   0.275  1.00  0.00    -0.000 C 
BRANCH  14  15
ATOM     15  C   UNL     1      -1.761  12.090  -0.154  1.00  0.00    -0.000 C 
BRANCH  15  16
ATOM     16  C   UNL     1      -0.702  11.839   0.930  1.00  0.00    -0.003 C 
ATOM     17  C   UNL     1       0.096  10.573   0.634  1.00  0.00     0.004 C 
ENDBRANCH  15  16
ENDBRANCH  14  15
ENDBRANCH  13  14
ENDBRANCH  12  13
ENDBRANCH  11  12
ENDBRANCH  10  11
ENDBRANCH   1  10
TORSDOF 13
ENDMDL
MODEL 7
REMARK VINA RESULT:    -1.879      6.460      8.974
REMARK INTER + INTRA:          -5.759
REMARK INTER:                  -3.460
REMARK INTRA:                  -2.298
REMARK UNBOUND:                -2.451
REMARK SMILES CCCCCCCCCCCCCCC(=O)[O-]
REMARK SMILES IDX 9 1 10 2 11 3 12 4 13 5 14 6 15 7 16 8 17 9 8 10 7 11 6 12
REMARK SMILES IDX 5 13 4 14 3 15 2 16 1 17
REMARK H PARENT
REMARK Flexibility Score: inf
ROOT
ATOM      1  C   UNL     1       1.909   7.931 -10.331  1.00  0.00     0.000 C 
ENDROOT
BRANCH   1   2
ATOM      2  C   UNL     1       0.528   7.370 -10.733  1.00  0.00     0.000 C 
BRANCH   2   3
ATOM      3  C   UNL     1      -0.654   8.245 -10.276  1.00  0.00     0.000 C 
BRANCH   3   4
ATOM      4  C   UNL     1      -0.307   9.725 -10.038  1.00  0.00     0.000 C 
BRANCH   4   5
ATOM      5  C   UNL     1      -0.642  10.192  -8.614  1.00  0.00     0.006 C 
BRANCH   5   6
ATOM      6  C   UNL     1       0.254  11.362  -8.198  1.00  0.00     0.053 C 
BRANCH   6   7
ATOM      7  C   UNL     1      -0.550  12.616  -8.063  1.00  0.00     0.041 C 
ATOM      8  O   UNL     1      -0.572  13.240  -6.969  1.00  0.00    -0.550 OA
ATOM      9  O   UNL     1      -1.233  13.125  -9.159  1.00  0.00    -0.550 OA
ENDBRANCH   6   7
ENDBRANCH   5   6
ENDBRANCH   4   5
ENDBRANCH   3   4
ENDBRANCH   2   3
ENDBRANCH   1   2
BRANCH   1  10
ATOM     10  C   UNL     1       2.550   7.131  -9.183  1.00  0.00     0.000 C 
BRANCH  10  11
ATOM     11  C   UNL     1       2.967   8.021  -8.001  1.00  0.00    -0.000 C 
BRANCH  11  12
ATOM     12  C   UNL     1       1.907   8.069  -6.891  1.00  0.00    -0.000 C 
BRANCH  12  13
ATOM     13  C   UNL     1       1.922   6.781  -6.060  1.00  0.00    -0.000 C 
BRANCH  13  14
ATOM     14  C   UNL     1       0.517   6.170  -5.965  1.00  0.00    -0.000 C 
BRANCH  14  15
ATOM     15  C   UNL     1      -0.537   6.984  -6.732  1.00  0.00    -0.000 C 
BRANCH  15  16
ATOM     16  C   UNL     1      -1.540   6.096  -7.483  1.00  0.00    -0.003 C 
ATOM     17  C   UNL     1      -0.830   4.951  -8.200  1.00  0.00     0.004 C 
ENDBRANCH  15  16
ENDBRANCH  14  15
ENDBRANCH  13  14
ENDBRANCH  12  13
ENDBRANCH  11  12
ENDBRANCH  10  11
ENDBRANCH   1  10
TORSDOF 13
ENDMDL
MODEL 8
REMARK VINA RESULT:    -1.877      7.427      9.431
REMARK INTER + INTRA:          -5.755
REMARK INTER:                  -3.631
REMARK INTRA:                  -2.124
REMARK UNBOUND:                -2.451
REMARK SMILES CCCCCCCCCCCCCCC(=O)[O-]
REMARK SMILES IDX 9 1 10 2 11 3 12 4 13 5 14 6 15 7 16 8 17 9 8 10 7 11 6 12
REMARK SMILES IDX 5 13 4 14 3 15 2 16 1 17
REMARK H PARENT
REMARK Flexibility Score: inf
ROOT
ATOM      1  C   UNL     1      -2.860   9.907 -11.175  1.00  0.00     0.000 C 
ENDROOT
BRANCH   1   2
ATOM      2  C   UNL     1      -3.581   9.950  -9.810  1.00  0.00     0.000 C 
BRANCH   2   3
ATOM      3  C   UNL     1      -2.971   9.006  -8.756  1.00  0.00     0.000 C 
BRANCH   3   4
ATOM      4  C   UNL     1      -2.185   7.817  -9.334  1.00  0.00     0.000 C 
BRANCH   4   5
ATOM      5  C   UNL     1      -0.801   7.652  -8.689  1.00  0.00     0.006 C 
BRANCH   5   6
ATOM      6  C   UNL     1      -0.928   7.222  -7.225  1.00  0.00     0.053 C 
BRANCH   6   7
ATOM      7  C   UNL     1       0.386   6.729  -6.707  1.00  0.00     0.041 C 
ATOM      8  O   UNL     1       1.330   6.485  -7.503  1.00  0.00    -0.550 OA
ATOM      9  O   UNL     1       0.585   6.588  -5.340  1.00  0.00    -0.550 OA
ENDBRANCH   6   7
ENDBRANCH   5   6
ENDBRANCH   4   5
ENDBRANCH   3   4
ENDBRANCH   2   3
ENDBRANCH   1   2
BRANCH   1  10
ATOM     10  C   UNL     1      -3.127  11.169 -12.014  1.00  0.00     0.000 C 
BRANCH  10  11
ATOM     11  C   UNL     1      -1.993  12.202 -11.908  1.00  0.00    -0.000 C 
BRANCH  11  12
ATOM     12  C   UNL     1      -2.201  13.195 -10.755  1.00  0.00    -0.000 C 
BRANCH  12  13
ATOM     13  C   UNL     1      -0.957  13.270  -9.862  1.00  0.00    -0.000 C 
BRANCH  13  14
ATOM     14  C   UNL     1      -1.077  12.309  -8.670  1.00  0.00    -0.000 C 
BRANCH  14  15
ATOM     15  C   UNL     1       0.005  11.218  -8.678  1.00  0.00    -0.000 C 
BRANCH  15  16
ATOM     16  C   UNL     1       0.968  11.348  -9.867  1.00  0.00    -0.003 C 
ATOM     17  C   UNL     1       0.846  10.151 -10.806  1.00  0.00     0.004 C 
ENDBRANCH  15  16
ENDBRANCH  14  15
ENDBRANCH  13  14
ENDBRANCH  12  13
ENDBRANCH  11  12
ENDBRANCH  10  11
ENDBRANCH   1  10
TORSDOF 13
ENDMDL
MODEL 9
REMARK VINA RESULT:    -1.840      4.617      8.556
REMARK INTER + INTRA:          -5.689
REMARK INTER:                  -3.284
REMARK INTRA:                  -2.405
REMARK UNBOUND:                -2.451
REMARK SMILES CCCCCCCCCCCCCCC(=O)[O-]
REMARK SMILES IDX 9 1 10 2 11 3 12 4 13 5 14 6 15 7 16 8 17 9 8 10 7 11 6 12
REMARK SMILES IDX 5 13 4 14 3 15 2 16 1 17
REMARK H PARENT
REMARK Flexibility Score: inf
ROOT
ATOM      1  C   UNL     1      -0.415  14.015 -12.496  1.00  0.00     0.000 C 
ENDROOT
BRANCH   1   2
ATOM      2  C   UNL     1      -1.722  13.272 -12.145  1.00  0.00     0.000 C 
BRANCH   2   3
ATOM      3  C   UNL     1      -2.049  13.271 -10.639  1.00  0.00     0.000 C 
BRANCH   3   4
ATOM      4  C   UNL     1      -1.935  11.898  -9.956  1.00  0.00     0.000 C 
BRANCH   4   5
ATOM      5  C   UNL     1      -1.549  10.779 -10.933  1.00  0.00     0.006 C 
BRANCH   5   6
ATOM      6  C   UNL     1      -0.263  10.080 -10.483  1.00  0.00     0.053 C 
BRANCH   6   7
ATOM      7  C   UNL     1      -0.578   8.935  -9.574  1.00  0.00     0.041 C 
ATOM      8  O   UNL     1      -1.418   8.064  -9.921  1.00  0.00    -0.550 OA
ATOM      9  O   UNL     1       0.094   8.800  -8.367  1.00  0.00    -0.550 OA
ENDBRANCH   6   7
ENDBRANCH   5   6
ENDBRANCH   4   5
ENDBRANCH   3   4
ENDBRANCH   2   3
ENDBRANCH   1   2
BRANCH   1  10
ATOM     10  C   UNL     1       0.792  13.064 -12.573  1.00  0.00     0.000 C 
BRANCH  10  11
ATOM     11  C   UNL     1       1.735  13.202 -11.367  1.00  0.00    -0.000 C 
BRANCH  11  12
ATOM     12  C   UNL     1       1.491  14.491 -10.568  1.00  0.00    -0.000 C 
BRANCH  12  13
ATOM     13  C   UNL     1       1.179  14.177  -9.101  1.00  0.00    -0.000 C 
BRANCH  13  14
ATOM     14  C   UNL     1       1.701  12.786  -8.713  1.00  0.00    -0.000 C 
BRANCH  14  15
ATOM     15  C   UNL     1       0.906  12.155  -7.559  1.00  0.00    -0.000 C 
BRANCH  15  16
ATOM     16  C   UNL     1      -0.158  13.103  -6.985  1.00  0.00    -0.003 C 
ATOM     17  C   UNL     1       0.134  13.437  -5.525  1.00  0.00     0.004 C 
ENDBRANCH  15  16
ENDBRANCH  14  15
ENDBRANCH  13  14
ENDBRANCH  12  13
ENDBRANCH  11  12
ENDBRANCH  10  11
ENDBRANCH   1  10
TORSDOF 13
ENDMDL
