MODEL 1
REMARK VINA RESULT:    -1.969      0.000      0.000
REMARK INTER + INTRA:          -1.969
REMARK INTER:                  -1.969
REMARK INTRA:                   0.000
REMARK UNBOUND:                 0.000
REMARK SMILES CC(=O)[O-]
REMARK SMILES IDX 1 1 2 2 3 3 4 4
REMARK H PARENT
REMARK Flexibility Score: inf
ROOT
ATOM      1  C   UNL     1       9.004 -19.077  31.626  1.00  0.00     0.063 C 
ATOM      2  C   UNL     1      10.369 -19.354  31.093  1.00  0.00     0.038 C 
ATOM      3  O   UNL     1      11.233 -18.439  31.062  1.00  0.00    -0.550 OA
ATOM      4  O   UNL     1      10.707 -20.636  30.679  1.00  0.00    -0.550 OA
ENDROOT
TORSDOF 0
ENDMDL
MODEL 2
REMARK VINA RESULT:    -1.967      8.417      8.611
REMARK INTER + INTRA:          -1.967
REMARK INTER:                  -1.967
REMARK INTRA:                   0.000
REMARK UNBOUND:                 0.000
REMARK SMILES CC(=O)[O-]
REMARK SMILES IDX 1 1 2 2 3 3 4 4
REMARK H PARENT
REMARK Flexibility Score: inf
ROOT
ATOM      1  C   UNL     1       7.404 -22.553  38.197  1.00  0.00     0.063 C 
ATOM      2  C   UNL     1       7.730 -21.281  38.902  1.00  0.00     0.038 C 
ATOM      3  O   UNL     1       7.228 -20.195  38.511  1.00  0.00    -0.550 OA
ATOM      4  O   UNL     1       8.546 -21.297  40.027  1.00  0.00    -0.550 OA
ENDROOT
TORSDOF 0
ENDMDL
MODEL 3
REMARK VINA RESULT:    -1.966      8.359      8.590
REMARK INTER + INTRA:          -1.966
REMARK INTER:                  -1.966
REMARK INTRA:                   0.000
REMARK UNBOUND:                 0.000
REMARK SMILES CC(=O)[O-]
REMARK SMILES IDX 1 1 2 2 3 3 4 4
REMARK H PARENT
REMARK Flexibility Score: inf
ROOT
ATOM      1  C   UNL     1       7.377 -22.588  38.199  1.00  0.00     0.063 C 
ATOM      2  C   UNL     1       7.694 -21.300  38.878  1.00  0.00     0.038 C 
ATOM      3  O   UNL     1       8.501 -21.276  39.844  1.00  0.00    -0.550 OA
ATOM      4  O   UNL     1       7.141 -20.113  38.413  1.00  0.00    -0.550 OA
ENDROOT
TORSDOF 0
ENDMDL
MODEL 4
REMARK VINA RESULT:    -1.962      9.796      9.981
REMARK INTER + INTRA:          -1.962
REMARK INTER:                  -1.962
REMARK INTRA:                   0.000
REMARK UNBOUND:                 0.000
REMARK SMILES CC(=O)[O-]
REMARK SMILES IDX 1 1 2 2 3 3 4 4
REMARK H PARENT
REMARK Flexibility Score: inf
ROOT
ATOM      1  C   UNL     1       7.789 -21.214  39.105  1.00  0.00     0.063 C 
ATOM      2  C   UNL     1       8.129 -21.654  40.488  1.00  0.00     0.038 C 
ATOM      3  O   UNL     1       9.237 -21.341  40.997  1.00  0.00    -0.550 OA
ATOM      4  O   UNL     1       7.201 -22.365  41.240  1.00  0.00    -0.550 OA
ENDROOT
TORSDOF 0
ENDMDL
MODEL 5
REMARK VINA RESULT:    -1.951      0.200      1.631
REMARK INTER + INTRA:          -1.951
REMARK INTER:                  -1.951
REMARK INTRA:                   0.000
REMARK UNBOUND:                 0.000
REMARK SMILES CC(=O)[O-]
REMARK SMILES IDX 1 1 2 2 3 3 4 4
REMARK H PARENT
REMARK Flexibility Score: inf
ROOT
ATOM      1  C   UNL     1       9.007 -19.000  31.625  1.00  0.00     0.063 C 
ATOM      2  C   UNL     1      10.412 -19.282  31.215  1.00  0.00     0.038 C 
ATOM      3  O   UNL     1      10.750 -20.446  30.875  1.00  0.00    -0.550 OA
ATOM      4  O   UNL     1      11.341 -18.250  31.155  1.00  0.00    -0.550 OA
ENDROOT
TORSDOF 0
ENDMDL
MODEL 6
REMARK VINA RESULT:    -1.950      2.037      2.179
REMARK INTER + INTRA:          -1.950
REMARK INTER:                  -1.950
REMARK INTRA:                   0.000
REMARK UNBOUND:                 0.000
REMARK SMILES CC(=O)[O-]
REMARK SMILES IDX 1 1 2 2 3 3 4 4
REMARK H PARENT
REMARK Flexibility Score: inf
ROOT
ATOM      1  C   UNL     1      10.732 -19.584  31.233  1.00  0.00     0.063 C 
ATOM      2  C   UNL     1       9.763 -20.208  30.288  1.00  0.00     0.038 C 
ATOM      3  O   UNL     1       8.547 -20.301  30.598  1.00  0.00    -0.550 OA
ATOM      4  O   UNL     1      10.191 -20.642  29.039  1.00  0.00    -0.550 OA
ENDROOT
TORSDOF 0
ENDMDL
MODEL 7
REMARK VINA RESULT:    -1.946      1.228      1.784
REMARK INTER + INTRA:          -1.946
REMARK INTER:                  -1.946
REMARK INTRA:                   0.000
REMARK UNBOUND:                 0.000
REMARK SMILES CC(=O)[O-]
REMARK SMILES IDX 1 1 2 2 3 3 4 4
REMARK H PARENT
REMARK Flexibility Score: inf
ROOT
ATOM      1  C   UNL     1       8.582 -19.872  30.824  1.00  0.00     0.063 C 
ATOM      2  C   UNL     1       9.980 -20.176  30.406  1.00  0.00     0.038 C 
ATOM      3  O   UNL     1      10.215 -20.604  29.246  1.00  0.00    -0.550 OA
ATOM      4  O   UNL     1      11.035 -19.937  31.279  1.00  0.00    -0.550 OA
ENDROOT
TORSDOF 0
ENDMDL
MODEL 8
REMARK VINA RESULT:    -1.931      1.956      2.224
REMARK INTER + INTRA:          -1.931
REMARK INTER:                  -1.931
REMARK INTRA:                   0.000
REMARK UNBOUND:                 0.000
REMARK SMILES CC(=O)[O-]
REMARK SMILES IDX 1 1 2 2 3 3 4 4
REMARK H PARENT
REMARK Flexibility Score: inf
ROOT
ATOM      1  C   UNL     1      10.700 -19.522  31.236  1.00  0.00     0.063 C 
ATOM      2  C   UNL     1       9.771 -20.188  30.278  1.00  0.00     0.038 C 
ATOM      3  O   UNL     1      10.214 -20.684  29.210  1.00  0.00    -0.550 OA
ATOM      4  O   UNL     1       8.422 -20.310  30.588  1.00  0.00    -0.550 OA
ENDROOT
TORSDOF 0
ENDMDL
MODEL 9
REMARK VINA RESULT:    -1.642      8.438      8.781
REMARK INTER + INTRA:          -1.642
REMARK INTER:                  -1.642
REMARK INTRA:                   0.000
REMARK UNBOUND:                 0.000
REMARK SMILES CC(=O)[O-]
REMARK SMILES IDX 1 1 2 2 3 3 4 4
REMARK H PARENT
REMARK Flexibility Score: inf
ROOT
ATOM      1  C   UNL     1      17.125 -14.010  28.981  1.00  0.00     0.063 C 
ATOM      2  C   UNL     1      15.849 -13.245  28.894  1.00  0.00     0.038 C 
ATOM      3  O   UNL     1      15.407 -12.877  27.774  1.00  0.00    -0.550 OA
ATOM      4  O   UNL     1      15.115 -12.982  30.044  1.00  0.00    -0.550 OA
ENDROOT
TORSDOF 0
ENDMDL
