MODEL 1
REMARK VINA RESULT:    17.276      0.000      0.000
REMARK INTER + INTRA:          36.092
REMARK INTER:                  37.475
REMARK INTRA:                  -1.382
REMARK UNBOUND:                -1.382
REMARK SMILES CCCCCCCCCCCCCCCCCCCCCC(=O)[O-]
REMARK SMILES IDX 12 1 11 2 10 3 9 4 8 5 7 6 6 7 5 8 4 9 3 10 2 11 1 12 13 13
REMARK SMILES IDX 14 14 15 15 16 16 17 17 18 18 19 19 20 20 21 21 22 22 23 23
REMARK SMILES IDX 24 24
REMARK H PARENT
REMARK Flexibility Score: inf
ROOT
ATOM      1  C   UNL     1       5.156  17.788  27.548  1.00  0.00     0.000 C 
ENDROOT
BRANCH   1   2
ATOM      2  C   UNL     1       5.826  17.922  26.161  1.00  0.00     0.000 C 
BRANCH   2   3
ATOM      3  C   UNL     1       7.313  17.516  26.136  1.00  0.00     0.000 C 
BRANCH   3   4
ATOM      4  C   UNL     1       8.255  18.391  26.992  1.00  0.00    -0.000 C 
BRANCH   4   5
ATOM      5  C   UNL     1       9.352  17.627  27.753  1.00  0.00    -0.000 C 
BRANCH   5   6
ATOM      6  C   UNL     1       9.492  18.081  29.217  1.00  0.00    -0.000 C 
BRANCH   6   7
ATOM      7  C   UNL     1       8.513  17.357  30.156  1.00  0.00    -0.000 C 
BRANCH   7   8
ATOM      8  C   UNL     1       9.085  17.178  31.574  1.00  0.00    -0.000 C 
BRANCH   8   9
ATOM      9  C   UNL     1       8.026  16.706  32.583  1.00  0.00    -0.000 C 
BRANCH   9  10
ATOM     10  C   UNL     1       7.163  17.857  33.124  1.00  0.00    -0.000 C 
BRANCH  10  11
ATOM     11  C   UNL     1       7.922  19.188  33.057  1.00  0.00    -0.003 C 
ATOM     12  C   UNL     1       7.200  20.188  32.157  1.00  0.00     0.004 C 
ENDBRANCH  10  11
ENDBRANCH   9  10
ENDBRANCH   8   9
ENDBRANCH   7   8
ENDBRANCH   6   7
ENDBRANCH   5   6
ENDBRANCH   4   5
ENDBRANCH   3   4
ENDBRANCH   2   3
ENDBRANCH   1   2
BRANCH   1  13
ATOM     13  C   UNL     1       3.622  17.918  27.508  1.00  0.00     0.000 C 
BRANCH  13  14
ATOM     14  C   UNL     1       2.993  17.712  26.118  1.00  0.00     0.000 C 
BRANCH  14  15
ATOM     15  C   UNL     1       1.453  17.667  26.106  1.00  0.00     0.000 C 
BRANCH  15  16
ATOM     16  C   UNL     1       0.862  16.828  24.952  1.00  0.00     0.000 C 
BRANCH  16  17
ATOM     17  C   UNL     1       0.282  17.705  23.828  1.00  0.00     0.000 C 
BRANCH  17  18
ATOM     18  C   UNL     1      -0.176  19.089  24.323  1.00  0.00     0.000 C 
BRANCH  18  19
ATOM     19  C   UNL     1       0.802  20.233  23.978  1.00  0.00     0.000 C 
BRANCH  19  20
ATOM     20  C   UNL     1       1.884  19.858  22.945  1.00  0.00     0.006 C 
BRANCH  20  21
ATOM     21  C   UNL     1       2.571  21.086  22.316  1.00  0.00     0.053 C 
BRANCH  21  22
ATOM     22  C   UNL     1       4.063  20.952  22.402  1.00  0.00     0.041 C 
ATOM     23  O   UNL     1       4.806  21.870  21.966  1.00  0.00    -0.550 OA
ATOM     24  O   UNL     1       4.629  19.827  22.989  1.00  0.00    -0.550 OA
ENDBRANCH  21  22
ENDBRANCH  20  21
ENDBRANCH  19  20
ENDBRANCH  18  19
ENDBRANCH  17  18
ENDBRANCH  16  17
ENDBRANCH  15  16
ENDBRANCH  14  15
ENDBRANCH  13  14
ENDBRANCH   1  13
TORSDOF 20
ENDMDL
MODEL 2
REMARK VINA RESULT:    17.544      4.803      6.679
REMARK INTER + INTRA:          36.674
REMARK INTER:                  37.736
REMARK INTRA:                  -1.062
REMARK UNBOUND:                -1.382
REMARK SMILES CCCCCCCCCCCCCCCCCCCCCC(=O)[O-]
REMARK SMILES IDX 12 1 11 2 10 3 9 4 8 5 7 6 6 7 5 8 4 9 3 10 2 11 1 12 13 13
REMARK SMILES IDX 14 14 15 15 16 16 17 17 18 18 19 19 20 20 21 21 22 22 23 23
REMARK SMILES IDX 24 24
REMARK H PARENT
REMARK Flexibility Score: inf
ROOT
ATOM      1  C   UNL     1       9.985  16.735  27.920  1.00  0.00     0.000 C 
ENDROOT
BRANCH   1   2
ATOM      2  C   UNL     1      10.193  15.822  26.690  1.00  0.00     0.000 C 
BRANCH   2   3
ATOM      3  C   UNL     1       9.997  14.320  26.979  1.00  0.00     0.000 C 
BRANCH   3   4
ATOM      4  C   UNL     1      11.177  13.406  26.576  1.00  0.00    -0.000 C 
BRANCH   4   5
ATOM      5  C   UNL     1      11.141  11.987  27.169  1.00  0.00    -0.000 C 
BRANCH   5   6
ATOM      6  C   UNL     1       9.888  11.196  26.752  1.00  0.00    -0.000 C 
BRANCH   6   7
ATOM      7  C   UNL     1      10.020   9.691  27.035  1.00  0.00    -0.000 C 
BRANCH   7   8
ATOM      8  C   UNL     1       8.759   9.107  27.697  1.00  0.00    -0.000 C 
BRANCH   8   9
ATOM      9  C   UNL     1       7.466   9.521  26.977  1.00  0.00    -0.000 C 
BRANCH   9  10
ATOM     10  C   UNL     1       6.222   9.402  27.873  1.00  0.00    -0.000 C 
BRANCH  10  11
ATOM     11  C   UNL     1       5.208  10.506  27.549  1.00  0.00    -0.003 C 
ATOM     12  C   UNL     1       5.612  11.273  26.293  1.00  0.00     0.004 C 
ENDBRANCH  10  11
ENDBRANCH   9  10
ENDBRANCH   8   9
ENDBRANCH   7   8
ENDBRANCH   6   7
ENDBRANCH   5   6
ENDBRANCH   4   5
ENDBRANCH   3   4
ENDBRANCH   2   3
ENDBRANCH   1   2
BRANCH   1  13
ATOM     13  C   UNL     1       8.693  17.571  27.857  1.00  0.00     0.000 C 
BRANCH  13  14
ATOM     14  C   UNL     1       7.795  17.279  26.640  1.00  0.00     0.000 C 
BRANCH  14  15
ATOM     15  C   UNL     1       6.906  18.457  26.197  1.00  0.00     0.000 C 
BRANCH  15  16
ATOM     16  C   UNL     1       5.409  18.094  26.069  1.00  0.00     0.000 C 
BRANCH  16  17
ATOM     17  C   UNL     1       4.751  17.839  27.437  1.00  0.00     0.000 C 
BRANCH  17  18
ATOM     18  C   UNL     1       3.230  18.072  27.423  1.00  0.00     0.000 C 
BRANCH  18  19
ATOM     19  C   UNL     1       2.527  17.547  26.152  1.00  0.00     0.000 C 
BRANCH  19  20
ATOM     20  C   UNL     1       1.066  18.013  25.992  1.00  0.00     0.006 C 
BRANCH  20  21
ATOM     21  C   UNL     1       0.765  18.591  24.596  1.00  0.00     0.053 C 
BRANCH  21  22
ATOM     22  C   UNL     1       0.105  17.556  23.733  1.00  0.00     0.041 C 
ATOM     23  O   UNL     1      -0.162  16.418  24.203  1.00  0.00    -0.550 OA
ATOM     24  O   UNL     1      -0.241  17.858  22.423  1.00  0.00    -0.550 OA
ENDBRANCH  21  22
ENDBRANCH  20  21
ENDBRANCH  19  20
ENDBRANCH  18  19
ENDBRANCH  17  18
ENDBRANCH  16  17
ENDBRANCH  15  16
ENDBRANCH  14  15
ENDBRANCH  13  14
ENDBRANCH   1  13
TORSDOF 20
ENDMDL
MODEL 3
REMARK VINA RESULT:    17.611      5.315      9.684
REMARK INTER + INTRA:          36.819
REMARK INTER:                  37.851
REMARK INTRA:                  -1.032
REMARK UNBOUND:                -1.382
REMARK SMILES CCCCCCCCCCCCCCCCCCCCCC(=O)[O-]
REMARK SMILES IDX 12 1 11 2 10 3 9 4 8 5 7 6 6 7 5 8 4 9 3 10 2 11 1 12 13 13
REMARK SMILES IDX 14 14 15 15 16 16 17 17 18 18 19 19 20 20 21 21 22 22 23 23
REMARK SMILES IDX 24 24
REMARK H PARENT
REMARK Flexibility Score: inf
ROOT
ATOM      1  C   UNL     1       9.594  15.513  27.065  1.00  0.00     0.000 C 
ENDROOT
BRANCH   1   2
ATOM      2  C   UNL     1       9.853  16.824  27.841  1.00  0.00     0.000 C 
BRANCH   2   3
ATOM      3  C   UNL     1       8.629  17.758  27.930  1.00  0.00     0.000 C 
BRANCH   3   4
ATOM      4  C   UNL     1       7.390  17.307  27.125  1.00  0.00    -0.000 C 
BRANCH   4   5
ATOM      5  C   UNL     1       6.866  18.328  26.100  1.00  0.00    -0.000 C 
BRANCH   5   6
ATOM      6  C   UNL     1       5.330  18.344  26.003  1.00  0.00    -0.000 C 
BRANCH   6   7
ATOM      7  C   UNL     1       4.655  17.762  27.256  1.00  0.00    -0.000 C 
BRANCH   7   8
ATOM      8  C   UNL     1       3.138  18.022  27.278  1.00  0.00    -0.000 C 
BRANCH   8   9
ATOM      9  C   UNL     1       2.476  17.784  25.911  1.00  0.00    -0.000 C 
BRANCH   9  10
ATOM     10  C   UNL     1       1.019  18.271  25.863  1.00  0.00    -0.000 C 
BRANCH  10  11
ATOM     11  C   UNL     1       0.573  18.520  24.416  1.00  0.00    -0.003 C 
ATOM     12  C   UNL     1       0.053  17.237  23.772  1.00  0.00     0.004 C 
ENDBRANCH  10  11
ENDBRANCH   9  10
ENDBRANCH   8   9
ENDBRANCH   7   8
ENDBRANCH   6   7
ENDBRANCH   5   6
ENDBRANCH   4   5
ENDBRANCH   3   4
ENDBRANCH   2   3
ENDBRANCH   1   2
BRANCH   1  13
ATOM     13  C   UNL     1      10.856  14.924  26.407  1.00  0.00     0.000 C 
BRANCH  13  14
ATOM     14  C   UNL     1      10.820  13.399  26.194  1.00  0.00     0.000 C 
BRANCH  14  15
ATOM     15  C   UNL     1      11.613  12.584  27.235  1.00  0.00     0.000 C 
BRANCH  15  16
ATOM     16  C   UNL     1      10.835  11.378  27.805  1.00  0.00     0.000 C 
BRANCH  16  17
ATOM     17  C   UNL     1      10.007  10.653  26.728  1.00  0.00     0.000 C 
BRANCH  17  18
ATOM     18  C   UNL     1       9.617   9.221  27.134  1.00  0.00     0.000 C 
BRANCH  18  19
ATOM     19  C   UNL     1       8.507   9.153  28.206  1.00  0.00     0.000 C 
BRANCH  19  20
ATOM     20  C   UNL     1       7.096   8.878  27.646  1.00  0.00     0.006 C 
BRANCH  20  21
ATOM     21  C   UNL     1       6.750   9.751  26.424  1.00  0.00     0.053 C 
BRANCH  21  22
ATOM     22  C   UNL     1       5.688  10.749  26.778  1.00  0.00     0.041 C 
ATOM     23  O   UNL     1       5.006  10.602  27.827  1.00  0.00    -0.550 OA
ATOM     24  O   UNL     1       5.472  11.855  25.966  1.00  0.00    -0.550 OA
ENDBRANCH  21  22
ENDBRANCH  20  21
ENDBRANCH  19  20
ENDBRANCH  18  19
ENDBRANCH  17  18
ENDBRANCH  16  17
ENDBRANCH  15  16
ENDBRANCH  14  15
ENDBRANCH  13  14
ENDBRANCH   1  13
TORSDOF 20
ENDMDL
MODEL 4
REMARK VINA RESULT:    17.870      5.085     10.158
REMARK INTER + INTRA:          37.382
REMARK INTER:                  38.374
REMARK INTRA:                  -0.992
REMARK UNBOUND:                -1.382
REMARK SMILES CCCCCCCCCCCCCCCCCCCCCC(=O)[O-]
REMARK SMILES IDX 12 1 11 2 10 3 9 4 8 5 7 6 6 7 5 8 4 9 3 10 2 11 1 12 13 13
REMARK SMILES IDX 14 14 15 15 16 16 17 17 18 18 19 19 20 20 21 21 22 22 23 23
REMARK SMILES IDX 24 24
REMARK H PARENT
REMARK Flexibility Score: inf
ROOT
ATOM      1  C   UNL     1       8.434  17.441  27.899  1.00  0.00     0.000 C 
ENDROOT
BRANCH   1   2
ATOM      2  C   UNL     1       7.383  17.132  26.809  1.00  0.00     0.000 C 
BRANCH   2   3
ATOM      3  C   UNL     1       6.495  18.334  26.428  1.00  0.00     0.000 C 
BRANCH   3   4
ATOM      4  C   UNL     1       5.846  18.262  25.028  1.00  0.00    -0.000 C 
BRANCH   4   5
ATOM      5  C   UNL     1       5.267  19.588  24.504  1.00  0.00    -0.000 C 
BRANCH   5   6
ATOM      6  C   UNL     1       4.513  19.426  23.172  1.00  0.00    -0.000 C 
BRANCH   6   7
ATOM      7  C   UNL     1       4.116  20.775  22.551  1.00  0.00    -0.000 C 
BRANCH   7   8
ATOM      8  C   UNL     1       2.670  21.177  22.895  1.00  0.00    -0.000 C 
BRANCH   8   9
ATOM      9  C   UNL     1       1.690  19.996  22.805  1.00  0.00    -0.000 C 
BRANCH   9  10
ATOM     10  C   UNL     1       0.760  19.899  24.025  1.00  0.00    -0.000 C 
BRANCH  10  11
ATOM     11  C   UNL     1       0.777  18.484  24.615  1.00  0.00    -0.003 C 
ATOM     12  C   UNL     1       0.105  17.487  23.674  1.00  0.00     0.004 C 
ENDBRANCH  10  11
ENDBRANCH   9  10
ENDBRANCH   8   9
ENDBRANCH   7   8
ENDBRANCH   6   7
ENDBRANCH   5   6
ENDBRANCH   4   5
ENDBRANCH   3   4
ENDBRANCH   2   3
ENDBRANCH   1   2
BRANCH   1  13
ATOM     13  C   UNL     1       9.815  16.820  27.621  1.00  0.00     0.000 C 
BRANCH  13  14
ATOM     14  C   UNL     1       9.780  15.503  26.823  1.00  0.00     0.000 C 
BRANCH  14  15
ATOM     15  C   UNL     1      10.920  14.519  27.151  1.00  0.00     0.000 C 
BRANCH  15  16
ATOM     16  C   UNL     1      10.889  13.226  26.306  1.00  0.00     0.000 C 
BRANCH  16  17
ATOM     17  C   UNL     1      10.838  11.959  27.178  1.00  0.00     0.000 C 
BRANCH  17  18
ATOM     18  C   UNL     1       9.869  10.895  26.632  1.00  0.00     0.000 C 
BRANCH  18  19
ATOM     19  C   UNL     1       9.753   9.637  27.522  1.00  0.00     0.000 C 
BRANCH  19  20
ATOM     20  C   UNL     1       8.347   9.004  27.552  1.00  0.00     0.006 C 
BRANCH  20  21
ATOM     21  C   UNL     1       7.418   9.543  26.446  1.00  0.00     0.053 C 
BRANCH  21  22
ATOM     22  C   UNL     1       6.180  10.139  27.047  1.00  0.00     0.041 C 
ATOM     23  O   UNL     1       5.599  11.099  26.475  1.00  0.00    -0.550 OA
ATOM     24  O   UNL     1       5.654   9.616  28.221  1.00  0.00    -0.550 OA
ENDBRANCH  21  22
ENDBRANCH  20  21
ENDBRANCH  19  20
ENDBRANCH  18  19
ENDBRANCH  17  18
ENDBRANCH  16  17
ENDBRANCH  15  16
ENDBRANCH  14  15
ENDBRANCH  13  14
ENDBRANCH   1  13
TORSDOF 20
ENDMDL
MODEL 5
REMARK VINA RESULT:    17.897      5.348      9.939
REMARK INTER + INTRA:          37.441
REMARK INTER:                  38.550
REMARK INTRA:                  -1.110
REMARK UNBOUND:                -1.382
REMARK SMILES CCCCCCCCCCCCCCCCCCCCCC(=O)[O-]
REMARK SMILES IDX 12 1 11 2 10 3 9 4 8 5 7 6 6 7 5 8 4 9 3 10 2 11 1 12 13 13
REMARK SMILES IDX 14 14 15 15 16 16 17 17 18 18 19 19 20 20 21 21 22 22 23 23
REMARK SMILES IDX 24 24
REMARK H PARENT
REMARK Flexibility Score: inf
ROOT
ATOM      1  C   UNL     1       9.480  15.482  27.077  1.00  0.00     0.000 C 
ENDROOT
BRANCH   1   2
ATOM      2  C   UNL     1       9.673  16.852  27.768  1.00  0.00     0.000 C 
BRANCH   2   3
ATOM      3  C   UNL     1       8.435  17.770  27.708  1.00  0.00     0.000 C 
BRANCH   3   4
ATOM      4  C   UNL     1       7.255  17.240  26.862  1.00  0.00    -0.000 C 
BRANCH   4   5
ATOM      5  C   UNL     1       5.953  18.052  26.969  1.00  0.00    -0.000 C 
BRANCH   5   6
ATOM      6  C   UNL     1       5.681  18.911  25.721  1.00  0.00    -0.000 C 
BRANCH   6   7
ATOM      7  C   UNL     1       6.102  18.210  24.419  1.00  0.00    -0.000 C 
BRANCH   7   8
ATOM      8  C   UNL     1       5.343  18.747  23.192  1.00  0.00    -0.000 C 
BRANCH   8   9
ATOM      9  C   UNL     1       4.488  19.982  23.518  1.00  0.00    -0.000 C 
BRANCH   9  10
ATOM     10  C   UNL     1       4.046  20.749  22.261  1.00  0.00    -0.000 C 
BRANCH  10  11
ATOM     11  C   UNL     1       2.518  20.753  22.132  1.00  0.00    -0.003 C 
ATOM     12  C   UNL     1       1.871  21.524  23.279  1.00  0.00     0.004 C 
ENDBRANCH  10  11
ENDBRANCH   9  10
ENDBRANCH   8   9
ENDBRANCH   7   8
ENDBRANCH   6   7
ENDBRANCH   5   6
ENDBRANCH   4   5
ENDBRANCH   3   4
ENDBRANCH   2   3
ENDBRANCH   1   2
BRANCH   1  13
ATOM     13  C   UNL     1      10.765  14.926  26.436  1.00  0.00     0.000 C 
BRANCH  13  14
ATOM     14  C   UNL     1      10.791  13.396  26.269  1.00  0.00     0.000 C 
BRANCH  14  15
ATOM     15  C   UNL     1      11.667  12.650  27.294  1.00  0.00     0.000 C 
BRANCH  15  16
ATOM     16  C   UNL     1      11.038  11.338  27.814  1.00  0.00     0.000 C 
BRANCH  16  17
ATOM     17  C   UNL     1      10.098  10.692  26.781  1.00  0.00     0.000 C 
BRANCH  17  18
ATOM     18  C   UNL     1       9.648   9.276  27.183  1.00  0.00     0.000 C 
BRANCH  18  19
ATOM     19  C   UNL     1       8.435   9.252  28.139  1.00  0.00     0.000 C 
BRANCH  19  20
ATOM     20  C   UNL     1       7.103   8.853  27.471  1.00  0.00     0.006 C 
BRANCH  20  21
ATOM     21  C   UNL     1       6.685   9.810  26.338  1.00  0.00     0.053 C 
BRANCH  21  22
ATOM     22  C   UNL     1       5.671  10.797  26.836  1.00  0.00     0.041 C 
ATOM     23  O   UNL     1       4.985  10.537  27.860  1.00  0.00    -0.550 OA
ATOM     24  O   UNL     1       5.505  12.013  26.186  1.00  0.00    -0.550 OA
ENDBRANCH  21  22
ENDBRANCH  20  21
ENDBRANCH  19  20
ENDBRANCH  18  19
ENDBRANCH  17  18
ENDBRANCH  16  17
ENDBRANCH  15  16
ENDBRANCH  14  15
ENDBRANCH  13  14
ENDBRANCH   1  13
TORSDOF 20
ENDMDL
MODEL 6
REMARK VINA RESULT:    17.982      4.671      6.269
REMARK INTER + INTRA:          37.623
REMARK INTER:                  38.304
REMARK INTRA:                  -0.681
REMARK UNBOUND:                -1.382
REMARK SMILES CCCCCCCCCCCCCCCCCCCCCC(=O)[O-]
REMARK SMILES IDX 12 1 11 2 10 3 9 4 8 5 7 6 6 7 5 8 4 9 3 10 2 11 1 12 13 13
REMARK SMILES IDX 14 14 15 15 16 16 17 17 18 18 19 19 20 20 21 21 22 22 23 23
REMARK SMILES IDX 24 24
REMARK H PARENT
REMARK Flexibility Score: inf
ROOT
ATOM      1  C   UNL     1       8.819  16.847  27.500  1.00  0.00     0.000 C 
ENDROOT
BRANCH   1   2
ATOM      2  C   UNL     1       9.061  15.515  26.754  1.00  0.00     0.000 C 
BRANCH   2   3
ATOM      3  C   UNL     1      10.499  14.972  26.882  1.00  0.00     0.000 C 
BRANCH   3   4
ATOM      4  C   UNL     1      10.723  13.548  26.325  1.00  0.00    -0.000 C 
BRANCH   4   5
ATOM      5  C   UNL     1      11.611  12.637  27.190  1.00  0.00    -0.000 C 
BRANCH   5   6
ATOM      6  C   UNL     1      10.853  11.418  27.747  1.00  0.00    -0.000 C 
BRANCH   6   7
ATOM      7  C   UNL     1      10.079  10.657  26.658  1.00  0.00    -0.000 C 
BRANCH   7   8
ATOM      8  C   UNL     1       9.229   9.511  27.236  1.00  0.00    -0.000 C 
BRANCH   8   9
ATOM      9  C   UNL     1       7.784   9.523  26.713  1.00  0.00    -0.000 C 
BRANCH   9  10
ATOM     10  C   UNL     1       6.745   9.332  27.829  1.00  0.00    -0.000 C 
BRANCH  10  11
ATOM     11  C   UNL     1       5.473  10.138  27.537  1.00  0.00    -0.003 C 
ATOM     12  C   UNL     1       5.717  11.173  26.442  1.00  0.00     0.004 C 
ENDBRANCH  10  11
ENDBRANCH   9  10
ENDBRANCH   8   9
ENDBRANCH   7   8
ENDBRANCH   6   7
ENDBRANCH   5   6
ENDBRANCH   4   5
ENDBRANCH   3   4
ENDBRANCH   2   3
ENDBRANCH   1   2
BRANCH   1  13
ATOM     13  C   UNL     1       7.428  17.456  27.243  1.00  0.00     0.000 C 
BRANCH  13  14
ATOM     14  C   UNL     1       7.295  18.221  25.914  1.00  0.00     0.000 C 
BRANCH  14  15
ATOM     15  C   UNL     1       5.855  18.622  25.541  1.00  0.00     0.000 C 
BRANCH  15  16
ATOM     16  C   UNL     1       5.667  18.950  24.043  1.00  0.00     0.000 C 
BRANCH  16  17
ATOM     17  C   UNL     1       4.217  19.344  23.708  1.00  0.00     0.000 C 
BRANCH  17  18
ATOM     18  C   UNL     1       4.129  20.485  22.678  1.00  0.00     0.000 C 
BRANCH  18  19
ATOM     19  C   UNL     1       2.697  21.019  22.455  1.00  0.00     0.000 C 
BRANCH  19  20
ATOM     20  C   UNL     1       1.590  19.954  22.593  1.00  0.00     0.006 C 
BRANCH  20  21
ATOM     21  C   UNL     1       0.985  19.893  24.009  1.00  0.00     0.053 C 
BRANCH  21  22
ATOM     22  C   UNL     1       0.663  18.475  24.379  1.00  0.00     0.041 C 
ATOM     23  O   UNL     1       0.995  18.025  25.507  1.00  0.00    -0.550 OA
ATOM     24  O   UNL     1      -0.028  17.663  23.490  1.00  0.00    -0.550 OA
ENDBRANCH  21  22
ENDBRANCH  20  21
ENDBRANCH  19  20
ENDBRANCH  18  19
ENDBRANCH  17  18
ENDBRANCH  16  17
ENDBRANCH  15  16
ENDBRANCH  14  15
ENDBRANCH  13  14
ENDBRANCH   1  13
TORSDOF 20
ENDMDL
MODEL 7
REMARK VINA RESULT:    17.996      4.779      6.676
REMARK INTER + INTRA:          37.655
REMARK INTER:                  38.793
REMARK INTRA:                  -1.138
REMARK UNBOUND:                -1.382
REMARK SMILES CCCCCCCCCCCCCCCCCCCCCC(=O)[O-]
REMARK SMILES IDX 12 1 11 2 10 3 9 4 8 5 7 6 6 7 5 8 4 9 3 10 2 11 1 12 13 13
REMARK SMILES IDX 14 14 15 15 16 16 17 17 18 18 19 19 20 20 21 21 22 22 23 23
REMARK SMILES IDX 24 24
REMARK H PARENT
REMARK Flexibility Score: inf
ROOT
ATOM      1  C   UNL     1      10.130  15.954  26.480  1.00  0.00     0.000 C 
ENDROOT
BRANCH   1   2
ATOM      2  C   UNL     1      10.033  14.479  26.935  1.00  0.00     0.000 C 
BRANCH   2   3
ATOM      3  C   UNL     1      11.102  13.556  26.316  1.00  0.00     0.000 C 
BRANCH   3   4
ATOM      4  C   UNL     1      11.829  12.622  27.309  1.00  0.00    -0.000 C 
BRANCH   4   5
ATOM      5  C   UNL     1      10.970  11.485  27.890  1.00  0.00    -0.000 C 
BRANCH   5   6
ATOM      6  C   UNL     1      10.073  10.814  26.834  1.00  0.00    -0.000 C 
BRANCH   6   7
ATOM      7  C   UNL     1       9.508   9.466  27.310  1.00  0.00    -0.000 C 
BRANCH   7   8
ATOM      8  C   UNL     1       8.076   9.218  26.803  1.00  0.00    -0.000 C 
BRANCH   8   9
ATOM      9  C   UNL     1       7.054   9.103  27.945  1.00  0.00    -0.000 C 
BRANCH   9  10
ATOM     10  C   UNL     1       5.782   9.929  27.692  1.00  0.00    -0.000 C 
BRANCH  10  11
ATOM     11  C   UNL     1       5.912  10.752  26.404  1.00  0.00    -0.003 C 
ATOM     12  C   UNL     1       5.188  12.090  26.531  1.00  0.00     0.004 C 
ENDBRANCH  10  11
ENDBRANCH   9  10
ENDBRANCH   8   9
ENDBRANCH   7   8
ENDBRANCH   6   7
ENDBRANCH   5   6
ENDBRANCH   4   5
ENDBRANCH   3   4
ENDBRANCH   2   3
ENDBRANCH   1   2
BRANCH   1  13
ATOM     13  C   UNL     1       9.993  16.967  27.632  1.00  0.00     0.000 C 
BRANCH  13  14
ATOM     14  C   UNL     1       8.543  17.308  28.020  1.00  0.00     0.000 C 
BRANCH  14  15
ATOM     15  C   UNL     1       7.523  17.192  26.871  1.00  0.00     0.000 C 
BRANCH  15  16
ATOM     16  C   UNL     1       6.213  17.973  27.119  1.00  0.00     0.000 C 
BRANCH  16  17
ATOM     17  C   UNL     1       5.768  18.777  25.884  1.00  0.00     0.000 C 
BRANCH  17  18
ATOM     18  C   UNL     1       6.002  18.023  24.562  1.00  0.00     0.000 C 
BRANCH  18  19
ATOM     19  C   UNL     1       5.434  18.744  23.320  1.00  0.00     0.000 C 
BRANCH  19  20
ATOM     20  C   UNL     1       4.429  19.870  23.640  1.00  0.00     0.006 C 
BRANCH  20  21
ATOM     21  C   UNL     1       4.089  20.743  22.416  1.00  0.00     0.053 C 
BRANCH  21  22
ATOM     22  C   UNL     1       2.604  20.906  22.287  1.00  0.00     0.041 C 
ATOM     23  O   UNL     1       1.961  20.210  21.457  1.00  0.00    -0.550 OA
ATOM     24  O   UNL     1       1.928  21.805  23.102  1.00  0.00    -0.550 OA
ENDBRANCH  21  22
ENDBRANCH  20  21
ENDBRANCH  19  20
ENDBRANCH  18  19
ENDBRANCH  17  18
ENDBRANCH  16  17
ENDBRANCH  15  16
ENDBRANCH  14  15
ENDBRANCH  13  14
ENDBRANCH   1  13
TORSDOF 20
ENDMDL
MODEL 8
REMARK VINA RESULT:    18.035      1.896      3.259
REMARK INTER + INTRA:          37.740
REMARK INTER:                  38.486
REMARK INTRA:                  -0.747
REMARK UNBOUND:                -1.382
REMARK SMILES CCCCCCCCCCCCCCCCCCCCCC(=O)[O-]
REMARK SMILES IDX 12 1 11 2 10 3 9 4 8 5 7 6 6 7 5 8 4 9 3 10 2 11 1 12 13 13
REMARK SMILES IDX 14 14 15 15 16 16 17 17 18 18 19 19 20 20 21 21 22 22 23 23
REMARK SMILES IDX 24 24
REMARK H PARENT
REMARK Flexibility Score: inf
ROOT
ATOM      1  C   UNL     1       6.097  17.864  27.462  1.00  0.00     0.000 C 
ENDROOT
BRANCH   1   2
ATOM      2  C   UNL     1       7.557  17.519  27.087  1.00  0.00     0.000 C 
BRANCH   2   3
ATOM      3  C   UNL     1       8.608  18.456  27.715  1.00  0.00     0.000 C 
BRANCH   3   4
ATOM      4  C   UNL     1       9.922  17.776  28.162  1.00  0.00    -0.000 C 
BRANCH   4   5
ATOM      5  C   UNL     1       9.835  16.977  29.473  1.00  0.00    -0.000 C 
BRANCH   5   6
ATOM      6  C   UNL     1       9.190  17.777  30.620  1.00  0.00    -0.000 C 
BRANCH   6   7
ATOM      7  C   UNL     1       9.677  17.319  32.005  1.00  0.00    -0.000 C 
BRANCH   7   8
ATOM      8  C   UNL     1       8.524  16.825  32.897  1.00  0.00    -0.000 C 
BRANCH   8   9
ATOM      9  C   UNL     1       7.352  17.818  32.955  1.00  0.00    -0.000 C 
BRANCH   9  10
ATOM     10  C   UNL     1       7.795  19.274  32.739  1.00  0.00    -0.000 C 
BRANCH  10  11
ATOM     11  C   UNL     1       6.592  20.169  32.413  1.00  0.00    -0.003 C 
ATOM     12  C   UNL     1       6.700  21.516  33.123  1.00  0.00     0.004 C 
ENDBRANCH  10  11
ENDBRANCH   9  10
ENDBRANCH   8   9
ENDBRANCH   7   8
ENDBRANCH   6   7
ENDBRANCH   5   6
ENDBRANCH   4   5
ENDBRANCH   3   4
ENDBRANCH   2   3
ENDBRANCH   1   2
BRANCH   1  13
ATOM     13  C   UNL     1       5.138  17.883  26.257  1.00  0.00     0.000 C 
BRANCH  13  14
ATOM     14  C   UNL     1       5.619  18.728  25.064  1.00  0.00     0.000 C 
BRANCH  14  15
ATOM     15  C   UNL     1       4.563  18.949  23.962  1.00  0.00     0.000 C 
BRANCH  15  16
ATOM     16  C   UNL     1       4.994  19.965  22.882  1.00  0.00     0.000 C 
BRANCH  16  17
ATOM     17  C   UNL     1       3.917  21.034  22.623  1.00  0.00     0.000 C 
BRANCH  17  18
ATOM     18  C   UNL     1       2.516  20.434  22.408  1.00  0.00     0.000 C 
BRANCH  18  19
ATOM     19  C   UNL     1       1.411  21.100  23.258  1.00  0.00     0.000 C 
BRANCH  19  20
ATOM     20  C   UNL     1       0.770  20.172  24.309  1.00  0.00     0.006 C 
BRANCH  20  21
ATOM     21  C   UNL     1       0.197  18.876  23.703  1.00  0.00     0.053 C 
BRANCH  21  22
ATOM     22  C   UNL     1       0.598  17.691  24.531  1.00  0.00     0.041 C 
ATOM     23  O   UNL     1       1.278  17.852  25.579  1.00  0.00    -0.550 OA
ATOM     24  O   UNL     1       0.196  16.414  24.160  1.00  0.00    -0.550 OA
ENDBRANCH  21  22
ENDBRANCH  20  21
ENDBRANCH  19  20
ENDBRANCH  18  19
ENDBRANCH  17  18
ENDBRANCH  16  17
ENDBRANCH  15  16
ENDBRANCH  14  15
ENDBRANCH  13  14
ENDBRANCH   1  13
TORSDOF 20
ENDMDL
MODEL 9
REMARK VINA RESULT:    18.276      4.925      9.978
REMARK INTER + INTRA:          38.262
REMARK INTER:                  39.159
REMARK INTRA:                  -0.897
REMARK UNBOUND:                -1.382
REMARK SMILES CCCCCCCCCCCCCCCCCCCCCC(=O)[O-]
REMARK SMILES IDX 12 1 11 2 10 3 9 4 8 5 7 6 6 7 5 8 4 9 3 10 2 11 1 12 13 13
REMARK SMILES IDX 14 14 15 15 16 16 17 17 18 18 19 19 20 20 21 21 22 22 23 23
REMARK SMILES IDX 24 24
REMARK H PARENT
REMARK Flexibility Score: inf
ROOT
ATOM      1  C   UNL     1       8.132  17.225  27.675  1.00  0.00     0.000 C 
ENDROOT
BRANCH   1   2
ATOM      2  C   UNL     1       7.486  17.603  26.323  1.00  0.00     0.000 C 
BRANCH   2   3
ATOM      3  C   UNL     1       6.146  18.356  26.451  1.00  0.00     0.000 C 
BRANCH   3   4
ATOM      4  C   UNL     1       5.007  17.573  27.140  1.00  0.00    -0.000 C 
BRANCH   4   5
ATOM      5  C   UNL     1       3.627  18.252  27.102  1.00  0.00    -0.000 C 
BRANCH   5   6
ATOM      6  C   UNL     1       2.546  17.374  26.446  1.00  0.00    -0.000 C 
BRANCH   6   7
ATOM      7  C   UNL     1       1.296  18.176  26.049  1.00  0.00    -0.000 C 
BRANCH   7   8
ATOM      8  C   UNL     1       0.910  17.969  24.573  1.00  0.00    -0.000 C 
BRANCH   8   9
ATOM      9  C   UNL     1       0.349  19.244  23.923  1.00  0.00    -0.000 C 
BRANCH   9  10
ATOM     10  C   UNL     1       1.406  20.350  23.772  1.00  0.00    -0.000 C 
BRANCH  10  11
ATOM     11  C   UNL     1       2.025  20.326  22.369  1.00  0.00    -0.003 C 
ATOM     12  C   UNL     1       3.451  20.870  22.388  1.00  0.00     0.004 C 
ENDBRANCH  10  11
ENDBRANCH   9  10
ENDBRANCH   8   9
ENDBRANCH   7   8
ENDBRANCH   6   7
ENDBRANCH   5   6
ENDBRANCH   4   5
ENDBRANCH   3   4
ENDBRANCH   2   3
ENDBRANCH   1   2
BRANCH   1  13
ATOM     13  C   UNL     1       9.579  16.712  27.547  1.00  0.00     0.000 C 
BRANCH  13  14
ATOM     14  C   UNL     1       9.741  15.451  26.678  1.00  0.00     0.000 C 
BRANCH  14  15
ATOM     15  C   UNL     1      10.691  14.385  27.257  1.00  0.00     0.000 C 
BRANCH  15  16
ATOM     16  C   UNL     1      10.785  13.103  26.401  1.00  0.00     0.000 C 
BRANCH  16  17
ATOM     17  C   UNL     1      10.923  11.834  27.261  1.00  0.00     0.000 C 
BRANCH  17  18
ATOM     18  C   UNL     1      10.275  10.598  26.613  1.00  0.00     0.000 C 
BRANCH  18  19
ATOM     19  C   UNL     1       9.269   9.865  27.527  1.00  0.00     0.000 C 
BRANCH  19  20
ATOM     20  C   UNL     1       8.019   9.328  26.800  1.00  0.00     0.006 C 
BRANCH  20  21
ATOM     21  C   UNL     1       6.742   9.402  27.658  1.00  0.00     0.053 C 
BRANCH  21  22
ATOM     22  C   UNL     1       5.808  10.445  27.119  1.00  0.00     0.041 C 
ATOM     23  O   UNL     1       6.025  10.964  25.991  1.00  0.00    -0.550 OA
ATOM     24  O   UNL     1       4.687  10.820  27.846  1.00  0.00    -0.550 OA
ENDBRANCH  21  22
ENDBRANCH  20  21
ENDBRANCH  19  20
ENDBRANCH  18  19
ENDBRANCH  17  18
ENDBRANCH  16  17
ENDBRANCH  15  16
ENDBRANCH  14  15
ENDBRANCH  13  14
ENDBRANCH   1  13
TORSDOF 20
ENDMDL
