MODEL 1
REMARK VINA RESULT:    -4.390      0.000      0.000
REMARK INTER + INTRA:          -5.124
REMARK INTER:                  -4.904
REMARK INTRA:                  -0.220
REMARK UNBOUND:                -0.220
REMARK SMILES CC(C)c1ccc(C(=O)[O-])cc1
REMARK SMILES IDX 7 1 6 2 11 3 5 4 12 5 4 6 8 7 9 8 10 9 2 10 1 11 3 12
REMARK H PARENT
REMARK Flexibility Score: inf
ROOT
ATOM      1  C   UNL     1      63.048  31.451  61.060  1.00  0.00    -0.003 A 
ATOM      2  C   UNL     1      61.737  31.909  60.844  1.00  0.00     0.010 A 
ATOM      3  C   UNL     1      64.100  32.380  61.065  1.00  0.00     0.010 A 
ATOM      4  C   UNL     1      61.484  33.267  60.636  1.00  0.00     0.004 A 
ATOM      5  C   UNL     1      63.848  33.739  60.857  1.00  0.00     0.004 A 
ATOM      6  C   UNL     1      62.536  34.198  60.640  1.00  0.00    -0.045 A 
ENDROOT
BRANCH   1   7
ATOM      7  C   UNL     1      63.318  30.013  61.280  1.00  0.00     0.071 C 
ATOM      8  O   UNL     1      64.478  29.548  61.123  1.00  0.00    -0.545 OA
ATOM      9  O   UNL     1      62.294  29.154  61.664  1.00  0.00    -0.545 OA
ENDBRANCH   1   7
BRANCH   6  10
ATOM     10  C   UNL     1      62.248  35.670  60.414  1.00  0.00     0.013 C 
ATOM     11  C   UNL     1      63.094  36.549  61.343  1.00  0.00     0.012 C 
ATOM     12  C   UNL     1      60.754  35.973  60.578  1.00  0.00     0.012 C 
ENDBRANCH   6  10
TORSDOF 2
ENDMDL
MODEL 2
REMARK VINA RESULT:    -4.383      0.073      1.681
REMARK INTER + INTRA:          -5.116
REMARK INTER:                  -4.896
REMARK INTRA:                  -0.220
REMARK UNBOUND:                -0.220
REMARK SMILES CC(C)c1ccc(C(=O)[O-])cc1
REMARK SMILES IDX 7 1 6 2 11 3 5 4 12 5 4 6 8 7 9 8 10 9 2 10 1 11 3 12
REMARK H PARENT
REMARK Flexibility Score: inf
ROOT
ATOM      1  C   UNL     1      63.067  31.463  61.068  1.00  0.00    -0.003 A 
ATOM      2  C   UNL     1      64.109  32.405  61.043  1.00  0.00     0.010 A 
ATOM      3  C   UNL     1      61.748  31.903  60.876  1.00  0.00     0.010 A 
ATOM      4  C   UNL     1      63.837  33.760  60.833  1.00  0.00     0.004 A 
ATOM      5  C   UNL     1      61.475  33.257  60.665  1.00  0.00     0.004 A 
ATOM      6  C   UNL     1      62.517  34.202  60.641  1.00  0.00    -0.045 A 
ENDROOT
BRANCH   1   7
ATOM      7  C   UNL     1      63.352  30.028  61.291  1.00  0.00     0.071 C 
ATOM      8  O   UNL     1      62.440  29.244  61.664  1.00  0.00    -0.545 OA
ATOM      9  O   UNL     1      64.633  29.525  61.092  1.00  0.00    -0.545 OA
ENDBRANCH   1   7
BRANCH   6  10
ATOM     10  C   UNL     1      62.236  35.675  60.413  1.00  0.00     0.013 C 
ATOM     11  C   UNL     1      63.100  36.551  61.328  1.00  0.00     0.012 C 
ATOM     12  C   UNL     1      60.746  35.988  60.596  1.00  0.00     0.012 C 
ENDBRANCH   6  10
TORSDOF 2
ENDMDL
MODEL 3
REMARK VINA RESULT:    -4.371     12.861     13.717
REMARK INTER + INTRA:          -5.102
REMARK INTER:                  -4.882
REMARK INTRA:                  -0.220
REMARK UNBOUND:                -0.220
REMARK SMILES CC(C)c1ccc(C(=O)[O-])cc1
REMARK SMILES IDX 7 1 6 2 11 3 5 4 12 5 4 6 8 7 9 8 10 9 2 10 1 11 3 12
REMARK H PARENT
REMARK Flexibility Score: inf
ROOT
ATOM      1  C   UNL     1      58.308  27.255  49.927  1.00  0.00    -0.003 A 
ATOM      2  C   UNL     1      57.305  26.273  49.983  1.00  0.00     0.010 A 
ATOM      3  C   UNL     1      57.951  28.602  50.095  1.00  0.00     0.010 A 
ATOM      4  C   UNL     1      55.971  26.631  50.201  1.00  0.00     0.004 A 
ATOM      5  C   UNL     1      56.618  28.961  50.314  1.00  0.00     0.004 A 
ATOM      6  C   UNL     1      55.612  27.979  50.370  1.00  0.00    -0.045 A 
ENDROOT
BRANCH   1   7
ATOM      7  C   UNL     1      59.721  26.880  49.695  1.00  0.00     0.071 C 
ATOM      8  O   UNL     1      60.094  25.684  49.822  1.00  0.00    -0.545 OA
ATOM      9  O   UNL     1      60.656  27.844  49.335  1.00  0.00    -0.545 OA
ENDBRANCH   1   7
BRANCH   6  10
ATOM     10  C   UNL     1      54.162  28.353  50.606  1.00  0.00     0.013 C 
ATOM     11  C   UNL     1      53.230  27.580  49.665  1.00  0.00     0.012 C 
ATOM     12  C   UNL     1      53.952  29.866  50.470  1.00  0.00     0.012 C 
ENDBRANCH   6  10
TORSDOF 2
ENDMDL
MODEL 4
REMARK VINA RESULT:    -4.322     12.806     13.714
REMARK INTER + INTRA:          -5.048
REMARK INTER:                  -4.829
REMARK INTRA:                  -0.219
REMARK UNBOUND:                -0.220
REMARK SMILES CC(C)c1ccc(C(=O)[O-])cc1
REMARK SMILES IDX 7 1 6 2 11 3 5 4 12 5 4 6 8 7 9 8 10 9 2 10 1 11 3 12
REMARK H PARENT
REMARK Flexibility Score: inf
ROOT
ATOM      1  C   UNL     1      58.183  27.332  49.990  1.00  0.00    -0.003 A 
ATOM      2  C   UNL     1      57.826  28.669  50.231  1.00  0.00     0.010 A 
ATOM      3  C   UNL     1      57.178  26.353  49.962  1.00  0.00     0.010 A 
ATOM      4  C   UNL     1      56.489  29.020  50.443  1.00  0.00     0.004 A 
ATOM      5  C   UNL     1      55.841  26.703  50.174  1.00  0.00     0.004 A 
ATOM      6  C   UNL     1      55.481  28.041  50.416  1.00  0.00    -0.045 A 
ENDROOT
BRANCH   1   7
ATOM      7  C   UNL     1      59.598  26.957  49.766  1.00  0.00     0.071 C 
ATOM      8  O   UNL     1      60.413  27.790  49.291  1.00  0.00    -0.545 OA
ATOM      9  O   UNL     1      60.045  25.678  50.077  1.00  0.00    -0.545 OA
ENDBRANCH   1   7
BRANCH   6  10
ATOM     10  C   UNL     1      54.035  28.435  50.647  1.00  0.00     0.013 C 
ATOM     11  C   UNL     1      53.099  27.696  49.681  1.00  0.00     0.012 C 
ATOM     12  C   UNL     1      53.852  29.953  50.537  1.00  0.00     0.012 C 
ENDBRANCH   6  10
TORSDOF 2
ENDMDL
MODEL 5
REMARK VINA RESULT:    -4.260      3.335      4.737
REMARK INTER + INTRA:          -4.978
REMARK INTER:                  -4.779
REMARK INTRA:                  -0.199
REMARK UNBOUND:                -0.220
REMARK SMILES CC(C)c1ccc(C(=O)[O-])cc1
REMARK SMILES IDX 7 1 6 2 11 3 5 4 12 5 4 6 8 7 9 8 10 9 2 10 1 11 3 12
REMARK H PARENT
REMARK Flexibility Score: inf
ROOT
ATOM      1  C   UNL     1      63.808  35.096  61.024  1.00  0.00    -0.003 A 
ATOM      2  C   UNL     1      62.456  35.445  60.870  1.00  0.00     0.010 A 
ATOM      3  C   UNL     1      64.169  33.740  60.991  1.00  0.00     0.010 A 
ATOM      4  C   UNL     1      61.484  34.458  60.688  1.00  0.00     0.004 A 
ATOM      5  C   UNL     1      63.197  32.752  60.809  1.00  0.00     0.004 A 
ATOM      6  C   UNL     1      61.843  33.099  60.656  1.00  0.00    -0.045 A 
ENDROOT
BRANCH   1   7
ATOM      7  C   UNL     1      64.840  36.140  61.217  1.00  0.00     0.071 C 
ATOM      8  O   UNL     1      64.961  36.724  62.325  1.00  0.00    -0.545 OA
ATOM      9  O   UNL     1      65.691  36.490  60.174  1.00  0.00    -0.545 OA
ENDBRANCH   1   7
BRANCH   6  10
ATOM     10  C   UNL     1      60.778  32.038  60.457  1.00  0.00     0.013 C 
ATOM     11  C   UNL     1      60.655  31.140  61.695  1.00  0.00     0.012 C 
ATOM     12  C   UNL     1      61.053  31.207  59.199  1.00  0.00     0.012 C 
ENDBRANCH   6  10
TORSDOF 2
ENDMDL
MODEL 6
REMARK VINA RESULT:    -4.167      1.926      3.002
REMARK INTER + INTRA:          -4.874
REMARK INTER:                  -4.674
REMARK INTRA:                  -0.201
REMARK UNBOUND:                -0.220
REMARK SMILES CC(C)c1ccc(C(=O)[O-])cc1
REMARK SMILES IDX 7 1 6 2 11 3 5 4 12 5 4 6 8 7 9 8 10 9 2 10 1 11 3 12
REMARK H PARENT
REMARK Flexibility Score: inf
ROOT
ATOM      1  C   UNL     1      61.772  32.840  60.662  1.00  0.00    -0.003 A 
ATOM      2  C   UNL     1      63.104  32.410  60.780  1.00  0.00     0.010 A 
ATOM      3  C   UNL     1      61.495  34.215  60.699  1.00  0.00     0.010 A 
ATOM      4  C   UNL     1      64.139  33.337  60.934  1.00  0.00     0.004 A 
ATOM      5  C   UNL     1      62.529  35.143  60.852  1.00  0.00     0.004 A 
ATOM      6  C   UNL     1      63.863  34.715  60.972  1.00  0.00    -0.045 A 
ENDROOT
BRANCH   1   7
ATOM      7  C   UNL     1      60.674  31.860  60.499  1.00  0.00     0.071 C 
ATOM      8  O   UNL     1      60.011  31.813  59.430  1.00  0.00    -0.545 OA
ATOM      9  O   UNL     1      60.360  30.978  61.527  1.00  0.00    -0.545 OA
ENDBRANCH   1   7
BRANCH   6  10
ATOM     10  C   UNL     1      64.995  35.711  61.139  1.00  0.00     0.013 C 
ATOM     11  C   UNL     1      64.683  36.722  62.249  1.00  0.00     0.012 C 
ATOM     12  C   UNL     1      65.305  36.422  59.817  1.00  0.00     0.012 C 
ENDBRANCH   6  10
TORSDOF 2
ENDMDL
MODEL 7
REMARK VINA RESULT:    -4.103     13.078     14.046
REMARK INTER + INTRA:          -4.803
REMARK INTER:                  -4.601
REMARK INTRA:                  -0.202
REMARK UNBOUND:                -0.220
REMARK SMILES CC(C)c1ccc(C(=O)[O-])cc1
REMARK SMILES IDX 7 1 6 2 11 3 5 4 12 5 4 6 8 7 9 8 10 9 2 10 1 11 3 12
REMARK H PARENT
REMARK Flexibility Score: inf
ROOT
ATOM      1  C   UNL     1      54.778  26.718  50.214  1.00  0.00    -0.003 A 
ATOM      2  C   UNL     1      56.123  26.315  50.152  1.00  0.00     0.010 A 
ATOM      3  C   UNL     1      54.483  28.083  50.359  1.00  0.00     0.010 A 
ATOM      4  C   UNL     1      57.151  27.257  50.234  1.00  0.00     0.004 A 
ATOM      5  C   UNL     1      55.511  29.026  50.441  1.00  0.00     0.004 A 
ATOM      6  C   UNL     1      56.858  28.624  50.380  1.00  0.00    -0.045 A 
ENDROOT
BRANCH   1   7
ATOM      7  C   UNL     1      53.686  25.722  50.127  1.00  0.00     0.071 C 
ATOM      8  O   UNL     1      53.349  25.238  49.015  1.00  0.00    -0.545 OA
ATOM      9  O   UNL     1      53.017  25.309  51.274  1.00  0.00    -0.545 OA
ENDBRANCH   1   7
BRANCH   6  10
ATOM     10  C   UNL     1      57.984  29.636  50.468  1.00  0.00     0.013 C 
ATOM     11  C   UNL     1      58.885  29.571  49.228  1.00  0.00     0.012 C 
ATOM     12  C   UNL     1      58.799  29.446  51.752  1.00  0.00     0.012 C 
ENDBRANCH   6  10
TORSDOF 2
ENDMDL
MODEL 8
REMARK VINA RESULT:    -3.918      2.999      4.965
REMARK INTER + INTRA:          -4.596
REMARK INTER:                  -4.381
REMARK INTRA:                  -0.215
REMARK UNBOUND:                -0.220
REMARK SMILES CC(C)c1ccc(C(=O)[O-])cc1
REMARK SMILES IDX 7 1 6 2 11 3 5 4 12 5 4 6 8 7 9 8 10 9 2 10 1 11 3 12
REMARK H PARENT
REMARK Flexibility Score: inf
ROOT
ATOM      1  C   UNL     1      62.044  33.895  60.638  1.00  0.00    -0.003 A 
ATOM      2  C   UNL     1      61.240  32.749  60.760  1.00  0.00     0.010 A 
ATOM      3  C   UNL     1      63.438  33.763  60.748  1.00  0.00     0.010 A 
ATOM      4  C   UNL     1      61.818  31.497  60.990  1.00  0.00     0.004 A 
ATOM      5  C   UNL     1      64.016  32.511  60.977  1.00  0.00     0.004 A 
ATOM      6  C   UNL     1      63.212  31.363  61.100  1.00  0.00    -0.045 A 
ENDROOT
BRANCH   1   7
ATOM      7  C   UNL     1      61.436  35.222  60.396  1.00  0.00     0.071 C 
ATOM      8  O   UNL     1      61.747  36.210  61.111  1.00  0.00    -0.545 OA
ATOM      9  O   UNL     1      60.510  35.396  59.373  1.00  0.00    -0.545 OA
ENDBRANCH   1   7
BRANCH   6  10
ATOM     10  C   UNL     1      63.826  29.999  61.349  1.00  0.00     0.013 C 
ATOM     11  C   UNL     1      65.043  29.767  60.444  1.00  0.00     0.012 C 
ATOM     12  C   UNL     1      62.787  28.885  61.172  1.00  0.00     0.012 C 
ENDBRANCH   6  10
TORSDOF 2
ENDMDL
