MODEL 1
REMARK VINA RESULT:    -3.688      0.000      0.000
REMARK INTER + INTRA:          -4.379
REMARK INTER:                  -4.335
REMARK INTRA:                  -0.044
REMARK UNBOUND:                -0.044
REMARK SMILES CCCCC(=O)[O-]
REMARK SMILES IDX 4 1 5 2 6 3 7 4 3 5 2 6 1 7
REMARK H PARENT
REMARK Flexibility Score: inf
ROOT
ATOM      1  C   UNL     1     -10.089  37.394   5.419  1.00  0.00     0.053 C 
ENDROOT
BRANCH   1   2
ATOM      2  C   UNL     1      -8.643  37.179   5.748  1.00  0.00     0.041 C 
ATOM      3  O   UNL     1      -8.160  36.015   5.746  1.00  0.00    -0.550 OA
ATOM      4  O   UNL     1      -7.822  38.264   6.024  1.00  0.00    -0.550 OA
ENDBRANCH   1   2
BRANCH   1   5
ATOM      5  C   UNL     1     -10.473  38.878   5.481  1.00  0.00     0.006 C 
BRANCH   5   6
ATOM      6  C   UNL     1     -11.444  39.179   6.632  1.00  0.00    -0.003 C 
ATOM      7  C   UNL     1     -12.485  40.214   6.217  1.00  0.00     0.004 C 
ENDBRANCH   5   6
ENDBRANCH   1   5
TORSDOF 3
ENDMDL
MODEL 2
REMARK VINA RESULT:    -3.624      2.487      3.996
REMARK INTER + INTRA:          -4.304
REMARK INTER:                  -4.279
REMARK INTRA:                  -0.025
REMARK UNBOUND:                -0.044
REMARK SMILES CCCCC(=O)[O-]
REMARK SMILES IDX 4 1 5 2 6 3 7 4 3 5 2 6 1 7
REMARK H PARENT
REMARK Flexibility Score: inf
ROOT
ATOM      1  C   UNL     1      -8.357  37.228   5.740  1.00  0.00     0.053 C 
ENDROOT
BRANCH   1   2
ATOM      2  C   UNL     1      -8.770  38.619   6.112  1.00  0.00     0.041 C 
ATOM      3  O   UNL     1      -7.966  39.378   6.714  1.00  0.00    -0.550 OA
ATOM      4  O   UNL     1     -10.031  39.088   5.766  1.00  0.00    -0.550 OA
ENDBRANCH   1   2
BRANCH   1   5
ATOM      5  C   UNL     1      -9.538  36.250   5.787  1.00  0.00     0.006 C 
BRANCH   5   6
ATOM      6  C   UNL     1      -9.089  34.810   6.075  1.00  0.00    -0.003 C 
ATOM      7  C   UNL     1      -7.831  34.458   5.286  1.00  0.00     0.004 C 
ENDBRANCH   5   6
ENDBRANCH   1   5
TORSDOF 3
ENDMDL
MODEL 3
REMARK VINA RESULT:    -3.616      2.029      4.156
REMARK INTER + INTRA:          -4.295
REMARK INTER:                  -4.273
REMARK INTRA:                  -0.022
REMARK UNBOUND:                -0.044
REMARK SMILES CCCCC(=O)[O-]
REMARK SMILES IDX 4 1 5 2 6 3 7 4 3 5 2 6 1 7
REMARK H PARENT
REMARK Flexibility Score: inf
ROOT
ATOM      1  C   UNL     1      -9.923  37.139   5.494  1.00  0.00     0.053 C 
ENDROOT
BRANCH   1   2
ATOM      2  C   UNL     1      -9.842  38.605   5.792  1.00  0.00     0.041 C 
ATOM      3  O   UNL     1     -10.838  39.349   5.588  1.00  0.00    -0.550 OA
ATOM      4  O   UNL     1      -8.679  39.145   6.325  1.00  0.00    -0.550 OA
ENDBRANCH   1   2
BRANCH   1   5
ATOM      5  C   UNL     1      -8.569  36.444   5.679  1.00  0.00     0.006 C 
BRANCH   5   6
ATOM      6  C   UNL     1      -8.721  34.941   5.956  1.00  0.00    -0.003 C 
ATOM      7  C   UNL     1      -7.496  34.167   5.476  1.00  0.00     0.004 C 
ENDBRANCH   5   6
ENDBRANCH   1   5
TORSDOF 3
ENDMDL
MODEL 4
REMARK VINA RESULT:    -3.559      2.510      3.852
REMARK INTER + INTRA:          -4.228
REMARK INTER:                  -4.134
REMARK INTRA:                  -0.093
REMARK UNBOUND:                -0.044
REMARK SMILES CCCCC(=O)[O-]
REMARK SMILES IDX 4 1 5 2 6 3 7 4 3 5 2 6 1 7
REMARK H PARENT
REMARK Flexibility Score: inf
ROOT
ATOM      1  C   UNL     1     -10.447  38.887   5.473  1.00  0.00     0.053 C 
ENDROOT
BRANCH   1   2
ATOM      2  C   UNL     1     -11.498  39.325   6.447  1.00  0.00     0.041 C 
ATOM      3  O   UNL     1     -11.444  38.948   7.648  1.00  0.00    -0.550 OA
ATOM      4  O   UNL     1     -12.517  40.177   6.039  1.00  0.00    -0.550 OA
ENDBRANCH   1   2
BRANCH   1   5
ATOM      5  C   UNL     1     -10.168  37.383   5.575  1.00  0.00     0.006 C 
BRANCH   5   6
ATOM      6  C   UNL     1      -8.677  37.082   5.789  1.00  0.00    -0.003 C 
ATOM      7  C   UNL     1      -7.908  38.347   6.161  1.00  0.00     0.004 C 
ENDBRANCH   5   6
ENDBRANCH   1   5
TORSDOF 3
ENDMDL
MODEL 5
REMARK VINA RESULT:    -3.474      1.954      2.525
REMARK INTER + INTRA:          -4.127
REMARK INTER:                  -4.028
REMARK INTRA:                  -0.099
REMARK UNBOUND:                -0.044
REMARK SMILES CCCCC(=O)[O-]
REMARK SMILES IDX 4 1 5 2 6 3 7 4 3 5 2 6 1 7
REMARK H PARENT
REMARK Flexibility Score: inf
ROOT
ATOM      1  C   UNL     1      -8.726  36.679   5.393  1.00  0.00     0.053 C 
ENDROOT
BRANCH   1   2
ATOM      2  C   UNL     1      -8.812  35.506   6.321  1.00  0.00     0.041 C 
ATOM      3  O   UNL     1      -9.638  35.511   7.273  1.00  0.00    -0.550 OA
ATOM      4  O   UNL     1      -8.005  34.394   6.117  1.00  0.00    -0.550 OA
ENDBRANCH   1   2
BRANCH   1   5
ATOM      5  C   UNL     1      -8.060  37.888   6.062  1.00  0.00     0.006 C 
BRANCH   5   6
ATOM      6  C   UNL     1      -9.088  38.905   6.579  1.00  0.00    -0.003 C 
ATOM      7  C   UNL     1     -10.343  38.909   5.710  1.00  0.00     0.004 C 
ENDBRANCH   5   6
ENDBRANCH   1   5
TORSDOF 3
ENDMDL
MODEL 6
REMARK VINA RESULT:    -3.290      3.115      4.153
REMARK INTER + INTRA:          -3.911
REMARK INTER:                  -3.893
REMARK INTRA:                  -0.018
REMARK UNBOUND:                -0.044
REMARK SMILES CCCCC(=O)[O-]
REMARK SMILES IDX 4 1 5 2 6 3 7 4 3 5 2 6 1 7
REMARK H PARENT
REMARK Flexibility Score: inf
ROOT
ATOM      1  C   UNL     1      -7.700  34.463   5.189  1.00  0.00     0.053 C 
ENDROOT
BRANCH   1   2
ATOM      2  C   UNL     1      -7.199  33.319   6.016  1.00  0.00     0.041 C 
ATOM      3  O   UNL     1      -8.000  32.648   6.720  1.00  0.00    -0.550 OA
ATOM      4  O   UNL     1      -5.855  32.971   5.985  1.00  0.00    -0.550 OA
ENDBRANCH   1   2
BRANCH   1   5
ATOM      5  C   UNL     1      -8.737  35.302   5.946  1.00  0.00     0.006 C 
BRANCH   5   6
ATOM      6  C   UNL     1      -8.647  36.794   5.592  1.00  0.00    -0.003 C 
ATOM      7  C   UNL     1     -10.036  37.403   5.418  1.00  0.00     0.004 C 
ENDBRANCH   5   6
ENDBRANCH   1   5
TORSDOF 3
ENDMDL
MODEL 7
REMARK VINA RESULT:    -3.282      2.212      3.116
REMARK INTER + INTRA:          -3.902
REMARK INTER:                  -3.772
REMARK INTRA:                  -0.130
REMARK UNBOUND:                -0.044
REMARK SMILES CCCCC(=O)[O-]
REMARK SMILES IDX 4 1 5 2 6 3 7 4 3 5 2 6 1 7
REMARK H PARENT
REMARK Flexibility Score: inf
ROOT
ATOM      1  C   UNL     1      -9.300  37.076   5.598  1.00  0.00     0.053 C 
ENDROOT
BRANCH   1   2
ATOM      2  C   UNL     1      -9.406  38.528   5.952  1.00  0.00     0.041 C 
ATOM      3  O   UNL     1      -8.473  39.096   6.581  1.00  0.00    -0.550 OA
ATOM      4  O   UNL     1     -10.517  39.263   5.560  1.00  0.00    -0.550 OA
ENDBRANCH   1   2
BRANCH   1   5
ATOM      5  C   UNL     1      -9.284  36.185   6.846  1.00  0.00     0.006 C 
BRANCH   5   6
ATOM      6  C   UNL     1     -10.617  36.227   7.607  1.00  0.00    -0.003 C 
ATOM      7  C   UNL     1     -10.409  36.647   9.060  1.00  0.00     0.004 C 
ENDBRANCH   5   6
ENDBRANCH   1   5
TORSDOF 3
ENDMDL
MODEL 8
REMARK VINA RESULT:    -3.221     12.528     13.252
REMARK INTER + INTRA:          -3.830
REMARK INTER:                  -3.753
REMARK INTRA:                  -0.077
REMARK UNBOUND:                -0.044
REMARK SMILES CCCCC(=O)[O-]
REMARK SMILES IDX 4 1 5 2 6 3 7 4 3 5 2 6 1 7
REMARK H PARENT
REMARK Flexibility Score: inf
ROOT
ATOM      1  C   UNL     1      -0.739  43.811  -0.448  1.00  0.00     0.053 C 
ENDROOT
BRANCH   1   2
ATOM      2  C   UNL     1      -0.371  42.370  -0.623  1.00  0.00     0.041 C 
ATOM      3  O   UNL     1      -0.816  41.501   0.174  1.00  0.00    -0.550 OA
ATOM      4  O   UNL     1       0.437  41.980  -1.684  1.00  0.00    -0.550 OA
ENDBRANCH   1   2
BRANCH   1   5
ATOM      5  C   UNL     1      -1.208  44.443  -1.764  1.00  0.00     0.006 C 
BRANCH   5   6
ATOM      6  C   UNL     1      -0.194  45.457  -2.316  1.00  0.00    -0.003 C 
ATOM      7  C   UNL     1       0.437  46.271  -1.190  1.00  0.00     0.004 C 
ENDBRANCH   5   6
ENDBRANCH   1   5
TORSDOF 3
ENDMDL
MODEL 9
REMARK VINA RESULT:    -3.170     12.269     12.700
REMARK INTER + INTRA:          -3.770
REMARK INTER:                  -3.714
REMARK INTRA:                  -0.056
REMARK UNBOUND:                -0.044
REMARK SMILES CCCCC(=O)[O-]
REMARK SMILES IDX 4 1 5 2 6 3 7 4 3 5 2 6 1 7
REMARK H PARENT
REMARK Flexibility Score: inf
ROOT
ATOM      1  C   UNL     1      -0.416  41.927   0.139  1.00  0.00     0.053 C 
ENDROOT
BRANCH   1   2
ATOM      2  C   UNL     1      -0.069  42.513  -1.196  1.00  0.00     0.041 C 
ATOM      3  O   UNL     1       0.746  41.923  -1.954  1.00  0.00    -0.550 OA
ATOM      4  O   UNL     1      -0.671  43.692  -1.618  1.00  0.00    -0.550 OA
ENDBRANCH   1   2
BRANCH   1   5
ATOM      5  C   UNL     1      -0.373  42.981   1.252  1.00  0.00     0.006 C 
BRANCH   5   6
ATOM      6  C   UNL     1       0.569  42.578   2.397  1.00  0.00    -0.003 C 
ATOM      7  C   UNL     1       1.460  41.408   1.991  1.00  0.00     0.004 C 
ENDBRANCH   5   6
ENDBRANCH   1   5
TORSDOF 3
ENDMDL
