MODEL 1
REMARK VINA RESULT:    20.793      0.000      0.000
REMARK INTER + INTRA:          33.274
REMARK INTER:                  28.693
REMARK INTRA:                   4.581
REMARK UNBOUND:                 4.581
REMARK SMILES C[C@@H]1C(=O)O[C@H](C)[C@H]1C[C@@H](O)[C@@](C)(O)[C@H]1CC[C@@]2(O)C3=CC(=O)[C@@H]4C[C@@H](O)[C@@H](O)C[C@]4(C)[C@@H]3CC[C@]12C
REMARK SMILES IDX 12 1 13 2 10 3 9 4 8 5 1 6 2 7 3 8 6 9 5 10 4 11 7 12 11 13
REMARK SMILES IDX 15 15 16 16 36 17 17 18 18 19 35 20 37 21 20 22 34 23 33 24
REMARK SMILES IDX 21 25 31 26 22 27 24 28 30 29 32 30 23 31 25 32 28 33 26 34
REMARK SMILES IDX 19 35 29 37 27 39 14 41
REMARK H PARENT 11 14 19 36 29 38 27 40 14 42
REMARK Flexibility Score: inf
ROOT
ATOM      1  C   UNL     1       7.556 -35.824  13.862  1.00  0.00     0.091 C 
ATOM      2  C   UNL     1       8.514 -36.890  13.253  1.00  0.00     0.045 C 
ENDROOT
BRANCH   1   3
ATOM      3  C   UNL     1       7.212 -36.264  15.339  1.00  0.00     0.146 C 
BRANCH   3   4
ATOM      4  C   UNL     1       6.985 -35.074  16.311  1.00  0.00     0.043 C 
BRANCH   4   5
ATOM      5  C   UNL     1       8.036 -34.982  17.451  1.00  0.00     0.046 C 
ATOM      6  C   UNL     1       9.585 -33.029  18.052  1.00  0.00     0.020 C 
ATOM      7  C   UNL     1       8.137 -33.527  17.997  1.00  0.00     0.103 C 
ATOM      8  C   UNL     1       7.575 -33.652  19.360  1.00  0.00     0.309 C 
ATOM      9  C   UNL     1       7.640 -35.860  18.684  1.00  0.00     0.177 C 
ATOM     10  O   UNL     1       7.293 -34.949  19.712  1.00  0.00    -0.462 OA
ATOM     11  O   UNL     1       7.360 -32.676  20.127  1.00  0.00    -0.252 OA
ATOM     12  C   UNL     1       8.799 -36.736  19.162  1.00  0.00     0.053 C 
ENDBRANCH   4   5
ENDBRANCH   3   4
BRANCH   3  13
ATOM     13  O   UNL     1       6.062 -37.078  15.329  1.00  0.00    -0.390 OA
ATOM     14  H   UNL     1       6.359 -38.025  15.373  1.00  0.00     0.211 HD
ENDBRANCH   3  13
ENDBRANCH   1   3
BRANCH   1  15
ATOM     15  C   UNL     1       8.155 -34.357  13.844  1.00  0.00     0.032 C 
ATOM     16  C   UNL     1       7.254 -33.229  14.408  1.00  0.00     0.010 C 
ATOM     17  C   UNL     1       9.576 -34.044  14.416  1.00  0.00     0.006 C 
ATOM     18  C   UNL     1       8.203 -32.114  14.889  1.00  0.00     0.041 C 
ATOM     19  C   UNL     1       9.579 -32.494  14.312  1.00  0.00     0.092 C 
ATOM     20  C   UNL     1      10.762 -34.618  13.580  1.00  0.00     0.011 C 
ATOM     21  C   UNL     1       9.708 -34.519  15.903  1.00  0.00     0.015 C 
ATOM     22  C   UNL     1      10.833 -31.948  14.974  1.00  0.00    -0.031 C 
ATOM     23  C   UNL     1      12.011 -33.691  13.517  1.00  0.00     0.009 C 
ATOM     24  C   UNL     1      12.153 -32.668  14.693  1.00  0.00     0.025 C 
ATOM     25  C   UNL     1      10.813 -30.845  15.732  1.00  0.00     0.050 C 
ATOM     26  C   UNL     1      13.343 -31.645  14.525  1.00  0.00    -0.013 C 
ATOM     27  C   UNL     1      12.050 -30.274  16.278  1.00  0.00     0.159 C 
ATOM     28  C   UNL     1      13.418 -30.762  15.827  1.00  0.00     0.070 C 
ATOM     29  C   UNL     1      13.129 -30.741  13.263  1.00  0.00     0.042 C 
ATOM     30  C   UNL     1      14.665 -32.453  14.378  1.00  0.00     0.013 C 
ATOM     31  O   UNL     1      11.961 -29.389  17.171  1.00  0.00    -0.295 OA
ATOM     32  C   UNL     1      14.394 -29.569  15.677  1.00  0.00     0.047 C 
ATOM     33  C   UNL     1      14.074 -29.524  13.168  1.00  0.00     0.143 C 
ATOM     34  C   UNL     1      14.049 -28.697  14.460  1.00  0.00     0.143 C 
BRANCH  19  35
ATOM     35  O   UNL     1       9.607 -32.101  12.953  1.00  0.00    -0.385 OA
ATOM     36  H   UNL     1       9.287 -31.161  12.902  1.00  0.00     0.211 HD
ENDBRANCH  19  35
BRANCH  33  37
ATOM     37  O   UNL     1      15.388 -29.926  12.875  1.00  0.00    -0.390 OA
ATOM     38  H   UNL     1      15.875 -29.972  13.739  1.00  0.00     0.211 HD
ENDBRANCH  33  37
BRANCH  34  39
ATOM     39  O   UNL     1      14.967 -27.640  14.352  1.00  0.00    -0.390 OA
ATOM     40  H   UNL     1      14.661 -26.929  14.975  1.00  0.00     0.211 HD
ENDBRANCH  34  39
ENDBRANCH   1  15
BRANCH   1  41
ATOM     41  O   UNL     1       6.369 -35.797  13.102  1.00  0.00    -0.387 OA
ATOM     42  H   UNL     1       6.604 -35.628  12.152  1.00  0.00     0.211 HD
ENDBRANCH   1  41
TORSDOF 9
ENDMDL
