MODEL 1
REMARK VINA RESULT:    -4.233      0.000      0.000
REMARK INTER + INTRA:          -7.630
REMARK INTER:                  -6.459
REMARK INTRA:                  -1.171
REMARK UNBOUND:                -1.171
REMARK SMILES CCCCCCCCCCC(=O)[O-]
REMARK SMILES IDX 7 1 8 2 9 3 10 4 11 5 12 6 13 7 6 8 5 9 4 10 3 11 2 12 1 13
REMARK H PARENT
REMARK Flexibility Score: inf
ROOT
ATOM      1  C   UNL     1       1.004 -22.236  -7.419  1.00  0.00     0.000 C 
ENDROOT
BRANCH   1   2
ATOM      2  C   UNL     1      -0.120 -21.929  -6.422  1.00  0.00     0.000 C 
BRANCH   2   3
ATOM      3  C   UNL     1       0.426 -21.821  -4.994  1.00  0.00     0.006 C 
BRANCH   3   4
ATOM      4  C   UNL     1       0.445 -20.365  -4.522  1.00  0.00     0.053 C 
BRANCH   4   5
ATOM      5  C   UNL     1       0.823 -20.287  -3.076  1.00  0.00     0.041 C 
ATOM      6  O   UNL     1       0.312 -21.080  -2.243  1.00  0.00    -0.550 OA
ATOM      7  O   UNL     1       1.780 -19.371  -2.657  1.00  0.00    -0.550 OA
ENDBRANCH   4   5
ENDBRANCH   3   4
ENDBRANCH   2   3
ENDBRANCH   1   2
BRANCH   1   8
ATOM      8  C   UNL     1       1.428 -20.972  -8.177  1.00  0.00     0.000 C 
BRANCH   8   9
ATOM      9  C   UNL     1       2.889 -20.613  -7.876  1.00  0.00    -0.000 C 
BRANCH   9  10
ATOM     10  C   UNL     1       2.975 -19.441  -6.887  1.00  0.00    -0.000 C 
BRANCH  10  11
ATOM     11  C   UNL     1       3.941 -19.711  -5.720  1.00  0.00    -0.000 C 
BRANCH  11  12
ATOM     12  C   UNL     1       4.051 -21.188  -5.300  1.00  0.00    -0.003 C 
ATOM     13  C   UNL     1       5.494 -21.684  -5.224  1.00  0.00     0.004 C 
ENDBRANCH  11  12
ENDBRANCH  10  11
ENDBRANCH   9  10
ENDBRANCH   8   9
ENDBRANCH   1   8
TORSDOF 9
ENDMDL
MODEL 2
REMARK VINA RESULT:    -4.181      0.982      1.587
REMARK INTER + INTRA:          -7.552
REMARK INTER:                  -6.264
REMARK INTRA:                  -1.288
REMARK UNBOUND:                -1.171
REMARK SMILES CCCCCCCCCCC(=O)[O-]
REMARK SMILES IDX 7 1 8 2 9 3 10 4 11 5 12 6 13 7 6 8 5 9 4 10 3 11 2 12 1 13
REMARK H PARENT
REMARK Flexibility Score: inf
ROOT
ATOM      1  C   UNL     1      -0.062 -22.005  -6.697  1.00  0.00     0.000 C 
ENDROOT
BRANCH   1   2
ATOM      2  C   UNL     1       0.458 -21.937  -5.256  1.00  0.00     0.000 C 
BRANCH   2   3
ATOM      3  C   UNL     1       0.343 -20.514  -4.697  1.00  0.00     0.006 C 
BRANCH   3   4
ATOM      4  C   UNL     1       0.735 -20.473  -3.217  1.00  0.00     0.053 C 
BRANCH   4   5
ATOM      5  C   UNL     1       1.546 -19.250  -2.924  1.00  0.00     0.041 C 
ATOM      6  O   UNL     1       1.127 -18.114  -3.267  1.00  0.00    -0.550 OA
ATOM      7  O   UNL     1       2.741 -19.360  -2.224  1.00  0.00    -0.550 OA
ENDBRANCH   4   5
ENDBRANCH   3   4
ENDBRANCH   2   3
ENDBRANCH   1   2
BRANCH   1   8
ATOM      8  C   UNL     1       1.090 -22.205  -7.689  1.00  0.00     0.000 C 
BRANCH   8   9
ATOM      9  C   UNL     1       1.525 -20.869  -8.305  1.00  0.00    -0.000 C 
BRANCH   9  10
ATOM     10  C   UNL     1       2.975 -20.535  -7.927  1.00  0.00    -0.000 C 
BRANCH  10  11
ATOM     11  C   UNL     1       3.078 -19.447  -6.843  1.00  0.00    -0.000 C 
BRANCH  11  12
ATOM     12  C   UNL     1       4.004 -19.794  -5.664  1.00  0.00    -0.003 C 
ATOM     13  C   UNL     1       4.116 -21.296  -5.413  1.00  0.00     0.004 C 
ENDBRANCH  11  12
ENDBRANCH  10  11
ENDBRANCH   9  10
ENDBRANCH   8   9
ENDBRANCH   1   8
TORSDOF 9
ENDMDL
MODEL 3
REMARK VINA RESULT:    -4.151      2.209      4.125
REMARK INTER + INTRA:          -7.506
REMARK INTER:                  -6.553
REMARK INTRA:                  -0.954
REMARK UNBOUND:                -1.171
REMARK SMILES CCCCCCCCCCC(=O)[O-]
REMARK SMILES IDX 7 1 8 2 9 3 10 4 11 5 12 6 13 7 6 8 5 9 4 10 3 11 2 12 1 13
REMARK H PARENT
REMARK Flexibility Score: inf
ROOT
ATOM      1  C   UNL     1       1.286 -21.327  -8.439  1.00  0.00     0.000 C 
ENDROOT
BRANCH   1   2
ATOM      2  C   UNL     1       2.367 -20.428  -7.826  1.00  0.00     0.000 C 
BRANCH   2   3
ATOM      3  C   UNL     1       3.502 -21.264  -7.223  1.00  0.00     0.006 C 
BRANCH   3   4
ATOM      4  C   UNL     1       3.960 -20.684  -5.883  1.00  0.00     0.053 C 
BRANCH   4   5
ATOM      5  C   UNL     1       5.205 -21.368  -5.414  1.00  0.00     0.041 C 
ATOM      6  O   UNL     1       5.473 -21.425  -4.185  1.00  0.00    -0.550 OA
ATOM      7  O   UNL     1       6.046 -21.987  -6.330  1.00  0.00    -0.550 OA
ENDBRANCH   4   5
ENDBRANCH   3   4
ENDBRANCH   2   3
ENDBRANCH   1   2
BRANCH   1   8
ATOM      8  C   UNL     1       0.892 -22.451  -7.473  1.00  0.00     0.000 C 
BRANCH   8   9
ATOM      9  C   UNL     1      -0.198 -21.985  -6.499  1.00  0.00    -0.000 C 
BRANCH   9  10
ATOM     10  C   UNL     1       0.343 -21.906  -5.065  1.00  0.00    -0.000 C 
BRANCH  10  11
ATOM     11  C   UNL     1       0.485 -20.461  -4.556  1.00  0.00    -0.000 C 
BRANCH  11  12
ATOM     12  C   UNL     1       0.699 -20.328  -3.038  1.00  0.00    -0.003 C 
ATOM     13  C   UNL     1       2.103 -19.850  -2.670  1.00  0.00     0.004 C 
ENDBRANCH  11  12
ENDBRANCH  10  11
ENDBRANCH   9  10
ENDBRANCH   8   9
ENDBRANCH   1   8
TORSDOF 9
ENDMDL
MODEL 4
REMARK VINA RESULT:    -4.085      2.346      4.239
REMARK INTER + INTRA:          -7.405
REMARK INTER:                  -6.658
REMARK INTRA:                  -0.746
REMARK UNBOUND:                -1.171
REMARK SMILES CCCCCCCCCCC(=O)[O-]
REMARK SMILES IDX 7 1 8 2 9 3 10 4 11 5 12 6 13 7 6 8 5 9 4 10 3 11 2 12 1 13
REMARK H PARENT
REMARK Flexibility Score: inf
ROOT
ATOM      1  C   UNL     1       0.866 -22.090  -6.758  1.00  0.00     0.000 C 
ENDROOT
BRANCH   1   2
ATOM      2  C   UNL     1       1.253 -20.861  -7.590  1.00  0.00     0.000 C 
BRANCH   2   3
ATOM      3  C   UNL     1       2.665 -21.010  -8.169  1.00  0.00     0.006 C 
BRANCH   3   4
ATOM      4  C   UNL     1       3.694 -20.283  -7.301  1.00  0.00     0.053 C 
BRANCH   4   5
ATOM      5  C   UNL     1       4.505 -21.265  -6.515  1.00  0.00     0.041 C 
ATOM      6  O   UNL     1       5.478 -21.857  -7.051  1.00  0.00    -0.550 OA
ATOM      7  O   UNL     1       4.218 -21.488  -5.174  1.00  0.00    -0.550 OA
ENDBRANCH   4   5
ENDBRANCH   3   4
ENDBRANCH   2   3
ENDBRANCH   1   2
BRANCH   1   8
ATOM      8  C   UNL     1       0.308 -21.676  -5.391  1.00  0.00     0.000 C 
BRANCH   8   9
ATOM      9  C   UNL     1       0.869 -20.316  -4.955  1.00  0.00    -0.000 C 
BRANCH   9  10
ATOM     10  C   UNL     1       0.272 -19.880  -3.610  1.00  0.00    -0.000 C 
BRANCH  10  11
ATOM     11  C   UNL     1       0.894 -20.617  -2.410  1.00  0.00    -0.000 C 
BRANCH  11  12
ATOM     12  C   UNL     1       2.374 -20.287  -2.147  1.00  0.00    -0.003 C 
ATOM     13  C   UNL     1       2.657 -18.786  -2.114  1.00  0.00     0.004 C 
ENDBRANCH  11  12
ENDBRANCH  10  11
ENDBRANCH   9  10
ENDBRANCH   8   9
ENDBRANCH   1   8
TORSDOF 9
ENDMDL
MODEL 5
REMARK VINA RESULT:    -4.069      1.423      1.870
REMARK INTER + INTRA:          -7.381
REMARK INTER:                  -6.659
REMARK INTRA:                  -0.721
REMARK UNBOUND:                -1.171
REMARK SMILES CCCCCCCCCCC(=O)[O-]
REMARK SMILES IDX 7 1 8 2 9 3 10 4 11 5 12 6 13 7 6 8 5 9 4 10 3 11 2 12 1 13
REMARK H PARENT
REMARK Flexibility Score: inf
ROOT
ATOM      1  C   UNL     1       1.114 -22.183  -6.348  1.00  0.00     0.000 C 
ENDROOT
BRANCH   1   2
ATOM      2  C   UNL     1       0.185 -21.444  -5.376  1.00  0.00     0.000 C 
BRANCH   2   3
ATOM      3  C   UNL     1       0.925 -20.307  -4.664  1.00  0.00     0.006 C 
BRANCH   3   4
ATOM      4  C   UNL     1       0.482 -20.194  -3.203  1.00  0.00     0.053 C 
BRANCH   4   5
ATOM      5  C   UNL     1       1.661 -20.305  -2.287  1.00  0.00     0.041 C 
ATOM      6  O   UNL     1       1.651 -21.132  -1.339  1.00  0.00    -0.550 OA
ATOM      7  O   UNL     1       2.791 -19.529  -2.512  1.00  0.00    -0.550 OA
ENDBRANCH   4   5
ENDBRANCH   3   4
ENDBRANCH   2   3
ENDBRANCH   1   2
BRANCH   1   8
ATOM      8  C   UNL     1       0.849 -21.754  -7.796  1.00  0.00     0.000 C 
BRANCH   8   9
ATOM      9  C   UNL     1       1.963 -20.834  -8.311  1.00  0.00    -0.000 C 
BRANCH   9  10
ATOM     10  C   UNL     1       3.254 -21.026  -7.502  1.00  0.00    -0.000 C 
BRANCH  10  11
ATOM     11  C   UNL     1       4.157 -19.779  -7.509  1.00  0.00    -0.000 C 
BRANCH  11  12
ATOM     12  C   UNL     1       3.704 -18.649  -6.567  1.00  0.00    -0.003 C 
ATOM     13  C   UNL     1       4.849 -17.732  -6.139  1.00  0.00     0.004 C 
ENDBRANCH  11  12
ENDBRANCH  10  11
ENDBRANCH   9  10
ENDBRANCH   8   9
ENDBRANCH   1   8
TORSDOF 9
ENDMDL
MODEL 6
REMARK VINA RESULT:    -4.064      1.510      3.812
REMARK INTER + INTRA:          -7.373
REMARK INTER:                  -6.300
REMARK INTRA:                  -1.073
REMARK UNBOUND:                -1.171
REMARK SMILES CCCCCCCCCCC(=O)[O-]
REMARK SMILES IDX 7 1 8 2 9 3 10 4 11 5 12 6 13 7 6 8 5 9 4 10 3 11 2 12 1 13
REMARK H PARENT
REMARK Flexibility Score: inf
ROOT
ATOM      1  C   UNL     1       3.255 -21.001  -7.319  1.00  0.00     0.000 C 
ENDROOT
BRANCH   1   2
ATOM      2  C   UNL     1       4.011 -19.677  -7.145  1.00  0.00     0.000 C 
BRANCH   2   3
ATOM      3  C   UNL     1       4.327 -19.414  -5.668  1.00  0.00     0.006 C 
BRANCH   3   4
ATOM      4  C   UNL     1       4.331 -20.718  -4.866  1.00  0.00     0.053 C 
BRANCH   4   5
ATOM      5  C   UNL     1       4.534 -20.438  -3.411  1.00  0.00     0.041 C 
ATOM      6  O   UNL     1       5.416 -21.059  -2.763  1.00  0.00    -0.550 OA
ATOM      7  O   UNL     1       3.782 -19.454  -2.781  1.00  0.00    -0.550 OA
ENDBRANCH   4   5
ENDBRANCH   3   4
ENDBRANCH   2   3
ENDBRANCH   1   2
BRANCH   1   8
ATOM      8  C   UNL     1       2.075 -20.838  -8.284  1.00  0.00     0.000 C 
BRANCH   8   9
ATOM      9  C   UNL     1       0.851 -21.623  -7.796  1.00  0.00    -0.000 C 
BRANCH   9  10
ATOM     10  C   UNL     1       1.072 -22.158  -6.373  1.00  0.00    -0.000 C 
BRANCH  10  11
ATOM     11  C   UNL     1       0.131 -21.515  -5.338  1.00  0.00    -0.000 C 
BRANCH  11  12
ATOM     12  C   UNL     1       0.744 -20.345  -4.547  1.00  0.00    -0.003 C 
ATOM     13  C   UNL     1       0.470 -20.429  -3.047  1.00  0.00     0.004 C 
ENDBRANCH  11  12
ENDBRANCH  10  11
ENDBRANCH   9  10
ENDBRANCH   8   9
ENDBRANCH   1   8
TORSDOF 9
ENDMDL
MODEL 7
REMARK VINA RESULT:    -4.039      1.972      3.324
REMARK INTER + INTRA:          -7.335
REMARK INTER:                  -6.453
REMARK INTRA:                  -0.882
REMARK UNBOUND:                -1.171
REMARK SMILES CCCCCCCCCCC(=O)[O-]
REMARK SMILES IDX 7 1 8 2 9 3 10 4 11 5 12 6 13 7 6 8 5 9 4 10 3 11 2 12 1 13
REMARK H PARENT
REMARK Flexibility Score: inf
ROOT
ATOM      1  C   UNL     1       0.823 -20.446  -4.762  1.00  0.00     0.000 C 
ENDROOT
BRANCH   1   2
ATOM      2  C   UNL     1       0.522 -20.278  -3.268  1.00  0.00     0.000 C 
BRANCH   2   3
ATOM      3  C   UNL     1       1.816 -20.218  -2.449  1.00  0.00     0.006 C 
BRANCH   3   4
ATOM      4  C   UNL     1       2.858 -19.329  -3.132  1.00  0.00     0.053 C 
BRANCH   4   5
ATOM      5  C   UNL     1       4.196 -19.998  -3.139  1.00  0.00     0.041 C 
ATOM      6  O   UNL     1       4.413 -20.973  -3.905  1.00  0.00    -0.550 OA
ATOM      7  O   UNL     1       5.221 -19.513  -2.337  1.00  0.00    -0.550 OA
ENDBRANCH   4   5
ENDBRANCH   3   4
ENDBRANCH   2   3
ENDBRANCH   1   2
BRANCH   1   8
ATOM      8  C   UNL     1       0.137 -21.696  -5.325  1.00  0.00     0.000 C 
BRANCH   8   9
ATOM      9  C   UNL     1       0.937 -22.285  -6.494  1.00  0.00    -0.000 C 
BRANCH   9  10
ATOM     10  C   UNL     1       0.706 -21.478  -7.780  1.00  0.00    -0.000 C 
BRANCH  10  11
ATOM     11  C   UNL     1       2.007 -20.904  -8.370  1.00  0.00    -0.000 C 
BRANCH  11  12
ATOM     12  C   UNL     1       3.216 -20.933  -7.417  1.00  0.00    -0.003 C 
ATOM     13  C   UNL     1       3.711 -19.538  -7.036  1.00  0.00     0.004 C 
ENDBRANCH  11  12
ENDBRANCH  10  11
ENDBRANCH   9  10
ENDBRANCH   8   9
ENDBRANCH   1   8
TORSDOF 9
ENDMDL
MODEL 8
REMARK VINA RESULT:    -4.007      3.607      5.468
REMARK INTER + INTRA:          -7.286
REMARK INTER:                  -6.430
REMARK INTRA:                  -0.856
REMARK UNBOUND:                -1.171
REMARK SMILES CCCCCCCCCCC(=O)[O-]
REMARK SMILES IDX 7 1 8 2 9 3 10 4 11 5 12 6 13 7 6 8 5 9 4 10 3 11 2 12 1 13
REMARK H PARENT
REMARK Flexibility Score: inf
ROOT
ATOM      1  C   UNL     1       2.948 -20.366  -7.913  1.00  0.00     0.000 C 
ENDROOT
BRANCH   1   2
ATOM      2  C   UNL     1       3.750 -21.248  -6.947  1.00  0.00     0.000 C 
BRANCH   2   3
ATOM      3  C   UNL     1       5.243 -20.899  -6.994  1.00  0.00     0.006 C 
BRANCH   3   4
ATOM      4  C   UNL     1       6.097 -22.161  -7.138  1.00  0.00     0.053 C 
BRANCH   4   5
ATOM      5  C   UNL     1       7.454 -21.818  -7.666  1.00  0.00     0.041 C 
ATOM      6  O   UNL     1       8.157 -22.698  -8.228  1.00  0.00    -0.550 OA
ATOM      7  O   UNL     1       7.923 -20.513  -7.582  1.00  0.00    -0.550 OA
ENDBRANCH   4   5
ENDBRANCH   3   4
ENDBRANCH   2   3
ENDBRANCH   1   2
BRANCH   1   8
ATOM      8  C   UNL     1       1.562 -20.963  -8.179  1.00  0.00     0.000 C 
BRANCH   8   9
ATOM      9  C   UNL     1       1.267 -22.124  -7.222  1.00  0.00    -0.000 C 
BRANCH   9  10
ATOM     10  C   UNL     1       0.012 -21.842  -6.383  1.00  0.00    -0.000 C 
BRANCH  10  11
ATOM     11  C   UNL     1       0.333 -21.523  -4.912  1.00  0.00    -0.000 C 
BRANCH  11  12
ATOM     12  C   UNL     1       0.816 -20.084  -4.653  1.00  0.00    -0.003 C 
ATOM     13  C   UNL     1       2.160 -20.025  -3.930  1.00  0.00     0.004 C 
ENDBRANCH  11  12
ENDBRANCH  10  11
ENDBRANCH   9  10
ENDBRANCH   8   9
ENDBRANCH   1   8
TORSDOF 9
ENDMDL
MODEL 9
REMARK VINA RESULT:    -3.904     10.750     12.707
REMARK INTER + INTRA:          -7.128
REMARK INTER:                  -5.813
REMARK INTRA:                  -1.315
REMARK UNBOUND:                -1.171
REMARK SMILES CCCCCCCCCCC(=O)[O-]
REMARK SMILES IDX 7 1 8 2 9 3 10 4 11 5 12 6 13 7 6 8 5 9 4 10 3 11 2 12 1 13
REMARK H PARENT
REMARK Flexibility Score: inf
ROOT
ATOM      1  C   UNL     1      -5.486 -27.746  -1.295  1.00  0.00     0.000 C 
ENDROOT
BRANCH   1   2
ATOM      2  C   UNL     1      -6.847 -27.386  -0.686  1.00  0.00     0.000 C 
BRANCH   2   3
ATOM      3  C   UNL     1      -7.527 -26.266  -1.483  1.00  0.00     0.006 C 
BRANCH   3   4
ATOM      4  C   UNL     1      -9.022 -26.545  -1.654  1.00  0.00     0.053 C 
BRANCH   4   5
ATOM      5  C   UNL     1      -9.432 -26.351  -3.080  1.00  0.00     0.041 C 
ATOM      6  O   UNL     1      -9.139 -25.287  -3.685  1.00  0.00    -0.550 OA
ATOM      7  O   UNL     1     -10.093 -27.368  -3.758  1.00  0.00    -0.550 OA
ENDBRANCH   4   5
ENDBRANCH   3   4
ENDBRANCH   2   3
ENDBRANCH   1   2
BRANCH   1   8
ATOM      8  C   UNL     1      -5.377 -27.241  -2.738  1.00  0.00     0.000 C 
BRANCH   8   9
ATOM      9  C   UNL     1      -5.372 -28.410  -3.732  1.00  0.00    -0.000 C 
BRANCH   9  10
ATOM     10  C   UNL     1      -6.784 -28.683  -4.268  1.00  0.00    -0.000 C 
BRANCH  10  11
ATOM     11  C   UNL     1      -7.228 -30.144  -4.070  1.00  0.00    -0.000 C 
BRANCH  11  12
ATOM     12  C   UNL     1      -8.240 -30.364  -2.932  1.00  0.00    -0.003 C 
ATOM     13  C   UNL     1      -7.581 -30.757  -1.611  1.00  0.00     0.004 C 
ENDBRANCH  11  12
ENDBRANCH  10  11
ENDBRANCH   9  10
ENDBRANCH   8   9
ENDBRANCH   1   8
TORSDOF 9
ENDMDL
