MODEL 1
REMARK VINA RESULT:    -6.505      0.000      0.000
REMARK INTER + INTRA:          -7.335
REMARK INTER:                  -7.265
REMARK INTRA:                  -0.070
REMARK UNBOUND:                -0.070
REMARK SMILES COc1cc2ccc(=O)oc2c(O)c1O
REMARK SMILES IDX 3 1 14 2 12 3 11 4 5 5 4 6 6 7 7 8 8 9 9 10 10 11 2 12 1 13
REMARK SMILES IDX 15 14 13 16
REMARK H PARENT 15 15 13 17
REMARK Flexibility Score: inf
ROOT
ATOM      1  C   UNL     1      10.618  21.425  19.501  1.00  0.00     0.165 A 
ATOM      2  C   UNL     1      11.038  22.068  18.324  1.00  0.00     0.204 A 
ATOM      3  C   UNL     1      12.142  21.561  17.593  1.00  0.00     0.205 A 
ATOM      4  C   UNL     1      12.810  20.418  18.053  1.00  0.00     0.184 A 
ATOM      5  C   UNL     1      12.386  19.776  19.234  1.00  0.00     0.025 A 
ATOM      6  C   UNL     1      11.297  20.277  19.952  1.00  0.00     0.062 A 
ATOM      7  C   UNL     1      13.077  18.637  19.661  1.00  0.00     0.020 A 
ATOM      8  C   UNL     1      14.158  18.171  18.915  1.00  0.00     0.094 A 
ATOM      9  C   UNL     1      14.524  18.858  17.753  1.00  0.00     0.336 A 
ATOM     10  O   UNL     1      15.496  18.455  17.064  1.00  0.00    -0.246 OA
ATOM     11  O   UNL     1      13.848  19.938  17.370  1.00  0.00    -0.419 OA
ENDROOT
BRANCH   1  12
ATOM     12  O   UNL     1       9.520  21.959  20.194  1.00  0.00    -0.493 OA
ATOM     13  C   UNL     1       8.238  21.343  20.276  1.00  0.00     0.278 C 
ENDBRANCH   1  12
BRANCH   2  14
ATOM     14  O   UNL     1      10.332  23.203  17.917  1.00  0.00    -0.502 OA
ATOM     15  H   UNL     1       9.569  23.614  18.434  1.00  0.00     0.293 HD
ENDBRANCH   2  14
BRANCH   3  16
ATOM     16  O   UNL     1      12.602  22.160  16.417  1.00  0.00    -0.502 OA
ATOM     17  H   UNL     1      12.163  22.953  15.973  1.00  0.00     0.293 HD
ENDBRANCH   3  16
TORSDOF 3
ENDMDL
MODEL 2
REMARK VINA RESULT:    -6.361      1.716      4.937
REMARK INTER + INTRA:          -7.175
REMARK INTER:                  -7.119
REMARK INTRA:                  -0.056
REMARK UNBOUND:                -0.070
REMARK SMILES COc1cc2ccc(=O)oc2c(O)c1O
REMARK SMILES IDX 3 1 14 2 12 3 11 4 5 5 4 6 6 7 7 8 8 9 9 10 10 11 2 12 1 13
REMARK SMILES IDX 15 14 13 16
REMARK H PARENT 15 15 13 17
REMARK Flexibility Score: inf
ROOT
ATOM      1  C   UNL     1      14.294  19.085  17.616  1.00  0.00     0.165 A 
ATOM      2  C   UNL     1      13.750  19.250  16.331  1.00  0.00     0.204 A 
ATOM      3  C   UNL     1      12.451  19.796  16.174  1.00  0.00     0.205 A 
ATOM      4  C   UNL     1      11.715  20.167  17.308  1.00  0.00     0.184 A 
ATOM      5  C   UNL     1      12.264  20.000  18.595  1.00  0.00     0.025 A 
ATOM      6  C   UNL     1      13.545  19.462  18.747  1.00  0.00     0.062 A 
ATOM      7  C   UNL     1      11.500  20.383  19.703  1.00  0.00     0.020 A 
ATOM      8  C   UNL     1      10.227  20.915  19.506  1.00  0.00     0.094 A 
ATOM      9  C   UNL     1       9.745  21.052  18.201  1.00  0.00     0.336 A 
ATOM     10  O   UNL     1       8.599  21.530  18.000  1.00  0.00    -0.246 OA
ATOM     11  O   UNL     1      10.494  20.680  17.166  1.00  0.00    -0.419 OA
ENDROOT
BRANCH   1  12
ATOM     12  O   UNL     1      15.584  18.542  17.726  1.00  0.00    -0.493 OA
ATOM     13  C   UNL     1      16.517  18.875  18.750  1.00  0.00     0.278 C 
ENDBRANCH   1  12
BRANCH   2  14
ATOM     14  O   UNL     1      14.532  18.860  15.239  1.00  0.00    -0.502 OA
ATOM     15  H   UNL     1      14.179  18.738  14.302  1.00  0.00     0.293 HD
ENDBRANCH   2  14
BRANCH   3  16
ATOM     16  O   UNL     1      11.861  19.981  14.920  1.00  0.00    -0.502 OA
ATOM     17  H   UNL     1      11.511  19.234  14.340  1.00  0.00     0.293 HD
ENDBRANCH   3  16
TORSDOF 3
ENDMDL
MODEL 3
REMARK VINA RESULT:    -6.057      2.573      4.856
REMARK INTER + INTRA:          -6.834
REMARK INTER:                  -6.782
REMARK INTRA:                  -0.052
REMARK UNBOUND:                -0.070
REMARK SMILES COc1cc2ccc(=O)oc2c(O)c1O
REMARK SMILES IDX 3 1 14 2 12 3 11 4 5 5 4 6 6 7 7 8 8 9 9 10 10 11 2 12 1 13
REMARK SMILES IDX 15 14 13 16
REMARK H PARENT 15 15 13 17
REMARK Flexibility Score: inf
ROOT
ATOM      1  C   UNL     1      12.033  19.935  14.903  1.00  0.00     0.165 A 
ATOM      2  C   UNL     1      13.262  20.119  15.560  1.00  0.00     0.204 A 
ATOM      3  C   UNL     1      13.288  20.415  16.946  1.00  0.00     0.205 A 
ATOM      4  C   UNL     1      12.083  20.524  17.654  1.00  0.00     0.184 A 
ATOM      5  C   UNL     1      10.853  20.338  16.991  1.00  0.00     0.025 A 
ATOM      6  C   UNL     1      10.830  20.046  15.625  1.00  0.00     0.062 A 
ATOM      7  C   UNL     1       9.671  20.453  17.731  1.00  0.00     0.020 A 
ATOM      8  C   UNL     1       9.740  20.747  19.092  1.00  0.00     0.094 A 
ATOM      9  C   UNL     1      10.995  20.919  19.684  1.00  0.00     0.336 A 
ATOM     10  O   UNL     1      11.080  21.183  20.911  1.00  0.00    -0.246 OA
ATOM     11  O   UNL     1      12.103  20.802  18.956  1.00  0.00    -0.419 OA
ENDROOT
BRANCH   1  12
ATOM     12  O   UNL     1      12.052  19.642  13.530  1.00  0.00    -0.493 OA
ATOM     13  C   UNL     1      10.902  19.305  12.759  1.00  0.00     0.278 C 
ENDBRANCH   1  12
BRANCH   2  14
ATOM     14  O   UNL     1      14.429  19.998  14.801  1.00  0.00    -0.502 OA
ATOM     15  H   UNL     1      15.362  20.084  15.176  1.00  0.00     0.293 HD
ENDBRANCH   2  14
BRANCH   3  16
ATOM     16  O   UNL     1      14.481  20.608  17.650  1.00  0.00    -0.502 OA
ATOM     17  H   UNL     1      15.395  20.376  17.293  1.00  0.00     0.293 HD
ENDBRANCH   3  16
TORSDOF 3
ENDMDL
MODEL 4
REMARK VINA RESULT:    -6.051      2.456      5.185
REMARK INTER + INTRA:          -6.828
REMARK INTER:                  -6.907
REMARK INTRA:                   0.079
REMARK UNBOUND:                -0.070
REMARK SMILES COc1cc2ccc(=O)oc2c(O)c1O
REMARK SMILES IDX 3 1 14 2 12 3 11 4 5 5 4 6 6 7 7 8 8 9 9 10 10 11 2 12 1 13
REMARK SMILES IDX 15 14 13 16
REMARK H PARENT 15 15 13 17
REMARK Flexibility Score: inf
ROOT
ATOM      1  C   UNL     1      12.706  20.651  15.569  1.00  0.00     0.165 A 
ATOM      2  C   UNL     1      11.521  19.970  15.245  1.00  0.00     0.204 A 
ATOM      3  C   UNL     1      10.438  19.954  16.160  1.00  0.00     0.205 A 
ATOM      4  C   UNL     1      10.558  20.620  17.387  1.00  0.00     0.184 A 
ATOM      5  C   UNL     1      11.749  21.304  17.709  1.00  0.00     0.025 A 
ATOM      6  C   UNL     1      12.815  21.318  16.805  1.00  0.00     0.062 A 
ATOM      7  C   UNL     1      11.832  21.958  18.942  1.00  0.00     0.020 A 
ATOM      8  C   UNL     1      10.745  21.918  19.814  1.00  0.00     0.094 A 
ATOM      9  C   UNL     1       9.596  21.221  19.430  1.00  0.00     0.336 A 
ATOM     10  O   UNL     1       8.603  21.173  20.201  1.00  0.00    -0.246 OA
ATOM     11  O   UNL     1       9.544  20.608  18.250  1.00  0.00    -0.419 OA
ENDROOT
BRANCH   1  12
ATOM     12  O   UNL     1      13.754  20.643  14.635  1.00  0.00    -0.493 OA
ATOM     13  C   UNL     1      14.632  19.543  14.414  1.00  0.00     0.278 C 
ENDBRANCH   1  12
BRANCH   2  14
ATOM     14  O   UNL     1      11.461  19.323  14.007  1.00  0.00    -0.502 OA
ATOM     15  H   UNL     1      11.467  19.799  13.117  1.00  0.00     0.293 HD
ENDBRANCH   2  14
BRANCH   3  16
ATOM     16  O   UNL     1       9.237  19.291  15.890  1.00  0.00    -0.502 OA
ATOM     17  H   UNL     1       9.133  18.561  15.202  1.00  0.00     0.293 HD
ENDBRANCH   3  16
TORSDOF 3
ENDMDL
MODEL 5
REMARK VINA RESULT:    -5.727      1.868      2.912
REMARK INTER + INTRA:          -6.466
REMARK INTER:                  -6.525
REMARK INTRA:                   0.058
REMARK UNBOUND:                -0.070
REMARK SMILES COc1cc2ccc(=O)oc2c(O)c1O
REMARK SMILES IDX 3 1 14 2 12 3 11 4 5 5 4 6 6 7 7 8 8 9 9 10 10 11 2 12 1 13
REMARK SMILES IDX 15 14 13 16
REMARK H PARENT 15 15 13 17
REMARK Flexibility Score: inf
ROOT
ATOM      1  C   UNL     1      10.866  21.245  18.649  1.00  0.00     0.165 A 
ATOM      2  C   UNL     1      11.689  20.399  19.411  1.00  0.00     0.204 A 
ATOM      3  C   UNL     1      12.652  19.580  18.770  1.00  0.00     0.205 A 
ATOM      4  C   UNL     1      12.776  19.620  17.375  1.00  0.00     0.184 A 
ATOM      5  C   UNL     1      11.949  20.471  16.614  1.00  0.00     0.025 A 
ATOM      6  C   UNL     1      11.000  21.278  17.249  1.00  0.00     0.062 A 
ATOM      7  C   UNL     1      12.102  20.485  15.223  1.00  0.00     0.020 A 
ATOM      8  C   UNL     1      13.061  19.664  14.631  1.00  0.00     0.094 A 
ATOM      9  C   UNL     1      13.847  18.845  15.447  1.00  0.00     0.336 A 
ATOM     10  O   UNL     1      14.718  18.097  14.934  1.00  0.00    -0.246 OA
ATOM     11  O   UNL     1      13.680  18.853  16.767  1.00  0.00    -0.419 OA
ENDROOT
BRANCH   1  12
ATOM     12  O   UNL     1       9.925  22.041  19.324  1.00  0.00    -0.493 OA
ATOM     13  C   UNL     1       8.671  21.572  19.811  1.00  0.00     0.278 C 
ENDBRANCH   1  12
BRANCH   2  14
ATOM     14  O   UNL     1      11.518  20.402  20.798  1.00  0.00    -0.502 OA
ATOM     15  H   UNL     1      12.203  20.746  21.455  1.00  0.00     0.293 HD
ENDBRANCH   2  14
BRANCH   3  16
ATOM     16  O   UNL     1      13.496  18.719  19.478  1.00  0.00    -0.502 OA
ATOM     17  H   UNL     1      13.379  17.719  19.524  1.00  0.00     0.293 HD
ENDBRANCH   3  16
TORSDOF 3
ENDMDL
MODEL 6
REMARK VINA RESULT:    -5.642      1.942      5.414
REMARK INTER + INTRA:          -6.371
REMARK INTER:                  -6.301
REMARK INTRA:                  -0.069
REMARK UNBOUND:                -0.070
REMARK SMILES COc1cc2ccc(=O)oc2c(O)c1O
REMARK SMILES IDX 3 1 14 2 12 3 11 4 5 5 4 6 6 7 7 8 8 9 9 10 10 11 2 12 1 13
REMARK SMILES IDX 15 14 13 16
REMARK H PARENT 15 15 13 17
REMARK Flexibility Score: inf
ROOT
ATOM      1  C   UNL     1      13.745  19.085  15.916  1.00  0.00     0.165 A 
ATOM      2  C   UNL     1      14.315  18.724  17.148  1.00  0.00     0.204 A 
ATOM      3  C   UNL     1      13.675  19.085  18.360  1.00  0.00     0.205 A 
ATOM      4  C   UNL     1      12.473  19.804  18.321  1.00  0.00     0.184 A 
ATOM      5  C   UNL     1      11.903  20.165  17.083  1.00  0.00     0.025 A 
ATOM      6  C   UNL     1      12.536  19.807  15.889  1.00  0.00     0.062 A 
ATOM      7  C   UNL     1      10.702  20.882  17.083  1.00  0.00     0.020 A 
ATOM      8  C   UNL     1      10.105  21.219  18.296  1.00  0.00     0.094 A 
ATOM      9  C   UNL     1      10.726  20.829  19.487  1.00  0.00     0.336 A 
ATOM     10  O   UNL     1      10.204  21.122  20.593  1.00  0.00    -0.246 OA
ATOM     11  O   UNL     1      11.868  20.146  19.457  1.00  0.00    -0.419 OA
ENDROOT
BRANCH   1  12
ATOM     12  O   UNL     1      14.411  18.707  14.739  1.00  0.00    -0.493 OA
ATOM     13  C   UNL     1      15.176  19.589  13.924  1.00  0.00     0.278 C 
ENDBRANCH   1  12
BRANCH   2  14
ATOM     14  O   UNL     1      15.515  18.008  17.123  1.00  0.00    -0.502 OA
ATOM     15  H   UNL     1      16.419  18.420  16.948  1.00  0.00     0.293 HD
ENDBRANCH   2  14
BRANCH   3  16
ATOM     16  O   UNL     1      14.198  18.752  19.614  1.00  0.00    -0.502 OA
ATOM     17  H   UNL     1      15.184  18.682  19.818  1.00  0.00     0.293 HD
ENDBRANCH   3  16
TORSDOF 3
ENDMDL
MODEL 7
REMARK VINA RESULT:    -5.468     16.943     18.792
REMARK INTER + INTRA:          -6.177
REMARK INTER:                  -6.122
REMARK INTRA:                  -0.055
REMARK UNBOUND:                -0.070
REMARK SMILES COc1cc2ccc(=O)oc2c(O)c1O
REMARK SMILES IDX 3 1 14 2 12 3 11 4 5 5 4 6 6 7 7 8 8 9 9 10 10 11 2 12 1 13
REMARK SMILES IDX 15 14 13 16
REMARK H PARENT 15 15 13 17
REMARK Flexibility Score: inf
ROOT
ATOM      1  C   UNL     1      23.444  17.732   4.941  1.00  0.00     0.165 A 
ATOM      2  C   UNL     1      24.451  16.851   4.512  1.00  0.00     0.204 A 
ATOM      3  C   UNL     1      24.105  15.609   3.924  1.00  0.00     0.205 A 
ATOM      4  C   UNL     1      22.754  15.267   3.773  1.00  0.00     0.184 A 
ATOM      5  C   UNL     1      21.746  16.154   4.204  1.00  0.00     0.025 A 
ATOM      6  C   UNL     1      22.090  17.378   4.784  1.00  0.00     0.062 A 
ATOM      7  C   UNL     1      20.409  15.778   4.036  1.00  0.00     0.020 A 
ATOM      8  C   UNL     1      20.110  14.548   3.454  1.00  0.00     0.094 A 
ATOM      9  C   UNL     1      21.160  13.718   3.050  1.00  0.00     0.336 A 
ATOM     10  O   UNL     1      20.914  12.603   2.521  1.00  0.00    -0.246 OA
ATOM     11  O   UNL     1      22.424  14.101   3.221  1.00  0.00    -0.419 OA
ENDROOT
BRANCH   1  12
ATOM     12  O   UNL     1      23.830  18.953   5.518  1.00  0.00    -0.493 OA
ATOM     13  C   UNL     1      23.076  19.658   6.499  1.00  0.00     0.278 C 
ENDBRANCH   1  12
BRANCH   2  14
ATOM     14  O   UNL     1      25.780  17.248   4.690  1.00  0.00    -0.502 OA
ATOM     15  H   UNL     1      26.418  16.819   5.342  1.00  0.00     0.293 HD
ENDBRANCH   2  14
BRANCH   3  16
ATOM     16  O   UNL     1      25.065  14.695   3.481  1.00  0.00    -0.502 OA
ATOM     17  H   UNL     1      25.200  13.776   3.875  1.00  0.00     0.293 HD
ENDBRANCH   3  16
TORSDOF 3
ENDMDL
MODEL 8
REMARK VINA RESULT:    -5.345     18.200     19.489
REMARK INTER + INTRA:          -6.039
REMARK INTER:                  -5.987
REMARK INTRA:                  -0.052
REMARK UNBOUND:                -0.070
REMARK SMILES COc1cc2ccc(=O)oc2c(O)c1O
REMARK SMILES IDX 3 1 14 2 12 3 11 4 5 5 4 6 6 7 7 8 8 9 9 10 10 11 2 12 1 13
REMARK SMILES IDX 15 14 13 16
REMARK H PARENT 15 15 13 17
REMARK Flexibility Score: inf
ROOT
ATOM      1  C   UNL     1      21.157  13.273   2.984  1.00  0.00     0.165 A 
ATOM      2  C   UNL     1      22.502  12.872   3.034  1.00  0.00     0.204 A 
ATOM      3  C   UNL     1      23.503  13.792   3.434  1.00  0.00     0.205 A 
ATOM      4  C   UNL     1      23.141  15.102   3.779  1.00  0.00     0.184 A 
ATOM      5  C   UNL     1      21.790  15.500   3.728  1.00  0.00     0.025 A 
ATOM      6  C   UNL     1      20.805  14.590   3.333  1.00  0.00     0.062 A 
ATOM      7  C   UNL     1      21.466  16.815   4.080  1.00  0.00     0.020 A 
ATOM      8  C   UNL     1      22.480  17.690   4.468  1.00  0.00     0.094 A 
ATOM      9  C   UNL     1      23.799  17.227   4.495  1.00  0.00     0.336 A 
ATOM     10  O   UNL     1      24.729  17.999   4.843  1.00  0.00    -0.246 OA
ATOM     11  O   UNL     1      24.078  15.970   4.156  1.00  0.00    -0.419 OA
ENDROOT
BRANCH   1  12
ATOM     12  O   UNL     1      20.197  12.329   2.582  1.00  0.00    -0.493 OA
ATOM     13  C   UNL     1      18.789  12.538   2.630  1.00  0.00     0.278 C 
ENDBRANCH   1  12
BRANCH   2  14
ATOM     14  O   UNL     1      22.801  11.554   2.678  1.00  0.00    -0.502 OA
ATOM     15  H   UNL     1      23.737  11.197   2.554  1.00  0.00     0.293 HD
ENDBRANCH   2  14
BRANCH   3  16
ATOM     16  O   UNL     1      24.856  13.448   3.501  1.00  0.00    -0.502 OA
ATOM     17  H   UNL     1      25.519  13.868   4.135  1.00  0.00     0.293 HD
ENDBRANCH   3  16
TORSDOF 3
ENDMDL
MODEL 9
REMARK VINA RESULT:    -5.279     18.352     19.630
REMARK INTER + INTRA:          -5.965
REMARK INTER:                  -5.896
REMARK INTRA:                  -0.070
REMARK UNBOUND:                -0.070
REMARK SMILES COc1cc2ccc(=O)oc2c(O)c1O
REMARK SMILES IDX 3 1 14 2 12 3 11 4 5 5 4 6 6 7 7 8 8 9 9 10 10 11 2 12 1 13
REMARK SMILES IDX 15 14 13 16
REMARK H PARENT 15 15 13 17
REMARK Flexibility Score: inf
ROOT
ATOM      1  C   UNL     1      23.795  16.023   2.733  1.00  0.00     0.165 A 
ATOM      2  C   UNL     1      22.712  16.884   2.977  1.00  0.00     0.204 A 
ATOM      3  C   UNL     1      21.409  16.354   3.150  1.00  0.00     0.205 A 
ATOM      4  C   UNL     1      21.209  14.969   3.075  1.00  0.00     0.184 A 
ATOM      5  C   UNL     1      22.298  14.108   2.830  1.00  0.00     0.025 A 
ATOM      6  C   UNL     1      23.583  14.633   2.660  1.00  0.00     0.062 A 
ATOM      7  C   UNL     1      22.061  12.731   2.763  1.00  0.00     0.020 A 
ATOM      8  C   UNL     1      20.765  12.250   2.938  1.00  0.00     0.094 A 
ATOM      9  C   UNL     1      19.731  13.161   3.177  1.00  0.00     0.336 A 
ATOM     10  O   UNL     1      18.554  12.749   3.338  1.00  0.00    -0.246 OA
ATOM     11  O   UNL     1      19.986  14.466   3.237  1.00  0.00    -0.419 OA
ENDROOT
BRANCH   1  12
ATOM     12  O   UNL     1      25.070  16.589   2.568  1.00  0.00    -0.493 OA
ATOM     13  C   UNL     1      26.125  16.496   3.520  1.00  0.00     0.278 C 
ENDBRANCH   1  12
BRANCH   2  14
ATOM     14  O   UNL     1      22.974  18.256   3.039  1.00  0.00    -0.502 OA
ATOM     15  H   UNL     1      22.340  18.938   3.429  1.00  0.00     0.293 HD
ENDBRANCH   2  14
BRANCH   3  16
ATOM     16  O   UNL     1      20.295  17.164   3.394  1.00  0.00    -0.502 OA
ATOM     17  H   UNL     1      19.425  16.831   3.780  1.00  0.00     0.293 HD
ENDBRANCH   3  16
TORSDOF 3
ENDMDL
