MODEL 1
REMARK VINA RESULT:    -3.949      0.000      0.000
REMARK INTER + INTRA:          -9.790
REMARK INTER:                  -7.412
REMARK INTRA:                  -2.378
REMARK UNBOUND:                -2.378
REMARK SMILES CCCCCCCCC=CCCCCCCCC(=O)[O-]
REMARK SMILES IDX 10 1 9 2 11 3 12 4 13 5 14 6 15 7 16 8 17 9 18 10 19 11
REMARK SMILES IDX 20 12 8 13 7 14 6 15 5 16 4 17 3 18 2 19 1 20
REMARK H PARENT
REMARK Flexibility Score: inf
ROOT
ATOM      1  C   UNL     1      12.296 -17.998 -10.726  1.00  0.00    -0.031 C 
ATOM      2  C   UNL     1      13.343 -17.448 -10.084  1.00  0.00    -0.031 C 
ENDROOT
BRANCH   1   3
ATOM      3  C   UNL     1      11.691 -19.341 -10.400  1.00  0.00     0.027 C 
BRANCH   3   4
ATOM      4  C   UNL     1      10.288 -19.211  -9.789  1.00  0.00     0.004 C 
BRANCH   4   5
ATOM      5  C   UNL     1      10.162 -19.984  -8.466  1.00  0.00     0.000 C 
BRANCH   5   6
ATOM      6  C   UNL     1      10.980 -19.350  -7.330  1.00  0.00     0.000 C 
BRANCH   6   7
ATOM      7  C   UNL     1      10.690 -17.848  -7.161  1.00  0.00     0.000 C 
BRANCH   7   8
ATOM      8  C   UNL     1      10.880 -17.367  -5.714  1.00  0.00     0.006 C 
BRANCH   8   9
ATOM      9  C   UNL     1       9.718 -16.494  -5.224  1.00  0.00     0.053 C 
BRANCH   9  10
ATOM     10  C   UNL     1       8.826 -17.277  -4.314  1.00  0.00     0.041 C 
ATOM     11  O   UNL     1       9.228 -18.360  -3.811  1.00  0.00    -0.550 OA
ATOM     12  O   UNL     1       7.531 -16.842  -4.064  1.00  0.00    -0.550 OA
ENDBRANCH   9  10
ENDBRANCH   8   9
ENDBRANCH   7   8
ENDBRANCH   6   7
ENDBRANCH   5   6
ENDBRANCH   4   5
ENDBRANCH   3   4
ENDBRANCH   1   3
BRANCH   2  13
ATOM     13  C   UNL     1      14.127 -18.104  -8.973  1.00  0.00     0.027 C 
BRANCH  13  14
ATOM     14  C   UNL     1      14.581 -17.076  -7.930  1.00  0.00     0.004 C 
BRANCH  14  15
ATOM     15  C   UNL     1      13.578 -15.919  -7.789  1.00  0.00     0.000 C 
BRANCH  15  16
ATOM     16  C   UNL     1      14.252 -14.598  -7.384  1.00  0.00     0.000 C 
BRANCH  16  17
ATOM     17  C   UNL     1      13.638 -13.987  -6.114  1.00  0.00    -0.000 C 
BRANCH  17  18
ATOM     18  C   UNL     1      13.853 -14.908  -4.904  1.00  0.00    -0.000 C 
BRANCH  18  19
ATOM     19  C   UNL     1      12.780 -14.720  -3.820  1.00  0.00    -0.003 C 
ATOM     20  C   UNL     1      11.745 -13.659  -4.190  1.00  0.00     0.004 C 
ENDBRANCH  18  19
ENDBRANCH  17  18
ENDBRANCH  16  17
ENDBRANCH  15  16
ENDBRANCH  14  15
ENDBRANCH  13  14
ENDBRANCH   2  13
TORSDOF 15
ENDMDL
MODEL 2
REMARK VINA RESULT:    -3.890      2.597      4.755
REMARK INTER + INTRA:          -9.679
REMARK INTER:                  -7.061
REMARK INTRA:                  -2.618
REMARK UNBOUND:                -2.378
REMARK SMILES CCCCCCCCC=CCCCCCCCC(=O)[O-]
REMARK SMILES IDX 10 1 9 2 11 3 12 4 13 5 14 6 15 7 16 8 17 9 18 10 19 11
REMARK SMILES IDX 20 12 8 13 7 14 6 15 5 16 4 17 3 18 2 19 1 20
REMARK H PARENT
REMARK Flexibility Score: inf
ROOT
ATOM      1  C   UNL     1      13.740 -16.142  -7.702  1.00  0.00    -0.031 C 
ATOM      2  C   UNL     1      14.245 -14.934  -7.390  1.00  0.00    -0.031 C 
ENDROOT
BRANCH   1   3
ATOM      3  C   UNL     1      12.556 -16.786  -7.023  1.00  0.00     0.027 C 
BRANCH   3   4
ATOM      4  C   UNL     1      12.975 -17.945  -6.105  1.00  0.00     0.004 C 
BRANCH   4   5
ATOM      5  C   UNL     1      11.834 -18.954  -5.893  1.00  0.00     0.000 C 
BRANCH   5   6
ATOM      6  C   UNL     1      10.668 -18.741  -6.871  1.00  0.00     0.000 C 
BRANCH   6   7
ATOM      7  C   UNL     1      10.203 -20.054  -7.529  1.00  0.00     0.000 C 
BRANCH   7   8
ATOM      8  C   UNL     1      10.187 -19.974  -9.063  1.00  0.00     0.006 C 
BRANCH   8   9
ATOM      9  C   UNL     1      10.657 -18.611  -9.588  1.00  0.00     0.053 C 
BRANCH   9  10
ATOM     10  C   UNL     1      12.029 -18.723 -10.174  1.00  0.00     0.041 C 
ATOM     11  O   UNL     1      12.941 -19.316  -9.539  1.00  0.00    -0.550 OA
ATOM     12  O   UNL     1      12.317 -18.127 -11.395  1.00  0.00    -0.550 OA
ENDBRANCH   9  10
ENDBRANCH   8   9
ENDBRANCH   7   8
ENDBRANCH   6   7
ENDBRANCH   5   6
ENDBRANCH   4   5
ENDBRANCH   3   4
ENDBRANCH   1   3
BRANCH   2  13
ATOM     13  C   UNL     1      13.754 -14.048  -6.270  1.00  0.00     0.027 C 
BRANCH  13  14
ATOM     14  C   UNL     1      14.358 -14.467  -4.924  1.00  0.00     0.004 C 
BRANCH  14  15
ATOM     15  C   UNL     1      13.276 -14.697  -3.856  1.00  0.00     0.000 C 
BRANCH  15  16
ATOM     16  C   UNL     1      11.867 -14.338  -4.354  1.00  0.00     0.000 C 
BRANCH  16  17
ATOM     17  C   UNL     1      10.777 -15.225  -3.733  1.00  0.00    -0.000 C 
BRANCH  17  18
ATOM     18  C   UNL     1       9.892 -15.851  -4.821  1.00  0.00    -0.000 C 
BRANCH  18  19
ATOM     19  C   UNL     1       8.659 -16.562  -4.245  1.00  0.00    -0.003 C 
ATOM     20  C   UNL     1       8.994 -17.916  -3.622  1.00  0.00     0.004 C 
ENDBRANCH  18  19
ENDBRANCH  17  18
ENDBRANCH  16  17
ENDBRANCH  15  16
ENDBRANCH  14  15
ENDBRANCH  13  14
ENDBRANCH   2  13
TORSDOF 15
ENDMDL
MODEL 3
REMARK VINA RESULT:    -3.843      1.092      5.379
REMARK INTER + INTRA:          -9.591
REMARK INTER:                  -6.952
REMARK INTRA:                  -2.639
REMARK UNBOUND:                -2.378
REMARK SMILES CCCCCCCCC=CCCCCCCCC(=O)[O-]
REMARK SMILES IDX 10 1 9 2 11 3 12 4 13 5 14 6 15 7 16 8 17 9 18 10 19 11
REMARK SMILES IDX 20 12 8 13 7 14 6 15 5 16 4 17 3 18 2 19 1 20
REMARK H PARENT
REMARK Flexibility Score: inf
ROOT
ATOM      1  C   UNL     1      13.945 -17.119  -7.471  1.00  0.00    -0.031 C 
ATOM      2  C   UNL     1      13.085 -17.922  -6.817  1.00  0.00    -0.031 C 
ENDROOT
BRANCH   1   3
ATOM      3  C   UNL     1      13.686 -15.673  -7.813  1.00  0.00     0.027 C 
BRANCH   3   4
ATOM      4  C   UNL     1      14.389 -14.713  -6.841  1.00  0.00     0.004 C 
BRANCH   4   5
ATOM      5  C   UNL     1      13.460 -14.263  -5.702  1.00  0.00     0.000 C 
BRANCH   5   6
ATOM      6  C   UNL     1      13.882 -14.828  -4.337  1.00  0.00     0.000 C 
BRANCH   6   7
ATOM      7  C   UNL     1      12.691 -15.387  -3.536  1.00  0.00     0.000 C 
BRANCH   7   8
ATOM      8  C   UNL     1      11.344 -14.817  -4.003  1.00  0.00     0.006 C 
BRANCH   8   9
ATOM      9  C   UNL     1      10.182 -15.217  -3.083  1.00  0.00     0.053 C 
BRANCH   9  10
ATOM     10  C   UNL     1       9.376 -16.311  -3.707  1.00  0.00     0.041 C 
ATOM     11  O   UNL     1       8.646 -16.069  -4.705  1.00  0.00    -0.550 OA
ATOM     12  O   UNL     1       9.387 -17.586  -3.156  1.00  0.00    -0.550 OA
ENDBRANCH   9  10
ENDBRANCH   8   9
ENDBRANCH   7   8
ENDBRANCH   6   7
ENDBRANCH   5   6
ENDBRANCH   4   5
ENDBRANCH   3   4
ENDBRANCH   1   3
BRANCH   2  13
ATOM     13  C   UNL     1      11.696 -17.532  -6.370  1.00  0.00     0.027 C 
BRANCH  13  14
ATOM     14  C   UNL     1      10.633 -18.042  -7.350  1.00  0.00     0.004 C 
BRANCH  14  15
ATOM     15  C   UNL     1      10.707 -19.567  -7.537  1.00  0.00     0.000 C 
BRANCH  15  16
ATOM     16  C   UNL     1       9.891 -20.054  -8.745  1.00  0.00     0.000 C 
BRANCH  16  17
ATOM     17  C   UNL     1      10.609 -19.805 -10.081  1.00  0.00    -0.000 C 
BRANCH  17  18
ATOM     18  C   UNL     1      12.096 -20.177  -9.982  1.00  0.00    -0.000 C 
BRANCH  18  19
ATOM     19  C   UNL     1      13.013 -19.125 -10.622  1.00  0.00    -0.003 C 
ATOM     20  C   UNL     1      12.365 -17.742 -10.697  1.00  0.00     0.004 C 
ENDBRANCH  18  19
ENDBRANCH  17  18
ENDBRANCH  16  17
ENDBRANCH  15  16
ENDBRANCH  14  15
ENDBRANCH  13  14
ENDBRANCH   2  13
TORSDOF 15
ENDMDL
MODEL 4
REMARK VINA RESULT:    -3.788     11.999     14.625
REMARK INTER + INTRA:          -9.487
REMARK INTER:                  -7.570
REMARK INTRA:                  -1.917
REMARK UNBOUND:                -2.378
REMARK SMILES CCCCCCCCC=CCCCCCCCC(=O)[O-]
REMARK SMILES IDX 10 1 9 2 11 3 12 4 13 5 14 6 15 7 16 8 17 9 18 10 19 11
REMARK SMILES IDX 20 12 8 13 7 14 6 15 5 16 4 17 3 18 2 19 1 20
REMARK H PARENT
REMARK Flexibility Score: inf
ROOT
ATOM      1  C   UNL     1       0.113 -15.444  -8.060  1.00  0.00    -0.031 C 
ATOM      2  C   UNL     1       0.103 -16.592  -8.761  1.00  0.00    -0.031 C 
ENDROOT
BRANCH   1   3
ATOM      3  C   UNL     1       0.717 -15.275  -6.687  1.00  0.00     0.027 C 
BRANCH   3   4
ATOM      4  C   UNL     1      -0.186 -14.453  -5.755  1.00  0.00     0.004 C 
BRANCH   4   5
ATOM      5  C   UNL     1      -1.630 -14.368  -6.277  1.00  0.00     0.000 C 
BRANCH   5   6
ATOM      6  C   UNL     1      -2.601 -15.247  -5.473  1.00  0.00     0.000 C 
BRANCH   6   7
ATOM      7  C   UNL     1      -2.868 -16.603  -6.150  1.00  0.00     0.000 C 
BRANCH   7   8
ATOM      8  C   UNL     1      -4.003 -16.536  -7.184  1.00  0.00     0.006 C 
BRANCH   8   9
ATOM      9  C   UNL     1      -3.489 -16.570  -8.629  1.00  0.00     0.053 C 
BRANCH   9  10
ATOM     10  C   UNL     1      -4.450 -17.308  -9.506  1.00  0.00     0.041 C 
ATOM     11  O   UNL     1      -4.944 -18.402  -9.123  1.00  0.00    -0.550 OA
ATOM     12  O   UNL     1      -4.759 -16.818 -10.769  1.00  0.00    -0.550 OA
ENDBRANCH   9  10
ENDBRANCH   8   9
ENDBRANCH   7   8
ENDBRANCH   6   7
ENDBRANCH   5   6
ENDBRANCH   4   5
ENDBRANCH   3   4
ENDBRANCH   1   3
BRANCH   2  13
ATOM     13  C   UNL     1       0.639 -17.917  -8.273  1.00  0.00     0.027 C 
BRANCH  13  14
ATOM     14  C   UNL     1      -0.490 -18.815  -7.752  1.00  0.00     0.004 C 
BRANCH  14  15
ATOM     15  C   UNL     1      -0.847 -19.928  -8.752  1.00  0.00     0.000 C 
BRANCH  15  16
ATOM     16  C   UNL     1      -0.096 -21.239  -8.469  1.00  0.00     0.000 C 
BRANCH  16  17
ATOM     17  C   UNL     1       0.529 -21.846  -9.735  1.00  0.00    -0.000 C 
BRANCH  17  18
ATOM     18  C   UNL     1       0.193 -23.340  -9.851  1.00  0.00    -0.000 C 
BRANCH  18  19
ATOM     19  C   UNL     1      -0.791 -23.638 -10.992  1.00  0.00    -0.003 C 
ATOM     20  C   UNL     1      -1.141 -22.396 -11.811  1.00  0.00     0.004 C 
ENDBRANCH  18  19
ENDBRANCH  17  18
ENDBRANCH  16  17
ENDBRANCH  15  16
ENDBRANCH  14  15
ENDBRANCH  13  14
ENDBRANCH   2  13
TORSDOF 15
ENDMDL
MODEL 5
REMARK VINA RESULT:    -3.777     11.750     14.046
REMARK INTER + INTRA:          -9.467
REMARK INTER:                  -6.606
REMARK INTRA:                  -2.861
REMARK UNBOUND:                -2.378
REMARK SMILES CCCCCCCCC=CCCCCCCCC(=O)[O-]
REMARK SMILES IDX 10 1 9 2 11 3 12 4 13 5 14 6 15 7 16 8 17 9 18 10 19 11
REMARK SMILES IDX 20 12 8 13 7 14 6 15 5 16 4 17 3 18 2 19 1 20
REMARK H PARENT
REMARK Flexibility Score: inf
ROOT
ATOM      1  C   UNL     1      -1.231 -19.745  -8.211  1.00  0.00    -0.031 C 
ATOM      2  C   UNL     1      -2.385 -19.473  -8.849  1.00  0.00    -0.031 C 
ENDROOT
BRANCH   1   3
ATOM      3  C   UNL     1       0.096 -19.093  -8.511  1.00  0.00     0.027 C 
BRANCH   3   4
ATOM      4  C   UNL     1       0.310 -17.810  -7.694  1.00  0.00     0.004 C 
BRANCH   4   5
ATOM      5  C   UNL     1       0.134 -16.545  -8.550  1.00  0.00     0.000 C 
BRANCH   5   6
ATOM      6  C   UNL     1       0.160 -15.256  -7.712  1.00  0.00     0.000 C 
BRANCH   6   7
ATOM      7  C   UNL     1       0.656 -15.497  -6.274  1.00  0.00     0.000 C 
BRANCH   7   8
ATOM      8  C   UNL     1       0.358 -14.315  -5.340  1.00  0.00     0.006 C 
BRANCH   8   9
ATOM      9  C   UNL     1      -1.031 -13.710  -5.577  1.00  0.00     0.053 C 
BRANCH   9  10
ATOM     10  C   UNL     1      -1.261 -12.555  -4.654  1.00  0.00     0.041 C 
ATOM     11  O   UNL     1      -2.431 -12.256  -4.295  1.00  0.00    -0.550 OA
ATOM     12  O   UNL     1      -0.192 -11.775  -4.234  1.00  0.00    -0.550 OA
ENDBRANCH   9  10
ENDBRANCH   8   9
ENDBRANCH   7   8
ENDBRANCH   6   7
ENDBRANCH   5   6
ENDBRANCH   4   5
ENDBRANCH   3   4
ENDBRANCH   1   3
BRANCH   2  13
ATOM     13  C   UNL     1      -2.536 -18.519 -10.009  1.00  0.00     0.027 C 
BRANCH  13  14
ATOM     14  C   UNL     1      -3.657 -17.505  -9.752  1.00  0.00     0.004 C 
BRANCH  14  15
ATOM     15  C   UNL     1      -3.335 -16.579  -8.567  1.00  0.00     0.000 C 
BRANCH  15  16
ATOM     16  C   UNL     1      -4.433 -16.593  -7.492  1.00  0.00     0.000 C 
BRANCH  16  17
ATOM     17  C   UNL     1      -3.869 -16.452  -6.069  1.00  0.00    -0.000 C 
BRANCH  17  18
ATOM     18  C   UNL     1      -3.076 -17.704  -5.667  1.00  0.00    -0.000 C 
BRANCH  18  19
ATOM     19  C   UNL     1      -1.886 -17.381  -4.751  1.00  0.00    -0.003 C 
ATOM     20  C   UNL     1      -1.130 -18.631  -4.301  1.00  0.00     0.004 C 
ENDBRANCH  18  19
ENDBRANCH  17  18
ENDBRANCH  16  17
ENDBRANCH  15  16
ENDBRANCH  14  15
ENDBRANCH  13  14
ENDBRANCH   2  13
TORSDOF 15
ENDMDL
MODEL 6
REMARK VINA RESULT:    -3.764     11.607     13.826
REMARK INTER + INTRA:          -9.442
REMARK INTER:                  -6.183
REMARK INTRA:                  -3.259
REMARK UNBOUND:                -2.378
REMARK SMILES CCCCCCCCC=CCCCCCCCC(=O)[O-]
REMARK SMILES IDX 10 1 9 2 11 3 12 4 13 5 14 6 15 7 16 8 17 9 18 10 19 11
REMARK SMILES IDX 20 12 8 13 7 14 6 15 5 16 4 17 3 18 2 19 1 20
REMARK H PARENT
REMARK Flexibility Score: inf
ROOT
ATOM      1  C   UNL     1       0.099 -15.190  -7.918  1.00  0.00    -0.031 C 
ATOM      2  C   UNL     1      -1.219 -14.967  -8.081  1.00  0.00    -0.031 C 
ENDROOT
BRANCH   1   3
ATOM      3  C   UNL     1       0.793 -15.331  -6.586  1.00  0.00     0.027 C 
BRANCH   3   4
ATOM      4  C   UNL     1       1.268 -16.769  -6.330  1.00  0.00     0.004 C 
BRANCH   4   5
ATOM      5  C   UNL     1       0.821 -17.731  -7.444  1.00  0.00     0.000 C 
BRANCH   5   6
ATOM      6  C   UNL     1      -0.023 -18.899  -6.912  1.00  0.00     0.000 C 
BRANCH   6   7
ATOM      7  C   UNL     1      -1.181 -19.269  -7.857  1.00  0.00     0.000 C 
BRANCH   7   8
ATOM      8  C   UNL     1      -1.318 -18.293  -9.035  1.00  0.00     0.006 C 
BRANCH   8   9
ATOM      9  C   UNL     1      -2.529 -18.605  -9.924  1.00  0.00     0.053 C 
BRANCH   9  10
ATOM     10  C   UNL     1      -3.738 -17.873  -9.432  1.00  0.00     0.041 C 
ATOM     11  O   UNL     1      -4.019 -16.735  -9.893  1.00  0.00    -0.550 OA
ATOM     12  O   UNL     1      -4.524 -18.422  -8.427  1.00  0.00    -0.550 OA
ENDBRANCH   9  10
ENDBRANCH   8   9
ENDBRANCH   7   8
ENDBRANCH   6   7
ENDBRANCH   5   6
ENDBRANCH   4   5
ENDBRANCH   3   4
ENDBRANCH   1   3
BRANCH   2  13
ATOM     13  C   UNL     1      -2.212 -14.761  -6.963  1.00  0.00     0.027 C 
BRANCH  13  14
ATOM     14  C   UNL     1      -2.718 -16.100  -6.414  1.00  0.00     0.004 C 
BRANCH  14  15
ATOM     15  C   UNL     1      -2.868 -16.076  -4.883  1.00  0.00     0.000 C 
BRANCH  15  16
ATOM     16  C   UNL     1      -1.731 -16.821  -4.167  1.00  0.00     0.000 C 
BRANCH  16  17
ATOM     17  C   UNL     1      -0.826 -15.879  -3.357  1.00  0.00    -0.000 C 
BRANCH  17  18
ATOM     18  C   UNL     1      -1.455 -14.483  -3.237  1.00  0.00    -0.000 C 
BRANCH  18  19
ATOM     19  C   UNL     1      -0.431 -13.355  -3.428  1.00  0.00    -0.003 C 
ATOM     20  C   UNL     1      -0.732 -12.483  -4.646  1.00  0.00     0.004 C 
ENDBRANCH  18  19
ENDBRANCH  17  18
ENDBRANCH  16  17
ENDBRANCH  15  16
ENDBRANCH  14  15
ENDBRANCH  13  14
ENDBRANCH   2  13
TORSDOF 15
ENDMDL
MODEL 7
REMARK VINA RESULT:    -3.734     12.555     14.085
REMARK INTER + INTRA:          -9.387
REMARK INTER:                  -7.352
REMARK INTRA:                  -2.035
REMARK UNBOUND:                -2.378
REMARK SMILES CCCCCCCCC=CCCCCCCCC(=O)[O-]
REMARK SMILES IDX 10 1 9 2 11 3 12 4 13 5 14 6 15 7 16 8 17 9 18 10 19 11
REMARK SMILES IDX 20 12 8 13 7 14 6 15 5 16 4 17 3 18 2 19 1 20
REMARK H PARENT
REMARK Flexibility Score: inf
ROOT
ATOM      1  C   UNL     1       0.082 -16.861  -8.683  1.00  0.00    -0.031 C 
ATOM      2  C   UNL     1       0.030 -15.581  -8.272  1.00  0.00    -0.031 C 
ENDROOT
BRANCH   1   3
ATOM      3  C   UNL     1      -1.116 -17.761  -8.864  1.00  0.00     0.027 C 
BRANCH   3   4
ATOM      4  C   UNL     1      -1.049 -19.002  -7.960  1.00  0.00     0.004 C 
BRANCH   4   5
ATOM      5  C   UNL     1      -0.069 -20.056  -8.499  1.00  0.00     0.000 C 
BRANCH   5   6
ATOM      6  C   UNL     1      -0.777 -21.178  -9.276  1.00  0.00     0.000 C 
BRANCH   6   7
ATOM      7  C   UNL     1       0.213 -22.161  -9.926  1.00  0.00     0.000 C 
BRANCH   7   8
ATOM      8  C   UNL     1      -0.484 -23.207 -10.809  1.00  0.00     0.006 C 
BRANCH   8   9
ATOM      9  C   UNL     1      -1.048 -22.607 -12.103  1.00  0.00     0.053 C 
BRANCH   9  10
ATOM     10  C   UNL     1      -2.274 -23.350 -12.531  1.00  0.00     0.041 C 
ATOM     11  O   UNL     1      -2.388 -23.749 -13.721  1.00  0.00    -0.550 OA
ATOM     12  O   UNL     1      -3.314 -23.555 -11.634  1.00  0.00    -0.550 OA
ENDBRANCH   9  10
ENDBRANCH   8   9
ENDBRANCH   7   8
ENDBRANCH   6   7
ENDBRANCH   5   6
ENDBRANCH   4   5
ENDBRANCH   3   4
ENDBRANCH   1   3
BRANCH   2  13
ATOM     13  C   UNL     1      -1.226 -14.847  -7.863  1.00  0.00     0.027 C 
BRANCH  13  14
ATOM     14  C   UNL     1      -1.007 -14.048  -6.573  1.00  0.00     0.004 C 
BRANCH  14  15
ATOM     15  C   UNL     1       0.188 -14.578  -5.763  1.00  0.00     0.000 C 
BRANCH  15  16
ATOM     16  C   UNL     1      -0.244 -15.447  -4.572  1.00  0.00     0.000 C 
BRANCH  16  17
ATOM     17  C   UNL     1      -0.166 -16.951  -4.878  1.00  0.00    -0.000 C 
BRANCH  17  18
ATOM     18  C   UNL     1      -1.533 -17.622  -4.686  1.00  0.00    -0.000 C 
BRANCH  18  19
ATOM     19  C   UNL     1      -2.687 -16.609  -4.632  1.00  0.00    -0.003 C 
ATOM     20  C   UNL     1      -3.633 -16.726  -5.827  1.00  0.00     0.004 C 
ENDBRANCH  18  19
ENDBRANCH  17  18
ENDBRANCH  16  17
ENDBRANCH  15  16
ENDBRANCH  14  15
ENDBRANCH  13  14
ENDBRANCH   2  13
TORSDOF 15
ENDMDL
MODEL 8
REMARK VINA RESULT:    -3.722     11.732     14.224
REMARK INTER + INTRA:          -9.363
REMARK INTER:                  -6.681
REMARK INTRA:                  -2.682
REMARK UNBOUND:                -2.378
REMARK SMILES CCCCCCCCC=CCCCCCCCC(=O)[O-]
REMARK SMILES IDX 10 1 9 2 11 3 12 4 13 5 14 6 15 7 16 8 17 9 18 10 19 11
REMARK SMILES IDX 20 12 8 13 7 14 6 15 5 16 4 17 3 18 2 19 1 20
REMARK H PARENT
REMARK Flexibility Score: inf
ROOT
ATOM      1  C   UNL     1      -3.103 -17.811  -9.885  1.00  0.00    -0.031 C 
ATOM      2  C   UNL     1      -2.514 -19.005  -9.689  1.00  0.00    -0.031 C 
ENDROOT
BRANCH   1   3
ATOM      3  C   UNL     1      -4.089 -17.168  -8.941  1.00  0.00     0.027 C 
BRANCH   3   4
ATOM      4  C   UNL     1      -3.408 -16.193  -7.968  1.00  0.00     0.004 C 
BRANCH   4   5
ATOM      5  C   UNL     1      -3.180 -16.824  -6.585  1.00  0.00     0.000 C 
BRANCH   5   6
ATOM      6  C   UNL     1      -1.698 -16.834  -6.178  1.00  0.00     0.000 C 
BRANCH   6   7
ATOM      7  C   UNL     1      -0.788 -16.202  -7.247  1.00  0.00     0.000 C 
BRANCH   7   8
ATOM      8  C   UNL     1      -0.014 -14.984  -6.721  1.00  0.00     0.006 C 
BRANCH   8   9
ATOM      9  C   UNL     1      -0.914 -13.760  -6.504  1.00  0.00     0.053 C 
BRANCH   9  10
ATOM     10  C   UNL     1      -0.879 -13.335  -5.070  1.00  0.00     0.041 C 
ATOM     11  O   UNL     1      -1.643 -13.880  -4.230  1.00  0.00    -0.550 OA
ATOM     12  O   UNL     1      -0.044 -12.299  -4.671  1.00  0.00    -0.550 OA
ENDBRANCH   9  10
ENDBRANCH   8   9
ENDBRANCH   7   8
ENDBRANCH   6   7
ENDBRANCH   5   6
ENDBRANCH   4   5
ENDBRANCH   3   4
ENDBRANCH   1   3
BRANCH   2  13
ATOM     13  C   UNL     1      -2.784 -19.930  -8.527  1.00  0.00     0.027 C 
BRANCH  13  14
ATOM     14  C   UNL     1      -1.506 -20.201  -7.724  1.00  0.00     0.004 C 
BRANCH  14  15
ATOM     15  C   UNL     1      -0.264 -19.591  -8.396  1.00  0.00     0.000 C 
BRANCH  15  16
ATOM     16  C   UNL     1       1.022 -20.370  -8.078  1.00  0.00     0.000 C 
BRANCH  16  17
ATOM     17  C   UNL     1       0.871 -21.881  -8.316  1.00  0.00    -0.000 C 
BRANCH  17  18
ATOM     18  C   UNL     1       0.782 -22.194  -9.817  1.00  0.00    -0.000 C 
BRANCH  18  19
ATOM     19  C   UNL     1      -0.491 -22.971 -10.184  1.00  0.00    -0.003 C 
ATOM     20  C   UNL     1      -1.357 -22.238 -11.209  1.00  0.00     0.004 C 
ENDBRANCH  18  19
ENDBRANCH  17  18
ENDBRANCH  16  17
ENDBRANCH  15  16
ENDBRANCH  14  15
ENDBRANCH  13  14
ENDBRANCH   2  13
TORSDOF 15
ENDMDL
MODEL 9
REMARK VINA RESULT:    -3.710     10.110     13.499
REMARK INTER + INTRA:          -9.341
REMARK INTER:                  -6.000
REMARK INTRA:                  -3.341
REMARK UNBOUND:                -2.378
REMARK SMILES CCCCCCCCC=CCCCCCCCC(=O)[O-]
REMARK SMILES IDX 10 1 9 2 11 3 12 4 13 5 14 6 15 7 16 8 17 9 18 10 19 11
REMARK SMILES IDX 20 12 8 13 7 14 6 15 5 16 4 17 3 18 2 19 1 20
REMARK H PARENT
REMARK Flexibility Score: inf
ROOT
ATOM      1  C   UNL     1       0.403 -14.916  -6.475  1.00  0.00    -0.031 C 
ATOM      2  C   UNL     1       0.182 -15.376  -5.229  1.00  0.00    -0.031 C 
ENDROOT
BRANCH   1   3
ATOM      3  C   UNL     1      -0.666 -14.686  -7.514  1.00  0.00     0.027 C 
BRANCH   3   4
ATOM      4  C   UNL     1      -0.918 -15.935  -8.372  1.00  0.00     0.004 C 
BRANCH   4   5
ATOM      5  C   UNL     1       0.306 -16.865  -8.411  1.00  0.00     0.000 C 
BRANCH   5   6
ATOM      6  C   UNL     1      -0.074 -18.348  -8.277  1.00  0.00     0.000 C 
BRANCH   6   7
ATOM      7  C   UNL     1       0.897 -19.125  -7.370  1.00  0.00     0.000 C 
BRANCH   7   8
ATOM      8  C   UNL     1       1.994 -18.231  -6.773  1.00  0.00     0.006 C 
BRANCH   8   9
ATOM      9  C   UNL     1       2.273 -18.544  -5.297  1.00  0.00     0.053 C 
BRANCH   9  10
ATOM     10  C   UNL     1       3.013 -17.413  -4.655  1.00  0.00     0.041 C 
ATOM     11  O   UNL     1       2.865 -17.177  -3.426  1.00  0.00    -0.550 OA
ATOM     12  O   UNL     1       3.822 -16.585  -5.422  1.00  0.00    -0.550 OA
ENDBRANCH   9  10
ENDBRANCH   8   9
ENDBRANCH   7   8
ENDBRANCH   6   7
ENDBRANCH   5   6
ENDBRANCH   4   5
ENDBRANCH   3   4
ENDBRANCH   1   3
BRANCH   2  13
ATOM     13  C   UNL     1      -1.161 -15.798  -4.682  1.00  0.00     0.027 C 
BRANCH  13  14
ATOM     14  C   UNL     1      -1.313 -17.323  -4.696  1.00  0.00     0.004 C 
BRANCH  14  15
ATOM     15  C   UNL     1      -2.502 -17.774  -5.562  1.00  0.00     0.000 C 
BRANCH  15  16
ATOM     16  C   UNL     1      -3.485 -16.631  -5.858  1.00  0.00     0.000 C 
BRANCH  16  17
ATOM     17  C   UNL     1      -4.203 -16.803  -7.205  1.00  0.00    -0.000 C 
BRANCH  17  18
ATOM     18  C   UNL     1      -4.140 -18.263  -7.677  1.00  0.00    -0.000 C 
BRANCH  18  19
ATOM     19  C   UNL     1      -3.675 -18.395  -9.135  1.00  0.00    -0.003 C 
ATOM     20  C   UNL     1      -4.202 -17.272 -10.028  1.00  0.00     0.004 C 
ENDBRANCH  18  19
ENDBRANCH  17  18
ENDBRANCH  16  17
ENDBRANCH  15  16
ENDBRANCH  14  15
ENDBRANCH  13  14
ENDBRANCH   2  13
TORSDOF 15
ENDMDL
