MODEL 1
REMARK VINA RESULT:    -3.924      0.000      0.000
REMARK INTER + INTRA:          -9.394
REMARK INTER:                  -7.135
REMARK INTRA:                  -2.258
REMARK UNBOUND:                -2.258
REMARK SMILES CCCCCCCCCCCCCCCC(=O)[O-]
REMARK SMILES IDX 9 1 10 2 11 3 12 4 13 5 14 6 15 7 16 8 17 9 18 10 8 11 7 12
REMARK SMILES IDX 6 13 5 14 4 15 3 16 2 17 1 18
REMARK H PARENT
REMARK Flexibility Score: inf
ROOT
ATOM      1  C   UNL     1      98.530   2.099 -29.639  1.00  0.00     0.000 C 
ENDROOT
BRANCH   1   2
ATOM      2  C   UNL     1      99.087   0.811 -29.009  1.00  0.00     0.000 C 
BRANCH   2   3
ATOM      3  C   UNL     1      99.939   1.080 -27.757  1.00  0.00     0.000 C 
BRANCH   3   4
ATOM      4  C   UNL     1      99.517   0.216 -26.558  1.00  0.00     0.000 C 
BRANCH   4   5
ATOM      5  C   UNL     1      99.550   0.988 -25.231  1.00  0.00     0.000 C 
BRANCH   5   6
ATOM      6  C   UNL     1      98.873   0.185 -24.110  1.00  0.00     0.006 C 
BRANCH   6   7
ATOM      7  C   UNL     1      97.684  -0.638 -24.621  1.00  0.00     0.053 C 
BRANCH   7   8
ATOM      8  C   UNL     1      97.755  -2.063 -24.166  1.00  0.00     0.041 C 
ATOM      9  O   UNL     1      98.830  -2.527 -23.704  1.00  0.00    -0.550 OA
ATOM     10  O   UNL     1      96.644  -2.888 -24.285  1.00  0.00    -0.550 OA
ENDBRANCH   7   8
ENDBRANCH   6   7
ENDBRANCH   5   6
ENDBRANCH   4   5
ENDBRANCH   3   4
ENDBRANCH   2   3
ENDBRANCH   1   2
BRANCH   1  11
ATOM     11  C   UNL     1      99.564   3.242 -29.725  1.00  0.00     0.000 C 
BRANCH  11  12
ATOM     12  C   UNL     1      99.016   4.566 -29.163  1.00  0.00    -0.000 C 
BRANCH  12  13
ATOM     13  C   UNL     1      99.578   4.894 -27.763  1.00  0.00    -0.000 C 
BRANCH  13  14
ATOM     14  C   UNL     1      98.724   4.341 -26.606  1.00  0.00    -0.000 C 
BRANCH  14  15
ATOM     15  C   UNL     1      97.238   4.121 -26.945  1.00  0.00    -0.000 C 
BRANCH  15  16
ATOM     16  C   UNL     1      96.608   2.852 -26.335  1.00  0.00    -0.000 C 
BRANCH  16  17
ATOM     17  C   UNL     1      96.388   2.903 -24.812  1.00  0.00    -0.003 C 
ATOM     18  C   UNL     1      95.037   2.334 -24.385  1.00  0.00     0.004 C 
ENDBRANCH  16  17
ENDBRANCH  15  16
ENDBRANCH  14  15
ENDBRANCH  13  14
ENDBRANCH  12  13
ENDBRANCH  11  12
ENDBRANCH   1  11
TORSDOF 14
ENDMDL
MODEL 2
REMARK VINA RESULT:    -3.890      2.371      4.454
REMARK INTER + INTRA:          -9.331
REMARK INTER:                  -7.429
REMARK INTRA:                  -1.902
REMARK UNBOUND:                -2.258
REMARK SMILES CCCCCCCCCCCCCCCC(=O)[O-]
REMARK SMILES IDX 9 1 10 2 11 3 12 4 13 5 14 6 15 7 16 8 17 9 18 10 8 11 7 12
REMARK SMILES IDX 6 13 5 14 4 15 3 16 2 17 1 18
REMARK H PARENT
REMARK Flexibility Score: inf
ROOT
ATOM      1  C   UNL     1      98.927   3.271 -29.916  1.00  0.00     0.000 C 
ENDROOT
BRANCH   1   2
ATOM      2  C   UNL     1      98.270   4.459 -29.192  1.00  0.00     0.000 C 
BRANCH   2   3
ATOM      3  C   UNL     1      99.220   5.152 -28.201  1.00  0.00     0.000 C 
BRANCH   3   4
ATOM      4  C   UNL     1      98.955   4.743 -26.743  1.00  0.00     0.000 C 
BRANCH   4   5
ATOM      5  C   UNL     1      97.671   3.916 -26.586  1.00  0.00     0.000 C 
BRANCH   5   6
ATOM      6  C   UNL     1      97.600   3.270 -25.194  1.00  0.00     0.006 C 
BRANCH   6   7
ATOM      7  C   UNL     1      96.371   2.366 -25.034  1.00  0.00     0.053 C 
BRANCH   7   8
ATOM      8  C   UNL     1      95.171   3.135 -24.571  1.00  0.00     0.041 C 
ATOM      9  O   UNL     1      94.766   3.022 -23.385  1.00  0.00    -0.550 OA
ATOM     10  O   UNL     1      94.481   3.949 -25.460  1.00  0.00    -0.550 OA
ENDBRANCH   7   8
ENDBRANCH   6   7
ENDBRANCH   5   6
ENDBRANCH   4   5
ENDBRANCH   3   4
ENDBRANCH   2   3
ENDBRANCH   1   2
BRANCH   1  11
ATOM     11  C   UNL     1      98.218   1.924 -29.661  1.00  0.00     0.000 C 
BRANCH  11  12
ATOM     12  C   UNL     1      99.170   0.867 -29.075  1.00  0.00    -0.000 C 
BRANCH  12  13
ATOM     13  C   UNL     1     100.125   1.452 -28.012  1.00  0.00    -0.000 C 
BRANCH  13  14
ATOM     14  C   UNL     1      99.943   0.840 -26.610  1.00  0.00    -0.000 C 
BRANCH  14  15
ATOM     15  C   UNL     1      98.939  -0.325 -26.537  1.00  0.00    -0.000 C 
BRANCH  15  16
ATOM     16  C   UNL     1      98.866  -1.042 -25.172  1.00  0.00    -0.000 C 
BRANCH  16  17
ATOM     17  C   UNL     1      97.468  -1.079 -24.531  1.00  0.00    -0.003 C 
ATOM     18  C   UNL     1      97.039  -2.485 -24.115  1.00  0.00     0.004 C 
ENDBRANCH  16  17
ENDBRANCH  15  16
ENDBRANCH  14  15
ENDBRANCH  13  14
ENDBRANCH  12  13
ENDBRANCH  11  12
ENDBRANCH   1  11
TORSDOF 14
ENDMDL
MODEL 3
REMARK VINA RESULT:    -3.886      1.418      2.387
REMARK INTER + INTRA:          -9.324
REMARK INTER:                  -7.137
REMARK INTRA:                  -2.188
REMARK UNBOUND:                -2.258
REMARK SMILES CCCCCCCCCCCCCCCC(=O)[O-]
REMARK SMILES IDX 9 1 10 2 11 3 12 4 13 5 14 6 15 7 16 8 17 9 18 10 8 11 7 12
REMARK SMILES IDX 6 13 5 14 4 15 3 16 2 17 1 18
REMARK H PARENT
REMARK Flexibility Score: inf
ROOT
ATOM      1  C   UNL     1      97.876   4.109 -29.478  1.00  0.00     0.000 C 
ENDROOT
BRANCH   1   2
ATOM      2  C   UNL     1      97.968   2.617 -29.842  1.00  0.00     0.000 C 
BRANCH   2   3
ATOM      3  C   UNL     1      99.371   2.206 -30.321  1.00  0.00     0.000 C 
BRANCH   3   4
ATOM      4  C   UNL     1     100.022   1.154 -29.409  1.00  0.00     0.000 C 
BRANCH   4   5
ATOM      5  C   UNL     1      99.028   0.539 -28.413  1.00  0.00     0.000 C 
BRANCH   5   6
ATOM      6  C   UNL     1      99.647   0.438 -27.011  1.00  0.00     0.006 C 
BRANCH   6   7
ATOM      7  C   UNL     1      98.805  -0.428 -26.065  1.00  0.00     0.053 C 
BRANCH   7   8
ATOM      8  C   UNL     1      99.440  -0.557 -24.715  1.00  0.00     0.041 C 
ATOM      9  O   UNL     1      99.608  -1.693 -24.200  1.00  0.00    -0.550 OA
ATOM     10  O   UNL     1      99.816   0.580 -24.011  1.00  0.00    -0.550 OA
ENDBRANCH   7   8
ENDBRANCH   6   7
ENDBRANCH   5   6
ENDBRANCH   4   5
ENDBRANCH   3   4
ENDBRANCH   2   3
ENDBRANCH   1   2
BRANCH   1  11
ATOM     11  C   UNL     1      99.224   4.724 -29.047  1.00  0.00     0.000 C 
BRANCH  11  12
ATOM     12  C   UNL     1      99.273   5.020 -27.537  1.00  0.00    -0.000 C 
BRANCH  12  13
ATOM     13  C   UNL     1      99.217   3.738 -26.679  1.00  0.00    -0.000 C 
BRANCH  13  14
ATOM     14  C   UNL     1      98.531   3.934 -25.314  1.00  0.00    -0.000 C 
BRANCH  14  15
ATOM     15  C   UNL     1      97.304   3.037 -25.070  1.00  0.00    -0.000 C 
BRANCH  15  16
ATOM     16  C   UNL     1      96.478   2.702 -26.330  1.00  0.00    -0.000 C 
BRANCH  16  17
ATOM     17  C   UNL     1      95.280   3.632 -26.588  1.00  0.00    -0.003 C 
ATOM     18  C   UNL     1      94.204   3.534 -25.508  1.00  0.00     0.004 C 
ENDBRANCH  16  17
ENDBRANCH  15  16
ENDBRANCH  14  15
ENDBRANCH  13  14
ENDBRANCH  12  13
ENDBRANCH  11  12
ENDBRANCH   1  11
TORSDOF 14
ENDMDL
MODEL 4
REMARK VINA RESULT:    -3.770      2.990      5.003
REMARK INTER + INTRA:          -9.114
REMARK INTER:                  -6.783
REMARK INTRA:                  -2.331
REMARK UNBOUND:                -2.258
REMARK SMILES CCCCCCCCCCCCCCCC(=O)[O-]
REMARK SMILES IDX 9 1 10 2 11 3 12 4 13 5 14 6 15 7 16 8 17 9 18 10 8 11 7 12
REMARK SMILES IDX 6 13 5 14 4 15 3 16 2 17 1 18
REMARK H PARENT
REMARK Flexibility Score: inf
ROOT
ATOM      1  C   UNL     1      98.820   4.207 -28.709  1.00  0.00     0.000 C 
ENDROOT
BRANCH   1   2
ATOM      2  C   UNL     1      97.997   4.554 -27.456  1.00  0.00     0.000 C 
BRANCH   2   3
ATOM      3  C   UNL     1      98.691   4.133 -26.151  1.00  0.00     0.000 C 
BRANCH   3   4
ATOM      4  C   UNL     1      97.761   3.344 -25.215  1.00  0.00     0.000 C 
BRANCH   4   5
ATOM      5  C   UNL     1      96.602   2.669 -25.963  1.00  0.00     0.000 C 
BRANCH   5   6
ATOM      6  C   UNL     1      95.250   3.051 -25.343  1.00  0.00     0.006 C 
BRANCH   6   7
ATOM      7  C   UNL     1      94.529   4.141 -26.146  1.00  0.00     0.053 C 
BRANCH   7   8
ATOM      8  C   UNL     1      93.132   3.736 -26.504  1.00  0.00     0.041 C 
ATOM      9  O   UNL     1      92.360   3.277 -25.623  1.00  0.00    -0.550 OA
ATOM     10  O   UNL     1      92.695   3.835 -27.819  1.00  0.00    -0.550 OA
ENDBRANCH   7   8
ENDBRANCH   6   7
ENDBRANCH   5   6
ENDBRANCH   4   5
ENDBRANCH   3   4
ENDBRANCH   2   3
ENDBRANCH   1   2
BRANCH   1  11
ATOM     11  C   UNL     1      99.580   2.867 -28.597  1.00  0.00     0.000 C 
BRANCH  11  12
ATOM     12  C   UNL     1      98.668   1.657 -28.866  1.00  0.00    -0.000 C 
BRANCH  12  13
ATOM     13  C   UNL     1      98.997   0.453 -27.958  1.00  0.00    -0.000 C 
BRANCH  13  14
ATOM     14  C   UNL     1     100.051   0.760 -26.877  1.00  0.00    -0.000 C 
BRANCH  14  15
ATOM     15  C   UNL     1      99.707   0.237 -25.470  1.00  0.00    -0.000 C 
BRANCH  15  16
ATOM     16  C   UNL     1      98.542  -0.773 -25.414  1.00  0.00    -0.000 C 
BRANCH  16  17
ATOM     17  C   UNL     1      97.687  -0.709 -24.136  1.00  0.00    -0.003 C 
ATOM     18  C   UNL     1      98.165   0.357 -23.151  1.00  0.00     0.004 C 
ENDBRANCH  16  17
ENDBRANCH  15  16
ENDBRANCH  14  15
ENDBRANCH  13  14
ENDBRANCH  12  13
ENDBRANCH  11  12
ENDBRANCH   1  11
TORSDOF 14
ENDMDL
MODEL 5
REMARK VINA RESULT:    -3.688      2.204      3.575
REMARK INTER + INTRA:          -8.966
REMARK INTER:                  -7.249
REMARK INTRA:                  -1.716
REMARK UNBOUND:                -2.258
REMARK SMILES CCCCCCCCCCCCCCCC(=O)[O-]
REMARK SMILES IDX 9 1 10 2 11 3 12 4 13 5 14 6 15 7 16 8 17 9 18 10 8 11 7 12
REMARK SMILES IDX 6 13 5 14 4 15 3 16 2 17 1 18
REMARK H PARENT
REMARK Flexibility Score: inf
ROOT
ATOM      1  C   UNL     1      98.654   4.414 -26.689  1.00  0.00     0.000 C 
ENDROOT
BRANCH   1   2
ATOM      2  C   UNL     1      99.557   3.794 -27.770  1.00  0.00     0.000 C 
BRANCH   2   3
ATOM      3  C   UNL     1      98.758   3.124 -28.901  1.00  0.00     0.000 C 
BRANCH   3   4
ATOM      4  C   UNL     1      99.158   1.656 -29.116  1.00  0.00     0.000 C 
BRANCH   4   5
ATOM      5  C   UNL     1      99.948   1.078 -27.933  1.00  0.00     0.000 C 
BRANCH   5   6
ATOM      6  C   UNL     1      99.065   0.151 -27.083  1.00  0.00     0.006 C 
BRANCH   6   7
ATOM      7  C   UNL     1      99.676  -0.129 -25.704  1.00  0.00     0.053 C 
BRANCH   7   8
ATOM      8  C   UNL     1      98.625  -0.438 -24.682  1.00  0.00     0.041 C 
ATOM      9  O   UNL     1      98.382   0.381 -23.757  1.00  0.00    -0.550 OA
ATOM     10  O   UNL     1      97.939  -1.644 -24.732  1.00  0.00    -0.550 OA
ENDBRANCH   7   8
ENDBRANCH   6   7
ENDBRANCH   5   6
ENDBRANCH   4   5
ENDBRANCH   3   4
ENDBRANCH   2   3
ENDBRANCH   1   2
BRANCH   1  11
ATOM     11  C   UNL     1      98.325   3.447 -25.531  1.00  0.00     0.000 C 
BRANCH  11  12
ATOM     12  C   UNL     1      96.868   2.955 -25.580  1.00  0.00    -0.000 C 
BRANCH  12  13
ATOM     13  C   UNL     1      96.003   3.759 -26.574  1.00  0.00    -0.000 C 
BRANCH  13  14
ATOM     14  C   UNL     1      94.628   3.124 -26.855  1.00  0.00    -0.000 C 
BRANCH  14  15
ATOM     15  C   UNL     1      93.422   4.038 -26.571  1.00  0.00    -0.000 C 
BRANCH  15  16
ATOM     16  C   UNL     1      93.239   4.440 -25.093  1.00  0.00    -0.000 C 
BRANCH  16  17
ATOM     17  C   UNL     1      92.701   5.865 -24.869  1.00  0.00    -0.003 C 
ATOM     18  C   UNL     1      93.041   6.818 -26.013  1.00  0.00     0.004 C 
ENDBRANCH  16  17
ENDBRANCH  15  16
ENDBRANCH  14  15
ENDBRANCH  13  14
ENDBRANCH  12  13
ENDBRANCH  11  12
ENDBRANCH   1  11
TORSDOF 14
ENDMDL
MODEL 6
REMARK VINA RESULT:    -3.598      2.984      5.819
REMARK INTER + INTRA:          -8.801
REMARK INTER:                  -7.021
REMARK INTRA:                  -1.779
REMARK UNBOUND:                -2.258
REMARK SMILES CCCCCCCCCCCCCCCC(=O)[O-]
REMARK SMILES IDX 9 1 10 2 11 3 12 4 13 5 14 6 15 7 16 8 17 9 18 10 8 11 7 12
REMARK SMILES IDX 6 13 5 14 4 15 3 16 2 17 1 18
REMARK H PARENT
REMARK Flexibility Score: inf
ROOT
ATOM      1  C   UNL     1      98.103   2.956 -25.024  1.00  0.00     0.000 C 
ENDROOT
BRANCH   1   2
ATOM      2  C   UNL     1      98.600   3.948 -26.089  1.00  0.00     0.000 C 
BRANCH   2   3
ATOM      3  C   UNL     1      97.566   4.197 -27.200  1.00  0.00     0.000 C 
BRANCH   3   4
ATOM      4  C   UNL     1      97.409   2.994 -28.142  1.00  0.00     0.000 C 
BRANCH   4   5
ATOM      5  C   UNL     1      97.873   3.298 -29.573  1.00  0.00     0.000 C 
BRANCH   5   6
ATOM      6  C   UNL     1      99.402   3.198 -29.689  1.00  0.00     0.006 C 
BRANCH   6   7
ATOM      7  C   UNL     1      99.906   1.761 -29.505  1.00  0.00     0.053 C 
BRANCH   7   8
ATOM      8  C   UNL     1      99.207   0.804 -30.421  1.00  0.00     0.041 C 
ATOM      9  O   UNL     1      98.584  -0.183 -29.951  1.00  0.00    -0.550 OA
ATOM     10  O   UNL     1      99.273   0.985 -31.797  1.00  0.00    -0.550 OA
ENDBRANCH   7   8
ENDBRANCH   6   7
ENDBRANCH   5   6
ENDBRANCH   4   5
ENDBRANCH   3   4
ENDBRANCH   2   3
ENDBRANCH   1   2
BRANCH   1  11
ATOM     11  C   UNL     1      99.134   1.864 -24.667  1.00  0.00     0.000 C 
BRANCH  11  12
ATOM     12  C   UNL     1      99.722   1.188 -25.919  1.00  0.00    -0.000 C 
BRANCH  12  13
ATOM     13  C   UNL     1      99.010  -0.138 -26.267  1.00  0.00    -0.000 C 
BRANCH  13  14
ATOM     14  C   UNL     1      98.483  -0.901 -25.036  1.00  0.00    -0.000 C 
BRANCH  14  15
ATOM     15  C   UNL     1      99.528  -1.775 -24.319  1.00  0.00    -0.000 C 
BRANCH  15  16
ATOM     16  C   UNL     1      99.450  -1.759 -22.778  1.00  0.00    -0.000 C 
BRANCH  16  17
ATOM     17  C   UNL     1     100.118  -0.546 -22.106  1.00  0.00    -0.003 C 
ATOM     18  C   UNL     1      99.244   0.099 -21.033  1.00  0.00     0.004 C 
ENDBRANCH  16  17
ENDBRANCH  15  16
ENDBRANCH  14  15
ENDBRANCH  13  14
ENDBRANCH  12  13
ENDBRANCH  11  12
ENDBRANCH   1  11
TORSDOF 14
ENDMDL
MODEL 7
REMARK VINA RESULT:    -3.589      3.662      5.951
REMARK INTER + INTRA:          -8.784
REMARK INTER:                  -7.030
REMARK INTRA:                  -1.755
REMARK UNBOUND:                -2.258
REMARK SMILES CCCCCCCCCCCCCCCC(=O)[O-]
REMARK SMILES IDX 9 1 10 2 11 3 12 4 13 5 14 6 15 7 16 8 17 9 18 10 8 11 7 12
REMARK SMILES IDX 6 13 5 14 4 15 3 16 2 17 1 18
REMARK H PARENT
REMARK Flexibility Score: inf
ROOT
ATOM      1  C   UNL     1      98.250   4.429 -26.874  1.00  0.00     0.000 C 
ENDROOT
BRANCH   1   2
ATOM      2  C   UNL     1      97.037   3.571 -27.274  1.00  0.00     0.000 C 
BRANCH   2   3
ATOM      3  C   UNL     1      95.856   3.718 -26.300  1.00  0.00     0.000 C 
BRANCH   3   4
ATOM      4  C   UNL     1      94.569   3.066 -26.830  1.00  0.00     0.000 C 
BRANCH   4   5
ATOM      5  C   UNL     1      93.340   3.974 -26.678  1.00  0.00     0.000 C 
BRANCH   5   6
ATOM      6  C   UNL     1      93.747   5.374 -26.196  1.00  0.00     0.006 C 
BRANCH   6   7
ATOM      7  C   UNL     1      92.625   6.069 -25.414  1.00  0.00     0.053 C 
BRANCH   7   8
ATOM      8  C   UNL     1      92.075   5.191 -24.332  1.00  0.00     0.041 C 
ATOM      9  O   UNL     1      90.859   4.866 -24.338  1.00  0.00    -0.550 OA
ATOM     10  O   UNL     1      92.898   4.760 -23.300  1.00  0.00    -0.550 OA
ENDBRANCH   7   8
ENDBRANCH   6   7
ENDBRANCH   5   6
ENDBRANCH   4   5
ENDBRANCH   3   4
ENDBRANCH   2   3
ENDBRANCH   1   2
BRANCH   1  11
ATOM     11  C   UNL     1      99.354   4.477 -27.952  1.00  0.00     0.000 C 
BRANCH  11  12
ATOM     12  C   UNL     1      98.811   4.161 -29.357  1.00  0.00    -0.000 C 
BRANCH  12  13
ATOM     13  C   UNL     1      99.545   2.977 -30.023  1.00  0.00    -0.000 C 
BRANCH  13  14
ATOM     14  C   UNL     1     100.070   1.929 -29.023  1.00  0.00    -0.000 C 
BRANCH  14  15
ATOM     15  C   UNL     1      99.106   0.762 -28.741  1.00  0.00    -0.000 C 
BRANCH  15  16
ATOM     16  C   UNL     1      98.974   0.366 -27.256  1.00  0.00    -0.000 C 
BRANCH  16  17
ATOM     17  C   UNL     1      99.900   1.132 -26.294  1.00  0.00    -0.003 C 
ATOM     18  C   UNL     1      99.355   1.200 -24.869  1.00  0.00     0.004 C 
ENDBRANCH  16  17
ENDBRANCH  15  16
ENDBRANCH  14  15
ENDBRANCH  13  14
ENDBRANCH  12  13
ENDBRANCH  11  12
ENDBRANCH   1  11
TORSDOF 14
ENDMDL
MODEL 8
REMARK VINA RESULT:    -3.563      3.110      5.687
REMARK INTER + INTRA:          -8.738
REMARK INTER:                  -6.747
REMARK INTRA:                  -1.991
REMARK UNBOUND:                -2.258
REMARK SMILES CCCCCCCCCCCCCCCC(=O)[O-]
REMARK SMILES IDX 9 1 10 2 11 3 12 4 13 5 14 6 15 7 16 8 17 9 18 10 8 11 7 12
REMARK SMILES IDX 6 13 5 14 4 15 3 16 2 17 1 18
REMARK H PARENT
REMARK Flexibility Score: inf
ROOT
ATOM      1  C   UNL     1      98.938  -0.387 -25.902  1.00  0.00     0.000 C 
ENDROOT
BRANCH   1   2
ATOM      2  C   UNL     1      99.135   1.131 -26.055  1.00  0.00     0.000 C 
BRANCH   2   3
ATOM      3  C   UNL     1      99.027   1.884 -24.718  1.00  0.00     0.000 C 
BRANCH   3   4
ATOM      4  C   UNL     1      98.673   3.368 -24.903  1.00  0.00     0.000 C 
BRANCH   4   5
ATOM      5  C   UNL     1      98.133   3.677 -26.306  1.00  0.00     0.000 C 
BRANCH   5   6
ATOM      6  C   UNL     1      98.988   4.748 -27.001  1.00  0.00     0.006 C 
BRANCH   6   7
ATOM      7  C   UNL     1      99.781   4.180 -28.184  1.00  0.00     0.053 C 
BRANCH   7   8
ATOM      8  C   UNL     1      98.882   3.594 -29.228  1.00  0.00     0.041 C 
ATOM      9  O   UNL     1      97.988   4.300 -29.764  1.00  0.00    -0.550 OA
ATOM     10  O   UNL     1      99.008   2.257 -29.584  1.00  0.00    -0.550 OA
ENDBRANCH   7   8
ENDBRANCH   6   7
ENDBRANCH   5   6
ENDBRANCH   4   5
ENDBRANCH   3   4
ENDBRANCH   2   3
ENDBRANCH   1   2
BRANCH   1  11
ATOM     11  C   UNL     1      98.653  -0.830 -24.451  1.00  0.00     0.000 C 
BRANCH  11  12
ATOM     12  C   UNL     1      97.197  -1.287 -24.257  1.00  0.00    -0.000 C 
BRANCH  12  13
ATOM     13  C   UNL     1      96.611  -0.841 -22.900  1.00  0.00    -0.000 C 
BRANCH  13  14
ATOM     14  C   UNL     1      96.104   0.614 -22.892  1.00  0.00    -0.000 C 
BRANCH  14  15
ATOM     15  C   UNL     1      95.415   1.068 -24.192  1.00  0.00    -0.000 C 
BRANCH  15  16
ATOM     16  C   UNL     1      95.133   2.582 -24.289  1.00  0.00    -0.000 C 
BRANCH  16  17
ATOM     17  C   UNL     1      94.063   2.978 -25.323  1.00  0.00    -0.003 C 
ATOM     18  C   UNL     1      94.429   4.235 -26.109  1.00  0.00     0.004 C 
ENDBRANCH  16  17
ENDBRANCH  15  16
ENDBRANCH  14  15
ENDBRANCH  13  14
ENDBRANCH  12  13
ENDBRANCH  11  12
ENDBRANCH   1  11
TORSDOF 14
ENDMDL
MODEL 9
REMARK VINA RESULT:    -3.563      3.918      6.001
REMARK INTER + INTRA:          -8.737
REMARK INTER:                  -7.421
REMARK INTRA:                  -1.316
REMARK UNBOUND:                -2.258
REMARK SMILES CCCCCCCCCCCCCCCC(=O)[O-]
REMARK SMILES IDX 9 1 10 2 11 3 12 4 13 5 14 6 15 7 16 8 17 9 18 10 8 11 7 12
REMARK SMILES IDX 6 13 5 14 4 15 3 16 2 17 1 18
REMARK H PARENT
REMARK Flexibility Score: inf
ROOT
ATOM      1  C   UNL     1      96.318   3.364 -26.931  1.00  0.00     0.000 C 
ENDROOT
BRANCH   1   2
ATOM      2  C   UNL     1      97.390   3.251 -25.833  1.00  0.00     0.000 C 
BRANCH   2   3
ATOM      3  C   UNL     1      98.636   4.103 -26.127  1.00  0.00     0.000 C 
BRANCH   3   4
ATOM      4  C   UNL     1      98.571   4.791 -27.499  1.00  0.00     0.000 C 
BRANCH   4   5
ATOM      5  C   UNL     1      99.933   4.827 -28.208  1.00  0.00     0.000 C 
BRANCH   5   6
ATOM      6  C   UNL     1      99.900   4.002 -29.504  1.00  0.00     0.006 C 
BRANCH   6   7
ATOM      7  C   UNL     1     100.051   2.499 -29.240  1.00  0.00     0.053 C 
BRANCH   7   8
ATOM      8  C   UNL     1      98.863   1.726 -29.725  1.00  0.00     0.041 C 
ATOM      9  O   UNL     1      97.794   2.325 -30.017  1.00  0.00    -0.550 OA
ATOM     10  O   UNL     1      98.925   0.342 -29.822  1.00  0.00    -0.550 OA
ENDBRANCH   7   8
ENDBRANCH   6   7
ENDBRANCH   5   6
ENDBRANCH   4   5
ENDBRANCH   3   4
ENDBRANCH   2   3
ENDBRANCH   1   2
BRANCH   1  11
ATOM     11  C   UNL     1      95.047   4.114 -26.478  1.00  0.00     0.000 C 
BRANCH  11  12
ATOM     12  C   UNL     1      94.422   3.492 -25.217  1.00  0.00    -0.000 C 
BRANCH  12  13
ATOM     13  C   UNL     1      93.128   4.212 -24.780  1.00  0.00    -0.000 C 
BRANCH  13  14
ATOM     14  C   UNL     1      92.827   5.491 -25.584  1.00  0.00    -0.000 C 
BRANCH  14  15
ATOM     15  C   UNL     1      91.567   5.420 -26.466  1.00  0.00    -0.000 C 
BRANCH  15  16
ATOM     16  C   UNL     1      91.529   6.425 -27.636  1.00  0.00    -0.000 C 
BRANCH  16  17
ATOM     17  C   UNL     1      91.495   5.790 -29.037  1.00  0.00    -0.003 C 
ATOM     18  C   UNL     1      92.237   4.457 -29.107  1.00  0.00     0.004 C 
ENDBRANCH  16  17
ENDBRANCH  15  16
ENDBRANCH  14  15
ENDBRANCH  13  14
ENDBRANCH  12  13
ENDBRANCH  11  12
ENDBRANCH   1  11
TORSDOF 14
ENDMDL
