MODEL 1
REMARK VINA RESULT:    -4.523      0.000      0.000
REMARK INTER + INTRA:          -5.263
REMARK INTER:                  -5.051
REMARK INTRA:                  -0.211
REMARK UNBOUND:                -0.211
REMARK SMILES CC(C)c1ccc(C(=O)[O-])cc1
REMARK SMILES IDX 7 1 6 2 11 3 5 4 12 5 4 6 8 7 9 8 10 9 2 10 1 11 3 12
REMARK H PARENT
REMARK Flexibility Score: inf
ROOT
ATOM      1  C   UNL     1      18.612 -10.244 186.491  1.00  0.00    -0.003 A 
ATOM      2  C   UNL     1      19.421 -11.157 187.190  1.00  0.00     0.010 A 
ATOM      3  C   UNL     1      17.455 -10.714 185.848  1.00  0.00     0.010 A 
ATOM      4  C   UNL     1      19.078 -12.510 187.246  1.00  0.00     0.004 A 
ATOM      5  C   UNL     1      17.113 -12.068 185.904  1.00  0.00     0.004 A 
ATOM      6  C   UNL     1      17.919 -12.982 186.603  1.00  0.00    -0.045 A 
ENDROOT
BRANCH   1   7
ATOM      7  C   UNL     1      18.971  -8.810 186.429  1.00  0.00     0.071 C 
ATOM      8  O   UNL     1      20.125  -8.424 186.759  1.00  0.00    -0.545 OA
ATOM      9  O   UNL     1      18.041  -7.868 186.005  1.00  0.00    -0.545 OA
ENDBRANCH   1   7
BRANCH   6  10
ATOM     10  C   UNL     1      17.535 -14.449 186.656  1.00  0.00     0.013 C 
ATOM     11  C   UNL     1      18.759 -15.331 186.930  1.00  0.00     0.012 C 
ATOM     12  C   UNL     1      16.434 -14.695 187.693  1.00  0.00     0.012 C 
ENDBRANCH   6  10
TORSDOF 2
ENDMDL
MODEL 2
REMARK VINA RESULT:    -4.514      0.203      1.679
REMARK INTER + INTRA:          -5.254
REMARK INTER:                  -5.043
REMARK INTRA:                  -0.211
REMARK UNBOUND:                -0.211
REMARK SMILES CC(C)c1ccc(C(=O)[O-])cc1
REMARK SMILES IDX 7 1 6 2 11 3 5 4 12 5 4 6 8 7 9 8 10 9 2 10 1 11 3 12
REMARK H PARENT
REMARK Flexibility Score: inf
ROOT
ATOM      1  C   UNL     1      18.505 -10.189 186.501  1.00  0.00    -0.003 A 
ATOM      2  C   UNL     1      17.379 -10.722 185.851  1.00  0.00     0.010 A 
ATOM      3  C   UNL     1      19.358 -11.056 187.205  1.00  0.00     0.010 A 
ATOM      4  C   UNL     1      17.112 -12.093 185.903  1.00  0.00     0.004 A 
ATOM      5  C   UNL     1      19.091 -12.427 187.258  1.00  0.00     0.004 A 
ATOM      6  C   UNL     1      17.966 -12.962 186.608  1.00  0.00    -0.045 A 
ENDROOT
BRANCH   1   7
ATOM      7  C   UNL     1      18.791  -8.739 186.449  1.00  0.00     0.071 C 
ATOM      8  O   UNL     1      17.850  -7.901 186.394  1.00  0.00    -0.545 OA
ATOM      9  O   UNL     1      20.103  -8.278 186.460  1.00  0.00    -0.545 OA
ENDBRANCH   1   7
BRANCH   6  10
ATOM     10  C   UNL     1      17.689 -14.452 186.672  1.00  0.00     0.013 C 
ATOM     11  C   UNL     1      18.972 -15.240 186.962  1.00  0.00     0.012 C 
ATOM     12  C   UNL     1      16.601 -14.768 187.705  1.00  0.00     0.012 C 
ENDBRANCH   6  10
TORSDOF 2
ENDMDL
MODEL 3
REMARK VINA RESULT:    -4.391      1.857      2.306
REMARK INTER + INTRA:          -5.116
REMARK INTER:                  -4.903
REMARK INTRA:                  -0.212
REMARK UNBOUND:                -0.211
REMARK SMILES CC(C)c1ccc(C(=O)[O-])cc1
REMARK SMILES IDX 7 1 6 2 11 3 5 4 12 5 4 6 8 7 9 8 10 9 2 10 1 11 3 12
REMARK H PARENT
REMARK Flexibility Score: inf
ROOT
ATOM      1  C   UNL     1      18.752  -9.830 188.368  1.00  0.00    -0.003 A 
ATOM      2  C   UNL     1      17.397 -10.114 188.124  1.00  0.00     0.010 A 
ATOM      3  C   UNL     1      19.728 -10.741 187.933  1.00  0.00     0.010 A 
ATOM      4  C   UNL     1      17.028 -11.286 187.456  1.00  0.00     0.004 A 
ATOM      5  C   UNL     1      19.359 -11.912 187.266  1.00  0.00     0.004 A 
ATOM      6  C   UNL     1      18.005 -12.199 187.020  1.00  0.00    -0.045 A 
ENDROOT
BRANCH   1   7
ATOM      7  C   UNL     1      19.147  -8.591 189.075  1.00  0.00     0.071 C 
ATOM      8  O   UNL     1      19.689  -8.647 190.212  1.00  0.00    -0.545 OA
ATOM      9  O   UNL     1      18.926  -7.347 188.494  1.00  0.00    -0.545 OA
ENDBRANCH   1   7
BRANCH   6  10
ATOM     10  C   UNL     1      17.619 -13.474 186.294  1.00  0.00     0.013 C 
ATOM     11  C   UNL     1      18.374 -14.683 186.862  1.00  0.00     0.012 C 
ATOM     12  C   UNL     1      16.104 -13.699 186.339  1.00  0.00     0.012 C 
ENDBRANCH   6  10
TORSDOF 2
ENDMDL
MODEL 4
REMARK VINA RESULT:    -4.362      3.065      5.045
REMARK INTER + INTRA:          -5.084
REMARK INTER:                  -4.865
REMARK INTRA:                  -0.219
REMARK UNBOUND:                -0.211
REMARK SMILES CC(C)c1ccc(C(=O)[O-])cc1
REMARK SMILES IDX 7 1 6 2 11 3 5 4 12 5 4 6 8 7 9 8 10 9 2 10 1 11 3 12
REMARK H PARENT
REMARK Flexibility Score: inf
ROOT
ATOM      1  C   UNL     1      18.259 -13.218 186.772  1.00  0.00    -0.003 A 
ATOM      2  C   UNL     1      19.318 -12.522 187.381  1.00  0.00     0.010 A 
ATOM      3  C   UNL     1      17.275 -12.492 186.082  1.00  0.00     0.010 A 
ATOM      4  C   UNL     1      19.390 -11.129 187.299  1.00  0.00     0.004 A 
ATOM      5  C   UNL     1      17.347 -11.099 186.000  1.00  0.00     0.004 A 
ATOM      6  C   UNL     1      18.405 -10.400 186.607  1.00  0.00    -0.045 A 
ENDROOT
BRANCH   1   7
ATOM      7  C   UNL     1      18.178 -14.693 186.857  1.00  0.00     0.071 C 
ATOM      8  O   UNL     1      17.060 -15.276 186.844  1.00  0.00    -0.545 OA
ATOM      9  O   UNL     1      19.335 -15.458 186.952  1.00  0.00    -0.545 OA
ENDBRANCH   1   7
BRANCH   6  10
ATOM     10  C   UNL     1      18.471  -8.888 186.510  1.00  0.00     0.013 C 
ATOM     11  C   UNL     1      19.916  -8.389 186.634  1.00  0.00     0.012 C 
ATOM     12  C   UNL     1      17.823  -8.388 185.214  1.00  0.00     0.012 C 
ENDBRANCH   6  10
TORSDOF 2
ENDMDL
MODEL 5
REMARK VINA RESULT:    -4.360      3.054      5.153
REMARK INTER + INTRA:          -5.082
REMARK INTER:                  -4.863
REMARK INTRA:                  -0.219
REMARK UNBOUND:                -0.211
REMARK SMILES CC(C)c1ccc(C(=O)[O-])cc1
REMARK SMILES IDX 7 1 6 2 11 3 5 4 12 5 4 6 8 7 9 8 10 9 2 10 1 11 3 12
REMARK H PARENT
REMARK Flexibility Score: inf
ROOT
ATOM      1  C   UNL     1      18.268 -13.188 186.775  1.00  0.00    -0.003 A 
ATOM      2  C   UNL     1      17.311 -12.449 186.058  1.00  0.00     0.010 A 
ATOM      3  C   UNL     1      19.321 -12.505 187.407  1.00  0.00     0.010 A 
ATOM      4  C   UNL     1      17.406 -11.057 185.976  1.00  0.00     0.004 A 
ATOM      5  C   UNL     1      19.415 -11.113 187.324  1.00  0.00     0.004 A 
ATOM      6  C   UNL     1      18.459 -10.373 186.609  1.00  0.00    -0.045 A 
ENDROOT
BRANCH   1   7
ATOM      7  C   UNL     1      18.173 -14.662 186.864  1.00  0.00     0.071 C 
ATOM      8  O   UNL     1      19.212 -15.365 186.987  1.00  0.00    -0.545 OA
ATOM      9  O   UNL     1      16.935 -15.292 186.813  1.00  0.00    -0.545 OA
ENDBRANCH   1   7
BRANCH   6  10
ATOM     10  C   UNL     1      18.574  -8.862 186.528  1.00  0.00     0.013 C 
ATOM     11  C   UNL     1      20.042  -8.418 186.534  1.00  0.00     0.012 C 
ATOM     12  C   UNL     1      17.838  -8.316 185.300  1.00  0.00     0.012 C 
ENDBRANCH   6  10
TORSDOF 2
ENDMDL
MODEL 6
REMARK VINA RESULT:    -4.285      3.261      5.122
REMARK INTER + INTRA:          -4.997
REMARK INTER:                  -4.788
REMARK INTRA:                  -0.209
REMARK UNBOUND:                -0.211
REMARK SMILES CC(C)c1ccc(C(=O)[O-])cc1
REMARK SMILES IDX 7 1 6 2 11 3 5 4 12 5 4 6 8 7 9 8 10 9 2 10 1 11 3 12
REMARK H PARENT
REMARK Flexibility Score: inf
ROOT
ATOM      1  C   UNL     1      16.962 -13.369 186.226  1.00  0.00    -0.003 A 
ATOM      2  C   UNL     1      16.685 -12.029 185.904  1.00  0.00     0.010 A 
ATOM      3  C   UNL     1      18.152 -13.672 186.908  1.00  0.00     0.010 A 
ATOM      4  C   UNL     1      17.579 -11.015 186.258  1.00  0.00     0.004 A 
ATOM      5  C   UNL     1      19.047 -12.658 187.261  1.00  0.00     0.004 A 
ATOM      6  C   UNL     1      18.771 -11.318 186.941  1.00  0.00    -0.045 A 
ENDROOT
BRANCH   1   7
ATOM      7  C   UNL     1      16.019 -14.446 185.853  1.00  0.00     0.071 C 
ATOM      8  O   UNL     1      14.812 -14.182 185.601  1.00  0.00    -0.545 OA
ATOM      9  O   UNL     1      16.450 -15.765 185.776  1.00  0.00    -0.545 OA
ENDBRANCH   1   7
BRANCH   6  10
ATOM     10  C   UNL     1      19.751 -10.227 187.331  1.00  0.00     0.013 C 
ATOM     11  C   UNL     1      19.831  -9.143 186.249  1.00  0.00     0.012 C 
ATOM     12  C   UNL     1      19.391  -9.622 188.693  1.00  0.00     0.012 C 
ENDBRANCH   6  10
TORSDOF 2
ENDMDL
MODEL 7
REMARK VINA RESULT:    -4.089      1.484      2.115
REMARK INTER + INTRA:          -4.779
REMARK INTER:                  -4.569
REMARK INTRA:                  -0.210
REMARK UNBOUND:                -0.211
REMARK SMILES CC(C)c1ccc(C(=O)[O-])cc1
REMARK SMILES IDX 7 1 6 2 11 3 5 4 12 5 4 6 8 7 9 8 10 9 2 10 1 11 3 12
REMARK H PARENT
REMARK Flexibility Score: inf
ROOT
ATOM      1  C   UNL     1      17.023 -11.379 185.900  1.00  0.00    -0.003 A 
ATOM      2  C   UNL     1      18.204 -11.719 186.583  1.00  0.00     0.010 A 
ATOM      3  C   UNL     1      16.108 -12.394 185.574  1.00  0.00     0.010 A 
ATOM      4  C   UNL     1      18.463 -13.048 186.931  1.00  0.00     0.004 A 
ATOM      5  C   UNL     1      16.368 -13.722 185.922  1.00  0.00     0.004 A 
ATOM      6  C   UNL     1      17.548 -14.065 186.604  1.00  0.00    -0.045 A 
ENDROOT
BRANCH   1   7
ATOM      7  C   UNL     1      16.744  -9.974 185.529  1.00  0.00     0.071 C 
ATOM      8  O   UNL     1      15.561  -9.587 185.327  1.00  0.00    -0.545 OA
ATOM      9  O   UNL     1      17.784  -9.060 185.397  1.00  0.00    -0.545 OA
ENDBRANCH   1   7
BRANCH   6  10
ATOM     10  C   UNL     1      17.816 -15.511 186.977  1.00  0.00     0.013 C 
ATOM     11  C   UNL     1      19.322 -15.784 187.081  1.00  0.00     0.012 C 
ATOM     12  C   UNL     1      17.095 -15.891 188.274  1.00  0.00     0.012 C 
ENDBRANCH   6  10
TORSDOF 2
ENDMDL
MODEL 8
REMARK VINA RESULT:    -4.041      3.156      5.256
REMARK INTER + INTRA:          -4.725
REMARK INTER:                  -4.515
REMARK INTRA:                  -0.210
REMARK UNBOUND:                -0.211
REMARK SMILES CC(C)c1ccc(C(=O)[O-])cc1
REMARK SMILES IDX 7 1 6 2 11 3 5 4 12 5 4 6 8 7 9 8 10 9 2 10 1 11 3 12
REMARK H PARENT
REMARK Flexibility Score: inf
ROOT
ATOM      1  C   UNL     1      18.049 -12.211 187.142  1.00  0.00    -0.003 A 
ATOM      2  C   UNL     1      17.042 -11.314 187.537  1.00  0.00     0.010 A 
ATOM      3  C   UNL     1      19.394 -11.839 187.303  1.00  0.00     0.010 A 
ATOM      4  C   UNL     1      17.375 -10.071 188.083  1.00  0.00     0.004 A 
ATOM      5  C   UNL     1      19.726 -10.596 187.849  1.00  0.00     0.004 A 
ATOM      6  C   UNL     1      18.721  -9.697 188.245  1.00  0.00    -0.045 A 
ENDROOT
BRANCH   1   7
ATOM      7  C   UNL     1      17.702 -13.528 186.563  1.00  0.00     0.071 C 
ATOM      8  O   UNL     1      16.628 -13.683 185.921  1.00  0.00    -0.545 OA
ATOM      9  O   UNL     1      18.556 -14.614 186.721  1.00  0.00    -0.545 OA
ENDBRANCH   1   7
BRANCH   6  10
ATOM     10  C   UNL     1      19.096  -8.351 188.836  1.00  0.00     0.013 C 
ATOM     11  C   UNL     1      17.959  -7.336 188.665  1.00  0.00     0.012 C 
ATOM     12  C   UNL     1      19.498  -8.487 190.309  1.00  0.00     0.012 C 
ENDBRANCH   6  10
TORSDOF 2
ENDMDL
MODEL 9
REMARK VINA RESULT:    -3.838     14.942     15.824
REMARK INTER + INTRA:          -4.499
REMARK INTER:                  -4.282
REMARK INTRA:                  -0.217
REMARK UNBOUND:                -0.211
REMARK SMILES CC(C)c1ccc(C(=O)[O-])cc1
REMARK SMILES IDX 7 1 6 2 11 3 5 4 12 5 4 6 8 7 9 8 10 9 2 10 1 11 3 12
REMARK H PARENT
REMARK Flexibility Score: inf
ROOT
ATOM      1  C   UNL     1      14.321 -11.759 200.779  1.00  0.00    -0.003 A 
ATOM      2  C   UNL     1      14.439 -10.554 201.494  1.00  0.00     0.010 A 
ATOM      3  C   UNL     1      15.252 -12.784 201.014  1.00  0.00     0.010 A 
ATOM      4  C   UNL     1      15.467 -10.381 202.425  1.00  0.00     0.004 A 
ATOM      5  C   UNL     1      16.279 -12.610 201.945  1.00  0.00     0.004 A 
ATOM      6  C   UNL     1      16.400 -11.407 202.661  1.00  0.00    -0.045 A 
ENDROOT
BRANCH   1   7
ATOM      7  C   UNL     1      13.235 -11.947 199.792  1.00  0.00     0.071 C 
ATOM      8  O   UNL     1      12.894 -11.006 199.026  1.00  0.00    -0.545 OA
ATOM      9  O   UNL     1      12.573 -13.167 199.696  1.00  0.00    -0.545 OA
ENDBRANCH   1   7
BRANCH   6  10
ATOM     10  C   UNL     1      17.520 -11.232 203.669  1.00  0.00     0.013 C 
ATOM     11  C   UNL     1      18.776 -12.000 203.238  1.00  0.00     0.012 C 
ATOM     12  C   UNL     1      17.831  -9.749 203.898  1.00  0.00     0.012 C 
ENDBRANCH   6  10
TORSDOF 2
ENDMDL
