MODEL 1
REMARK VINA RESULT:    -6.460      0.000      0.000
REMARK INTER + INTRA:          -6.929
REMARK INTER:                  -6.838
REMARK INTRA:                  -0.092
REMARK UNBOUND:                -0.092
REMARK SMILES C=C(C)[C@@H]1CC=C(C)C(=O)C1
REMARK SMILES IDX 8 1 7 2 6 3 5 4 4 5 11 6 9 7 10 8 2 9 1 10 3 11
REMARK H PARENT
REMARK Flexibility Score: inf
ROOT
ATOM      1  C   UNL     1     -11.287 -34.616  25.823  1.00  0.00     0.048 C 
ATOM      2  C   UNL     1     -12.240 -33.978  26.795  1.00  0.00    -0.012 C 
ATOM      3  C   UNL     1     -13.441 -33.547  26.370  1.00  0.00    -0.019 C 
ATOM      4  C   UNL     1     -14.441 -32.918  27.304  1.00  0.00     0.036 C 
ATOM      5  C   UNL     1     -13.734 -32.134  28.426  1.00  0.00     0.025 C 
ATOM      6  C   UNL     1     -12.736 -33.043  29.166  1.00  0.00     0.089 C 
ATOM      7  C   UNL     1     -11.809 -33.715  28.191  1.00  0.00     0.158 C 
ATOM      8  O   UNL     1     -10.669 -34.087  28.582  1.00  0.00    -0.295 OA
ENDROOT
BRANCH   5   9
ATOM      9  C   UNL     1     -14.734 -31.500  29.384  1.00  0.00    -0.077 C 
ATOM     10  C   UNL     1     -15.563 -30.521  28.983  1.00  0.00     0.008 C 
ATOM     11  C   UNL     1     -14.810 -31.968  30.815  1.00  0.00     0.039 C 
ENDBRANCH   5   9
TORSDOF 1
ENDMDL
MODEL 2
REMARK VINA RESULT:    -5.870      1.779      2.791
REMARK INTER + INTRA:          -6.305
REMARK INTER:                  -6.211
REMARK INTRA:                  -0.094
REMARK UNBOUND:                -0.092
REMARK SMILES C=C(C)[C@@H]1CC=C(C)C(=O)C1
REMARK SMILES IDX 8 1 7 2 6 3 5 4 4 5 11 6 9 7 10 8 2 9 1 10 3 11
REMARK H PARENT
REMARK Flexibility Score: inf
ROOT
ATOM      1  C   UNL     1     -11.747 -34.254  25.938  1.00  0.00     0.048 C 
ATOM      2  C   UNL     1     -12.187 -33.766  27.290  1.00  0.00    -0.012 C 
ATOM      3  C   UNL     1     -11.377 -33.918  28.352  1.00  0.00    -0.019 C 
ATOM      4  C   UNL     1     -11.760 -33.432  29.725  1.00  0.00     0.036 C 
ATOM      5  C   UNL     1     -13.282 -33.529  29.943  1.00  0.00     0.025 C 
ATOM      6  C   UNL     1     -14.030 -32.775  28.828  1.00  0.00     0.089 C 
ATOM      7  C   UNL     1     -13.559 -33.232  27.474  1.00  0.00     0.158 C 
ATOM      8  O   UNL     1     -14.334 -33.121  26.485  1.00  0.00    -0.295 OA
ENDROOT
BRANCH   5   9
ATOM      9  C   UNL     1     -13.684 -33.031  31.325  1.00  0.00    -0.077 C 
ATOM     10  C   UNL     1     -13.066 -33.470  32.434  1.00  0.00     0.008 C 
ATOM     11  C   UNL     1     -14.797 -32.024  31.471  1.00  0.00     0.039 C 
ENDBRANCH   5   9
TORSDOF 1
ENDMDL
MODEL 3
REMARK VINA RESULT:    -5.860      2.540      4.334
REMARK INTER + INTRA:          -6.294
REMARK INTER:                  -6.200
REMARK INTRA:                  -0.094
REMARK UNBOUND:                -0.092
REMARK SMILES C=C(C)[C@@H]1CC=C(C)C(=O)C1
REMARK SMILES IDX 8 1 7 2 6 3 5 4 4 5 11 6 9 7 10 8 2 9 1 10 3 11
REMARK H PARENT
REMARK Flexibility Score: inf
ROOT
ATOM      1  C   UNL     1     -15.127 -30.361  28.617  1.00  0.00     0.048 C 
ATOM      2  C   UNL     1     -14.505 -31.724  28.737  1.00  0.00    -0.012 C 
ATOM      3  C   UNL     1     -14.159 -32.401  27.627  1.00  0.00    -0.019 C 
ATOM      4  C   UNL     1     -13.516 -33.761  27.690  1.00  0.00     0.036 C 
ATOM      5  C   UNL     1     -14.022 -34.558  28.908  1.00  0.00     0.025 C 
ATOM      6  C   UNL     1     -13.805 -33.751  30.201  1.00  0.00     0.089 C 
ATOM      7  C   UNL     1     -14.389 -32.371  30.067  1.00  0.00     0.158 C 
ATOM      8  O   UNL     1     -14.747 -31.752  31.106  1.00  0.00    -0.295 OA
ENDROOT
BRANCH   5   9
ATOM      9  C   UNL     1     -13.373 -35.933  28.989  1.00  0.00    -0.077 C 
ATOM     10  C   UNL     1     -12.153 -36.100  29.529  1.00  0.00     0.008 C 
ATOM     11  C   UNL     1     -14.098 -37.143  28.458  1.00  0.00     0.039 C 
ENDBRANCH   5   9
TORSDOF 1
ENDMDL
MODEL 4
REMARK VINA RESULT:    -5.826      1.714      4.361
REMARK INTER + INTRA:          -6.259
REMARK INTER:                  -6.166
REMARK INTRA:                  -0.093
REMARK UNBOUND:                -0.092
REMARK SMILES C=C(C)[C@@H]1CC=C(C)C(=O)C1
REMARK SMILES IDX 8 1 7 2 6 3 5 4 4 5 11 6 9 7 10 8 2 9 1 10 3 11
REMARK H PARENT
REMARK Flexibility Score: inf
ROOT
ATOM      1  C   UNL     1     -15.028 -32.056  32.734  1.00  0.00     0.048 C 
ATOM      2  C   UNL     1     -14.446 -32.328  31.374  1.00  0.00    -0.012 C 
ATOM      3  C   UNL     1     -14.882 -31.633  30.309  1.00  0.00    -0.019 C 
ATOM      4  C   UNL     1     -14.321 -31.853  28.928  1.00  0.00     0.036 C 
ATOM      5  C   UNL     1     -13.905 -33.323  28.726  1.00  0.00     0.025 C 
ATOM      6  C   UNL     1     -12.923 -33.756  29.831  1.00  0.00     0.089 C 
ATOM      7  C   UNL     1     -13.485 -33.444  31.190  1.00  0.00     0.158 C 
ATOM      8  O   UNL     1     -13.102 -34.120  32.184  1.00  0.00    -0.295 OA
ENDROOT
BRANCH   5   9
ATOM      9  C   UNL     1     -13.327 -33.557  27.337  1.00  0.00    -0.077 C 
ATOM     10  C   UNL     1     -14.047 -33.309  26.229  1.00  0.00     0.008 C 
ATOM     11  C   UNL     1     -11.920 -34.076  27.182  1.00  0.00     0.039 C 
ENDBRANCH   5   9
TORSDOF 1
ENDMDL
MODEL 5
REMARK VINA RESULT:    -5.705      3.151      4.014
REMARK INTER + INTRA:          -6.131
REMARK INTER:                  -6.037
REMARK INTRA:                  -0.094
REMARK UNBOUND:                -0.092
REMARK SMILES C=C(C)[C@@H]1CC=C(C)C(=O)C1
REMARK SMILES IDX 8 1 7 2 6 3 5 4 4 5 11 6 9 7 10 8 2 9 1 10 3 11
REMARK H PARENT
REMARK Flexibility Score: inf
ROOT
ATOM      1  C   UNL     1     -14.164 -37.560  28.347  1.00  0.00     0.048 C 
ATOM      2  C   UNL     1     -13.860 -36.450  29.314  1.00  0.00    -0.012 C 
ATOM      3  C   UNL     1     -13.612 -36.736  30.604  1.00  0.00    -0.019 C 
ATOM      4  C   UNL     1     -13.285 -35.665  31.611  1.00  0.00     0.036 C 
ATOM      5  C   UNL     1     -14.014 -34.349  31.278  1.00  0.00     0.025 C 
ATOM      6  C   UNL     1     -13.694 -33.912  29.836  1.00  0.00     0.089 C 
ATOM      7  C   UNL     1     -13.956 -35.036  28.872  1.00  0.00     0.158 C 
ATOM      8  O   UNL     1     -14.224 -34.765  27.670  1.00  0.00    -0.295 OA
ENDROOT
BRANCH   5   9
ATOM      9  C   UNL     1     -13.684 -33.254  32.283  1.00  0.00    -0.077 C 
ATOM     10  C   UNL     1     -12.444 -33.114  32.783  1.00  0.00     0.008 C 
ATOM     11  C   UNL     1     -14.757 -32.297  32.737  1.00  0.00     0.039 C 
ENDBRANCH   5   9
TORSDOF 1
ENDMDL
MODEL 6
REMARK VINA RESULT:    -5.674      2.611      3.547
REMARK INTER + INTRA:          -6.098
REMARK INTER:                  -6.003
REMARK INTRA:                  -0.095
REMARK UNBOUND:                -0.092
REMARK SMILES C=C(C)[C@@H]1CC=C(C)C(=O)C1
REMARK SMILES IDX 8 1 7 2 6 3 5 4 4 5 11 6 9 7 10 8 2 9 1 10 3 11
REMARK H PARENT
REMARK Flexibility Score: inf
ROOT
ATOM      1  C   UNL     1     -12.562 -36.611  31.689  1.00  0.00     0.048 C 
ATOM      2  C   UNL     1     -13.186 -35.572  30.800  1.00  0.00    -0.012 C 
ATOM      3  C   UNL     1     -13.493 -35.879  29.527  1.00  0.00    -0.019 C 
ATOM      4  C   UNL     1     -14.136 -34.883  28.598  1.00  0.00     0.036 C 
ATOM      5  C   UNL     1     -13.671 -33.448  28.916  1.00  0.00     0.025 C 
ATOM      6  C   UNL     1     -13.934 -33.119  30.397  1.00  0.00     0.089 C 
ATOM      7  C   UNL     1     -13.347 -34.180  31.287  1.00  0.00     0.158 C 
ATOM      8  O   UNL     1     -13.026 -33.882  32.470  1.00  0.00    -0.295 OA
ENDROOT
BRANCH   5   9
ATOM      9  C   UNL     1     -14.322 -32.429  27.990  1.00  0.00    -0.077 C 
ATOM     10  C   UNL     1     -14.546 -32.705  26.694  1.00  0.00     0.008 C 
ATOM     11  C   UNL     1     -14.729 -31.079  28.521  1.00  0.00     0.039 C 
ENDBRANCH   5   9
TORSDOF 1
ENDMDL
MODEL 7
REMARK VINA RESULT:    -5.629      2.486      4.379
REMARK INTER + INTRA:          -6.050
REMARK INTER:                  -5.956
REMARK INTRA:                  -0.094
REMARK UNBOUND:                -0.092
REMARK SMILES C=C(C)[C@@H]1CC=C(C)C(=O)C1
REMARK SMILES IDX 8 1 7 2 6 3 5 4 4 5 11 6 9 7 10 8 2 9 1 10 3 11
REMARK H PARENT
REMARK Flexibility Score: inf
ROOT
ATOM      1  C   UNL     1     -14.805 -30.805  28.354  1.00  0.00     0.048 C 
ATOM      2  C   UNL     1     -14.430 -32.129  28.959  1.00  0.00    -0.012 C 
ATOM      3  C   UNL     1     -14.303 -32.243  30.293  1.00  0.00    -0.019 C 
ATOM      4  C   UNL     1     -13.948 -33.549  30.953  1.00  0.00     0.036 C 
ATOM      5  C   UNL     1     -13.022 -34.391  30.054  1.00  0.00     0.025 C 
ATOM      6  C   UNL     1     -13.664 -34.593  28.669  1.00  0.00     0.089 C 
ATOM      7  C   UNL     1     -14.079 -33.272  28.081  1.00  0.00     0.158 C 
ATOM      8  O   UNL     1     -14.163 -33.156  26.827  1.00  0.00    -0.295 OA
ENDROOT
BRANCH   5   9
ATOM      9  C   UNL     1     -12.662 -35.719  30.705  1.00  0.00    -0.077 C 
ATOM     10  C   UNL     1     -13.568 -36.424  31.405  1.00  0.00     0.008 C 
ATOM     11  C   UNL     1     -11.266 -36.271  30.573  1.00  0.00     0.039 C 
ENDBRANCH   5   9
TORSDOF 1
ENDMDL
MODEL 8
REMARK VINA RESULT:    -5.615      2.142      3.359
REMARK INTER + INTRA:          -6.035
REMARK INTER:                  -5.942
REMARK INTRA:                  -0.093
REMARK UNBOUND:                -0.092
REMARK SMILES C=C(C)[C@@H]1CC=C(C)C(=O)C1
REMARK SMILES IDX 8 1 7 2 6 3 5 4 4 5 11 6 9 7 10 8 2 9 1 10 3 11
REMARK H PARENT
REMARK Flexibility Score: inf
ROOT
ATOM      1  C   UNL     1     -10.233 -34.247  31.612  1.00  0.00     0.048 C 
ATOM      2  C   UNL     1     -11.341 -33.820  30.689  1.00  0.00    -0.012 C 
ATOM      3  C   UNL     1     -11.078 -33.593  29.390  1.00  0.00    -0.019 C 
ATOM      4  C   UNL     1     -12.153 -33.182  28.418  1.00  0.00     0.036 C 
ATOM      5  C   UNL     1     -13.229 -32.324  29.111  1.00  0.00     0.025 C 
ATOM      6  C   UNL     1     -13.800 -33.068  30.332  1.00  0.00     0.089 C 
ATOM      7  C   UNL     1     -12.690 -33.532  31.235  1.00  0.00     0.158 C 
ATOM      8  O   UNL     1     -12.929 -33.711  32.461  1.00  0.00    -0.295 OA
ENDROOT
BRANCH   5   9
ATOM      9  C   UNL     1     -14.327 -31.909  28.142  1.00  0.00    -0.077 C 
ATOM     10  C   UNL     1     -15.073 -30.811  28.357  1.00  0.00     0.008 C 
ATOM     11  C   UNL     1     -14.598 -32.733  26.909  1.00  0.00     0.039 C 
ENDBRANCH   5   9
TORSDOF 1
ENDMDL
MODEL 9
REMARK VINA RESULT:    -5.608      2.771      3.880
REMARK INTER + INTRA:          -6.028
REMARK INTER:                  -5.933
REMARK INTRA:                  -0.094
REMARK UNBOUND:                -0.092
REMARK SMILES C=C(C)[C@@H]1CC=C(C)C(=O)C1
REMARK SMILES IDX 8 1 7 2 6 3 5 4 4 5 11 6 9 7 10 8 2 9 1 10 3 11
REMARK H PARENT
REMARK Flexibility Score: inf
ROOT
ATOM      1  C   UNL     1     -12.512 -37.251  31.713  1.00  0.00     0.048 C 
ATOM      2  C   UNL     1     -12.764 -36.122  30.753  1.00  0.00    -0.012 C 
ATOM      3  C   UNL     1     -12.737 -34.851  31.193  1.00  0.00    -0.019 C 
ATOM      4  C   UNL     1     -12.964 -33.682  30.271  1.00  0.00     0.036 C 
ATOM      5  C   UNL     1     -13.947 -34.048  29.143  1.00  0.00     0.025 C 
ATOM      6  C   UNL     1     -13.454 -35.297  28.390  1.00  0.00     0.089 C 
ATOM      7  C   UNL     1     -13.161 -36.414  29.354  1.00  0.00     0.158 C 
ATOM      8  O   UNL     1     -13.221 -37.607  28.948  1.00  0.00    -0.295 OA
ENDROOT
BRANCH   5   9
ATOM      9  C   UNL     1     -14.178 -32.877  28.197  1.00  0.00    -0.077 C 
ATOM     10  C   UNL     1     -14.349 -31.627  28.661  1.00  0.00     0.008 C 
ATOM     11  C   UNL     1     -14.217 -33.105  26.708  1.00  0.00     0.039 C 
ENDBRANCH   5   9
TORSDOF 1
ENDMDL
