MODEL 1
REMARK VINA RESULT:    -4.220      0.000      0.000
REMARK INTER + INTRA:         -11.072
REMARK INTER:                  -8.168
REMARK INTRA:                  -2.904
REMARK UNBOUND:                -2.904
REMARK SMILES CCCCCC=CCC=CCCCCCCCCOC(C)=O
REMARK SMILES IDX 12 1 11 2 10 3 9 4 8 5 7 6 6 7 5 8 4 9 3 10 2 11 1 12 13 13
REMARK SMILES IDX 14 14 15 15 16 16 17 17 18 18 19 19 20 20 22 21 21 22
REMARK H PARENT
REMARK Flexibility Score: inf
ROOT
ATOM      1  C   UNL     1     -17.281 -21.279  12.540  1.00  0.00     0.004 C 
ENDROOT
BRANCH   1   2
ATOM      2  C   UNL     1     -15.973 -22.054  12.320  1.00  0.00     0.027 C 
BRANCH   2   3
ATOM      3  C   UNL     1     -14.974 -21.260  11.516  1.00  0.00    -0.031 C 
ATOM      4  C   UNL     1     -13.642 -21.454  11.550  1.00  0.00    -0.027 C 
BRANCH   4   5
ATOM      5  C   UNL     1     -12.949 -22.442  12.452  1.00  0.00     0.054 C 
BRANCH   5   6
ATOM      6  C   UNL     1     -12.450 -21.777  13.704  1.00  0.00    -0.027 C 
ATOM      7  C   UNL     1     -11.173 -21.383  13.807  1.00  0.00    -0.031 C 
BRANCH   7   8
ATOM      8  C   UNL     1     -10.645 -20.721  15.051  1.00  0.00     0.027 C 
BRANCH   8   9
ATOM      9  C   UNL     1     -11.733 -20.490  16.117  1.00  0.00     0.004 C 
BRANCH   9  10
ATOM     10  C   UNL     1     -11.812 -19.039  16.628  1.00  0.00     0.000 C 
BRANCH  10  11
ATOM     11  C   UNL     1     -10.514 -18.248  16.398  1.00  0.00    -0.003 C 
ATOM     12  C   UNL     1     -10.757 -17.046  15.489  1.00  0.00     0.004 C 
ENDBRANCH  10  11
ENDBRANCH   9  10
ENDBRANCH   8   9
ENDBRANCH   7   8
ENDBRANCH   5   6
ENDBRANCH   4   5
ENDBRANCH   2   3
ENDBRANCH   1   2
BRANCH   1  13
ATOM     13  C   UNL     1     -17.029 -19.849  13.051  1.00  0.00     0.000 C 
BRANCH  13  14
ATOM     14  C   UNL     1     -16.924 -19.780  14.582  1.00  0.00     0.000 C 
BRANCH  14  15
ATOM     15  C   UNL     1     -15.814 -18.826  15.059  1.00  0.00     0.000 C 
BRANCH  15  16
ATOM     16  C   UNL     1     -14.606 -18.802  14.109  1.00  0.00     0.003 C 
BRANCH  16  17
ATOM     17  C   UNL     1     -14.189 -17.375  13.723  1.00  0.00     0.042 C 
BRANCH  17  18
ATOM     18  C   UNL     1     -15.379 -16.411  13.673  1.00  0.00     0.233 C 
BRANCH  18  19
ATOM     19  O   UNL     1     -16.104 -16.548  12.450  1.00  0.00    -0.466 OA
BRANCH  19  20
ATOM     20  C   UNL     1     -15.515 -16.469  11.183  1.00  0.00     0.302 C 
ATOM     21  O   UNL     1     -15.115 -15.365  10.722  1.00  0.00    -0.253 OA
ATOM     22  C   UNL     1     -15.311 -17.715  10.391  1.00  0.00     0.139 C 
ENDBRANCH  19  20
ENDBRANCH  18  19
ENDBRANCH  17  18
ENDBRANCH  16  17
ENDBRANCH  15  16
ENDBRANCH  14  15
ENDBRANCH  13  14
ENDBRANCH   1  13
TORSDOF 16
ENDMDL
MODEL 2
REMARK VINA RESULT:    -4.118      1.713      2.405
REMARK INTER + INTRA:         -10.873
REMARK INTER:                  -8.734
REMARK INTRA:                  -2.140
REMARK UNBOUND:                -2.904
REMARK SMILES CCCCCC=CCC=CCCCCCCCCOC(C)=O
REMARK SMILES IDX 12 1 11 2 10 3 9 4 8 5 7 6 6 7 5 8 4 9 3 10 2 11 1 12 13 13
REMARK SMILES IDX 14 14 15 15 16 16 17 17 18 18 19 19 20 20 22 21 21 22
REMARK H PARENT
REMARK Flexibility Score: inf
ROOT
ATOM      1  C   UNL     1     -17.373 -19.465  12.903  1.00  0.00     0.004 C 
ENDROOT
BRANCH   1   2
ATOM      2  C   UNL     1     -16.774 -20.417  11.857  1.00  0.00     0.027 C 
BRANCH   2   3
ATOM      3  C   UNL     1     -16.351 -21.731  12.465  1.00  0.00    -0.031 C 
ATOM      4  C   UNL     1     -15.073 -22.131  12.604  1.00  0.00    -0.027 C 
BRANCH   4   5
ATOM      5  C   UNL     1     -13.880 -21.355  12.108  1.00  0.00     0.054 C 
BRANCH   5   6
ATOM      6  C   UNL     1     -13.107 -20.759  13.251  1.00  0.00    -0.027 C 
ATOM      7  C   UNL     1     -12.487 -21.545  14.141  1.00  0.00    -0.031 C 
BRANCH   7   8
ATOM      8  C   UNL     1     -11.712 -20.976  15.298  1.00  0.00     0.027 C 
BRANCH   8   9
ATOM      9  C   UNL     1     -12.348 -19.700  15.878  1.00  0.00     0.004 C 
BRANCH   9  10
ATOM     10  C   UNL     1     -11.354 -18.782  16.615  1.00  0.00     0.000 C 
BRANCH  10  11
ATOM     11  C   UNL     1     -10.610 -17.821  15.674  1.00  0.00    -0.003 C 
ATOM     12  C   UNL     1      -9.113 -18.119  15.657  1.00  0.00     0.004 C 
ENDBRANCH  10  11
ENDBRANCH   9  10
ENDBRANCH   8   9
ENDBRANCH   7   8
ENDBRANCH   5   6
ENDBRANCH   4   5
ENDBRANCH   2   3
ENDBRANCH   1   2
BRANCH   1  13
ATOM     13  C   UNL     1     -16.871 -19.776  14.325  1.00  0.00     0.000 C 
BRANCH  13  14
ATOM     14  C   UNL     1     -15.854 -18.742  14.831  1.00  0.00     0.000 C 
BRANCH  14  15
ATOM     15  C   UNL     1     -15.254 -17.895  13.695  1.00  0.00     0.000 C 
BRANCH  15  16
ATOM     16  C   UNL     1     -15.612 -16.405  13.816  1.00  0.00     0.003 C 
BRANCH  16  17
ATOM     17  C   UNL     1     -16.305 -15.863  12.557  1.00  0.00     0.042 C 
BRANCH  17  18
ATOM     18  C   UNL     1     -15.318 -15.224  11.574  1.00  0.00     0.233 C 
BRANCH  18  19
ATOM     19  O   UNL     1     -15.013 -13.880  11.949  1.00  0.00    -0.466 OA
BRANCH  19  20
ATOM     20  C   UNL     1     -13.771 -13.473  12.449  1.00  0.00     0.302 C 
ATOM     21  O   UNL     1     -12.768 -14.237  12.390  1.00  0.00    -0.253 OA
ATOM     22  C   UNL     1     -13.620 -12.100  13.009  1.00  0.00     0.139 C 
ENDBRANCH  19  20
ENDBRANCH  18  19
ENDBRANCH  17  18
ENDBRANCH  16  17
ENDBRANCH  15  16
ENDBRANCH  14  15
ENDBRANCH  13  14
ENDBRANCH   1  13
TORSDOF 16
ENDMDL
MODEL 3
REMARK VINA RESULT:    -4.059      2.560      4.103
REMARK INTER + INTRA:         -10.759
REMARK INTER:                  -7.076
REMARK INTRA:                  -3.683
REMARK UNBOUND:                -2.904
REMARK SMILES CCCCCC=CCC=CCCCCCCCCOC(C)=O
REMARK SMILES IDX 12 1 11 2 10 3 9 4 8 5 7 6 6 7 5 8 4 9 3 10 2 11 1 12 13 13
REMARK SMILES IDX 14 14 15 15 16 16 17 17 18 18 19 19 20 20 22 21 21 22
REMARK H PARENT
REMARK Flexibility Score: inf
ROOT
ATOM      1  C   UNL     1     -15.765 -19.082  14.914  1.00  0.00     0.004 C 
ENDROOT
BRANCH   1   2
ATOM      2  C   UNL     1     -17.042 -19.778  14.421  1.00  0.00     0.027 C 
BRANCH   2   3
ATOM      3  C   UNL     1     -17.134 -19.789  12.915  1.00  0.00    -0.031 C 
ATOM      4  C   UNL     1     -16.727 -20.807  12.134  1.00  0.00    -0.027 C 
BRANCH   4   5
ATOM      5  C   UNL     1     -16.053 -22.054  12.644  1.00  0.00     0.054 C 
BRANCH   5   6
ATOM      6  C   UNL     1     -14.577 -22.029  12.359  1.00  0.00    -0.027 C 
ATOM      7  C   UNL     1     -13.700 -21.729  13.326  1.00  0.00    -0.031 C 
BRANCH   7   8
ATOM      8  C   UNL     1     -12.218 -21.689  13.068  1.00  0.00     0.027 C 
BRANCH   8   9
ATOM      9  C   UNL     1     -11.455 -20.808  14.074  1.00  0.00     0.004 C 
BRANCH   9  10
ATOM     10  C   UNL     1     -11.924 -20.971  15.532  1.00  0.00     0.000 C 
BRANCH  10  11
ATOM     11  C   UNL     1     -12.137 -19.628  16.250  1.00  0.00    -0.003 C 
ATOM     12  C   UNL     1     -10.989 -18.664  15.964  1.00  0.00     0.004 C 
ENDBRANCH  10  11
ENDBRANCH   9  10
ENDBRANCH   8   9
ENDBRANCH   7   8
ENDBRANCH   5   6
ENDBRANCH   4   5
ENDBRANCH   2   3
ENDBRANCH   1   2
BRANCH   1  13
ATOM     13  C   UNL     1     -15.365 -17.900  14.013  1.00  0.00     0.000 C 
BRANCH  13  14
ATOM     14  C   UNL     1     -13.913 -17.999  13.520  1.00  0.00     0.000 C 
BRANCH  14  15
ATOM     15  C   UNL     1     -13.762 -17.609  12.039  1.00  0.00     0.000 C 
BRANCH  15  16
ATOM     16  C   UNL     1     -13.420 -18.809  11.142  1.00  0.00     0.003 C 
BRANCH  16  17
ATOM     17  C   UNL     1     -14.411 -18.976   9.980  1.00  0.00     0.042 C 
BRANCH  17  18
ATOM     18  C   UNL     1     -14.138 -20.239   9.156  1.00  0.00     0.233 C 
BRANCH  18  19
ATOM     19  O   UNL     1     -12.808 -20.715   9.366  1.00  0.00    -0.466 OA
BRANCH  19  20
ATOM     20  C   UNL     1     -12.454 -22.069   9.354  1.00  0.00     0.302 C 
ATOM     21  O   UNL     1     -11.274 -22.432   9.610  1.00  0.00    -0.253 OA
ATOM     22  C   UNL     1     -13.500 -23.097   9.086  1.00  0.00     0.139 C 
ENDBRANCH  19  20
ENDBRANCH  18  19
ENDBRANCH  17  18
ENDBRANCH  16  17
ENDBRANCH  15  16
ENDBRANCH  14  15
ENDBRANCH  13  14
ENDBRANCH   1  13
TORSDOF 16
ENDMDL
MODEL 4
REMARK VINA RESULT:    -4.046      1.343      2.943
REMARK INTER + INTRA:         -10.735
REMARK INTER:                  -7.466
REMARK INTRA:                  -3.269
REMARK UNBOUND:                -2.904
REMARK SMILES CCCCCC=CCC=CCCCCCCCCOC(C)=O
REMARK SMILES IDX 12 1 11 2 10 3 9 4 8 5 7 6 6 7 5 8 4 9 3 10 2 11 1 12 13 13
REMARK SMILES IDX 14 14 15 15 16 16 17 17 18 18 19 19 20 20 22 21 21 22
REMARK H PARENT
REMARK Flexibility Score: inf
ROOT
ATOM      1  C   UNL     1     -15.767 -19.089  14.877  1.00  0.00     0.004 C 
ENDROOT
BRANCH   1   2
ATOM      2  C   UNL     1     -16.991 -19.854  14.354  1.00  0.00     0.027 C 
BRANCH   2   3
ATOM      3  C   UNL     1     -17.053 -19.861  12.846  1.00  0.00    -0.031 C 
ATOM      4  C   UNL     1     -16.554 -20.840  12.068  1.00  0.00    -0.027 C 
BRANCH   4   5
ATOM      5  C   UNL     1     -15.798 -22.036  12.585  1.00  0.00     0.054 C 
BRANCH   5   6
ATOM      6  C   UNL     1     -14.327 -21.913  12.299  1.00  0.00    -0.027 C 
ATOM      7  C   UNL     1     -13.459 -21.651  13.285  1.00  0.00    -0.031 C 
BRANCH   7   8
ATOM      8  C   UNL     1     -11.982 -21.516  13.026  1.00  0.00     0.027 C 
BRANCH   8   9
ATOM      9  C   UNL     1     -11.251 -20.716  14.120  1.00  0.00     0.004 C 
BRANCH   9  10
ATOM     10  C   UNL     1     -11.738 -21.018  15.550  1.00  0.00     0.000 C 
BRANCH  10  11
ATOM     11  C   UNL     1     -12.024 -19.749  16.369  1.00  0.00    -0.003 C 
ATOM     12  C   UNL     1     -10.938 -18.698  16.151  1.00  0.00     0.004 C 
ENDBRANCH  10  11
ENDBRANCH   9  10
ENDBRANCH   8   9
ENDBRANCH   7   8
ENDBRANCH   5   6
ENDBRANCH   4   5
ENDBRANCH   2   3
ENDBRANCH   1   2
BRANCH   1  13
ATOM     13  C   UNL     1     -15.295 -18.006  13.890  1.00  0.00     0.000 C 
BRANCH  13  14
ATOM     14  C   UNL     1     -13.764 -17.931  13.784  1.00  0.00     0.000 C 
BRANCH  14  15
ATOM     15  C   UNL     1     -13.259 -18.112  12.342  1.00  0.00     0.000 C 
BRANCH  15  16
ATOM     16  C   UNL     1     -14.368 -17.908  11.297  1.00  0.00     0.003 C 
BRANCH  16  17
ATOM     17  C   UNL     1     -14.084 -16.722  10.362  1.00  0.00     0.042 C 
BRANCH  17  18
ATOM     18  C   UNL     1     -15.368 -16.040   9.877  1.00  0.00     0.233 C 
BRANCH  18  19
ATOM     19  O   UNL     1     -16.509 -16.869  10.099  1.00  0.00    -0.466 OA
BRANCH  19  20
ATOM     20  C   UNL     1     -17.512 -16.580  11.030  1.00  0.00     0.302 C 
ATOM     21  O   UNL     1     -18.545 -17.300  11.115  1.00  0.00    -0.253 OA
ATOM     22  C   UNL     1     -17.333 -15.437  11.970  1.00  0.00     0.139 C 
ENDBRANCH  19  20
ENDBRANCH  18  19
ENDBRANCH  17  18
ENDBRANCH  16  17
ENDBRANCH  15  16
ENDBRANCH  14  15
ENDBRANCH  13  14
ENDBRANCH   1  13
TORSDOF 16
ENDMDL
MODEL 5
REMARK VINA RESULT:    -4.018      2.659      5.430
REMARK INTER + INTRA:         -10.680
REMARK INTER:                  -8.669
REMARK INTRA:                  -2.011
REMARK UNBOUND:                -2.904
REMARK SMILES CCCCCC=CCC=CCCCCCCCCOC(C)=O
REMARK SMILES IDX 12 1 11 2 10 3 9 4 8 5 7 6 6 7 5 8 4 9 3 10 2 11 1 12 13 13
REMARK SMILES IDX 14 14 15 15 16 16 17 17 18 18 19 19 20 20 22 21 21 22
REMARK H PARENT
REMARK Flexibility Score: inf
ROOT
ATOM      1  C   UNL     1     -12.459 -22.281  11.913  1.00  0.00     0.004 C 
ENDROOT
BRANCH   1   2
ATOM      2  C   UNL     1     -13.977 -22.469  11.771  1.00  0.00     0.027 C 
BRANCH   2   3
ATOM      3  C   UNL     1     -14.577 -21.502  10.780  1.00  0.00    -0.031 C 
ATOM      4  C   UNL     1     -15.871 -21.131  10.765  1.00  0.00    -0.027 C 
BRANCH   4   5
ATOM      5  C   UNL     1     -16.925 -21.683  11.691  1.00  0.00     0.054 C 
BRANCH   5   6
ATOM      6  C   UNL     1     -16.714 -21.206  13.100  1.00  0.00    -0.027 C 
ATOM      7  C   UNL     1     -17.030 -19.952  13.452  1.00  0.00    -0.031 C 
BRANCH   7   8
ATOM      8  C   UNL     1     -16.823 -19.446  14.854  1.00  0.00     0.027 C 
BRANCH   8   9
ATOM      9  C   UNL     1     -15.469 -18.738  15.043  1.00  0.00     0.004 C 
BRANCH   9  10
ATOM     10  C   UNL     1     -15.035 -17.880  13.840  1.00  0.00     0.000 C 
BRANCH  10  11
ATOM     11  C   UNL     1     -15.763 -16.529  13.770  1.00  0.00    -0.003 C 
ATOM     12  C   UNL     1     -14.791 -15.397  13.445  1.00  0.00     0.004 C 
ENDBRANCH  10  11
ENDBRANCH   9  10
ENDBRANCH   8   9
ENDBRANCH   7   8
ENDBRANCH   5   6
ENDBRANCH   4   5
ENDBRANCH   2   3
ENDBRANCH   1   2
BRANCH   1  13
ATOM     13  C   UNL     1     -12.097 -20.894  12.475  1.00  0.00     0.000 C 
BRANCH  13  14
ATOM     14  C   UNL     1     -12.550 -20.711  13.931  1.00  0.00     0.000 C 
BRANCH  14  15
ATOM     15  C   UNL     1     -11.474 -21.138  14.945  1.00  0.00     0.000 C 
BRANCH  15  16
ATOM     16  C   UNL     1     -11.786 -20.666  16.374  1.00  0.00     0.003 C 
BRANCH  16  17
ATOM     17  C   UNL     1     -12.103 -19.164  16.441  1.00  0.00     0.042 C 
BRANCH  17  18
ATOM     18  C   UNL     1     -10.871 -18.321  16.785  1.00  0.00     0.233 C 
BRANCH  18  19
ATOM     19  O   UNL     1     -10.145 -17.964  15.608  1.00  0.00    -0.466 OA
BRANCH  19  20
ATOM     20  C   UNL     1      -8.781 -18.221  15.427  1.00  0.00     0.302 C 
ATOM     21  O   UNL     1      -7.918 -17.703  16.187  1.00  0.00    -0.253 OA
ATOM     22  C   UNL     1      -8.349 -19.161  14.354  1.00  0.00     0.139 C 
ENDBRANCH  19  20
ENDBRANCH  18  19
ENDBRANCH  17  18
ENDBRANCH  16  17
ENDBRANCH  15  16
ENDBRANCH  14  15
ENDBRANCH  13  14
ENDBRANCH   1  13
TORSDOF 16
ENDMDL
MODEL 6
REMARK VINA RESULT:    -3.973      2.207      5.626
REMARK INTER + INTRA:         -10.594
REMARK INTER:                  -7.777
REMARK INTRA:                  -2.817
REMARK UNBOUND:                -2.904
REMARK SMILES CCCCCC=CCC=CCCCCCCCCOC(C)=O
REMARK SMILES IDX 12 1 11 2 10 3 9 4 8 5 7 6 6 7 5 8 4 9 3 10 2 11 1 12 13 13
REMARK SMILES IDX 14 14 15 15 16 16 17 17 18 18 19 19 20 20 22 21 21 22
REMARK H PARENT
REMARK Flexibility Score: inf
ROOT
ATOM      1  C   UNL     1     -12.924 -19.274  15.755  1.00  0.00     0.004 C 
ENDROOT
BRANCH   1   2
ATOM      2  C   UNL     1     -11.485 -19.474  16.252  1.00  0.00     0.027 C 
BRANCH   2   3
ATOM      3  C   UNL     1     -10.856 -18.179  16.704  1.00  0.00    -0.031 C 
ATOM      4  C   UNL     1     -10.120 -17.373  15.915  1.00  0.00    -0.027 C 
BRANCH   4   5
ATOM      5  C   UNL     1      -9.756 -17.683  14.486  1.00  0.00     0.054 C 
BRANCH   5   6
ATOM      6  C   UNL     1     -10.741 -17.073  13.530  1.00  0.00    -0.027 C 
ATOM      7  C   UNL     1     -11.590 -16.120  13.939  1.00  0.00    -0.031 C 
BRANCH   7   8
ATOM      8  C   UNL     1     -12.592 -15.496  13.005  1.00  0.00     0.027 C 
BRANCH   8   9
ATOM      9  C   UNL     1     -13.998 -15.379  13.623  1.00  0.00     0.004 C 
BRANCH   9  10
ATOM     10  C   UNL     1     -15.092 -14.970  12.619  1.00  0.00     0.000 C 
BRANCH  10  11
ATOM     11  C   UNL     1     -16.307 -15.911  12.636  1.00  0.00    -0.003 C 
ATOM     12  C   UNL     1     -16.332 -16.799  11.395  1.00  0.00     0.004 C 
ENDBRANCH  10  11
ENDBRANCH   9  10
ENDBRANCH   8   9
ENDBRANCH   7   8
ENDBRANCH   5   6
ENDBRANCH   4   5
ENDBRANCH   2   3
ENDBRANCH   1   2
BRANCH   1  13
ATOM     13  C   UNL     1     -13.080 -19.642  14.269  1.00  0.00     0.000 C 
BRANCH  13  14
ATOM     14  C   UNL     1     -14.389 -19.112  13.664  1.00  0.00     0.000 C 
BRANCH  14  15
ATOM     15  C   UNL     1     -15.434 -18.753  14.736  1.00  0.00     0.000 C 
BRANCH  15  16
ATOM     16  C   UNL     1     -16.712 -19.600  14.625  1.00  0.00     0.003 C 
BRANCH  16  17
ATOM     17  C   UNL     1     -17.089 -19.908  13.168  1.00  0.00     0.042 C 
BRANCH  17  18
ATOM     18  C   UNL     1     -17.086 -21.410  12.867  1.00  0.00     0.233 C 
BRANCH  18  19
ATOM     19  O   UNL     1     -16.331 -21.700  11.690  1.00  0.00    -0.466 OA
BRANCH  19  20
ATOM     20  C   UNL     1     -15.010 -22.161  11.707  1.00  0.00     0.302 C 
ATOM     21  O   UNL     1     -14.467 -22.533  12.783  1.00  0.00    -0.253 OA
ATOM     22  C   UNL     1     -14.253 -22.264  10.427  1.00  0.00     0.139 C 
ENDBRANCH  19  20
ENDBRANCH  18  19
ENDBRANCH  17  18
ENDBRANCH  16  17
ENDBRANCH  15  16
ENDBRANCH  14  15
ENDBRANCH  13  14
ENDBRANCH   1  13
TORSDOF 16
ENDMDL
MODEL 7
REMARK VINA RESULT:    -3.940      2.258      5.297
REMARK INTER + INTRA:         -10.529
REMARK INTER:                  -7.810
REMARK INTRA:                  -2.720
REMARK UNBOUND:                -2.904
REMARK SMILES CCCCCC=CCC=CCCCCCCCCOC(C)=O
REMARK SMILES IDX 12 1 11 2 10 3 9 4 8 5 7 6 6 7 5 8 4 9 3 10 2 11 1 12 13 13
REMARK SMILES IDX 14 14 15 15 16 16 17 17 18 18 19 19 20 20 22 21 21 22
REMARK H PARENT
REMARK Flexibility Score: inf
ROOT
ATOM      1  C   UNL     1     -13.564 -21.047  11.146  1.00  0.00     0.004 C 
ENDROOT
BRANCH   1   2
ATOM      2  C   UNL     1     -14.731 -21.980  11.499  1.00  0.00     0.027 C 
BRANCH   2   3
ATOM      3  C   UNL     1     -16.060 -21.415  11.062  1.00  0.00    -0.031 C 
ATOM      4  C   UNL     1     -17.053 -21.065  11.901  1.00  0.00    -0.027 C 
BRANCH   4   5
ATOM      5  C   UNL     1     -17.010 -21.255  13.396  1.00  0.00     0.054 C 
BRANCH   5   6
ATOM      6  C   UNL     1     -16.830 -19.942  14.105  1.00  0.00    -0.027 C 
ATOM      7  C   UNL     1     -15.754 -19.180  13.869  1.00  0.00    -0.031 C 
BRANCH   7   8
ATOM      8  C   UNL     1     -15.545 -17.865  14.569  1.00  0.00     0.027 C 
BRANCH   8   9
ATOM      9  C   UNL     1     -15.621 -16.657  13.616  1.00  0.00     0.004 C 
BRANCH   9  10
ATOM     10  C   UNL     1     -15.779 -17.037  12.132  1.00  0.00     0.000 C 
BRANCH  10  11
ATOM     11  C   UNL     1     -17.082 -16.509  11.511  1.00  0.00    -0.003 C 
ATOM     12  C   UNL     1     -18.183 -17.564  11.563  1.00  0.00     0.004 C 
ENDBRANCH  10  11
ENDBRANCH   9  10
ENDBRANCH   8   9
ENDBRANCH   7   8
ENDBRANCH   5   6
ENDBRANCH   4   5
ENDBRANCH   2   3
ENDBRANCH   1   2
BRANCH   1  13
ATOM     13  C   UNL     1     -12.386 -21.196  12.127  1.00  0.00     0.000 C 
BRANCH  13  14
ATOM     14  C   UNL     1     -12.824 -21.739  13.496  1.00  0.00     0.000 C 
BRANCH  14  15
ATOM     15  C   UNL     1     -11.951 -21.214  14.649  1.00  0.00     0.000 C 
BRANCH  15  16
ATOM     16  C   UNL     1     -12.413 -19.841  15.164  1.00  0.00     0.003 C 
BRANCH  16  17
ATOM     17  C   UNL     1     -11.900 -19.542  16.581  1.00  0.00     0.042 C 
BRANCH  17  18
ATOM     18  C   UNL     1     -10.921 -18.363  16.611  1.00  0.00     0.233 C 
BRANCH  18  19
ATOM     19  O   UNL     1     -10.680 -17.858  15.297  1.00  0.00    -0.466 OA
BRANCH  19  20
ATOM     20  C   UNL     1     -10.934 -16.537  14.912  1.00  0.00     0.302 C 
ATOM     21  O   UNL     1     -10.448 -15.569  15.560  1.00  0.00    -0.253 OA
ATOM     22  C   UNL     1     -11.744 -16.272  13.690  1.00  0.00     0.139 C 
ENDBRANCH  19  20
ENDBRANCH  18  19
ENDBRANCH  17  18
ENDBRANCH  16  17
ENDBRANCH  15  16
ENDBRANCH  14  15
ENDBRANCH  13  14
ENDBRANCH   1  13
TORSDOF 16
ENDMDL
MODEL 8
REMARK VINA RESULT:    -3.936     12.842     15.554
REMARK INTER + INTRA:         -10.522
REMARK INTER:                  -8.044
REMARK INTRA:                  -2.478
REMARK UNBOUND:                -2.904
REMARK SMILES CCCCCC=CCC=CCCCCCCCCOC(C)=O
REMARK SMILES IDX 12 1 11 2 10 3 9 4 8 5 7 6 6 7 5 8 4 9 3 10 2 11 1 12 13 13
REMARK SMILES IDX 14 14 15 15 16 16 17 17 18 18 19 19 20 20 22 21 21 22
REMARK H PARENT
REMARK Flexibility Score: inf
ROOT
ATOM      1  C   UNL     1     -18.765 -11.438  -0.601  1.00  0.00     0.004 C 
ENDROOT
BRANCH   1   2
ATOM      2  C   UNL     1     -18.632 -12.079  -1.991  1.00  0.00     0.027 C 
BRANCH   2   3
ATOM      3  C   UNL     1     -19.911 -12.749  -2.430  1.00  0.00    -0.031 C 
ATOM      4  C   UNL     1     -20.083 -14.081  -2.512  1.00  0.00    -0.027 C 
BRANCH   4   5
ATOM      5  C   UNL     1     -19.002 -15.098  -2.247  1.00  0.00     0.054 C 
BRANCH   5   6
ATOM      6  C   UNL     1     -19.196 -15.760  -0.912  1.00  0.00    -0.027 C 
ATOM      7  C   UNL     1     -18.824 -15.142   0.218  1.00  0.00    -0.031 C 
BRANCH   7   8
ATOM      8  C   UNL     1     -18.999 -15.784   1.567  1.00  0.00     0.027 C 
BRANCH   8   9
ATOM      9  C   UNL     1     -18.486 -14.904   2.722  1.00  0.00     0.004 C 
BRANCH   9  10
ATOM     10  C   UNL     1     -18.340 -13.414   2.360  1.00  0.00     0.000 C 
BRANCH  10  11
ATOM     11  C   UNL     1     -19.010 -12.479   3.380  1.00  0.00    -0.003 C 
ATOM     12  C   UNL     1     -17.969 -11.692   4.171  1.00  0.00     0.004 C 
ENDBRANCH  10  11
ENDBRANCH   9  10
ENDBRANCH   8   9
ENDBRANCH   7   8
ENDBRANCH   5   6
ENDBRANCH   4   5
ENDBRANCH   2   3
ENDBRANCH   1   2
BRANCH   1  13
ATOM     13  C   UNL     1     -20.230 -11.367  -0.134  1.00  0.00     0.000 C 
BRANCH  13  14
ATOM     14  C   UNL     1     -20.549 -10.061   0.609  1.00  0.00     0.000 C 
BRANCH  14  15
ATOM     15  C   UNL     1     -19.290  -9.228   0.912  1.00  0.00     0.000 C 
BRANCH  15  16
ATOM     16  C   UNL     1     -19.298  -8.636   2.331  1.00  0.00     0.003 C 
BRANCH  16  17
ATOM     17  C   UNL     1     -17.895  -8.237   2.810  1.00  0.00     0.042 C 
BRANCH  17  18
ATOM     18  C   UNL     1     -17.900  -7.688   4.241  1.00  0.00     0.233 C 
BRANCH  18  19
ATOM     19  O   UNL     1     -19.216  -7.699   4.793  1.00  0.00    -0.466 OA
BRANCH  19  20
ATOM     20  C   UNL     1     -19.517  -8.164   6.078  1.00  0.00     0.302 C 
ATOM     21  O   UNL     1     -20.707  -8.184   6.498  1.00  0.00    -0.253 OA
ATOM     22  C   UNL     1     -18.423  -8.691   6.942  1.00  0.00     0.139 C 
ENDBRANCH  19  20
ENDBRANCH  18  19
ENDBRANCH  17  18
ENDBRANCH  16  17
ENDBRANCH  15  16
ENDBRANCH  14  15
ENDBRANCH  13  14
ENDBRANCH   1  13
TORSDOF 16
ENDMDL
MODEL 9
REMARK VINA RESULT:    -3.890      1.331      3.441
REMARK INTER + INTRA:         -10.433
REMARK INTER:                  -7.265
REMARK INTRA:                  -3.169
REMARK UNBOUND:                -2.904
REMARK SMILES CCCCCC=CCC=CCCCCCCCCOC(C)=O
REMARK SMILES IDX 12 1 11 2 10 3 9 4 8 5 7 6 6 7 5 8 4 9 3 10 2 11 1 12 13 13
REMARK SMILES IDX 14 14 15 15 16 16 17 17 18 18 19 19 20 20 22 21 21 22
REMARK H PARENT
REMARK Flexibility Score: inf
ROOT
ATOM      1  C   UNL     1     -15.205 -22.129  11.807  1.00  0.00     0.004 C 
ENDROOT
BRANCH   1   2
ATOM      2  C   UNL     1     -16.455 -21.778  12.628  1.00  0.00     0.027 C 
BRANCH   2   3
ATOM      3  C   UNL     1     -16.984 -20.405  12.294  1.00  0.00    -0.031 C 
ATOM      4  C   UNL     1     -17.065 -19.386  13.170  1.00  0.00    -0.027 C 
BRANCH   4   5
ATOM      5  C   UNL     1     -16.705 -19.488  14.630  1.00  0.00     0.054 C 
BRANCH   5   6
ATOM      6  C   UNL     1     -15.414 -18.776  14.922  1.00  0.00    -0.027 C 
ATOM      7  C   UNL     1     -14.271 -19.462  15.058  1.00  0.00    -0.031 C 
BRANCH   7   8
ATOM      8  C   UNL     1     -12.966 -18.776  15.358  1.00  0.00     0.027 C 
BRANCH   8   9
ATOM      9  C   UNL     1     -11.880 -19.745  15.862  1.00  0.00     0.004 C 
BRANCH   9  10
ATOM     10  C   UNL     1     -10.659 -19.860  14.929  1.00  0.00     0.000 C 
BRANCH  10  11
ATOM     11  C   UNL     1     -10.239 -21.314  14.664  1.00  0.00    -0.003 C 
ATOM     12  C   UNL     1      -8.993 -21.375  13.785  1.00  0.00     0.004 C 
ENDBRANCH  10  11
ENDBRANCH   9  10
ENDBRANCH   8   9
ENDBRANCH   7   8
ENDBRANCH   5   6
ENDBRANCH   4   5
ENDBRANCH   2   3
ENDBRANCH   1   2
BRANCH   1  13
ATOM     13  C   UNL     1     -13.920 -22.067  12.652  1.00  0.00     0.000 C 
BRANCH  13  14
ATOM     14  C   UNL     1     -12.755 -21.399  11.906  1.00  0.00     0.000 C 
BRANCH  14  15
ATOM     15  C   UNL     1     -12.900 -19.868  11.829  1.00  0.00     0.000 C 
BRANCH  15  16
ATOM     16  C   UNL     1     -13.518 -19.398  10.502  1.00  0.00     0.003 C 
BRANCH  16  17
ATOM     17  C   UNL     1     -14.488 -18.222  10.689  1.00  0.00     0.042 C 
BRANCH  17  18
ATOM     18  C   UNL     1     -14.029 -17.254  11.784  1.00  0.00     0.233 C 
BRANCH  18  19
ATOM     19  O   UNL     1     -14.803 -16.054  11.770  1.00  0.00    -0.466 OA
BRANCH  19  20
ATOM     20  C   UNL     1     -15.960 -15.865  12.534  1.00  0.00     0.302 C 
ATOM     21  O   UNL     1     -15.889 -15.636  13.772  1.00  0.00    -0.253 OA
ATOM     22  C   UNL     1     -17.292 -15.882  11.863  1.00  0.00     0.139 C 
ENDBRANCH  19  20
ENDBRANCH  18  19
ENDBRANCH  17  18
ENDBRANCH  16  17
ENDBRANCH  15  16
ENDBRANCH  14  15
ENDBRANCH  13  14
ENDBRANCH   1  13
TORSDOF 16
ENDMDL
