MODEL 1
REMARK VINA RESULT:    -5.979      0.000      0.000
REMARK INTER + INTRA:          -9.398
REMARK INTER:                  -8.251
REMARK INTRA:                  -1.147
REMARK UNBOUND:                -1.147
REMARK SMILES C[C@H]1OC(=O)[C@H](C)[C@H]1C[C@H](O)[C@](C)(O)[C@@H]1CC[C@@]2(O)C3=CC(=O)[C@@H]4C[C@@H](O)[C@@H](O)C[C@]4(C)[C@H]3CC[C@@]12C
REMARK SMILES IDX 12 1 13 2 10 3 9 4 8 5 7 6 6 7 4 8 2 9 3 10 5 11 1 12 11 13
REMARK SMILES IDX 15 15 16 16 36 17 17 18 18 19 35 20 37 21 20 22 34 23 33 24
REMARK SMILES IDX 21 25 31 26 22 27 24 28 30 29 32 30 23 31 25 32 28 33 26 34
REMARK SMILES IDX 19 35 29 37 27 39 14 41
REMARK H PARENT 11 14 19 36 29 38 27 40 14 42
REMARK Flexibility Score: inf
ROOT
ATOM      1  C   UNL     1      -2.196  36.899  41.154  1.00  0.00     0.091 C 
ATOM      2  C   UNL     1      -1.063  37.825  40.638  1.00  0.00     0.045 C 
ENDROOT
BRANCH   1   3
ATOM      3  C   UNL     1      -3.427  37.814  41.580  1.00  0.00     0.146 C 
BRANCH   3   4
ATOM      4  C   UNL     1      -3.985  37.679  43.041  1.00  0.00     0.043 C 
BRANCH   4   5
ATOM      5  C   UNL     1      -5.520  37.393  43.186  1.00  0.00     0.046 C 
ATOM      6  C   UNL     1      -6.659  39.706  43.294  1.00  0.00     0.020 C 
ATOM      7  C   UNL     1      -6.257  38.444  44.061  1.00  0.00     0.103 C 
ATOM      8  C   UNL     1      -7.434  37.656  44.520  1.00  0.00     0.309 C 
ATOM      9  C   UNL     1      -6.001  36.021  43.757  1.00  0.00     0.177 C 
ATOM     10  O   UNL     1      -7.298  36.308  44.259  1.00  0.00    -0.462 OA
ATOM     11  O   UNL     1      -8.446  38.148  45.078  1.00  0.00    -0.252 OA
ATOM     12  C   UNL     1      -5.181  35.419  44.925  1.00  0.00     0.053 C 
ENDBRANCH   4   5
ENDBRANCH   3   4
BRANCH   3  13
ATOM     13  O   UNL     1      -4.460  37.861  40.624  1.00  0.00    -0.390 OA
ATOM     14  H   UNL     1      -4.926  38.737  40.697  1.00  0.00     0.211 HD
ENDBRANCH   3  13
ENDBRANCH   1   3
BRANCH   1  15
ATOM     15  C   UNL     1      -1.624  36.037  42.375  1.00  0.00     0.032 C 
ATOM     16  C   UNL     1      -0.062  35.988  42.398  1.00  0.00     0.010 C 
ATOM     17  C   UNL     1      -2.013  34.508  42.531  1.00  0.00     0.006 C 
ATOM     18  C   UNL     1       0.386  34.546  42.131  1.00  0.00     0.041 C 
ATOM     19  C   UNL     1      -0.877  33.741  41.813  1.00  0.00     0.092 C 
ATOM     20  C   UNL     1      -1.919  34.160  44.061  1.00  0.00     0.011 C 
ATOM     21  C   UNL     1      -3.390  34.079  41.955  1.00  0.00     0.015 C 
ATOM     22  C   UNL     1      -0.726  32.281  42.285  1.00  0.00    -0.031 C 
ATOM     23  C   UNL     1      -2.280  32.708  44.351  1.00  0.00     0.009 C 
ATOM     24  C   UNL     1      -1.493  31.680  43.477  1.00  0.00     0.025 C 
ATOM     25  C   UNL     1       0.117  31.495  41.575  1.00  0.00     0.050 C 
ATOM     26  C   UNL     1      -0.561  30.690  44.293  1.00  0.00    -0.013 C 
ATOM     27  C   UNL     1       0.405  30.111  41.963  1.00  0.00     0.159 C 
ATOM     28  C   UNL     1      -0.055  29.558  43.298  1.00  0.00     0.070 C 
ATOM     29  C   UNL     1      -1.319  30.049  45.534  1.00  0.00     0.042 C 
ATOM     30  C   UNL     1       0.686  31.462  44.848  1.00  0.00     0.013 C 
ATOM     31  O   UNL     1       1.165  29.419  41.228  1.00  0.00    -0.295 OA
ATOM     32  C   UNL     1      -1.097  28.418  43.153  1.00  0.00     0.047 C 
ATOM     33  C   UNL     1      -0.940  28.575  45.762  1.00  0.00     0.143 C 
ATOM     34  C   UNL     1      -1.385  27.741  44.530  1.00  0.00     0.143 C 
BRANCH  19  35
ATOM     35  O   UNL     1      -1.062  33.795  40.411  1.00  0.00    -0.385 OA
ATOM     36  H   UNL     1      -0.544  34.551  40.031  1.00  0.00     0.211 HD
ENDBRANCH  19  35
BRANCH  33  37
ATOM     37  O   UNL     1       0.445  28.470  45.976  1.00  0.00    -0.390 OA
ATOM     38  H   UNL     1       0.789  27.955  45.189  1.00  0.00     0.211 HD
ENDBRANCH  33  37
BRANCH  34  39
ATOM     39  O   UNL     1      -0.899  26.431  44.613  1.00  0.00    -0.390 OA
ATOM     40  H   UNL     1      -0.354  26.370  45.431  1.00  0.00     0.211 HD
ENDBRANCH  34  39
ENDBRANCH   1  15
BRANCH   1  41
ATOM     41  O   UNL     1      -2.514  36.012  40.116  1.00  0.00    -0.387 OA
ATOM     42  H   UNL     1      -3.342  36.305  39.650  1.00  0.00     0.211 HD
ENDBRANCH   1  41
TORSDOF 9
ENDMDL
MODEL 2
REMARK VINA RESULT:    -5.897      1.602      2.128
REMARK INTER + INTRA:          -9.285
REMARK INTER:                  -8.656
REMARK INTRA:                  -0.629
REMARK UNBOUND:                -1.147
REMARK SMILES C[C@H]1OC(=O)[C@H](C)[C@H]1C[C@H](O)[C@](C)(O)[C@@H]1CC[C@@]2(O)C3=CC(=O)[C@@H]4C[C@@H](O)[C@@H](O)C[C@]4(C)[C@H]3CC[C@@]12C
REMARK SMILES IDX 12 1 13 2 10 3 9 4 8 5 7 6 6 7 4 8 2 9 3 10 5 11 1 12 11 13
REMARK SMILES IDX 15 15 16 16 36 17 17 18 18 19 35 20 37 21 20 22 34 23 33 24
REMARK SMILES IDX 21 25 31 26 22 27 24 28 30 29 32 30 23 31 25 32 28 33 26 34
REMARK SMILES IDX 19 35 29 37 27 39 14 41
REMARK H PARENT 11 14 19 36 29 38 27 40 14 42
REMARK Flexibility Score: inf
ROOT
ATOM      1  C   UNL     1      -3.317  35.909  41.508  1.00  0.00     0.091 C 
ATOM      2  C   UNL     1      -3.364  36.119  39.972  1.00  0.00     0.045 C 
ENDROOT
BRANCH   1   3
ATOM      3  C   UNL     1      -3.761  37.270  42.207  1.00  0.00     0.146 C 
BRANCH   3   4
ATOM      4  C   UNL     1      -4.402  37.198  43.638  1.00  0.00     0.043 C 
BRANCH   4   5
ATOM      5  C   UNL     1      -5.961  37.040  43.704  1.00  0.00     0.046 C 
ATOM      6  C   UNL     1      -6.914  39.437  43.638  1.00  0.00     0.020 C 
ATOM      7  C   UNL     1      -6.658  38.188  44.485  1.00  0.00     0.103 C 
ATOM      8  C   UNL     1      -7.919  37.518  44.909  1.00  0.00     0.309 C 
ATOM      9  C   UNL     1      -6.582  35.740  44.309  1.00  0.00     0.177 C 
ATOM     10  O   UNL     1      -7.878  36.152  44.719  1.00  0.00    -0.462 OA
ATOM     11  O   UNL     1      -8.917  38.115  45.383  1.00  0.00    -0.252 OA
ATOM     12  C   UNL     1      -5.879  35.137  45.549  1.00  0.00     0.053 C 
ENDBRANCH   4   5
ENDBRANCH   3   4
BRANCH   3  13
ATOM     13  O   UNL     1      -4.466  38.143  41.357  1.00  0.00    -0.390 OA
ATOM     14  H   UNL     1      -5.443  38.009  41.496  1.00  0.00     0.211 HD
ENDBRANCH   3  13
ENDBRANCH   1   3
BRANCH   1  15
ATOM     15  C   UNL     1      -1.832  35.472  41.912  1.00  0.00     0.032 C 
ATOM     16  C   UNL     1      -1.019  34.912  40.700  1.00  0.00     0.010 C 
ATOM     17  C   UNL     1      -1.593  34.365  43.021  1.00  0.00     0.006 C 
ATOM     18  C   UNL     1      -0.734  33.426  40.948  1.00  0.00     0.041 C 
ATOM     19  C   UNL     1      -1.476  33.041  42.231  1.00  0.00     0.092 C 
ATOM     20  C   UNL     1      -0.188  34.651  43.666  1.00  0.00     0.011 C 
ATOM     21  C   UNL     1      -2.684  34.235  44.118  1.00  0.00     0.015 C 
ATOM     22  C   UNL     1      -0.714  31.935  42.990  1.00  0.00    -0.031 C 
ATOM     23  C   UNL     1       0.162  33.653  44.764  1.00  0.00     0.009 C 
ATOM     24  C   UNL     1       0.024  32.162  44.322  1.00  0.00     0.025 C 
ATOM     25  C   UNL     1      -0.734  30.696  42.445  1.00  0.00     0.050 C 
ATOM     26  C   UNL     1       1.374  31.331  44.355  1.00  0.00    -0.013 C 
ATOM     27  C   UNL     1       0.011  29.577  43.028  1.00  0.00     0.159 C 
ATOM     28  C   UNL     1       1.014  29.797  44.145  1.00  0.00     0.070 C 
ATOM     29  C   UNL     1       2.166  31.540  45.717  1.00  0.00     0.042 C 
ATOM     30  C   UNL     1       2.314  31.790  43.187  1.00  0.00     0.013 C 
ATOM     31  O   UNL     1      -0.090  28.436  42.495  1.00  0.00    -0.295 OA
ATOM     32  C   UNL     1       0.595  29.121  45.476  1.00  0.00     0.047 C 
ATOM     33  C   UNL     1       2.840  30.248  46.214  1.00  0.00     0.143 C 
ATOM     34  C   UNL     1       1.744  29.194  46.530  1.00  0.00     0.143 C 
BRANCH  19  35
ATOM     35  O   UNL     1      -2.760  32.586  41.847  1.00  0.00    -0.385 OA
ATOM     36  H   UNL     1      -2.868  31.631  42.095  1.00  0.00     0.211 HD
ENDBRANCH  19  35
BRANCH  33  37
ATOM     37  O   UNL     1       3.736  29.777  45.239  1.00  0.00    -0.390 OA
ATOM     38  H   UNL     1       3.216  29.793  44.383  1.00  0.00     0.211 HD
ENDBRANCH  33  37
BRANCH  34  39
ATOM     39  O   UNL     1       2.316  27.949  46.810  1.00  0.00    -0.390 OA
ATOM     40  H   UNL     1       3.163  28.114  47.285  1.00  0.00     0.211 HD
ENDBRANCH  34  39
ENDBRANCH   1  15
BRANCH   1  41
ATOM     41  O   UNL     1      -4.175  34.842  41.810  1.00  0.00    -0.387 OA
ATOM     42  H   UNL     1      -5.121  35.099  41.647  1.00  0.00     0.211 HD
ENDBRANCH   1  41
TORSDOF 9
ENDMDL
MODEL 3
REMARK VINA RESULT:    -5.896      9.693     12.991
REMARK INTER + INTRA:          -9.284
REMARK INTER:                  -8.716
REMARK INTRA:                  -0.568
REMARK UNBOUND:                -1.147
REMARK SMILES C[C@H]1OC(=O)[C@H](C)[C@H]1C[C@H](O)[C@](C)(O)[C@@H]1CC[C@@]2(O)C3=CC(=O)[C@@H]4C[C@@H](O)[C@@H](O)C[C@]4(C)[C@H]3CC[C@@]12C
REMARK SMILES IDX 12 1 13 2 10 3 9 4 8 5 7 6 6 7 4 8 2 9 3 10 5 11 1 12 11 13
REMARK SMILES IDX 15 15 16 16 36 17 17 18 18 19 35 20 37 21 20 22 34 23 33 24
REMARK SMILES IDX 21 25 31 26 22 27 24 28 30 29 32 30 23 31 25 32 28 33 26 34
REMARK SMILES IDX 19 35 29 37 27 39 14 41
REMARK H PARENT 11 14 19 36 29 38 27 40 14 42
REMARK Flexibility Score: inf
ROOT
ATOM      1  C   UNL     1      -7.154  27.129  54.698  1.00  0.00     0.091 C 
ATOM      2  C   UNL     1      -7.408  25.856  55.549  1.00  0.00     0.045 C 
ENDROOT
BRANCH   1   3
ATOM      3  C   UNL     1      -8.092  28.290  55.254  1.00  0.00     0.146 C 
BRANCH   3   4
ATOM      4  C   UNL     1      -7.949  28.706  56.760  1.00  0.00     0.043 C 
BRANCH   4   5
ATOM      5  C   UNL     1      -6.993  29.909  57.071  1.00  0.00     0.046 C 
ATOM      6  C   UNL     1      -4.921  28.885  58.219  1.00  0.00     0.020 C 
ATOM      7  C   UNL     1      -6.189  29.727  58.387  1.00  0.00     0.103 C 
ATOM      8  C   UNL     1      -5.890  31.144  58.736  1.00  0.00     0.309 C 
ATOM      9  C   UNL     1      -7.579  31.354  57.182  1.00  0.00     0.177 C 
ATOM     10  O   UNL     1      -6.625  32.037  57.983  1.00  0.00    -0.462 OA
ATOM     11  O   UNL     1      -5.062  31.502  59.611  1.00  0.00    -0.252 OA
ATOM     12  C   UNL     1      -8.953  31.503  57.880  1.00  0.00     0.053 C 
ENDBRANCH   4   5
ENDBRANCH   3   4
BRANCH   3  13
ATOM     13  O   UNL     1      -9.440  28.167  54.867  1.00  0.00    -0.390 OA
ATOM     14  H   UNL     1      -9.510  28.331  53.887  1.00  0.00     0.211 HD
ENDBRANCH   3  13
ENDBRANCH   1   3
BRANCH   1  15
ATOM     15  C   UNL     1      -7.457  26.780  53.167  1.00  0.00     0.032 C 
ATOM     16  C   UNL     1      -6.639  25.549  52.657  1.00  0.00     0.010 C 
ATOM     17  C   UNL     1      -7.196  27.854  52.031  1.00  0.00     0.006 C 
ATOM     18  C   UNL     1      -5.651  26.028  51.586  1.00  0.00     0.041 C 
ATOM     19  C   UNL     1      -5.763  27.555  51.532  1.00  0.00     0.092 C 
ATOM     20  C   UNL     1      -8.181  27.527  50.849  1.00  0.00     0.011 C 
ATOM     21  C   UNL     1      -7.314  29.346  52.445  1.00  0.00     0.015 C 
ATOM     22  C   UNL     1      -5.486  28.071  50.105  1.00  0.00    -0.031 C 
ATOM     23  C   UNL     1      -8.036  28.501  49.685  1.00  0.00     0.009 C 
ATOM     24  C   UNL     1      -6.567  28.663  49.183  1.00  0.00     0.025 C 
ATOM     25  C   UNL     1      -4.204  28.014  49.674  1.00  0.00     0.050 C 
ATOM     26  C   UNL     1      -6.324  28.208  47.683  1.00  0.00    -0.013 C 
ATOM     27  C   UNL     1      -3.822  28.404  48.314  1.00  0.00     0.159 C 
ATOM     28  C   UNL     1      -4.869  28.685  47.254  1.00  0.00     0.070 C 
ATOM     29  C   UNL     1      -7.421  28.800  46.698  1.00  0.00     0.042 C 
ATOM     30  C   UNL     1      -6.389  26.645  47.579  1.00  0.00     0.013 C 
ATOM     31  O   UNL     1      -2.600  28.371  47.993  1.00  0.00    -0.295 OA
ATOM     32  C   UNL     1      -4.868  30.162  46.780  1.00  0.00     0.047 C 
ATOM     33  C   UNL     1      -6.835  29.211  45.336  1.00  0.00     0.143 C 
ATOM     34  C   UNL     1      -5.810  30.359  45.551  1.00  0.00     0.143 C 
BRANCH  19  35
ATOM     35  O   UNL     1      -4.811  28.073  52.442  1.00  0.00    -0.385 OA
ATOM     36  H   UNL     1      -4.643  29.031  52.246  1.00  0.00     0.211 HD
ENDBRANCH  19  35
BRANCH  33  37
ATOM     37  O   UNL     1      -6.234  28.098  44.724  1.00  0.00    -0.390 OA
ATOM     38  H   UNL     1      -5.449  28.471  44.226  1.00  0.00     0.211 HD
ENDBRANCH  33  37
BRANCH  34  39
ATOM     39  O   UNL     1      -5.120  30.638  44.366  1.00  0.00    -0.390 OA
ATOM     40  H   UNL     1      -5.782  30.943  43.704  1.00  0.00     0.211 HD
ENDBRANCH  34  39
ENDBRANCH   1  15
BRANCH   1  41
ATOM     41  O   UNL     1      -5.791  27.437  54.806  1.00  0.00    -0.387 OA
ATOM     42  H   UNL     1      -5.602  28.324  54.400  1.00  0.00     0.211 HD
ENDBRANCH   1  41
TORSDOF 9
ENDMDL
MODEL 4
REMARK VINA RESULT:    -5.712      5.522      7.624
REMARK INTER + INTRA:          -9.030
REMARK INTER:                  -7.925
REMARK INTRA:                  -1.106
REMARK UNBOUND:                -1.147
REMARK SMILES C[C@H]1OC(=O)[C@H](C)[C@H]1C[C@H](O)[C@](C)(O)[C@@H]1CC[C@@]2(O)C3=CC(=O)[C@@H]4C[C@@H](O)[C@@H](O)C[C@]4(C)[C@H]3CC[C@@]12C
REMARK SMILES IDX 12 1 13 2 10 3 9 4 8 5 7 6 6 7 4 8 2 9 3 10 5 11 1 12 11 13
REMARK SMILES IDX 15 15 16 16 36 17 17 18 18 19 35 20 37 21 20 22 34 23 33 24
REMARK SMILES IDX 21 25 31 26 22 27 24 28 30 29 32 30 23 31 25 32 28 33 26 34
REMARK SMILES IDX 19 35 29 37 27 39 14 41
REMARK H PARENT 11 14 19 36 29 38 27 40 14 42
REMARK Flexibility Score: inf
ROOT
ATOM      1  C   UNL     1      -5.453  38.237  45.879  1.00  0.00     0.091 C 
ATOM      2  C   UNL     1      -4.184  38.622  45.075  1.00  0.00     0.045 C 
ENDROOT
BRANCH   1   3
ATOM      3  C   UNL     1      -5.414  39.017  47.267  1.00  0.00     0.146 C 
BRANCH   3   4
ATOM      4  C   UNL     1      -4.550  38.419  48.433  1.00  0.00     0.043 C 
BRANCH   4   5
ATOM      5  C   UNL     1      -5.330  37.723  49.602  1.00  0.00     0.046 C 
ATOM      6  C   UNL     1      -5.480  39.476  51.490  1.00  0.00     0.020 C 
ATOM      7  C   UNL     1      -4.846  38.168  51.010  1.00  0.00     0.103 C 
ATOM      8  C   UNL     1      -5.257  36.998  51.834  1.00  0.00     0.309 C 
ATOM      9  C   UNL     1      -5.363  36.163  49.689  1.00  0.00     0.177 C 
ATOM     10  O   UNL     1      -5.624  35.914  51.063  1.00  0.00    -0.462 OA
ATOM     11  O   UNL     1      -5.279  36.985  53.090  1.00  0.00    -0.252 OA
ATOM     12  C   UNL     1      -4.060  35.412  49.326  1.00  0.00     0.053 C 
ENDBRANCH   4   5
ENDBRANCH   3   4
BRANCH   3  13
ATOM     13  O   UNL     1      -6.677  39.449  47.715  1.00  0.00    -0.390 OA
ATOM     14  H   UNL     1      -6.764  40.425  47.540  1.00  0.00     0.211 HD
ENDBRANCH   3  13
ENDBRANCH   1   3
BRANCH   1  15
ATOM     15  C   UNL     1      -5.466  36.649  46.072  1.00  0.00     0.032 C 
ATOM     16  C   UNL     1      -4.546  35.911  45.047  1.00  0.00     0.010 C 
ATOM     17  C   UNL     1      -6.823  35.836  45.957  1.00  0.00     0.006 C 
ATOM     18  C   UNL     1      -5.427  35.067  44.118  1.00  0.00     0.041 C 
ATOM     19  C   UNL     1      -6.882  35.384  44.479  1.00  0.00     0.092 C 
ATOM     20  C   UNL     1      -6.664  34.542  46.836  1.00  0.00     0.011 C 
ATOM     21  C   UNL     1      -8.123  36.597  46.332  1.00  0.00     0.015 C 
ATOM     22  C   UNL     1      -7.782  34.153  44.246  1.00  0.00    -0.031 C 
ATOM     23  C   UNL     1      -7.913  33.669  46.818  1.00  0.00     0.009 C 
ATOM     24  C   UNL     1      -8.419  33.330  45.380  1.00  0.00     0.025 C 
ATOM     25  C   UNL     1      -8.032  33.815  42.959  1.00  0.00     0.050 C 
ATOM     26  C   UNL     1      -8.405  31.786  45.018  1.00  0.00    -0.013 C 
ATOM     27  C   UNL     1      -8.811  32.625  42.604  1.00  0.00     0.159 C 
ATOM     28  C   UNL     1      -9.192  31.595  43.649  1.00  0.00     0.070 C 
ATOM     29  C   UNL     1      -9.056  30.902  46.167  1.00  0.00     0.042 C 
ATOM     30  C   UNL     1      -6.930  31.294  44.821  1.00  0.00     0.013 C 
ATOM     31  O   UNL     1      -9.047  32.396  41.384  1.00  0.00    -0.295 OA
ATOM     32  C   UNL     1     -10.723  31.503  43.878  1.00  0.00     0.047 C 
ATOM     33  C   UNL     1      -9.887  29.730  45.613  1.00  0.00     0.143 C 
ATOM     34  C   UNL     1     -11.082  30.295  44.799  1.00  0.00     0.143 C 
BRANCH  19  35
ATOM     35  O   UNL     1      -7.288  36.460  43.654  1.00  0.00    -0.385 OA
ATOM     36  H   UNL     1      -7.003  36.294  42.718  1.00  0.00     0.211 HD
ENDBRANCH  19  35
BRANCH  33  37
ATOM     37  O   UNL     1      -9.071  28.907  44.818  1.00  0.00    -0.390 OA
ATOM     38  H   UNL     1      -9.699  28.244  44.406  1.00  0.00     0.211 HD
ENDBRANCH  33  37
BRANCH  34  39
ATOM     39  O   UNL     1     -11.757  29.270  44.128  1.00  0.00    -0.390 OA
ATOM     40  H   UNL     1     -12.570  29.662  43.733  1.00  0.00     0.211 HD
ENDBRANCH  34  39
ENDBRANCH   1  15
BRANCH   1  41
ATOM     41  O   UNL     1      -6.564  38.583  45.096  1.00  0.00    -0.387 OA
ATOM     42  H   UNL     1      -6.450  39.493  44.714  1.00  0.00     0.211 HD
ENDBRANCH   1  41
TORSDOF 9
ENDMDL
MODEL 5
REMARK VINA RESULT:    -5.706      1.828      2.691
REMARK INTER + INTRA:          -9.021
REMARK INTER:                  -7.968
REMARK INTRA:                  -1.054
REMARK UNBOUND:                -1.147
REMARK SMILES C[C@H]1OC(=O)[C@H](C)[C@H]1C[C@H](O)[C@](C)(O)[C@@H]1CC[C@@]2(O)C3=CC(=O)[C@@H]4C[C@@H](O)[C@@H](O)C[C@]4(C)[C@H]3CC[C@@]12C
REMARK SMILES IDX 12 1 13 2 10 3 9 4 8 5 7 6 6 7 4 8 2 9 3 10 5 11 1 12 11 13
REMARK SMILES IDX 15 15 16 16 36 17 17 18 18 19 35 20 37 21 20 22 34 23 33 24
REMARK SMILES IDX 21 25 31 26 22 27 24 28 30 29 32 30 23 31 25 32 28 33 26 34
REMARK SMILES IDX 19 35 29 37 27 39 14 41
REMARK H PARENT 11 14 19 36 29 38 27 40 14 42
REMARK Flexibility Score: inf
ROOT
ATOM      1  C   UNL     1      -3.013  37.409  44.090  1.00  0.00     0.091 C 
ATOM      2  C   UNL     1      -2.868  38.121  45.461  1.00  0.00     0.045 C 
ENDROOT
BRANCH   1   3
ATOM      3  C   UNL     1      -4.298  38.001  43.359  1.00  0.00     0.146 C 
BRANCH   3   4
ATOM      4  C   UNL     1      -5.570  37.091  43.236  1.00  0.00     0.043 C 
BRANCH   4   5
ATOM      5  C   UNL     1      -6.859  37.577  43.984  1.00  0.00     0.046 C 
ATOM      6  C   UNL     1      -6.985  40.124  43.587  1.00  0.00     0.020 C 
ATOM      7  C   UNL     1      -6.713  39.000  44.591  1.00  0.00     0.103 C 
ATOM      8  C   UNL     1      -7.728  38.950  45.680  1.00  0.00     0.309 C 
ATOM      9  C   UNL     1      -7.441  36.724  45.158  1.00  0.00     0.177 C 
ATOM     10  O   UNL     1      -8.180  37.669  45.919  1.00  0.00    -0.462 OA
ATOM     11  O   UNL     1      -8.138  39.953  46.316  1.00  0.00    -0.252 OA
ATOM     12  C   UNL     1      -6.422  36.061  46.116  1.00  0.00     0.053 C 
ENDBRANCH   4   5
ENDBRANCH   3   4
BRANCH   3  13
ATOM     13  O   UNL     1      -4.010  38.671  42.154  1.00  0.00    -0.390 OA
ATOM     14  H   UNL     1      -3.232  39.274  42.300  1.00  0.00     0.211 HD
ENDBRANCH   3  13
ENDBRANCH   1   3
BRANCH   1  15
ATOM     15  C   UNL     1      -3.129  35.835  44.350  1.00  0.00     0.032 C 
ATOM     16  C   UNL     1      -2.474  35.397  45.699  1.00  0.00     0.010 C 
ATOM     17  C   UNL     1      -2.507  34.802  43.320  1.00  0.00     0.006 C 
ATOM     18  C   UNL     1      -1.261  34.511  45.390  1.00  0.00     0.041 C 
ATOM     19  C   UNL     1      -1.090  34.512  43.868  1.00  0.00     0.092 C 
ATOM     20  C   UNL     1      -3.336  33.472  43.440  1.00  0.00     0.011 C 
ATOM     21  C   UNL     1      -2.420  35.263  41.840  1.00  0.00     0.015 C 
ATOM     22  C   UNL     1      -0.505  33.169  43.385  1.00  0.00    -0.031 C 
ATOM     23  C   UNL     1      -2.840  32.390  42.488  1.00  0.00     0.009 C 
ATOM     24  C   UNL     1      -1.305  32.122  42.588  1.00  0.00     0.025 C 
ATOM     25  C   UNL     1       0.798  32.933  43.668  1.00  0.00     0.050 C 
ATOM     26  C   UNL     1      -0.915  30.657  43.053  1.00  0.00    -0.013 C 
ATOM     27  C   UNL     1       1.452  31.666  43.330  1.00  0.00     0.159 C 
ATOM     28  C   UNL     1       0.650  30.474  42.842  1.00  0.00     0.070 C 
ATOM     29  C   UNL     1      -1.721  29.546  42.252  1.00  0.00     0.042 C 
ATOM     30  C   UNL     1      -1.241  30.472  44.575  1.00  0.00     0.013 C 
ATOM     31  O   UNL     1       2.683  31.532  43.580  1.00  0.00    -0.295 OA
ATOM     32  C   UNL     1       0.988  30.075  41.382  1.00  0.00     0.047 C 
ATOM     33  C   UNL     1      -0.865  28.308  41.930  1.00  0.00     0.143 C 
ATOM     34  C   UNL     1       0.301  28.728  40.995  1.00  0.00     0.143 C 
BRANCH  19  35
ATOM     35  O   UNL     1      -0.215  35.578  43.550  1.00  0.00    -0.385 OA
ATOM     36  H   UNL     1       0.555  35.238  43.024  1.00  0.00     0.211 HD
ENDBRANCH  19  35
BRANCH  33  37
ATOM     37  O   UNL     1      -0.384  27.743  43.124  1.00  0.00    -0.390 OA
ATOM     38  H   UNL     1       0.182  28.460  43.537  1.00  0.00     0.211 HD
ENDBRANCH  33  37
BRANCH  34  39
ATOM     39  O   UNL     1       1.207  27.676  40.824  1.00  0.00    -0.390 OA
ATOM     40  H   UNL     1       1.271  27.495  39.858  1.00  0.00     0.211 HD
ENDBRANCH  34  39
ENDBRANCH   1  15
BRANCH   1  41
ATOM     41  O   UNL     1      -1.829  37.639  43.374  1.00  0.00    -0.387 OA
ATOM     42  H   UNL     1      -1.808  37.083  42.550  1.00  0.00     0.211 HD
ENDBRANCH   1  41
TORSDOF 9
ENDMDL
MODEL 6
REMARK VINA RESULT:    -5.687      4.241      6.010
REMARK INTER + INTRA:          -8.996
REMARK INTER:                  -8.297
REMARK INTRA:                  -0.699
REMARK UNBOUND:                -1.147
REMARK SMILES C[C@H]1OC(=O)[C@H](C)[C@H]1C[C@H](O)[C@](C)(O)[C@@H]1CC[C@@]2(O)C3=CC(=O)[C@@H]4C[C@@H](O)[C@@H](O)C[C@]4(C)[C@H]3CC[C@@]12C
REMARK SMILES IDX 12 1 13 2 10 3 9 4 8 5 7 6 6 7 4 8 2 9 3 10 5 11 1 12 11 13
REMARK SMILES IDX 15 15 16 16 36 17 17 18 18 19 35 20 37 21 20 22 34 23 33 24
REMARK SMILES IDX 21 25 31 26 22 27 24 28 30 29 32 30 23 31 25 32 28 33 26 34
REMARK SMILES IDX 19 35 29 37 27 39 14 41
REMARK H PARENT 11 14 19 36 29 38 27 40 14 42
REMARK Flexibility Score: inf
ROOT
ATOM      1  C   UNL     1      -6.038  33.245  43.652  1.00  0.00     0.091 C 
ATOM      2  C   UNL     1      -5.172  33.519  42.394  1.00  0.00     0.045 C 
ENDROOT
BRANCH   1   3
ATOM      3  C   UNL     1      -6.729  34.614  44.084  1.00  0.00     0.146 C 
BRANCH   3   4
ATOM      4  C   UNL     1      -6.165  35.368  45.340  1.00  0.00     0.043 C 
BRANCH   4   5
ATOM      5  C   UNL     1      -5.971  36.918  45.201  1.00  0.00     0.046 C 
ATOM      6  C   UNL     1      -8.345  37.911  45.009  1.00  0.00     0.020 C 
ATOM      7  C   UNL     1      -7.034  37.588  44.287  1.00  0.00     0.103 C 
ATOM      8  C   UNL     1      -6.304  38.812  43.853  1.00  0.00     0.309 C 
ATOM      9  C   UNL     1      -4.611  37.483  44.676  1.00  0.00     0.177 C 
ATOM     10  O   UNL     1      -4.960  38.760  44.161  1.00  0.00    -0.462 OA
ATOM     11  O   UNL     1      -6.839  39.791  43.276  1.00  0.00    -0.252 OA
ATOM     12  C   UNL     1      -3.920  36.701  43.533  1.00  0.00     0.053 C 
ENDBRANCH   4   5
ENDBRANCH   3   4
BRANCH   3  13
ATOM     13  O   UNL     1      -8.136  34.567  44.085  1.00  0.00    -0.390 OA
ATOM     14  H   UNL     1      -8.489  35.493  43.999  1.00  0.00     0.211 HD
ENDBRANCH   3  13
ENDBRANCH   1   3
BRANCH   1  15
ATOM     15  C   UNL     1      -5.091  32.651  44.797  1.00  0.00     0.032 C 
ATOM     16  C   UNL     1      -3.911  31.803  44.222  1.00  0.00     0.010 C 
ATOM     17  C   UNL     1      -5.683  31.695  45.914  1.00  0.00     0.006 C 
ATOM     18  C   UNL     1      -4.105  30.343  44.649  1.00  0.00     0.041 C 
ATOM     19  C   UNL     1      -5.457  30.267  45.365  1.00  0.00     0.092 C 
ATOM     20  C   UNL     1      -4.777  31.855  47.189  1.00  0.00     0.011 C 
ATOM     21  C   UNL     1      -7.179  31.894  46.277  1.00  0.00     0.015 C 
ATOM     22  C   UNL     1      -5.433  29.182  46.461  1.00  0.00    -0.031 C 
ATOM     23  C   UNL     1      -5.247  30.987  48.350  1.00  0.00     0.009 C 
ATOM     24  C   UNL     1      -5.446  29.486  47.970  1.00  0.00     0.025 C 
ATOM     25  C   UNL     1      -5.428  27.894  46.044  1.00  0.00     0.050 C 
ATOM     26  C   UNL     1      -4.504  28.474  48.746  1.00  0.00    -0.013 C 
ATOM     27  C   UNL     1      -5.331  26.771  46.982  1.00  0.00     0.159 C 
ATOM     28  C   UNL     1      -5.014  26.998  48.448  1.00  0.00     0.070 C 
ATOM     29  C   UNL     1      -4.491  28.757  50.310  1.00  0.00     0.042 C 
ATOM     30  C   UNL     1      -3.030  28.608  48.230  1.00  0.00     0.013 C 
ATOM     31  O   UNL     1      -5.380  25.594  46.527  1.00  0.00    -0.295 OA
ATOM     32  C   UNL     1      -6.181  26.595  49.387  1.00  0.00     0.047 C 
ATOM     33  C   UNL     1      -4.446  27.464  51.145  1.00  0.00     0.143 C 
ATOM     34  C   UNL     1      -5.740  26.647  50.884  1.00  0.00     0.143 C 
BRANCH  19  35
ATOM     35  O   UNL     1      -6.429  29.961  44.383  1.00  0.00    -0.385 OA
ATOM     36  H   UNL     1      -7.154  29.416  44.785  1.00  0.00     0.211 HD
ENDBRANCH  19  35
BRANCH  33  37
ATOM     37  O   UNL     1      -3.299  26.725  50.811  1.00  0.00    -0.390 OA
ATOM     38  H   UNL     1      -3.648  25.853  50.462  1.00  0.00     0.211 HD
ENDBRANCH  33  37
BRANCH  34  39
ATOM     39  O   UNL     1      -5.660  25.383  51.479  1.00  0.00    -0.390 OA
ATOM     40  H   UNL     1      -5.117  24.813  50.888  1.00  0.00     0.211 HD
ENDBRANCH  34  39
ENDBRANCH   1  15
BRANCH   1  41
ATOM     41  O   UNL     1      -6.969  32.254  43.309  1.00  0.00    -0.387 OA
ATOM     42  H   UNL     1      -6.504  31.415  43.051  1.00  0.00     0.211 HD
ENDBRANCH   1  41
TORSDOF 9
ENDMDL
MODEL 7
REMARK VINA RESULT:    -5.670      1.968      4.602
REMARK INTER + INTRA:          -8.972
REMARK INTER:                  -7.974
REMARK INTRA:                  -0.998
REMARK UNBOUND:                -1.147
REMARK SMILES C[C@H]1OC(=O)[C@H](C)[C@H]1C[C@H](O)[C@](C)(O)[C@@H]1CC[C@@]2(O)C3=CC(=O)[C@@H]4C[C@@H](O)[C@@H](O)C[C@]4(C)[C@H]3CC[C@@]12C
REMARK SMILES IDX 12 1 13 2 10 3 9 4 8 5 7 6 6 7 4 8 2 9 3 10 5 11 1 12 11 13
REMARK SMILES IDX 15 15 16 16 36 17 17 18 18 19 35 20 37 21 20 22 34 23 33 24
REMARK SMILES IDX 21 25 31 26 22 27 24 28 30 29 32 30 23 31 25 32 28 33 26 34
REMARK SMILES IDX 19 35 29 37 27 39 14 41
REMARK H PARENT 11 14 19 36 29 38 27 40 14 42
REMARK Flexibility Score: inf
ROOT
ATOM      1  C   UNL     1      -6.288  35.712  44.386  1.00  0.00     0.091 C 
ATOM      2  C   UNL     1      -7.731  35.151  44.483  1.00  0.00     0.045 C 
ENDROOT
BRANCH   1   3
ATOM      3  C   UNL     1      -6.366  37.170  43.750  1.00  0.00     0.146 C 
BRANCH   3   4
ATOM      4  C   UNL     1      -5.379  38.269  44.282  1.00  0.00     0.043 C 
BRANCH   4   5
ATOM      5  C   UNL     1      -4.468  38.972  43.217  1.00  0.00     0.046 C 
ATOM      6  C   UNL     1      -4.224  37.288  41.277  1.00  0.00     0.020 C 
ATOM      7  C   UNL     1      -3.541  37.983  42.458  1.00  0.00     0.103 C 
ATOM      8  C   UNL     1      -2.445  38.895  42.027  1.00  0.00     0.309 C 
ATOM      9  C   UNL     1      -3.510  40.125  43.659  1.00  0.00     0.177 C 
ATOM     10  O   UNL     1      -2.504  40.122  42.657  1.00  0.00    -0.462 OA
ATOM     11  O   UNL     1      -1.563  38.599  41.183  1.00  0.00    -0.252 OA
ATOM     12  C   UNL     1      -2.798  39.962  45.024  1.00  0.00     0.053 C 
ENDBRANCH   4   5
ENDBRANCH   3   4
BRANCH   3  13
ATOM     13  O   UNL     1      -7.678  37.662  43.611  1.00  0.00    -0.390 OA
ATOM     14  H   UNL     1      -8.099  37.236  42.816  1.00  0.00     0.211 HD
ENDBRANCH   3  13
ENDBRANCH   1   3
BRANCH   1  15
ATOM     15  C   UNL     1      -5.414  34.706  43.501  1.00  0.00     0.032 C 
ATOM     16  C   UNL     1      -6.102  33.314  43.317  1.00  0.00     0.010 C 
ATOM     17  C   UNL     1      -3.949  34.302  43.953  1.00  0.00     0.006 C 
ATOM     18  C   UNL     1      -5.257  32.253  44.032  1.00  0.00     0.041 C 
ATOM     19  C   UNL     1      -4.136  32.998  44.762  1.00  0.00     0.092 C 
ATOM     20  C   UNL     1      -3.147  33.935  42.651  1.00  0.00     0.011 C 
ATOM     21  C   UNL     1      -3.171  35.346  44.799  1.00  0.00     0.015 C 
ATOM     22  C   UNL     1      -2.863  32.130  44.835  1.00  0.00    -0.031 C 
ATOM     23  C   UNL     1      -1.708  33.534  42.948  1.00  0.00     0.009 C 
ATOM     24  C   UNL     1      -1.579  32.421  44.037  1.00  0.00     0.025 C 
ATOM     25  C   UNL     1      -2.894  31.071  45.678  1.00  0.00     0.050 C 
ATOM     26  C   UNL     1      -0.923  31.069  43.531  1.00  0.00    -0.013 C 
ATOM     27  C   UNL     1      -1.778  30.127  45.785  1.00  0.00     0.159 C 
ATOM     28  C   UNL     1      -0.623  30.162  44.802  1.00  0.00     0.070 C 
ATOM     29  C   UNL     1       0.407  31.329  42.701  1.00  0.00     0.042 C 
ATOM     30  C   UNL     1      -1.922  30.305  42.595  1.00  0.00     0.013 C 
ATOM     31  O   UNL     1      -1.854  29.188  46.627  1.00  0.00    -0.295 OA
ATOM     32  C   UNL     1       0.726  30.539  45.468  1.00  0.00     0.047 C 
ATOM     33  C   UNL     1       1.494  30.275  42.978  1.00  0.00     0.143 C 
ATOM     34  C   UNL     1       1.914  30.360  44.471  1.00  0.00     0.143 C 
BRANCH  19  35
ATOM     35  O   UNL     1      -4.612  33.293  46.062  1.00  0.00    -0.385 OA
ATOM     36  H   UNL     1      -4.950  34.225  46.094  1.00  0.00     0.211 HD
ENDBRANCH  19  35
BRANCH  33  37
ATOM     37  O   UNL     1       1.005  28.997  42.658  1.00  0.00    -0.390 OA
ATOM     38  H   UNL     1       0.486  29.126  41.811  1.00  0.00     0.211 HD
ENDBRANCH  33  37
BRANCH  34  39
ATOM     39  O   UNL     1       2.764  29.303  44.810  1.00  0.00    -0.390 OA
ATOM     40  H   UNL     1       3.684  29.582  44.592  1.00  0.00     0.211 HD
ENDBRANCH  34  39
ENDBRANCH   1  15
BRANCH   1  41
ATOM     41  O   UNL     1      -5.755  35.716  45.683  1.00  0.00    -0.387 OA
ATOM     42  H   UNL     1      -5.117  36.470  45.794  1.00  0.00     0.211 HD
ENDBRANCH   1  41
TORSDOF 9
ENDMDL
MODEL 8
REMARK VINA RESULT:    -5.651      3.547      6.504
REMARK INTER + INTRA:          -8.946
REMARK INTER:                  -7.670
REMARK INTRA:                  -1.275
REMARK UNBOUND:                -1.147
REMARK SMILES C[C@H]1OC(=O)[C@H](C)[C@H]1C[C@H](O)[C@](C)(O)[C@@H]1CC[C@@]2(O)C3=CC(=O)[C@@H]4C[C@@H](O)[C@@H](O)C[C@]4(C)[C@H]3CC[C@@]12C
REMARK SMILES IDX 12 1 13 2 10 3 9 4 8 5 7 6 6 7 4 8 2 9 3 10 5 11 1 12 11 13
REMARK SMILES IDX 15 15 16 16 36 17 17 18 18 19 35 20 37 21 20 22 34 23 33 24
REMARK SMILES IDX 21 25 31 26 22 27 24 28 30 29 32 30 23 31 25 32 28 33 26 34
REMARK SMILES IDX 19 35 29 37 27 39 14 41
REMARK H PARENT 11 14 19 36 29 38 27 40 14 42
REMARK Flexibility Score: inf
ROOT
ATOM      1  C   UNL     1       0.285  30.684  43.311  1.00  0.00     0.091 C 
ATOM      2  C   UNL     1       1.704  30.858  43.915  1.00  0.00     0.045 C 
ENDROOT
BRANCH   1   3
ATOM      3  C   UNL     1       0.023  31.895  42.311  1.00  0.00     0.146 C 
BRANCH   3   4
ATOM      4  C   UNL     1      -0.929  33.053  42.776  1.00  0.00     0.043 C 
BRANCH   4   5
ATOM      5  C   UNL     1      -2.183  33.337  41.879  1.00  0.00     0.046 C 
ATOM      6  C   UNL     1      -1.323  34.741  39.892  1.00  0.00     0.020 C 
ATOM      7  C   UNL     1      -2.137  34.728  41.188  1.00  0.00     0.103 C 
ATOM      8  C   UNL     1      -3.587  34.977  40.954  1.00  0.00     0.309 C 
ATOM      9  C   UNL     1      -3.613  33.273  42.506  1.00  0.00     0.177 C 
ATOM     10  O   UNL     1      -4.390  34.090  41.641  1.00  0.00    -0.462 OA
ATOM     11  O   UNL     1      -4.042  35.884  40.214  1.00  0.00    -0.252 OA
ATOM     12  C   UNL     1      -3.778  33.836  43.938  1.00  0.00     0.053 C 
ENDBRANCH   4   5
ENDBRANCH   3   4
BRANCH   3  13
ATOM     13  O   UNL     1      -0.243  31.494  40.988  1.00  0.00    -0.390 OA
ATOM     14  H   UNL     1      -0.930  32.100  40.599  1.00  0.00     0.211 HD
ENDBRANCH   3  13
ENDBRANCH   1   3
BRANCH   1  15
ATOM     15  C   UNL     1      -0.772  30.643  44.511  1.00  0.00     0.032 C 
ATOM     16  C   UNL     1      -0.169  30.048  45.825  1.00  0.00     0.010 C 
ATOM     17  C   UNL     1      -2.126  29.832  44.362  1.00  0.00     0.006 C 
ATOM     18  C   UNL     1      -0.878  28.724  46.132  1.00  0.00     0.041 C 
ATOM     19  C   UNL     1      -1.812  28.438  44.953  1.00  0.00     0.092 C 
ATOM     20  C   UNL     1      -3.181  30.514  45.307  1.00  0.00     0.011 C 
ATOM     21  C   UNL     1      -2.693  29.685  42.924  1.00  0.00     0.015 C 
ATOM     22  C   UNL     1      -3.065  27.672  45.424  1.00  0.00    -0.031 C 
ATOM     23  C   UNL     1      -4.541  29.829  45.251  1.00  0.00     0.009 C 
ATOM     24  C   UNL     1      -4.476  28.286  45.480  1.00  0.00     0.025 C 
ATOM     25  C   UNL     1      -2.892  26.376  45.776  1.00  0.00     0.050 C 
ATOM     26  C   UNL     1      -5.252  27.771  46.763  1.00  0.00    -0.013 C 
ATOM     27  C   UNL     1      -3.986  25.560  46.310  1.00  0.00     0.159 C 
ATOM     28  C   UNL     1      -5.314  26.184  46.698  1.00  0.00     0.070 C 
ATOM     29  C   UNL     1      -6.715  28.385  46.857  1.00  0.00     0.042 C 
ATOM     30  C   UNL     1      -4.480  28.190  48.062  1.00  0.00     0.013 C 
ATOM     31  O   UNL     1      -3.765  24.345  46.574  1.00  0.00    -0.295 OA
ATOM     32  C   UNL     1      -6.492  25.693  45.817  1.00  0.00     0.047 C 
ATOM     33  C   UNL     1      -7.750  27.373  47.383  1.00  0.00     0.143 C 
ATOM     34  C   UNL     1      -7.860  26.193  46.379  1.00  0.00     0.143 C 
BRANCH  19  35
ATOM     35  O   UNL     1      -1.078  27.666  44.021  1.00  0.00    -0.385 OA
ATOM     36  H   UNL     1      -1.294  27.958  43.097  1.00  0.00     0.211 HD
ENDBRANCH  19  35
BRANCH  33  37
ATOM     37  O   UNL     1      -7.366  26.925  48.658  1.00  0.00    -0.390 OA
ATOM     38  H   UNL     1      -7.752  26.003  48.733  1.00  0.00     0.211 HD
ENDBRANCH  33  37
BRANCH  34  39
ATOM     39  O   UNL     1      -8.650  25.165  46.904  1.00  0.00    -0.390 OA
ATOM     40  H   UNL     1      -8.879  25.413  47.829  1.00  0.00     0.211 HD
ENDBRANCH  34  39
ENDBRANCH   1  15
BRANCH   1  41
ATOM     41  O   UNL     1       0.255  29.437  42.671  1.00  0.00    -0.387 OA
ATOM     42  H   UNL     1      -0.681  29.176  42.462  1.00  0.00     0.211 HD
ENDBRANCH   1  41
TORSDOF 9
ENDMDL
MODEL 9
REMARK VINA RESULT:    -5.618      5.207      8.521
REMARK INTER + INTRA:          -8.900
REMARK INTER:                  -7.964
REMARK INTRA:                  -0.937
REMARK UNBOUND:                -1.147
REMARK SMILES C[C@H]1OC(=O)[C@H](C)[C@H]1C[C@H](O)[C@](C)(O)[C@@H]1CC[C@@]2(O)C3=CC(=O)[C@@H]4C[C@@H](O)[C@@H](O)C[C@]4(C)[C@H]3CC[C@@]12C
REMARK SMILES IDX 12 1 13 2 10 3 9 4 8 5 7 6 6 7 4 8 2 9 3 10 5 11 1 12 11 13
REMARK SMILES IDX 15 15 16 16 36 17 17 18 18 19 35 20 37 21 20 22 34 23 33 24
REMARK SMILES IDX 21 25 31 26 22 27 24 28 30 29 32 30 23 31 25 32 28 33 26 34
REMARK SMILES IDX 19 35 29 37 27 39 14 41
REMARK H PARENT 11 14 19 36 29 38 27 40 14 42
REMARK Flexibility Score: inf
ROOT
ATOM      1  C   UNL     1       0.604  32.745  50.039  1.00  0.00     0.091 C 
ATOM      2  C   UNL     1      -0.410  33.829  50.489  1.00  0.00     0.045 C 
ENDROOT
BRANCH   1   3
ATOM      3  C   UNL     1       1.911  32.887  50.938  1.00  0.00     0.146 C 
BRANCH   3   4
ATOM      4  C   UNL     1       3.147  33.648  50.342  1.00  0.00     0.043 C 
BRANCH   4   5
ATOM      5  C   UNL     1       3.516  35.020  51.005  1.00  0.00     0.046 C 
ATOM      6  C   UNL     1       1.759  36.708  50.155  1.00  0.00     0.020 C 
ATOM      7  C   UNL     1       3.215  36.240  50.091  1.00  0.00     0.103 C 
ATOM      8  C   UNL     1       4.163  37.248  50.643  1.00  0.00     0.309 C 
ATOM      9  C   UNL     1       4.977  35.271  51.502  1.00  0.00     0.177 C 
ATOM     10  O   UNL     1       5.088  36.687  51.499  1.00  0.00    -0.462 OA
ATOM     11  O   UNL     1       4.133  38.475  50.374  1.00  0.00    -0.252 OA
ATOM     12  C   UNL     1       6.123  34.719  50.620  1.00  0.00     0.053 C 
ENDBRANCH   4   5
ENDBRANCH   3   4
BRANCH   3  13
ATOM     13  O   UNL     1       2.289  31.695  51.587  1.00  0.00    -0.390 OA
ATOM     14  H   UNL     1       1.522  31.060  51.565  1.00  0.00     0.211 HD
ENDBRANCH   3  13
ENDBRANCH   1   3
BRANCH   1  15
ATOM     15  C   UNL     1       0.909  32.955  48.483  1.00  0.00     0.032 C 
ATOM     16  C   UNL     1      -0.112  33.918  47.794  1.00  0.00     0.010 C 
ATOM     17  C   UNL     1       0.927  31.716  47.493  1.00  0.00     0.006 C 
ATOM     18  C   UNL     1      -0.928  33.116  46.772  1.00  0.00     0.041 C 
ATOM     19  C   UNL     1      -0.510  31.651  46.924  1.00  0.00     0.092 C 
ATOM     20  C   UNL     1       1.885  32.088  46.303  1.00  0.00     0.011 C 
ATOM     21  C   UNL     1       1.320  30.344  48.104  1.00  0.00     0.015 C 
ATOM     22  C   UNL     1      -0.604  30.915  45.572  1.00  0.00    -0.031 C 
ATOM     23  C   UNL     1       1.998  30.968  45.275  1.00  0.00     0.009 C 
ATOM     24  C   UNL     1       0.618  30.446  44.762  1.00  0.00     0.025 C 
ATOM     25  C   UNL     1      -1.848  30.653  45.105  1.00  0.00     0.050 C 
ATOM     26  C   UNL     1       0.366  30.651  43.210  1.00  0.00    -0.013 C 
ATOM     27  C   UNL     1      -2.075  30.027  43.800  1.00  0.00     0.159 C 
ATOM     28  C   UNL     1      -0.940  29.836  42.812  1.00  0.00     0.070 C 
ATOM     29  C   UNL     1       1.608  30.179  42.340  1.00  0.00     0.042 C 
ATOM     30  C   UNL     1       0.122  32.169  42.902  1.00  0.00     0.013 C 
ATOM     31  O   UNL     1      -3.261  29.768  43.448  1.00  0.00    -0.295 OA
ATOM     32  C   UNL     1      -0.621  28.343  42.538  1.00  0.00     0.047 C 
ATOM     33  C   UNL     1       1.186  29.490  41.030  1.00  0.00     0.143 C 
ATOM     34  C   UNL     1       0.402  28.193  41.370  1.00  0.00     0.143 C 
BRANCH  19  35
ATOM     35  O   UNL     1      -1.384  31.066  47.871  1.00  0.00    -0.385 OA
ATOM     36  H   UNL     1      -1.782  30.238  47.496  1.00  0.00     0.211 HD
ENDBRANCH  19  35
BRANCH  33  37
ATOM     37  O   UNL     1       0.407  30.371  40.262  1.00  0.00    -0.390 OA
ATOM     38  H   UNL     1      -0.133  30.886  40.930  1.00  0.00     0.211 HD
ENDBRANCH  33  37
BRANCH  34  39
ATOM     39  O   UNL     1      -0.157  27.632  40.216  1.00  0.00    -0.390 OA
ATOM     40  H   UNL     1      -0.759  26.907  40.503  1.00  0.00     0.211 HD
ENDBRANCH  34  39
ENDBRANCH   1  15
BRANCH   1  41
ATOM     41  O   UNL     1      -0.023  31.499  50.189  1.00  0.00    -0.387 OA
ATOM     42  H   UNL     1      -0.096  31.039  49.311  1.00  0.00     0.211 HD
ENDBRANCH   1  41
TORSDOF 9
ENDMDL
