MODEL 1
REMARK VINA RESULT:    -3.695      0.000      0.000
REMARK INTER + INTRA:          -6.712
REMARK INTER:                  -5.639
REMARK INTRA:                  -1.072
REMARK UNBOUND:                -1.072
REMARK SMILES CCCCCCCCCCC(=O)[O-]
REMARK SMILES IDX 7 1 8 2 9 3 10 4 11 5 12 6 13 7 6 8 5 9 4 10 3 11 2 12 1 13
REMARK H PARENT
REMARK Flexibility Score: inf
ROOT
ATOM      1  C   UNL     1      28.619 -23.464  24.295  1.00  0.00     0.000 C 
ENDROOT
BRANCH   1   2
ATOM      2  C   UNL     1      28.878 -22.678  25.598  1.00  0.00     0.000 C 
BRANCH   2   3
ATOM      3  C   UNL     1      27.605 -22.083  26.222  1.00  0.00     0.006 C 
BRANCH   3   4
ATOM      4  C   UNL     1      27.269 -20.691  25.678  1.00  0.00     0.053 C 
BRANCH   4   5
ATOM      5  C   UNL     1      28.235 -19.676  26.202  1.00  0.00     0.041 C 
ATOM      6  O   UNL     1      28.622 -18.731  25.467  1.00  0.00    -0.550 OA
ATOM      7  O   UNL     1      28.670 -19.746  27.520  1.00  0.00    -0.550 OA
ENDBRANCH   4   5
ENDBRANCH   3   4
ENDBRANCH   2   3
ENDBRANCH   1   2
BRANCH   1   8
ATOM      8  C   UNL     1      29.375 -22.867  23.097  1.00  0.00     0.000 C 
BRANCH   8   9
ATOM      9  C   UNL     1      28.452 -21.984  22.248  1.00  0.00    -0.000 C 
BRANCH   9  10
ATOM     10  C   UNL     1      28.813 -20.502  22.403  1.00  0.00    -0.000 C 
BRANCH  10  11
ATOM     11  C   UNL     1      30.306 -20.328  22.707  1.00  0.00    -0.000 C 
BRANCH  11  12
ATOM     12  C   UNL     1      31.067 -19.843  21.468  1.00  0.00    -0.003 C 
ATOM     13  C   UNL     1      31.805 -20.993  20.788  1.00  0.00     0.004 C 
ENDBRANCH  11  12
ENDBRANCH  10  11
ENDBRANCH   9  10
ENDBRANCH   8   9
ENDBRANCH   1   8
TORSDOF 9
ENDMDL
MODEL 2
REMARK VINA RESULT:    -3.668      2.134      4.376
REMARK INTER + INTRA:          -6.669
REMARK INTER:                  -5.515
REMARK INTRA:                  -1.154
REMARK UNBOUND:                -1.072
REMARK SMILES CCCCCCCCCCC(=O)[O-]
REMARK SMILES IDX 7 1 8 2 9 3 10 4 11 5 12 6 13 7 6 8 5 9 4 10 3 11 2 12 1 13
REMARK H PARENT
REMARK Flexibility Score: inf
ROOT
ATOM      1  C   UNL     1      29.316 -22.420  24.463  1.00  0.00     0.000 C 
ENDROOT
BRANCH   1   2
ATOM      2  C   UNL     1      29.012 -22.672  22.971  1.00  0.00     0.000 C 
BRANCH   2   3
ATOM      3  C   UNL     1      28.599 -21.405  22.204  1.00  0.00     0.006 C 
BRANCH   3   4
ATOM      4  C   UNL     1      29.041 -20.114  22.902  1.00  0.00     0.053 C 
BRANCH   4   5
ATOM      5  C   UNL     1      30.169 -19.475  22.155  1.00  0.00     0.041 C 
ATOM      6  O   UNL     1      30.408 -18.247  22.296  1.00  0.00    -0.550 OA
ATOM      7  O   UNL     1      30.989 -20.246  21.340  1.00  0.00    -0.550 OA
ENDBRANCH   4   5
ENDBRANCH   3   4
ENDBRANCH   2   3
ENDBRANCH   1   2
BRANCH   1   8
ATOM      8  C   UNL     1      28.270 -23.068  25.385  1.00  0.00     0.000 C 
BRANCH   8   9
ATOM      9  C   UNL     1      27.728 -22.054  26.400  1.00  0.00    -0.000 C 
BRANCH   9  10
ATOM     10  C   UNL     1      27.005 -20.901  25.694  1.00  0.00    -0.000 C 
BRANCH  10  11
ATOM     11  C   UNL     1      27.424 -19.548  26.281  1.00  0.00    -0.000 C 
BRANCH  11  12
ATOM     12  C   UNL     1      28.785 -19.650  26.980  1.00  0.00    -0.003 C 
ATOM     13  C   UNL     1      29.843 -18.827  26.251  1.00  0.00     0.004 C 
ENDBRANCH  11  12
ENDBRANCH  10  11
ENDBRANCH   9  10
ENDBRANCH   8   9
ENDBRANCH   1   8
TORSDOF 9
ENDMDL
MODEL 3
REMARK VINA RESULT:    -3.621      1.600      3.104
REMARK INTER + INTRA:          -6.599
REMARK INTER:                  -5.386
REMARK INTRA:                  -1.213
REMARK UNBOUND:                -1.072
REMARK SMILES CCCCCCCCCCC(=O)[O-]
REMARK SMILES IDX 7 1 8 2 9 3 10 4 11 5 12 6 13 7 6 8 5 9 4 10 3 11 2 12 1 13
REMARK H PARENT
REMARK Flexibility Score: inf
ROOT
ATOM      1  C   UNL     1      27.206 -20.855  25.504  1.00  0.00     0.000 C 
ENDROOT
BRANCH   1   2
ATOM      2  C   UNL     1      27.451 -19.604  26.374  1.00  0.00     0.000 C 
BRANCH   2   3
ATOM      3  C   UNL     1      28.633 -18.744  25.896  1.00  0.00     0.006 C 
BRANCH   3   4
ATOM      4  C   UNL     1      29.991 -19.290  26.351  1.00  0.00     0.053 C 
BRANCH   4   5
ATOM      5  C   UNL     1      29.974 -19.576  27.820  1.00  0.00     0.041 C 
ATOM      6  O   UNL     1      30.109 -20.756  28.238  1.00  0.00    -0.550 OA
ATOM      7  O   UNL     1      29.862 -18.532  28.730  1.00  0.00    -0.550 OA
ENDBRANCH   4   5
ENDBRANCH   3   4
ENDBRANCH   2   3
ENDBRANCH   1   2
BRANCH   1   8
ATOM      8  C   UNL     1      27.596 -22.152  26.230  1.00  0.00     0.000 C 
BRANCH   8   9
ATOM      9  C   UNL     1      28.356 -23.101  25.295  1.00  0.00    -0.000 C 
BRANCH   9  10
ATOM     10  C   UNL     1      29.347 -22.329  24.415  1.00  0.00    -0.000 C 
BRANCH  10  11
ATOM     11  C   UNL     1      29.118 -22.635  22.931  1.00  0.00    -0.000 C 
BRANCH  11  12
ATOM     12  C   UNL     1      28.607 -21.396  22.187  1.00  0.00    -0.003 C 
ATOM     13  C   UNL     1      29.443 -20.165  22.525  1.00  0.00     0.004 C 
ENDBRANCH  11  12
ENDBRANCH  10  11
ENDBRANCH   9  10
ENDBRANCH   8   9
ENDBRANCH   1   8
TORSDOF 9
ENDMDL
MODEL 4
REMARK VINA RESULT:    -3.522      2.180      4.312
REMARK INTER + INTRA:          -6.447
REMARK INTER:                  -5.215
REMARK INTRA:                  -1.232
REMARK UNBOUND:                -1.072
REMARK SMILES CCCCCCCCCCC(=O)[O-]
REMARK SMILES IDX 7 1 8 2 9 3 10 4 11 5 12 6 13 7 6 8 5 9 4 10 3 11 2 12 1 13
REMARK H PARENT
REMARK Flexibility Score: inf
ROOT
ATOM      1  C   UNL     1      29.670 -22.893  23.548  1.00  0.00     0.000 C 
ENDROOT
BRANCH   1   2
ATOM      2  C   UNL     1      28.664 -22.290  22.544  1.00  0.00     0.000 C 
BRANCH   2   3
ATOM      3  C   UNL     1      28.729 -20.756  22.453  1.00  0.00     0.006 C 
BRANCH   3   4
ATOM      4  C   UNL     1      30.085 -20.190  22.886  1.00  0.00     0.053 C 
BRANCH   4   5
ATOM      5  C   UNL     1      30.255 -18.792  22.380  1.00  0.00     0.041 C 
ATOM      6  O   UNL     1      31.360 -18.202  22.505  1.00  0.00    -0.550 OA
ATOM      7  O   UNL     1      29.207 -18.159  21.722  1.00  0.00    -0.550 OA
ENDBRANCH   4   5
ENDBRANCH   3   4
ENDBRANCH   2   3
ENDBRANCH   1   2
BRANCH   1   8
ATOM      8  C   UNL     1      28.975 -23.459  24.797  1.00  0.00     0.000 C 
BRANCH   8   9
ATOM      9  C   UNL     1      28.781 -22.371  25.860  1.00  0.00    -0.000 C 
BRANCH   9  10
ATOM     10  C   UNL     1      27.323 -21.901  25.908  1.00  0.00    -0.000 C 
BRANCH  10  11
ATOM     11  C   UNL     1      27.236 -20.370  25.878  1.00  0.00    -0.000 C 
BRANCH  11  12
ATOM     12  C   UNL     1      28.541 -19.736  26.374  1.00  0.00    -0.003 C 
ATOM     13  C   UNL     1      28.732 -18.339  25.791  1.00  0.00     0.004 C 
ENDBRANCH  11  12
ENDBRANCH  10  11
ENDBRANCH   9  10
ENDBRANCH   8   9
ENDBRANCH   1   8
TORSDOF 9
ENDMDL
MODEL 5
REMARK VINA RESULT:    -3.519      1.288      2.507
REMARK INTER + INTRA:          -6.442
REMARK INTER:                  -5.219
REMARK INTRA:                  -1.223
REMARK UNBOUND:                -1.072
REMARK SMILES CCCCCCCCCCC(=O)[O-]
REMARK SMILES IDX 7 1 8 2 9 3 10 4 11 5 12 6 13 7 6 8 5 9 4 10 3 11 2 12 1 13
REMARK H PARENT
REMARK Flexibility Score: inf
ROOT
ATOM      1  C   UNL     1      27.539 -22.195  26.088  1.00  0.00     0.000 C 
ENDROOT
BRANCH   1   2
ATOM      2  C   UNL     1      27.149 -20.764  25.658  1.00  0.00     0.000 C 
BRANCH   2   3
ATOM      3  C   UNL     1      27.860 -19.664  26.463  1.00  0.00     0.006 C 
BRANCH   3   4
ATOM      4  C   UNL     1      28.763 -18.780  25.596  1.00  0.00     0.053 C 
BRANCH   4   5
ATOM      5  C   UNL     1      30.148 -18.735  26.159  1.00  0.00     0.041 C 
ATOM      6  O   UNL     1      30.924 -19.716  26.016  1.00  0.00    -0.550 OA
ATOM      7  O   UNL     1      30.602 -17.588  26.800  1.00  0.00    -0.550 OA
ENDBRANCH   4   5
ENDBRANCH   3   4
ENDBRANCH   2   3
ENDBRANCH   1   2
BRANCH   1   8
ATOM      8  C   UNL     1      28.934 -22.593  25.581  1.00  0.00     0.000 C 
BRANCH   8   9
ATOM      9  C   UNL     1      28.835 -23.490  24.341  1.00  0.00    -0.000 C 
BRANCH   9  10
ATOM     10  C   UNL     1      29.486 -22.821  23.124  1.00  0.00    -0.000 C 
BRANCH  10  11
ATOM     11  C   UNL     1      28.467 -21.975  22.351  1.00  0.00    -0.000 C 
BRANCH  11  12
ATOM     12  C   UNL     1      28.884 -20.501  22.325  1.00  0.00    -0.003 C 
ATOM     13  C   UNL     1      30.390 -20.349  22.525  1.00  0.00     0.004 C 
ENDBRANCH  11  12
ENDBRANCH  10  11
ENDBRANCH   9  10
ENDBRANCH   8   9
ENDBRANCH   1   8
TORSDOF 9
ENDMDL
MODEL 6
REMARK VINA RESULT:    -3.435     12.463     14.219
REMARK INTER + INTRA:          -6.314
REMARK INTER:                  -5.127
REMARK INTRA:                  -1.186
REMARK UNBOUND:                -1.072
REMARK SMILES CCCCCCCCCCC(=O)[O-]
REMARK SMILES IDX 7 1 8 2 9 3 10 4 11 5 12 6 13 7 6 8 5 9 4 10 3 11 2 12 1 13
REMARK H PARENT
REMARK Flexibility Score: inf
ROOT
ATOM      1  C   UNL     1      32.235  -6.244  17.980  1.00  0.00     0.000 C 
ENDROOT
BRANCH   1   2
ATOM      2  C   UNL     1      32.337  -6.411  19.511  1.00  0.00     0.000 C 
BRANCH   2   3
ATOM      3  C   UNL     1      31.210  -7.266  20.114  1.00  0.00     0.006 C 
BRANCH   3   4
ATOM      4  C   UNL     1      31.733  -8.458  20.923  1.00  0.00     0.053 C 
BRANCH   4   5
ATOM      5  C   UNL     1      30.690  -8.937  21.883  1.00  0.00     0.041 C 
ATOM      6  O   UNL     1      29.879  -8.123  22.398  1.00  0.00    -0.550 OA
ATOM      7  O   UNL     1      30.580 -10.292  22.171  1.00  0.00    -0.550 OA
ENDBRANCH   4   5
ENDBRANCH   3   4
ENDBRANCH   2   3
ENDBRANCH   1   2
BRANCH   1   8
ATOM      8  C   UNL     1      31.431  -7.379  17.325  1.00  0.00     0.000 C 
BRANCH   8   9
ATOM      9  C   UNL     1      32.046  -7.784  15.980  1.00  0.00    -0.000 C 
BRANCH   9  10
ATOM     10  C   UNL     1      32.395  -9.277  15.960  1.00  0.00    -0.000 C 
BRANCH  10  11
ATOM     11  C   UNL     1      32.386  -9.862  17.377  1.00  0.00    -0.000 C 
BRANCH  11  12
ATOM     12  C   UNL     1      33.789 -10.317  17.793  1.00  0.00    -0.003 C 
ATOM     13  C   UNL     1      34.563  -9.182  18.457  1.00  0.00     0.004 C 
ENDBRANCH  11  12
ENDBRANCH  10  11
ENDBRANCH   9  10
ENDBRANCH   8   9
ENDBRANCH   1   8
TORSDOF 9
ENDMDL
MODEL 7
REMARK VINA RESULT:    -3.419     11.751     13.885
REMARK INTER + INTRA:          -6.290
REMARK INTER:                  -5.333
REMARK INTRA:                  -0.957
REMARK UNBOUND:                -1.072
REMARK SMILES CCCCCCCCCCC(=O)[O-]
REMARK SMILES IDX 7 1 8 2 9 3 10 4 11 5 12 6 13 7 6 8 5 9 4 10 3 11 2 12 1 13
REMARK H PARENT
REMARK Flexibility Score: inf
ROOT
ATOM      1  C   UNL     1      31.295  -7.237  18.871  1.00  0.00     0.000 C 
ENDROOT
BRANCH   1   2
ATOM      2  C   UNL     1      32.223  -6.572  19.910  1.00  0.00     0.000 C 
BRANCH   2   3
ATOM      3  C   UNL     1      31.823  -6.860  21.367  1.00  0.00     0.006 C 
BRANCH   3   4
ATOM      4  C   UNL     1      30.577  -7.746  21.479  1.00  0.00     0.053 C 
BRANCH   4   5
ATOM      5  C   UNL     1      30.046  -7.727  22.878  1.00  0.00     0.041 C 
ATOM      6  O   UNL     1      29.895  -6.634  23.484  1.00  0.00    -0.550 OA
ATOM      7  O   UNL     1      29.669  -8.914  23.495  1.00  0.00    -0.550 OA
ENDBRANCH   4   5
ENDBRANCH   3   4
ENDBRANCH   2   3
ENDBRANCH   1   2
BRANCH   1   8
ATOM      8  C   UNL     1      31.840  -7.108  17.440  1.00  0.00     0.000 C 
BRANCH   8   9
ATOM      9  C   UNL     1      32.057  -8.487  16.806  1.00  0.00    -0.000 C 
BRANCH   9  10
ATOM     10  C   UNL     1      33.173  -9.255  17.526  1.00  0.00    -0.000 C 
BRANCH  10  11
ATOM     11  C   UNL     1      32.670 -10.613  18.029  1.00  0.00    -0.000 C 
BRANCH  11  12
ATOM     12  C   UNL     1      32.830 -10.729  19.549  1.00  0.00    -0.003 C 
ATOM     13  C   UNL     1      31.506 -11.085  20.218  1.00  0.00     0.004 C 
ENDBRANCH  11  12
ENDBRANCH  10  11
ENDBRANCH   9  10
ENDBRANCH   8   9
ENDBRANCH   1   8
TORSDOF 9
ENDMDL
MODEL 8
REMARK VINA RESULT:    -3.417     11.138     13.536
REMARK INTER + INTRA:          -6.287
REMARK INTER:                  -5.528
REMARK INTRA:                  -0.759
REMARK UNBOUND:                -1.072
REMARK SMILES CCCCCCCCCCC(=O)[O-]
REMARK SMILES IDX 7 1 8 2 9 3 10 4 11 5 12 6 13 7 6 8 5 9 4 10 3 11 2 12 1 13
REMARK H PARENT
REMARK Flexibility Score: inf
ROOT
ATOM      1  C   UNL     1      32.413  -9.858  17.278  1.00  0.00     0.000 C 
ENDROOT
BRANCH   1   2
ATOM      2  C   UNL     1      32.764 -11.361  17.245  1.00  0.00     0.000 C 
BRANCH   2   3
ATOM      3  C   UNL     1      32.384 -12.111  18.532  1.00  0.00     0.006 C 
BRANCH   3   4
ATOM      4  C   UNL     1      32.031 -11.170  19.689  1.00  0.00     0.053 C 
BRANCH   4   5
ATOM      5  C   UNL     1      30.977 -11.781  20.557  1.00  0.00     0.041 C 
ATOM      6  O   UNL     1      30.525 -12.926  20.296  1.00  0.00    -0.550 OA
ATOM      7  O   UNL     1      30.530 -11.106  21.687  1.00  0.00    -0.550 OA
ENDBRANCH   4   5
ENDBRANCH   3   4
ENDBRANCH   2   3
ENDBRANCH   1   2
BRANCH   1   8
ATOM      8  C   UNL     1      32.417  -9.230  15.875  1.00  0.00     0.000 C 
BRANCH   8   9
ATOM      9  C   UNL     1      32.040  -7.745  15.935  1.00  0.00    -0.000 C 
BRANCH   9  10
ATOM     10  C   UNL     1      31.474  -7.376  17.312  1.00  0.00    -0.000 C 
BRANCH  10  11
ATOM     11  C   UNL     1      32.192  -6.152  17.892  1.00  0.00    -0.000 C 
BRANCH  11  12
ATOM     12  C   UNL     1      32.360  -6.282  19.410  1.00  0.00    -0.003 C 
ATOM     13  C   UNL     1      31.461  -7.379  19.973  1.00  0.00     0.004 C 
ENDBRANCH  11  12
ENDBRANCH  10  11
ENDBRANCH   9  10
ENDBRANCH   8   9
ENDBRANCH   1   8
TORSDOF 9
ENDMDL
MODEL 9
REMARK VINA RESULT:    -3.346      1.734      3.280
REMARK INTER + INTRA:          -6.179
REMARK INTER:                  -4.893
REMARK INTRA:                  -1.286
REMARK UNBOUND:                -1.072
REMARK SMILES CCCCCCCCCCC(=O)[O-]
REMARK SMILES IDX 7 1 8 2 9 3 10 4 11 5 12 6 13 7 6 8 5 9 4 10 3 11 2 12 1 13
REMARK H PARENT
REMARK Flexibility Score: inf
ROOT
ATOM      1  C   UNL     1      29.690 -18.944  24.015  1.00  0.00     0.000 C 
ENDROOT
BRANCH   1   2
ATOM      2  C   UNL     1      30.560 -19.392  25.209  1.00  0.00     0.000 C 
BRANCH   2   3
ATOM      3  C   UNL     1      29.748 -19.963  26.383  1.00  0.00     0.006 C 
BRANCH   3   4
ATOM      4  C   UNL     1      29.416 -21.449  26.211  1.00  0.00     0.053 C 
BRANCH   4   5
ATOM      5  C   UNL     1      27.936 -21.646  26.109  1.00  0.00     0.041 C 
ATOM      6  O   UNL     1      27.203 -20.725  25.664  1.00  0.00    -0.550 OA
ATOM      7  O   UNL     1      27.371 -22.867  26.458  1.00  0.00    -0.550 OA
ENDBRANCH   4   5
ENDBRANCH   3   4
ENDBRANCH   2   3
ENDBRANCH   1   2
BRANCH   1   8
ATOM      8  C   UNL     1      29.967 -19.774  22.752  1.00  0.00     0.000 C 
BRANCH   8   9
ATOM      9  C   UNL     1      28.706 -20.516  22.293  1.00  0.00    -0.000 C 
BRANCH   9  10
ATOM     10  C   UNL     1      28.812 -22.017  22.587  1.00  0.00    -0.000 C 
BRANCH  10  11
ATOM     11  C   UNL     1      30.275 -22.442  22.758  1.00  0.00    -0.000 C 
BRANCH  11  12
ATOM     12  C   UNL     1      30.373 -23.851  23.353  1.00  0.00    -0.003 C 
ATOM     13  C   UNL     1      28.997 -24.379  23.748  1.00  0.00     0.004 C 
ENDBRANCH  11  12
ENDBRANCH  10  11
ENDBRANCH   9  10
ENDBRANCH   8   9
ENDBRANCH   1   8
TORSDOF 9
ENDMDL
