MODEL 1
REMARK VINA RESULT:     4.903      0.000      0.000
REMARK INTER + INTRA:          20.891
REMARK INTER:                   7.770
REMARK INTRA:                  13.121
REMARK UNBOUND:                13.121
REMARK SMILES C[C@H]1O[C@H](O[C@H]2[C@@H](Oc3cc(O)c4c(c3)O[C@@H](c3ccc(O)cc3)CC4=O)O[C@H](CO)[C@@H](O)[C@H]2O)[C@@H](O)[C@@H](O)[C@@H]1O
REMARK SMILES IDX 6 1 34 2 32 3 29 4 28 5 7 6 5 7 4 8 1 9 2 10 40 11 3 12
REMARK SMILES IDX 38 13 36 14 41 15 39 17 37 19 35 21 8 23 9 24 10 25 15 26
REMARK SMILES IDX 11 27 14 28 13 29 16 30 26 31 17 32 27 33 25 34 12 35 18 37
REMARK SMILES IDX 19 38 24 39 20 40 23 41 21 42 22 43 33 45 30 47 31 48
REMARK H PARENT 41 16 39 18 37 20 35 22 12 36 22 44 33 46 31 49
REMARK Flexibility Score: inf
ROOT
ATOM      1  C   UNL     1     153.555 147.401 136.725  1.00  0.00     0.221 C 
ATOM      2  C   UNL     1     153.766 147.598 135.208  1.00  0.00     0.181 C 
ATOM      3  C   UNL     1     155.175 147.130 134.812  1.00  0.00     0.177 C 
ATOM      4  C   UNL     1     155.432 145.700 135.342  1.00  0.00     0.179 C 
ATOM      5  O   UNL     1     155.253 145.655 136.750  1.00  0.00    -0.332 OA
ATOM      6  C   UNL     1     153.917 145.953 137.124  1.00  0.00     0.339 C 
ENDROOT
BRANCH   1   7
ATOM      7  O   UNL     1     152.214 147.666 137.101  1.00  0.00    -0.337 OA
BRANCH   7   8
ATOM      8  C   UNL     1     151.668 148.785 136.419  1.00  0.00     0.282 C 
ATOM      9  C   UNL     1     149.365 148.267 133.831  1.00  0.00     0.041 C 
ATOM     10  C   UNL     1     150.312 147.594 134.829  1.00  0.00     0.150 C 
ATOM     11  C   UNL     1     149.540 147.081 136.082  1.00  0.00     0.174 C 
ATOM     12  O   UNL     1     151.406 148.478 135.060  1.00  0.00    -0.344 OA
ATOM     13  C   UNL     1     149.291 148.194 137.125  1.00  0.00     0.179 C 
ATOM     14  C   UNL     1     150.395 149.279 137.124  1.00  0.00     0.202 C 
BRANCH  11  15
ATOM     15  O   UNL     1     150.245 146.012 136.660  1.00  0.00    -0.388 OA
ATOM     16  H   UNL     1     150.657 145.494 135.921  1.00  0.00     0.211 HD
ENDBRANCH  11  15
BRANCH  13  17
ATOM     17  O   UNL     1     148.022 148.757 136.897  1.00  0.00    -0.387 OA
ATOM     18  H   UNL     1     147.707 149.126 137.764  1.00  0.00     0.211 HD
ENDBRANCH  13  17
BRANCH  14  19
ATOM     19  O   UNL     1     149.927 150.443 136.486  1.00  0.00    -0.385 OA
ATOM     20  H   UNL     1     149.267 150.871 137.091  1.00  0.00     0.211 HD
ENDBRANCH  14  19
ENDBRANCH   7   8
ENDBRANCH   1   7
BRANCH   2  21
ATOM     21  O   UNL     1     152.784 146.884 134.491  1.00  0.00    -0.387 OA
ATOM     22  H   UNL     1     153.041 146.920 133.534  1.00  0.00     0.211 HD
ENDBRANCH   2  21
BRANCH   6  23
ATOM     23  O   UNL     1     153.024 144.988 136.548  1.00  0.00    -0.462 OA
BRANCH  23  24
ATOM     24  C   UNL     1     152.810 144.751 135.180  1.00  0.00     0.130 A 
ATOM     25  C   UNL     1     153.075 143.463 134.700  1.00  0.00     0.093 A 
ATOM     26  C   UNL     1     152.350 145.734 134.280  1.00  0.00     0.094 A 
ATOM     27  C   UNL     1     152.832 143.127 133.361  1.00  0.00     0.133 A 
ATOM     28  C   UNL     1     152.161 145.422 132.927  1.00  0.00     0.138 A 
ATOM     29  C   UNL     1     152.349 144.104 132.471  1.00  0.00     0.102 A 
ATOM     30  O   UNL     1     151.795 146.439 132.030  1.00  0.00    -0.484 OA
ATOM     31  C   UNL     1     152.004 143.803 131.062  1.00  0.00     0.174 C 
ATOM     32  C   UNL     1     151.744 146.248 130.607  1.00  0.00     0.211 C 
ATOM     33  O   UNL     1     152.266 142.683 130.548  1.00  0.00    -0.294 OA
ATOM     34  C   UNL     1     151.253 144.830 130.266  1.00  0.00     0.131 C 
BRANCH  27  35
ATOM     35  O   UNL     1     153.068 141.821 132.926  1.00  0.00    -0.507 OA
ATOM     36  H   UNL     1     153.923 141.331 133.154  1.00  0.00     0.293 HD
ENDBRANCH  27  35
BRANCH  32  37
ATOM     37  C   UNL     1     153.078 146.530 129.936  1.00  0.00    -0.007 A 
ATOM     38  C   UNL     1     154.229 146.652 130.735  1.00  0.00     0.011 A 
ATOM     39  C   UNL     1     153.196 146.714 128.541  1.00  0.00     0.011 A 
ATOM     40  C   UNL     1     155.469 146.949 130.158  1.00  0.00     0.046 A 
ATOM     41  C   UNL     1     154.439 146.985 127.964  1.00  0.00     0.046 A 
ATOM     42  C   UNL     1     155.576 147.103 128.769  1.00  0.00     0.115 A 
BRANCH  42  43
ATOM     43  O   UNL     1     156.807 147.382 128.180  1.00  0.00    -0.508 OA
ATOM     44  H   UNL     1     157.016 148.297 127.794  1.00  0.00     0.293 HD
ENDBRANCH  42  43
ENDBRANCH  32  37
ENDBRANCH  23  24
ENDBRANCH   6  23
BRANCH   3  45
ATOM     45  O   UNL     1     155.293 147.168 133.412  1.00  0.00    -0.387 OA
ATOM     46  H   UNL     1     156.254 147.038 133.190  1.00  0.00     0.211 HD
ENDBRANCH   3  45
BRANCH   4  47
ATOM     47  C   UNL     1     156.864 145.246 135.019  1.00  0.00     0.191 C 
BRANCH  47  48
ATOM     48  O   UNL     1     156.981 144.951 133.656  1.00  0.00    -0.394 OA
ATOM     49  H   UNL     1     157.299 145.777 133.209  1.00  0.00     0.210 HD
ENDBRANCH  47  48
ENDBRANCH   4  47
TORSDOF 14
ENDMDL
MODEL 2
REMARK VINA RESULT:     6.700      1.782      5.817
REMARK INTER + INTRA:          23.737
REMARK INTER:                  18.601
REMARK INTRA:                   5.137
REMARK UNBOUND:                13.121
REMARK SMILES C[C@H]1O[C@H](O[C@H]2[C@@H](Oc3cc(O)c4c(c3)O[C@@H](c3ccc(O)cc3)CC4=O)O[C@H](CO)[C@@H](O)[C@H]2O)[C@@H](O)[C@@H](O)[C@@H]1O
REMARK SMILES IDX 6 1 34 2 32 3 29 4 28 5 7 6 5 7 4 8 1 9 2 10 40 11 3 12
REMARK SMILES IDX 38 13 36 14 41 15 39 17 37 19 35 21 8 23 9 24 10 25 15 26
REMARK SMILES IDX 11 27 14 28 13 29 16 30 26 31 17 32 27 33 25 34 12 35 18 37
REMARK SMILES IDX 19 38 24 39 20 40 23 41 21 42 22 43 33 45 30 47 31 48
REMARK H PARENT 41 16 39 18 37 20 35 22 12 36 22 44 33 46 31 49
REMARK Flexibility Score: inf
ROOT
ATOM      1  C   UNL     1     150.217 147.507 133.705  1.00  0.00     0.221 C 
ATOM      2  C   UNL     1     150.676 148.763 134.477  1.00  0.00     0.181 C 
ATOM      3  C   UNL     1     149.542 149.260 135.388  1.00  0.00     0.177 C 
ATOM      4  C   UNL     1     149.010 148.099 136.259  1.00  0.00     0.179 C 
ATOM      5  O   UNL     1     148.576 147.023 135.439  1.00  0.00    -0.332 OA
ATOM      6  C   UNL     1     149.644 146.464 134.690  1.00  0.00     0.339 C 
ENDROOT
BRANCH   1   7
ATOM      7  O   UNL     1     151.287 146.924 132.981  1.00  0.00    -0.337 OA
BRANCH   7   8
ATOM      8  C   UNL     1     150.882 146.435 131.711  1.00  0.00     0.282 C 
ATOM      9  C   UNL     1     151.426 148.396 128.860  1.00  0.00     0.041 C 
ATOM     10  C   UNL     1     151.521 148.338 130.387  1.00  0.00     0.150 C 
ATOM     11  C   UNL     1     152.970 147.998 130.849  1.00  0.00     0.174 C 
ATOM     12  O   UNL     1     150.475 147.494 130.861  1.00  0.00    -0.344 OA
ATOM     13  C   UNL     1     153.266 146.481 130.810  1.00  0.00     0.179 C 
ATOM     14  C   UNL     1     152.008 145.615 131.063  1.00  0.00     0.202 C 
BRANCH  11  15
ATOM     15  O   UNL     1     153.182 148.508 132.141  1.00  0.00    -0.388 OA
ATOM     16  H   UNL     1     154.151 148.426 132.337  1.00  0.00     0.211 HD
ENDBRANCH  11  15
BRANCH  13  17
ATOM     17  O   UNL     1     153.865 146.165 129.578  1.00  0.00    -0.387 OA
ATOM     18  H   UNL     1     153.421 146.722 128.886  1.00  0.00     0.211 HD
ENDBRANCH  13  17
BRANCH  14  19
ATOM     19  O   UNL     1     151.551 145.064 129.851  1.00  0.00    -0.385 OA
ATOM     20  H   UNL     1     151.564 144.077 129.948  1.00  0.00     0.211 HD
ENDBRANCH  14  19
ENDBRANCH   7   8
ENDBRANCH   1   7
BRANCH   2  21
ATOM     21  O   UNL     1     151.829 148.467 135.233  1.00  0.00    -0.387 OA
ATOM     22  H   UNL     1     152.258 147.680 134.808  1.00  0.00     0.211 HD
ENDBRANCH   2  21
BRANCH   6  23
ATOM     23  O   UNL     1     150.643 145.947 135.581  1.00  0.00    -0.462 OA
BRANCH  23  24
ATOM     24  C   UNL     1     152.031 146.146 135.496  1.00  0.00     0.130 A 
ATOM     25  C   UNL     1     152.584 147.167 136.277  1.00  0.00     0.093 A 
ATOM     26  C   UNL     1     152.880 145.379 134.672  1.00  0.00     0.094 A 
ATOM     27  C   UNL     1     153.967 147.394 136.296  1.00  0.00     0.133 A 
ATOM     28  C   UNL     1     154.257 145.638 134.640  1.00  0.00     0.138 A 
ATOM     29  C   UNL     1     154.815 146.610 135.491  1.00  0.00     0.102 A 
ATOM     30  O   UNL     1     155.071 144.929 133.741  1.00  0.00    -0.484 OA
ATOM     31  C   UNL     1     156.290 146.747 135.512  1.00  0.00     0.174 C 
ATOM     32  C   UNL     1     156.454 145.244 133.521  1.00  0.00     0.211 C 
ATOM     33  O   UNL     1     156.853 147.677 136.148  1.00  0.00    -0.294 OA
ATOM     34  C   UNL     1     157.123 145.702 134.829  1.00  0.00     0.131 C 
BRANCH  27  35
ATOM     35  O   UNL     1     154.490 148.394 137.119  1.00  0.00    -0.507 OA
ATOM     36  H   UNL     1     155.330 148.247 137.663  1.00  0.00     0.293 HD
ENDBRANCH  27  35
BRANCH  32  37
ATOM     37  C   UNL     1     156.646 146.282 132.427  1.00  0.00    -0.007 A 
ATOM     38  C   UNL     1     156.939 147.608 132.793  1.00  0.00     0.011 A 
ATOM     39  C   UNL     1     156.499 145.970 131.058  1.00  0.00     0.011 A 
ATOM     40  C   UNL     1     157.086 148.600 131.816  1.00  0.00     0.046 A 
ATOM     41  C   UNL     1     156.670 146.957 130.084  1.00  0.00     0.046 A 
ATOM     42  C   UNL     1     156.963 148.272 130.460  1.00  0.00     0.115 A 
BRANCH  42  43
ATOM     43  O   UNL     1     157.123 149.246 129.477  1.00  0.00    -0.508 OA
ATOM     44  H   UNL     1     156.510 150.054 129.425  1.00  0.00     0.293 HD
ENDBRANCH  42  43
ENDBRANCH  32  37
ENDBRANCH  23  24
ENDBRANCH   6  23
BRANCH   3  45
ATOM     45  O   UNL     1     150.028 150.302 136.195  1.00  0.00    -0.387 OA
ATOM     46  H   UNL     1     149.244 150.834 136.500  1.00  0.00     0.211 HD
ENDBRANCH   3  45
BRANCH   4  47
ATOM     47  C   UNL     1     147.825 148.560 137.122  1.00  0.00     0.191 C 
BRANCH  47  48
ATOM     48  O   UNL     1     146.624 148.079 136.590  1.00  0.00    -0.394 OA
ATOM     49  H   UNL     1     146.792 147.147 136.296  1.00  0.00     0.210 HD
ENDBRANCH  47  48
ENDBRANCH   4  47
TORSDOF 14
ENDMDL
MODEL 3
REMARK VINA RESULT:     7.121      1.784      5.758
REMARK INTER + INTRA:          24.404
REMARK INTER:                  15.139
REMARK INTRA:                   9.265
REMARK UNBOUND:                13.121
REMARK SMILES C[C@H]1O[C@H](O[C@H]2[C@@H](Oc3cc(O)c4c(c3)O[C@@H](c3ccc(O)cc3)CC4=O)O[C@H](CO)[C@@H](O)[C@H]2O)[C@@H](O)[C@@H](O)[C@@H]1O
REMARK SMILES IDX 6 1 34 2 32 3 29 4 28 5 7 6 5 7 4 8 1 9 2 10 40 11 3 12
REMARK SMILES IDX 38 13 36 14 41 15 39 17 37 19 35 21 8 23 9 24 10 25 15 26
REMARK SMILES IDX 11 27 14 28 13 29 16 30 26 31 17 32 27 33 25 34 12 35 18 37
REMARK SMILES IDX 19 38 24 39 20 40 23 41 21 42 22 43 33 45 30 47 31 48
REMARK H PARENT 41 16 39 18 37 20 35 22 12 36 22 44 33 46 31 49
REMARK Flexibility Score: inf
ROOT
ATOM      1  C   UNL     1     149.753 146.570 133.579  1.00  0.00     0.221 C 
ATOM      2  C   UNL     1     150.883 147.618 133.486  1.00  0.00     0.181 C 
ATOM      3  C   UNL     1     150.567 148.809 134.406  1.00  0.00     0.177 C 
ATOM      4  C   UNL     1     150.235 148.309 135.831  1.00  0.00     0.179 C 
ATOM      5  O   UNL     1     149.153 147.389 135.793  1.00  0.00    -0.332 OA
ATOM      6  C   UNL     1     149.479 146.220 135.059  1.00  0.00     0.339 C 
ENDROOT
BRANCH   1   7
ATOM      7  O   UNL     1     150.085 145.386 132.874  1.00  0.00    -0.337 OA
BRANCH   7   8
ATOM      8  C   UNL     1     151.382 145.440 132.300  1.00  0.00     0.282 C 
ATOM      9  C   UNL     1     152.856 142.497 131.102  1.00  0.00     0.041 C 
ATOM     10  C   UNL     1     151.653 143.095 131.837  1.00  0.00     0.150 C 
ATOM     11  C   UNL     1     150.442 143.287 130.874  1.00  0.00     0.174 C 
ATOM     12  O   UNL     1     152.102 144.245 132.550  1.00  0.00    -0.344 OA
ATOM     13  C   UNL     1     150.540 144.590 130.048  1.00  0.00     0.179 C 
ATOM     14  C   UNL     1     151.293 145.720 130.792  1.00  0.00     0.202 C 
BRANCH  11  15
ATOM     15  O   UNL     1     149.248 143.261 131.614  1.00  0.00    -0.388 OA
ATOM     16  H   UNL     1     149.158 142.349 131.998  1.00  0.00     0.211 HD
ENDBRANCH  11  15
BRANCH  13  17
ATOM     17  O   UNL     1     151.142 144.302 128.811  1.00  0.00    -0.387 OA
ATOM     18  H   UNL     1     152.035 143.913 129.005  1.00  0.00     0.211 HD
ENDBRANCH  13  17
BRANCH  14  19
ATOM     19  O   UNL     1     152.591 145.862 130.263  1.00  0.00    -0.385 OA
ATOM     20  H   UNL     1     153.136 145.106 130.602  1.00  0.00     0.211 HD
ENDBRANCH  14  19
ENDBRANCH   7   8
ENDBRANCH   1   7
BRANCH   2  21
ATOM     21  O   UNL     1     152.114 147.028 133.840  1.00  0.00    -0.387 OA
ATOM     22  H   UNL     1     151.979 146.046 133.822  1.00  0.00     0.211 HD
ENDBRANCH   2  21
BRANCH   6  23
ATOM     23  O   UNL     1     150.588 145.551 135.676  1.00  0.00    -0.462 OA
BRANCH  23  24
ATOM     24  C   UNL     1     151.929 145.970 135.678  1.00  0.00     0.130 A 
ATOM     25  C   UNL     1     152.226 147.174 136.329  1.00  0.00     0.093 A 
ATOM     26  C   UNL     1     152.973 145.250 135.063  1.00  0.00     0.094 A 
ATOM     27  C   UNL     1     153.546 147.634 136.428  1.00  0.00     0.133 A 
ATOM     28  C   UNL     1     154.287 145.733 135.107  1.00  0.00     0.138 A 
ATOM     29  C   UNL     1     154.590 146.899 135.834  1.00  0.00     0.102 A 
ATOM     30  O   UNL     1     155.296 145.051 134.406  1.00  0.00    -0.484 OA
ATOM     31  C   UNL     1     156.014 147.288 135.958  1.00  0.00     0.174 C 
ATOM     32  C   UNL     1     156.629 145.563 134.256  1.00  0.00     0.211 C 
ATOM     33  O   UNL     1     156.352 148.383 136.481  1.00  0.00    -0.294 OA
ATOM     34  C   UNL     1     157.070 146.314 135.525  1.00  0.00     0.131 C 
BRANCH  27  35
ATOM     35  O   UNL     1     153.813 148.818 137.120  1.00  0.00    -0.507 OA
ATOM     36  H   UNL     1     154.325 148.818 137.993  1.00  0.00     0.293 HD
ENDBRANCH  27  35
BRANCH  32  37
ATOM     37  C   UNL     1     156.775 146.449 133.029  1.00  0.00    -0.007 A 
ATOM     38  C   UNL     1     157.021 147.822 133.208  1.00  0.00     0.011 A 
ATOM     39  C   UNL     1     156.633 145.949 131.717  1.00  0.00     0.011 A 
ATOM     40  C   UNL     1     157.124 148.677 132.105  1.00  0.00     0.046 A 
ATOM     41  C   UNL     1     156.762 146.799 130.617  1.00  0.00     0.046 A 
ATOM     42  C   UNL     1     157.007 148.163 130.807  1.00  0.00     0.115 A 
BRANCH  42  43
ATOM     43  O   UNL     1     157.125 149.000 129.700  1.00  0.00    -0.508 OA
ATOM     44  H   UNL     1     157.453 149.956 129.789  1.00  0.00     0.293 HD
ENDBRANCH  42  43
ENDBRANCH  32  37
ENDBRANCH  23  24
ENDBRANCH   6  23
BRANCH   3  45
ATOM     45  O   UNL     1     151.674 149.674 134.430  1.00  0.00    -0.387 OA
ATOM     46  H   UNL     1     152.491 149.116 134.318  1.00  0.00     0.211 HD
ENDBRANCH   3  45
BRANCH   4  47
ATOM     47  C   UNL     1     149.843 149.482 136.744  1.00  0.00     0.191 C 
BRANCH  47  48
ATOM     48  O   UNL     1     150.983 150.198 137.125  1.00  0.00    -0.394 OA
ATOM     49  H   UNL     1     151.764 149.613 136.947  1.00  0.00     0.210 HD
ENDBRANCH  47  48
ENDBRANCH   4  47
TORSDOF 14
ENDMDL
