MODEL 1
REMARK VINA RESULT:    -3.989      0.000      0.000
REMARK INTER + INTRA:          -4.090
REMARK INTER:                  -4.922
REMARK INTRA:                   0.833
REMARK UNBOUND:                 0.833
REMARK SMILES CC1=CC=CC(C)(C)CC1=O
REMARK SMILES IDX 1 1 2 2 3 3 10 4 11 5 9 6 4 8 5 9 6 10 7 11 8 12
REMARK H PARENT
REMARK Flexibility Score: 80.00
ROOT
ATOM      1  C   UNL     1      18.347 -13.612  70.375  1.00  0.00     0.048 C 
ATOM      2  C   UNL     1      18.606 -12.867  69.085  1.00  0.00    -0.008 C 
ATOM      3  C   UNL     1      17.684 -12.969  68.102  1.00  0.00     0.007 C 
ENDROOT
BRANCH   2   4
ATOM      4  C   UNL     1      19.891 -12.125  68.988  1.00  0.00     0.159 C 
ATOM      5  O   UNL     1      20.633 -12.068  70.007  1.00  0.00    -0.295 OA
BRANCH   4   6
ATOM      6  C   UNL     1      20.389 -11.464  67.737  1.00  0.00     0.091 CG0
ATOM      7  G   UNL     1      19.372 -10.495  67.093  1.00  0.00     0.000 G0
ENDBRANCH   4   6
ENDBRANCH   2   4
BRANCH   3   8
ATOM      8  C   UNL     1      17.663 -12.351  66.757  1.00  0.00    -0.003 C 
ATOM      9  C   UNL     1      18.347 -11.290  66.316  1.00  0.00    -0.020 C 
BRANCH   9  10
ATOM     10  C   UNL     1      19.373 -10.503  67.097  1.00  0.00    -0.010 CG0
ATOM     11  C   UNL     1      18.675  -9.578  68.120  1.00  0.00     0.016 C 
ATOM     12  C   UNL     1      20.154  -9.610  66.105  1.00  0.00     0.016 C 
ATOM     13  G   UNL     1      20.374 -11.477  67.757  1.00  0.00     0.000 G0
ENDBRANCH   9  10
ENDBRANCH   3   8
TORSDOF 0
ENDMDL
MODEL 2
REMARK VINA RESULT:    -3.594      2.878      3.795
REMARK INTER + INTRA:          -3.601
REMARK INTER:                  -4.441
REMARK INTRA:                   0.840
REMARK UNBOUND:                 0.833
REMARK SMILES CC1=CC=CC(C)(C)CC1=O
REMARK SMILES IDX 1 1 2 2 3 3 10 4 11 5 9 6 4 8 5 9 6 10 7 11 8 12
REMARK H PARENT
REMARK Flexibility Score: 80.00
ROOT
ATOM      1  C   UNL     1      15.477 -11.486  65.219  1.00  0.00     0.048 C 
ATOM      2  C   UNL     1      16.823 -10.987  65.694  1.00  0.00    -0.008 C 
ATOM      3  C   UNL     1      16.912 -10.524  66.960  1.00  0.00     0.007 C 
ENDROOT
BRANCH   2   4
ATOM      4  C   UNL     1      17.928 -10.996  64.699  1.00  0.00     0.159 C 
ATOM      5  O   UNL     1      17.711 -11.494  63.561  1.00  0.00    -0.295 OA
BRANCH   4   6
ATOM      6  C   UNL     1      19.288 -10.413  64.947  1.00  0.00     0.091 CG0
ATOM      7  G   UNL     1      19.955 -10.910  66.249  1.00  0.00     0.000 G0
ENDBRANCH   4   6
ENDBRANCH   2   4
BRANCH   3   8
ATOM      8  C   UNL     1      18.084  -9.991  67.692  1.00  0.00    -0.003 C 
ATOM      9  C   UNL     1      19.383 -10.166  67.427  1.00  0.00    -0.020 C 
BRANCH   9  10
ATOM     10  C   UNL     1      19.960 -10.913  66.248  1.00  0.00    -0.010 CG0
ATOM     11  C   UNL     1      19.828 -12.438  66.463  1.00  0.00     0.016 C 
ATOM     12  C   UNL     1      21.465 -10.576  66.152  1.00  0.00     0.016 C 
ATOM     13  G   UNL     1      19.276 -10.432  64.950  1.00  0.00     0.000 G0
ENDBRANCH   9  10
ENDBRANCH   3   8
TORSDOF 0
ENDMDL
MODEL 3
REMARK VINA RESULT:    -3.556      2.146      3.669
REMARK INTER + INTRA:          -3.555
REMARK INTER:                  -4.393
REMARK INTRA:                   0.838
REMARK UNBOUND:                 0.833
REMARK SMILES CC1=CC=CC(C)(C)CC1=O
REMARK SMILES IDX 1 1 2 2 3 3 10 4 11 5 9 6 4 8 5 9 6 10 7 11 8 12
REMARK H PARENT
REMARK Flexibility Score: 80.00
ROOT
ATOM      1  C   UNL     1      16.225 -10.826  65.094  1.00  0.00     0.048 C 
ATOM      2  C   UNL     1      17.308 -11.018  66.132  1.00  0.00    -0.008 C 
ATOM      3  C   UNL     1      17.485 -10.039  67.047  1.00  0.00     0.007 C 
ENDROOT
BRANCH   2   4
ATOM      4  C   UNL     1      18.128 -12.253  66.020  1.00  0.00     0.159 C 
ATOM      5  O   UNL     1      17.820 -13.106  65.144  1.00  0.00    -0.295 OA
BRANCH   4   6
ATOM      6  C   UNL     1      19.335 -12.540  66.864  1.00  0.00     0.091 CG0
ATOM      7  G   UNL     1      19.082 -12.417  68.383  1.00  0.00     0.000 G0
ENDBRANCH   4   6
ENDBRANCH   2   4
BRANCH   3   8
ATOM      8  C   UNL     1      18.444  -9.958  68.171  1.00  0.00    -0.003 C 
ATOM      9  C   UNL     1      19.113 -10.949  68.771  1.00  0.00    -0.020 C 
BRANCH   9  10
ATOM     10  C   UNL     1      19.087 -12.407  68.378  1.00  0.00    -0.010 CG0
ATOM     11  C   UNL     1      17.767 -13.064  68.842  1.00  0.00     0.016 C 
ATOM     12  C   UNL     1      20.252 -13.123  69.100  1.00  0.00     0.016 C 
ATOM     13  G   UNL     1      19.315 -12.534  66.855  1.00  0.00     0.000 G0
ENDBRANCH   9  10
ENDBRANCH   3   8
TORSDOF 0
ENDMDL
MODEL 4
REMARK VINA RESULT:    -3.503     15.733     17.049
REMARK INTER + INTRA:          -3.490
REMARK INTER:                  -4.579
REMARK INTRA:                   1.089
REMARK UNBOUND:                 0.833
REMARK SMILES CC1=CC=CC(C)(C)CC1=O
REMARK SMILES IDX 1 1 2 2 3 3 10 4 11 5 9 6 4 8 5 9 6 10 7 11 8 12
REMARK H PARENT
REMARK Flexibility Score: 80.00
ROOT
ATOM      1  C   UNL     1       5.000  -6.568  56.915  1.00  0.00     0.048 C 
ATOM      2  C   UNL     1       5.840  -7.812  57.091  1.00  0.00    -0.008 C 
ATOM      3  C   UNL     1       6.274  -8.110  58.335  1.00  0.00     0.007 C 
ENDROOT
BRANCH   2   4
ATOM      4  C   UNL     1       6.166  -8.577  55.858  1.00  0.00     0.159 C 
ATOM      5  O   UNL     1       5.896  -8.063  54.738  1.00  0.00    -0.295 OA
BRANCH   4   6
ATOM      6  C   UNL     1       6.836  -9.920  55.853  1.00  0.00     0.091 CG0
ATOM      7  G   UNL     1       8.178  -9.954  56.618  1.00  0.00     0.000 G0
ENDBRANCH   4   6
ENDBRANCH   2   4
BRANCH   3   8
ATOM      8  C   UNL     1       7.091  -9.252  58.804  1.00  0.00    -0.003 C 
ATOM      9  C   UNL     1       7.880 -10.062  58.091  1.00  0.00    -0.020 C 
BRANCH   9  10
ATOM     10  C   UNL     1       8.174  -9.947  56.614  1.00  0.00    -0.010 CG0
ATOM     11  C   UNL     1       9.096 -11.101  56.158  1.00  0.00     0.016 C 
ATOM     12  C   UNL     1       8.925  -8.617  56.374  1.00  0.00     0.016 C 
ATOM     13  G   UNL     1       6.845  -9.897  55.828  1.00  0.00     0.000 G0
ENDBRANCH   9  10
ENDBRANCH   3   8
TORSDOF 0
ENDMDL
MODEL 5
REMARK VINA RESULT:    -3.482     15.703     17.060
REMARK INTER + INTRA:          -3.463
REMARK INTER:                  -4.323
REMARK INTRA:                   0.859
REMARK UNBOUND:                 0.833
REMARK SMILES CC1=CC=CC(C)(C)CC1=O
REMARK SMILES IDX 1 1 2 2 3 3 10 4 11 5 9 6 4 8 5 9 6 10 7 11 8 12
REMARK H PARENT
REMARK Flexibility Score: 80.00
ROOT
ATOM      1  C   UNL     1       5.262  -6.827  56.534  1.00  0.00     0.048 C 
ATOM      2  C   UNL     1       6.270  -7.811  55.987  1.00  0.00    -0.008 C 
ATOM      3  C   UNL     1       6.579  -7.734  54.673  1.00  0.00     0.007 C 
ENDROOT
BRANCH   2   4
ATOM      4  C   UNL     1       6.798  -8.824  56.939  1.00  0.00     0.159 C 
ATOM      5  O   UNL     1       6.439  -8.764  58.146  1.00  0.00    -0.295 OA
BRANCH   4   6
ATOM      6  C   UNL     1       7.712  -9.949  56.549  1.00  0.00     0.091 CG0
ATOM      7  G   UNL     1       8.960  -9.498  55.758  1.00  0.00     0.000 G0
ENDBRANCH   4   6
ENDBRANCH   2   4
BRANCH   3   8
ATOM      8  C   UNL     1       7.525  -8.545  53.875  1.00  0.00    -0.003 C 
ATOM      9  C   UNL     1       8.558  -9.282  54.300  1.00  0.00    -0.020 C 
BRANCH   9  10
ATOM     10  C   UNL     1       8.959  -9.508  55.738  1.00  0.00    -0.010 CG0
ATOM     11  C   UNL     1       9.637  -8.243  56.312  1.00  0.00     0.016 C 
ATOM     12  C   UNL     1       9.990 -10.659  55.777  1.00  0.00     0.016 C 
ATOM     13  G   UNL     1       7.722  -9.945  56.554  1.00  0.00     0.000 G0
ENDBRANCH   9  10
ENDBRANCH   3   8
TORSDOF 0
ENDMDL
MODEL 6
REMARK VINA RESULT:    -3.398      2.311      4.239
REMARK INTER + INTRA:          -3.360
REMARK INTER:                  -4.200
REMARK INTRA:                   0.841
REMARK UNBOUND:                 0.833
REMARK SMILES CC1=CC=CC(C)(C)CC1=O
REMARK SMILES IDX 1 1 2 2 3 3 10 4 11 5 9 6 4 8 5 9 6 10 7 11 8 12
REMARK H PARENT
REMARK Flexibility Score: 80.00
ROOT
ATOM      1  C   UNL     1      21.069  -9.869  63.478  1.00  0.00     0.048 C 
ATOM      2  C   UNL     1      19.795  -9.997  64.281  1.00  0.00    -0.008 C 
ATOM      3  C   UNL     1      18.630  -9.687  63.671  1.00  0.00     0.007 C 
ENDROOT
BRANCH   2   4
ATOM      4  C   UNL     1      19.941 -10.404  65.704  1.00  0.00     0.159 C 
ATOM      5  O   UNL     1      21.088 -10.710  66.130  1.00  0.00    -0.295 OA
BRANCH   4   6
ATOM      6  C   UNL     1      18.810 -10.439  66.690  1.00  0.00     0.091 CG0
ATOM      7  G   UNL     1      17.583 -11.244  66.207  1.00  0.00     0.000 G0
ENDBRANCH   4   6
ENDBRANCH   2   4
BRANCH   3   8
ATOM      8  C   UNL     1      17.247  -9.728  64.196  1.00  0.00    -0.003 C 
ATOM      9  C   UNL     1      16.775 -10.398  65.253  1.00  0.00    -0.020 C 
BRANCH   9  10
ATOM     10  C   UNL     1      17.588 -11.233  66.214  1.00  0.00    -0.010 CG0
ATOM     11  C   UNL     1      17.961 -12.586  65.566  1.00  0.00     0.016 C 
ATOM     12  C   UNL     1      16.715 -11.527  67.456  1.00  0.00     0.016 C 
ATOM     13  G   UNL     1      18.824 -10.429  66.675  1.00  0.00     0.000 G0
ENDBRANCH   9  10
ENDBRANCH   3   8
TORSDOF 0
ENDMDL
MODEL 7
REMARK VINA RESULT:    -3.374      2.426      4.142
REMARK INTER + INTRA:          -3.331
REMARK INTER:                  -4.183
REMARK INTRA:                   0.853
REMARK UNBOUND:                 0.833
REMARK SMILES CC1=CC=CC(C)(C)CC1=O
REMARK SMILES IDX 1 1 2 2 3 3 10 4 11 5 9 6 4 8 5 9 6 10 7 11 8 12
REMARK H PARENT
REMARK Flexibility Score: 80.00
ROOT
ATOM      1  C   UNL     1      16.878 -10.961  62.898  1.00  0.00     0.048 C 
ATOM      2  C   UNL     1      17.854 -10.819  64.043  1.00  0.00    -0.008 C 
ATOM      3  C   UNL     1      18.706  -9.771  64.020  1.00  0.00     0.007 C 
ENDROOT
BRANCH   2   4
ATOM      4  C   UNL     1      17.830 -11.888  65.077  1.00  0.00     0.159 C 
ATOM      5  O   UNL     1      16.959 -12.796  64.987  1.00  0.00    -0.295 OA
BRANCH   4   6
ATOM      6  C   UNL     1      18.805 -11.981  66.214  1.00  0.00     0.091 CG0
ATOM      7  G   UNL     1      18.955 -10.672  67.021  1.00  0.00     0.000 G0
ENDBRANCH   4   6
ENDBRANCH   2   4
BRANCH   3   8
ATOM      8  C   UNL     1      19.747  -9.376  64.996  1.00  0.00    -0.003 C 
ATOM      9  C   UNL     1      19.859  -9.722  66.284  1.00  0.00    -0.020 C 
BRANCH   9  10
ATOM     10  C   UNL     1      18.955 -10.673  67.032  1.00  0.00    -0.010 CG0
ATOM     11  C   UNL     1      17.601  -9.995  67.343  1.00  0.00     0.016 C 
ATOM     12  C   UNL     1      19.631 -11.023  68.378  1.00  0.00     0.016 C 
ATOM     13  G   UNL     1      18.798 -11.978  66.220  1.00  0.00     0.000 G0
ENDBRANCH   9  10
ENDBRANCH   3   8
TORSDOF 0
ENDMDL
MODEL 8
REMARK VINA RESULT:    -3.316     17.669     18.527
REMARK INTER + INTRA:          -3.259
REMARK INTER:                  -4.099
REMARK INTRA:                   0.840
REMARK UNBOUND:                 0.833
REMARK SMILES CC1=CC=CC(C)(C)CC1=O
REMARK SMILES IDX 1 1 2 2 3 3 10 4 11 5 9 6 4 8 5 9 6 10 7 11 8 12
REMARK H PARENT
REMARK Flexibility Score: 80.00
ROOT
ATOM      1  C   UNL     1       5.810   1.636  66.089  1.00  0.00     0.048 C 
ATOM      2  C   UNL     1       6.018   1.104  64.689  1.00  0.00    -0.008 C 
ATOM      3  C   UNL     1       4.995   0.441  64.108  1.00  0.00     0.007 C 
ENDROOT
BRANCH   2   4
ATOM      4  C   UNL     1       7.364   1.311  64.090  1.00  0.00     0.159 C 
ATOM      5  O   UNL     1       8.212   1.989  64.730  1.00  0.00    -0.295 OA
BRANCH   4   6
ATOM      6  C   UNL     1       7.798   0.730  62.776  1.00  0.00     0.091 CG0
ATOM      7  G   UNL     1       6.834   1.033  61.608  1.00  0.00     0.000 G0
ENDBRANCH   4   6
ENDBRANCH   2   4
BRANCH   3   8
ATOM      8  C   UNL     1       4.907  -0.171  62.762  1.00  0.00    -0.003 C 
ATOM      9  C   UNL     1       5.653   0.080  61.681  1.00  0.00    -0.020 C 
BRANCH   9  10
ATOM     10  C   UNL     1       6.829   1.025  61.609  1.00  0.00    -0.010 CG0
ATOM     11  C   UNL     1       6.337   2.490  61.573  1.00  0.00     0.016 C 
ATOM     12  C   UNL     1       7.592   0.748  60.293  1.00  0.00     0.016 C 
ATOM     13  G   UNL     1       7.787   0.745  62.788  1.00  0.00     0.000 G0
ENDBRANCH   9  10
ENDBRANCH   3   8
TORSDOF 0
ENDMDL
MODEL 9
REMARK VINA RESULT:    -3.240      1.956      3.717
REMARK INTER + INTRA:          -3.165
REMARK INTER:                  -4.023
REMARK INTRA:                   0.859
REMARK UNBOUND:                 0.833
REMARK SMILES CC1=CC=CC(C)(C)CC1=O
REMARK SMILES IDX 1 1 2 2 3 3 10 4 11 5 9 6 4 8 5 9 6 10 7 11 8 12
REMARK H PARENT
REMARK Flexibility Score: 80.00
ROOT
ATOM      1  C   UNL     1      18.737  -9.596  63.899  1.00  0.00     0.048 C 
ATOM      2  C   UNL     1      18.565 -10.260  65.247  1.00  0.00    -0.008 C 
ATOM      3  C   UNL     1      17.307 -10.452  65.699  1.00  0.00     0.007 C 
ENDROOT
BRANCH   2   4
ATOM      4  C   UNL     1      19.809 -10.596  65.988  1.00  0.00     0.159 C 
ATOM      5  O   UNL     1      20.921 -10.388  65.429  1.00  0.00    -0.295 OA
BRANCH   4   6
ATOM      6  C   UNL     1      19.834 -11.137  67.388  1.00  0.00     0.091 CG0
ATOM      7  G   UNL     1      18.918 -12.362  67.602  1.00  0.00     0.000 G0
ENDBRANCH   4   6
ENDBRANCH   2   4
BRANCH   3   8
ATOM      8  C   UNL     1      16.839 -11.077  66.957  1.00  0.00    -0.003 C 
ATOM      9  C   UNL     1      17.497 -11.912  67.769  1.00  0.00    -0.020 C 
BRANCH   9  10
ATOM     10  C   UNL     1      18.930 -12.365  67.611  1.00  0.00    -0.010 CG0
ATOM     11  C   UNL     1      19.042 -13.403  66.472  1.00  0.00     0.016 C 
ATOM     12  C   UNL     1      19.366 -13.053  68.925  1.00  0.00     0.016 C 
ATOM     13  G   UNL     1      19.836 -11.134  67.390  1.00  0.00     0.000 G0
ENDBRANCH   9  10
ENDBRANCH   3   8
TORSDOF 0
ENDMDL
