MODEL 1
REMARK VINA RESULT:    -4.972      0.000      0.000
REMARK INTER + INTRA:          -7.231
REMARK INTER:                  -6.716
REMARK INTRA:                  -0.515
REMARK UNBOUND:                -0.515
REMARK SMILES CCCCCCC=CC(=O)[O-]
REMARK SMILES IDX 5 1 6 2 7 3 8 4 9 5 10 6 11 7 4 8 3 9 2 10 1 11
REMARK H PARENT
REMARK Flexibility Score: inf
ROOT
ATOM      1  C   UNL     1      -3.537  44.952   1.337  1.00  0.00     0.004 C 
ENDROOT
BRANCH   1   2
ATOM      2  C   UNL     1      -2.797  45.781   0.271  1.00  0.00     0.027 C 
BRANCH   2   3
ATOM      3  C   UNL     1      -1.456  45.197  -0.090  1.00  0.00    -0.025 C 
ATOM      4  C   UNL     1      -0.977  45.027  -1.333  1.00  0.00     0.020 C 
BRANCH   4   5
ATOM      5  C   UNL     1      -1.635  45.427  -2.595  1.00  0.00     0.064 C 
ATOM      6  O   UNL     1      -1.653  46.622  -2.990  1.00  0.00    -0.545 OA
ATOM      7  O   UNL     1      -2.222  44.448  -3.385  1.00  0.00    -0.545 OA
ENDBRANCH   4   5
ENDBRANCH   2   3
ENDBRANCH   1   2
BRANCH   1   8
ATOM      8  C   UNL     1      -2.619  44.350   2.418  1.00  0.00     0.000 C 
BRANCH   8   9
ATOM      9  C   UNL     1      -3.019  44.768   3.841  1.00  0.00    -0.000 C 
BRANCH   9  10
ATOM     10  C   UNL     1      -1.922  45.621   4.490  1.00  0.00    -0.003 C 
ATOM     11  C   UNL     1      -0.789  45.900   3.508  1.00  0.00     0.004 C 
ENDBRANCH   9  10
ENDBRANCH   8   9
ENDBRANCH   1   8
TORSDOF 6
ENDMDL
MODEL 2
REMARK VINA RESULT:    -4.907      4.020      5.580
REMARK INTER + INTRA:          -7.143
REMARK INTER:                  -6.714
REMARK INTRA:                  -0.429
REMARK UNBOUND:                -0.515
REMARK SMILES CCCCCCC=CC(=O)[O-]
REMARK SMILES IDX 5 1 6 2 7 3 8 4 9 5 10 6 11 7 4 8 3 9 2 10 1 11
REMARK H PARENT
REMARK Flexibility Score: inf
ROOT
ATOM      1  C   UNL     1      -1.977  45.850   0.994  1.00  0.00     0.004 C 
ENDROOT
BRANCH   1   2
ATOM      2  C   UNL     1      -2.298  44.913   2.173  1.00  0.00     0.027 C 
BRANCH   2   3
ATOM      3  C   UNL     1      -1.870  45.483   3.500  1.00  0.00    -0.025 C 
ATOM      4  C   UNL     1      -2.558  45.409   4.651  1.00  0.00     0.020 C 
BRANCH   4   5
ATOM      5  C   UNL     1      -3.842  44.709   4.869  1.00  0.00     0.064 C 
ATOM      6  O   UNL     1      -4.919  45.332   5.054  1.00  0.00    -0.545 OA
ATOM      7  O   UNL     1      -3.862  43.321   4.837  1.00  0.00    -0.545 OA
ENDBRANCH   4   5
ENDBRANCH   2   3
ENDBRANCH   1   2
BRANCH   1   8
ATOM      8  C   UNL     1      -1.104  45.210  -0.102  1.00  0.00     0.000 C 
BRANCH   8   9
ATOM      9  C   UNL     1      -0.114  44.174   0.452  1.00  0.00    -0.000 C 
BRANCH   9  10
ATOM     10  C   UNL     1       1.333  44.595   0.170  1.00  0.00    -0.003 C 
ATOM     11  C   UNL     1       2.069  44.934   1.463  1.00  0.00     0.004 C 
ENDBRANCH   9  10
ENDBRANCH   8   9
ENDBRANCH   1   8
TORSDOF 6
ENDMDL
MODEL 3
REMARK VINA RESULT:    -4.867      3.956      5.365
REMARK INTER + INTRA:          -7.089
REMARK INTER:                  -6.805
REMARK INTRA:                  -0.284
REMARK UNBOUND:                -0.515
REMARK SMILES CCCCCCC=CC(=O)[O-]
REMARK SMILES IDX 5 1 6 2 7 3 8 4 9 5 10 6 11 7 4 8 3 9 2 10 1 11
REMARK H PARENT
REMARK Flexibility Score: inf
ROOT
ATOM      1  C   UNL     1       1.049  46.363   3.709  1.00  0.00     0.004 C 
ENDROOT
BRANCH   1   2
ATOM      2  C   UNL     1      -0.430  45.933   3.718  1.00  0.00     0.027 C 
BRANCH   2   3
ATOM      3  C   UNL     1      -1.141  46.273   2.434  1.00  0.00    -0.025 C 
ATOM      4  C   UNL     1      -1.975  45.467   1.756  1.00  0.00     0.020 C 
BRANCH   4   5
ATOM      5  C   UNL     1      -2.413  44.113   2.154  1.00  0.00     0.064 C 
ATOM      6  O   UNL     1      -1.934  43.075   1.629  1.00  0.00    -0.545 OA
ATOM      7  O   UNL     1      -3.360  43.983   3.161  1.00  0.00    -0.545 OA
ENDBRANCH   4   5
ENDBRANCH   2   3
ENDBRANCH   1   2
BRANCH   1   8
ATOM      8  C   UNL     1       1.937  45.547   2.750  1.00  0.00     0.000 C 
BRANCH   8   9
ATOM      9  C   UNL     1       3.436  45.711   3.040  1.00  0.00    -0.000 C 
BRANCH   9  10
ATOM     10  C   UNL     1       4.031  46.856   2.212  1.00  0.00    -0.003 C 
ATOM     11  C   UNL     1       5.440  47.203   2.685  1.00  0.00     0.004 C 
ENDBRANCH   9  10
ENDBRANCH   8   9
ENDBRANCH   1   8
TORSDOF 6
ENDMDL
MODEL 4
REMARK VINA RESULT:    -4.820     10.303     11.711
REMARK INTER + INTRA:          -7.025
REMARK INTER:                  -6.646
REMARK INTRA:                  -0.379
REMARK UNBOUND:                -0.515
REMARK SMILES CCCCCCC=CC(=O)[O-]
REMARK SMILES IDX 5 1 6 2 7 3 8 4 9 5 10 6 11 7 4 8 3 9 2 10 1 11
REMARK H PARENT
REMARK Flexibility Score: inf
ROOT
ATOM      1  C   UNL     1       2.182  45.641  12.090  1.00  0.00     0.004 C 
ENDROOT
BRANCH   1   2
ATOM      2  C   UNL     1       1.691  47.023  12.559  1.00  0.00     0.027 C 
BRANCH   2   3
ATOM      3  C   UNL     1       1.392  47.953  11.412  1.00  0.00    -0.025 C 
ATOM      4  C   UNL     1       0.459  47.764  10.465  1.00  0.00     0.020 C 
BRANCH   4   5
ATOM      5  C   UNL     1      -0.502  46.644  10.382  1.00  0.00     0.064 C 
ATOM      6  O   UNL     1      -0.342  45.684   9.586  1.00  0.00    -0.545 OA
ATOM      7  O   UNL     1      -1.599  46.638  11.234  1.00  0.00    -0.545 OA
ENDBRANCH   4   5
ENDBRANCH   2   3
ENDBRANCH   1   2
BRANCH   1   8
ATOM      8  C   UNL     1       3.693  45.574  11.795  1.00  0.00     0.000 C 
BRANCH   8   9
ATOM      9  C   UNL     1       4.014  44.833  10.488  1.00  0.00    -0.000 C 
BRANCH   9  10
ATOM     10  C   UNL     1       2.838  43.949  10.057  1.00  0.00    -0.003 C 
ATOM     11  C   UNL     1       3.322  42.734   9.271  1.00  0.00     0.004 C 
ENDBRANCH   9  10
ENDBRANCH   8   9
ENDBRANCH   1   8
TORSDOF 6
ENDMDL
MODEL 5
REMARK VINA RESULT:    -4.814      9.430     10.630
REMARK INTER + INTRA:          -7.018
REMARK INTER:                  -6.557
REMARK INTRA:                  -0.460
REMARK UNBOUND:                -0.515
REMARK SMILES CCCCCCC=CC(=O)[O-]
REMARK SMILES IDX 5 1 6 2 7 3 8 4 9 5 10 6 11 7 4 8 3 9 2 10 1 11
REMARK H PARENT
REMARK Flexibility Score: inf
ROOT
ATOM      1  C   UNL     1       9.054  46.234  -4.426  1.00  0.00     0.004 C 
ENDROOT
BRANCH   1   2
ATOM      2  C   UNL     1       8.372  45.163  -5.297  1.00  0.00     0.027 C 
BRANCH   2   3
ATOM      3  C   UNL     1       7.809  44.026  -4.484  1.00  0.00    -0.025 C 
ATOM      4  C   UNL     1       6.506  43.745  -4.314  1.00  0.00     0.020 C 
BRANCH   4   5
ATOM      5  C   UNL     1       5.363  44.450  -4.931  1.00  0.00     0.064 C 
ATOM      6  O   UNL     1       4.562  45.144  -4.253  1.00  0.00    -0.545 OA
ATOM      7  O   UNL     1       5.188  44.369  -6.306  1.00  0.00    -0.545 OA
ENDBRANCH   4   5
ENDBRANCH   2   3
ENDBRANCH   1   2
BRANCH   1   8
ATOM      8  C   UNL     1       8.283  46.586  -3.140  1.00  0.00     0.000 C 
BRANCH   8   9
ATOM      9  C   UNL     1       7.059  47.477  -3.402  1.00  0.00    -0.000 C 
BRANCH   9  10
ATOM     10  C   UNL     1       6.868  48.491  -2.268  1.00  0.00    -0.003 C 
ATOM     11  C   UNL     1       8.143  48.643  -1.444  1.00  0.00     0.004 C 
ENDBRANCH   9  10
ENDBRANCH   8   9
ENDBRANCH   1   8
TORSDOF 6
ENDMDL
MODEL 6
REMARK VINA RESULT:    -4.772      3.398      4.896
REMARK INTER + INTRA:          -6.961
REMARK INTER:                  -6.461
REMARK INTRA:                  -0.500
REMARK UNBOUND:                -0.515
REMARK SMILES CCCCCCC=CC(=O)[O-]
REMARK SMILES IDX 5 1 6 2 7 3 8 4 9 5 10 6 11 7 4 8 3 9 2 10 1 11
REMARK H PARENT
REMARK Flexibility Score: inf
ROOT
ATOM      1  C   UNL     1      -2.086  46.122   0.018  1.00  0.00     0.004 C 
ENDROOT
BRANCH   1   2
ATOM      2  C   UNL     1      -3.363  45.583   0.688  1.00  0.00     0.027 C 
BRANCH   2   3
ATOM      3  C   UNL     1      -3.166  44.221   1.302  1.00  0.00    -0.025 C 
ATOM      4  C   UNL     1      -2.758  43.971   2.556  1.00  0.00     0.020 C 
BRANCH   4   5
ATOM      5  C   UNL     1      -2.474  44.970   3.608  1.00  0.00     0.064 C 
ATOM      6  O   UNL     1      -1.590  45.854   3.470  1.00  0.00    -0.545 OA
ATOM      7  O   UNL     1      -3.231  44.950   4.773  1.00  0.00    -0.545 OA
ENDBRANCH   4   5
ENDBRANCH   2   3
ENDBRANCH   1   2
BRANCH   1   8
ATOM      8  C   UNL     1      -1.541  45.229  -1.112  1.00  0.00     0.000 C 
BRANCH   8   9
ATOM      9  C   UNL     1      -0.057  44.877  -0.933  1.00  0.00    -0.000 C 
BRANCH   9  10
ATOM     10  C   UNL     1       0.249  44.522   0.527  1.00  0.00    -0.003 C 
ATOM     11  C   UNL     1       1.750  44.547   0.798  1.00  0.00     0.004 C 
ENDBRANCH   9  10
ENDBRANCH   8   9
ENDBRANCH   1   8
TORSDOF 6
ENDMDL
MODEL 7
REMARK VINA RESULT:    -4.757      3.398      4.509
REMARK INTER + INTRA:          -6.941
REMARK INTER:                  -6.642
REMARK INTRA:                  -0.298
REMARK UNBOUND:                -0.515
REMARK SMILES CCCCCCC=CC(=O)[O-]
REMARK SMILES IDX 5 1 6 2 7 3 8 4 9 5 10 6 11 7 4 8 3 9 2 10 1 11
REMARK H PARENT
REMARK Flexibility Score: inf
ROOT
ATOM      1  C   UNL     1       1.747  44.652   1.111  1.00  0.00     0.004 C 
ENDROOT
BRANCH   1   2
ATOM      2  C   UNL     1       0.295  44.504   0.620  1.00  0.00     0.027 C 
BRANCH   2   3
ATOM      3  C   UNL     1      -0.691  45.238   1.491  1.00  0.00    -0.025 C 
ATOM      4  C   UNL     1      -1.887  45.712   1.106  1.00  0.00     0.020 C 
BRANCH   4   5
ATOM      5  C   UNL     1      -2.509  45.561  -0.227  1.00  0.00     0.064 C 
ATOM      6  O   UNL     1      -3.501  44.813  -0.420  1.00  0.00    -0.545 OA
ATOM      7  O   UNL     1      -2.000  46.295  -1.290  1.00  0.00    -0.545 OA
ENDBRANCH   4   5
ENDBRANCH   2   3
ENDBRANCH   1   2
BRANCH   1   8
ATOM      8  C   UNL     1       1.890  45.437   2.428  1.00  0.00     0.000 C 
BRANCH   8   9
ATOM      9  C   UNL     1       3.353  45.624   2.856  1.00  0.00    -0.000 C 
BRANCH   9  10
ATOM     10  C   UNL     1       4.012  46.764   2.071  1.00  0.00    -0.003 C 
ATOM     11  C   UNL     1       5.374  47.122   2.659  1.00  0.00     0.004 C 
ENDBRANCH   9  10
ENDBRANCH   8   9
ENDBRANCH   1   8
TORSDOF 6
ENDMDL
MODEL 8
REMARK VINA RESULT:    -4.728      9.084     10.491
REMARK INTER + INTRA:          -6.902
REMARK INTER:                  -6.496
REMARK INTRA:                  -0.406
REMARK UNBOUND:                -0.515
REMARK SMILES CCCCCCC=CC(=O)[O-]
REMARK SMILES IDX 5 1 6 2 7 3 8 4 9 5 10 6 11 7 4 8 3 9 2 10 1 11
REMARK H PARENT
REMARK Flexibility Score: inf
ROOT
ATOM      1  C   UNL     1       7.039  47.118  -3.673  1.00  0.00     0.004 C 
ENDROOT
BRANCH   1   2
ATOM      2  C   UNL     1       8.297  46.275  -3.396  1.00  0.00     0.027 C 
BRANCH   2   3
ATOM      3  C   UNL     1       8.650  45.365  -4.544  1.00  0.00    -0.025 C 
ATOM      4  C   UNL     1       8.259  44.089  -4.691  1.00  0.00     0.020 C 
BRANCH   4   5
ATOM      5  C   UNL     1       7.360  43.332  -3.794  1.00  0.00     0.064 C 
ATOM      6  O   UNL     1       6.120  43.259  -3.998  1.00  0.00    -0.545 OA
ATOM      7  O   UNL     1       7.906  42.656  -2.712  1.00  0.00    -0.545 OA
ENDBRANCH   4   5
ENDBRANCH   2   3
ENDBRANCH   1   2
BRANCH   1   8
ATOM      8  C   UNL     1       6.759  48.200  -2.614  1.00  0.00     0.000 C 
BRANCH   8   9
ATOM      9  C   UNL     1       7.611  48.032  -1.348  1.00  0.00    -0.000 C 
BRANCH   9  10
ATOM     10  C   UNL     1       6.888  48.599  -0.121  1.00  0.00    -0.003 C 
ATOM     11  C   UNL     1       5.382  48.671  -0.354  1.00  0.00     0.004 C 
ENDBRANCH   9  10
ENDBRANCH   8   9
ENDBRANCH   1   8
TORSDOF 6
ENDMDL
MODEL 9
REMARK VINA RESULT:    -4.660      9.912     11.640
REMARK INTER + INTRA:          -6.810
REMARK INTER:                  -6.471
REMARK INTRA:                  -0.339
REMARK UNBOUND:                -0.515
REMARK SMILES CCCCCCC=CC(=O)[O-]
REMARK SMILES IDX 5 1 6 2 7 3 8 4 9 5 10 6 11 7 4 8 3 9 2 10 1 11
REMARK H PARENT
REMARK Flexibility Score: inf
ROOT
ATOM      1  C   UNL     1       2.847  44.351  10.473  1.00  0.00     0.004 C 
ENDROOT
BRANCH   1   2
ATOM      2  C   UNL     1       3.374  45.691  11.018  1.00  0.00     0.027 C 
BRANCH   2   3
ATOM      3  C   UNL     1       2.533  46.229  12.147  1.00  0.00    -0.025 C 
ATOM      4  C   UNL     1       1.705  47.284  12.081  1.00  0.00     0.020 C 
BRANCH   4   5
ATOM      5  C   UNL     1       1.402  48.097  10.884  1.00  0.00     0.064 C 
ATOM      6  O   UNL     1       2.146  49.040  10.512  1.00  0.00    -0.545 OA
ATOM      7  O   UNL     1       0.278  47.786  10.130  1.00  0.00    -0.545 OA
ENDBRANCH   4   5
ENDBRANCH   2   3
ENDBRANCH   1   2
BRANCH   1   8
ATOM      8  C   UNL     1       3.865  43.574   9.616  1.00  0.00     0.000 C 
BRANCH   8   9
ATOM      9  C   UNL     1       3.200  42.592   8.641  1.00  0.00    -0.000 C 
BRANCH   9  10
ATOM     10  C   UNL     1       3.572  42.924   7.191  1.00  0.00    -0.003 C 
ATOM     11  C   UNL     1       4.686  43.966   7.133  1.00  0.00     0.004 C 
ENDBRANCH   9  10
ENDBRANCH   8   9
ENDBRANCH   1   8
TORSDOF 6
ENDMDL
