MODEL 1
REMARK VINA RESULT:    10.762      0.000      0.000
REMARK INTER + INTRA:          22.559
REMARK INTER:                  23.344
REMARK INTRA:                  -0.785
REMARK UNBOUND:                -0.785
REMARK SMILES CCCCCCCCCCCCCCCCCCCCCC(=O)[O-]
REMARK SMILES IDX 12 1 11 2 10 3 9 4 8 5 7 6 6 7 5 8 4 9 3 10 2 11 1 12 13 13
REMARK SMILES IDX 14 14 15 15 16 16 17 17 18 18 19 19 20 20 21 21 22 22 23 23
REMARK SMILES IDX 24 24
REMARK H PARENT
REMARK Flexibility Score: inf
ROOT
ATOM      1  C   UNL     1      15.458  34.782  50.149  1.00  0.00     0.000 C 
ENDROOT
BRANCH   1   2
ATOM      2  C   UNL     1      15.678  33.278  49.893  1.00  0.00     0.000 C 
BRANCH   2   3
ATOM      3  C   UNL     1      15.685  32.413  51.174  1.00  0.00     0.000 C 
BRANCH   3   4
ATOM      4  C   UNL     1      15.477  30.910  50.905  1.00  0.00    -0.000 C 
BRANCH   4   5
ATOM      5  C   UNL     1      14.073  30.536  50.390  1.00  0.00    -0.000 C 
BRANCH   5   6
ATOM      6  C   UNL     1      13.413  29.343  51.107  1.00  0.00    -0.000 C 
BRANCH   6   7
ATOM      7  C   UNL     1      13.524  28.030  50.318  1.00  0.00    -0.000 C 
BRANCH   7   8
ATOM      8  C   UNL     1      12.911  28.175  48.920  1.00  0.00    -0.000 C 
BRANCH   8   9
ATOM      9  C   UNL     1      11.738  27.202  48.730  1.00  0.00    -0.000 C 
BRANCH   9  10
ATOM     10  C   UNL     1      10.475  27.895  48.193  1.00  0.00    -0.000 C 
BRANCH  10  11
ATOM     11  C   UNL     1       9.236  26.988  48.247  1.00  0.00    -0.003 C 
ATOM     12  C   UNL     1       9.630  25.514  48.204  1.00  0.00     0.004 C 
ENDBRANCH  10  11
ENDBRANCH   9  10
ENDBRANCH   8   9
ENDBRANCH   7   8
ENDBRANCH   6   7
ENDBRANCH   5   6
ENDBRANCH   4   5
ENDBRANCH   3   4
ENDBRANCH   2   3
ENDBRANCH   1   2
BRANCH   1  13
ATOM     13  C   UNL     1      15.052  35.598  48.906  1.00  0.00     0.000 C 
BRANCH  13  14
ATOM     14  C   UNL     1      13.819  35.073  48.147  1.00  0.00     0.000 C 
BRANCH  14  15
ATOM     15  C   UNL     1      12.939  36.184  47.536  1.00  0.00     0.000 C 
BRANCH  15  16
ATOM     16  C   UNL     1      13.544  37.585  47.740  1.00  0.00     0.000 C 
BRANCH  16  17
ATOM     17  C   UNL     1      13.537  38.428  46.454  1.00  0.00     0.000 C 
BRANCH  17  18
ATOM     18  C   UNL     1      14.100  39.844  46.678  1.00  0.00     0.000 C 
BRANCH  18  19
ATOM     19  C   UNL     1      15.490  39.841  47.340  1.00  0.00     0.000 C 
BRANCH  19  20
ATOM     20  C   UNL     1      16.340  38.580  47.084  1.00  0.00     0.006 C 
BRANCH  20  21
ATOM     21  C   UNL     1      17.497  38.777  46.091  1.00  0.00     0.053 C 
BRANCH  21  22
ATOM     22  C   UNL     1      18.795  38.259  46.632  1.00  0.00     0.041 C 
ATOM     23  O   UNL     1      19.625  39.048  47.153  1.00  0.00    -0.550 OA
ATOM     24  O   UNL     1      19.105  36.908  46.526  1.00  0.00    -0.550 OA
ENDBRANCH  21  22
ENDBRANCH  20  21
ENDBRANCH  19  20
ENDBRANCH  18  19
ENDBRANCH  17  18
ENDBRANCH  16  17
ENDBRANCH  15  16
ENDBRANCH  14  15
ENDBRANCH  13  14
ENDBRANCH   1  13
TORSDOF 20
ENDMDL
MODEL 2
REMARK VINA RESULT:    10.880      3.982     10.862
REMARK INTER + INTRA:          22.817
REMARK INTER:                  24.337
REMARK INTRA:                  -1.520
REMARK UNBOUND:                -0.785
REMARK SMILES CCCCCCCCCCCCCCCCCCCCCC(=O)[O-]
REMARK SMILES IDX 12 1 11 2 10 3 9 4 8 5 7 6 6 7 5 8 4 9 3 10 2 11 1 12 13 13
REMARK SMILES IDX 14 14 15 15 16 16 17 17 18 18 19 19 20 20 21 21 22 22 23 23
REMARK SMILES IDX 24 24
REMARK H PARENT
REMARK Flexibility Score: inf
ROOT
ATOM      1  C   UNL     1      14.127  35.916  48.085  1.00  0.00     0.000 C 
ENDROOT
BRANCH   1   2
ATOM      2  C   UNL     1      13.247  37.180  48.021  1.00  0.00     0.000 C 
BRANCH   2   3
ATOM      3  C   UNL     1      13.390  37.984  46.709  1.00  0.00     0.000 C 
BRANCH   3   4
ATOM      4  C   UNL     1      13.524  39.504  46.927  1.00  0.00    -0.000 C 
BRANCH   4   5
ATOM      5  C   UNL     1      14.931  40.072  46.655  1.00  0.00    -0.000 C 
BRANCH   5   6
ATOM      6  C   UNL     1      15.911  39.092  45.983  1.00  0.00    -0.000 C 
BRANCH   6   7
ATOM      7  C   UNL     1      17.057  38.657  46.908  1.00  0.00    -0.000 C 
BRANCH   7   8
ATOM      8  C   UNL     1      17.864  37.513  46.283  1.00  0.00    -0.000 C 
BRANCH   8   9
ATOM      9  C   UNL     1      19.372  37.740  46.467  1.00  0.00    -0.000 C 
BRANCH   9  10
ATOM     10  C   UNL     1      19.685  38.834  47.500  1.00  0.00    -0.000 C 
BRANCH  10  11
ATOM     11  C   UNL     1      20.212  40.125  46.853  1.00  0.00    -0.003 C 
ATOM     12  C   UNL     1      20.501  39.917  45.368  1.00  0.00     0.004 C 
ENDBRANCH  10  11
ENDBRANCH   9  10
ENDBRANCH   8   9
ENDBRANCH   7   8
ENDBRANCH   6   7
ENDBRANCH   5   6
ENDBRANCH   4   5
ENDBRANCH   3   4
ENDBRANCH   2   3
ENDBRANCH   1   2
BRANCH   1  13
ATOM     13  C   UNL     1      15.369  36.038  48.989  1.00  0.00     0.000 C 
BRANCH  13  14
ATOM     14  C   UNL     1      15.453  35.015  50.138  1.00  0.00     0.000 C 
BRANCH  14  15
ATOM     15  C   UNL     1      14.920  33.614  49.771  1.00  0.00     0.000 C 
BRANCH  15  16
ATOM     16  C   UNL     1      15.912  32.497  50.141  1.00  0.00     0.000 C 
BRANCH  16  17
ATOM     17  C   UNL     1      15.355  31.532  51.201  1.00  0.00     0.000 C 
BRANCH  17  18
ATOM     18  C   UNL     1      14.210  30.660  50.656  1.00  0.00     0.000 C 
BRANCH  18  19
ATOM     19  C   UNL     1      14.112  29.291  51.356  1.00  0.00     0.000 C 
BRANCH  19  20
ATOM     20  C   UNL     1      13.466  28.167  50.520  1.00  0.00     0.006 C 
BRANCH  20  21
ATOM     21  C   UNL     1      12.925  28.615  49.153  1.00  0.00     0.053 C 
BRANCH  21  22
ATOM     22  C   UNL     1      11.897  27.665  48.618  1.00  0.00     0.041 C 
ATOM     23  O   UNL     1      10.754  28.083  48.297  1.00  0.00    -0.550 OA
ATOM     24  O   UNL     1      12.189  26.311  48.508  1.00  0.00    -0.550 OA
ENDBRANCH  21  22
ENDBRANCH  20  21
ENDBRANCH  19  20
ENDBRANCH  18  19
ENDBRANCH  17  18
ENDBRANCH  16  17
ENDBRANCH  15  16
ENDBRANCH  14  15
ENDBRANCH  13  14
ENDBRANCH   1  13
TORSDOF 20
ENDMDL
MODEL 3
REMARK VINA RESULT:    11.008      4.107     10.343
REMARK INTER + INTRA:          23.095
REMARK INTER:                  24.039
REMARK INTRA:                  -0.944
REMARK UNBOUND:                -0.785
REMARK SMILES CCCCCCCCCCCCCCCCCCCCCC(=O)[O-]
REMARK SMILES IDX 12 1 11 2 10 3 9 4 8 5 7 6 6 7 5 8 4 9 3 10 2 11 1 12 13 13
REMARK SMILES IDX 14 14 15 15 16 16 17 17 18 18 19 19 20 20 21 21 22 22 23 23
REMARK SMILES IDX 24 24
REMARK H PARENT
REMARK Flexibility Score: inf
ROOT
ATOM      1  C   UNL     1      12.870  36.155  47.510  1.00  0.00     0.000 C 
ENDROOT
BRANCH   1   2
ATOM      2  C   UNL     1      13.383  37.606  47.606  1.00  0.00     0.000 C 
BRANCH   2   3
ATOM      3  C   UNL     1      13.230  38.419  46.300  1.00  0.00     0.000 C 
BRANCH   3   4
ATOM      4  C   UNL     1      14.099  39.691  46.259  1.00  0.00    -0.000 C 
BRANCH   4   5
ATOM      5  C   UNL     1      14.779  40.050  47.595  1.00  0.00    -0.000 C 
BRANCH   5   6
ATOM      6  C   UNL     1      16.208  39.503  47.766  1.00  0.00    -0.000 C 
BRANCH   6   7
ATOM      7  C   UNL     1      16.513  38.315  46.842  1.00  0.00    -0.000 C 
BRANCH   7   8
ATOM      8  C   UNL     1      17.717  38.614  45.941  1.00  0.00    -0.000 C 
BRANCH   8   9
ATOM      9  C   UNL     1      18.920  39.087  46.771  1.00  0.00    -0.000 C 
BRANCH   9  10
ATOM     10  C   UNL     1      19.899  37.948  47.099  1.00  0.00    -0.000 C 
BRANCH  10  11
ATOM     11  C   UNL     1      19.338  36.564  46.737  1.00  0.00    -0.003 C 
ATOM     12  C   UNL     1      20.149  35.918  45.617  1.00  0.00     0.004 C 
ENDBRANCH  10  11
ENDBRANCH   9  10
ENDBRANCH   8   9
ENDBRANCH   7   8
ENDBRANCH   6   7
ENDBRANCH   5   6
ENDBRANCH   4   5
ENDBRANCH   3   4
ENDBRANCH   2   3
ENDBRANCH   1   2
BRANCH   1  13
ATOM     13  C   UNL     1      13.887  35.080  47.938  1.00  0.00     0.000 C 
BRANCH  13  14
ATOM     14  C   UNL     1      15.039  35.579  48.830  1.00  0.00     0.000 C 
BRANCH  14  15
ATOM     15  C   UNL     1      15.263  34.731  50.099  1.00  0.00     0.000 C 
BRANCH  15  16
ATOM     16  C   UNL     1      15.622  33.271  49.768  1.00  0.00     0.000 C 
BRANCH  16  17
ATOM     17  C   UNL     1      15.652  32.368  51.012  1.00  0.00     0.000 C 
BRANCH  17  18
ATOM     18  C   UNL     1      15.190  30.931  50.707  1.00  0.00     0.000 C 
BRANCH  18  19
ATOM     19  C   UNL     1      13.719  30.855  50.259  1.00  0.00     0.000 C 
BRANCH  19  20
ATOM     20  C   UNL     1      13.190  29.436  49.969  1.00  0.00     0.006 C 
BRANCH  20  21
ATOM     21  C   UNL     1      14.039  28.301  50.564  1.00  0.00     0.053 C 
BRANCH  21  22
ATOM     22  C   UNL     1      13.576  27.913  51.936  1.00  0.00     0.041 C 
ATOM     23  O   UNL     1      13.686  26.722  52.328  1.00  0.00    -0.550 OA
ATOM     24  O   UNL     1      12.990  28.860  52.767  1.00  0.00    -0.550 OA
ENDBRANCH  21  22
ENDBRANCH  20  21
ENDBRANCH  19  20
ENDBRANCH  18  19
ENDBRANCH  17  18
ENDBRANCH  16  17
ENDBRANCH  15  16
ENDBRANCH  14  15
ENDBRANCH  13  14
ENDBRANCH   1  13
TORSDOF 20
ENDMDL
MODEL 4
REMARK VINA RESULT:    11.009      3.778      9.944
REMARK INTER + INTRA:          23.097
REMARK INTER:                  24.193
REMARK INTRA:                  -1.096
REMARK UNBOUND:                -0.785
REMARK SMILES CCCCCCCCCCCCCCCCCCCCCC(=O)[O-]
REMARK SMILES IDX 12 1 11 2 10 3 9 4 8 5 7 6 6 7 5 8 4 9 3 10 2 11 1 12 13 13
REMARK SMILES IDX 14 14 15 15 16 16 17 17 18 18 19 19 20 20 21 21 22 22 23 23
REMARK SMILES IDX 24 24
REMARK H PARENT
REMARK Flexibility Score: inf
ROOT
ATOM      1  C   UNL     1      13.425  37.875  47.123  1.00  0.00     0.000 C 
ENDROOT
BRANCH   1   2
ATOM      2  C   UNL     1      14.453  38.893  47.657  1.00  0.00     0.000 C 
BRANCH   2   3
ATOM      3  C   UNL     1      15.290  39.583  46.556  1.00  0.00     0.000 C 
BRANCH   3   4
ATOM      4  C   UNL     1      16.286  38.640  45.855  1.00  0.00    -0.000 C 
BRANCH   4   5
ATOM      5  C   UNL     1      17.457  38.168  46.740  1.00  0.00    -0.000 C 
BRANCH   5   6
ATOM      6  C   UNL     1      18.692  39.088  46.734  1.00  0.00    -0.000 C 
BRANCH   6   7
ATOM      7  C   UNL     1      20.013  38.323  46.900  1.00  0.00    -0.000 C 
BRANCH   7   8
ATOM      8  C   UNL     1      19.779  36.808  46.872  1.00  0.00    -0.000 C 
BRANCH   8   9
ATOM      9  C   UNL     1      19.847  36.268  45.436  1.00  0.00    -0.000 C 
BRANCH   9  10
ATOM     10  C   UNL     1      20.584  34.922  45.344  1.00  0.00    -0.000 C 
BRANCH  10  11
ATOM     11  C   UNL     1      20.669  34.393  43.904  1.00  0.00    -0.003 C 
ATOM     12  C   UNL     1      21.811  35.059  43.140  1.00  0.00     0.004 C 
ENDBRANCH  10  11
ENDBRANCH   9  10
ENDBRANCH   8   9
ENDBRANCH   7   8
ENDBRANCH   6   7
ENDBRANCH   5   6
ENDBRANCH   4   5
ENDBRANCH   3   4
ENDBRANCH   2   3
ENDBRANCH   1   2
BRANCH   1  13
ATOM     13  C   UNL     1      13.143  36.687  48.062  1.00  0.00     0.000 C 
BRANCH  13  14
ATOM     14  C   UNL     1      14.262  35.632  48.146  1.00  0.00     0.000 C 
BRANCH  14  15
ATOM     15  C   UNL     1      15.409  36.008  49.107  1.00  0.00     0.000 C 
BRANCH  15  16
ATOM     16  C   UNL     1      15.582  34.980  50.240  1.00  0.00     0.000 C 
BRANCH  16  17
ATOM     17  C   UNL     1      15.259  33.544  49.796  1.00  0.00     0.000 C 
BRANCH  17  18
ATOM     18  C   UNL     1      16.191  32.505  50.444  1.00  0.00     0.000 C 
BRANCH  18  19
ATOM     19  C   UNL     1      15.427  31.376  51.160  1.00  0.00     0.000 C 
BRANCH  19  20
ATOM     20  C   UNL     1      14.261  30.759  50.361  1.00  0.00     0.006 C 
BRANCH  20  21
ATOM     21  C   UNL     1      13.821  29.366  50.840  1.00  0.00     0.053 C 
BRANCH  21  22
ATOM     22  C   UNL     1      13.184  28.570  49.742  1.00  0.00     0.041 C 
ATOM     23  O   UNL     1      12.960  29.100  48.623  1.00  0.00    -0.550 OA
ATOM     24  O   UNL     1      12.806  27.251  49.966  1.00  0.00    -0.550 OA
ENDBRANCH  21  22
ENDBRANCH  20  21
ENDBRANCH  19  20
ENDBRANCH  18  19
ENDBRANCH  17  18
ENDBRANCH  16  17
ENDBRANCH  15  16
ENDBRANCH  14  15
ENDBRANCH  13  14
ENDBRANCH   1  13
TORSDOF 20
ENDMDL
MODEL 5
REMARK VINA RESULT:    11.036      4.109     10.256
REMARK INTER + INTRA:          23.155
REMARK INTER:                  24.373
REMARK INTRA:                  -1.218
REMARK UNBOUND:                -0.785
REMARK SMILES CCCCCCCCCCCCCCCCCCCCCC(=O)[O-]
REMARK SMILES IDX 12 1 11 2 10 3 9 4 8 5 7 6 6 7 5 8 4 9 3 10 2 11 1 12 13 13
REMARK SMILES IDX 14 14 15 15 16 16 17 17 18 18 19 19 20 20 21 21 22 22 23 23
REMARK SMILES IDX 24 24
REMARK H PARENT
REMARK Flexibility Score: inf
ROOT
ATOM      1  C   UNL     1      13.465  37.831  47.102  1.00  0.00     0.000 C 
ENDROOT
BRANCH   1   2
ATOM      2  C   UNL     1      14.283  38.940  47.794  1.00  0.00     0.000 C 
BRANCH   2   3
ATOM      3  C   UNL     1      15.320  39.627  46.877  1.00  0.00     0.000 C 
BRANCH   3   4
ATOM      4  C   UNL     1      16.183  38.637  46.071  1.00  0.00    -0.000 C 
BRANCH   4   5
ATOM      5  C   UNL     1      17.432  38.120  46.812  1.00  0.00    -0.000 C 
BRANCH   5   6
ATOM      6  C   UNL     1      18.688  38.999  46.665  1.00  0.00    -0.000 C 
BRANCH   6   7
ATOM      7  C   UNL     1      19.996  38.215  46.846  1.00  0.00    -0.000 C 
BRANCH   7   8
ATOM      8  C   UNL     1      19.755  36.707  46.712  1.00  0.00    -0.000 C 
BRANCH   8   9
ATOM      9  C   UNL     1      20.146  36.209  45.313  1.00  0.00    -0.000 C 
BRANCH   9  10
ATOM     10  C   UNL     1      20.572  34.732  45.306  1.00  0.00    -0.000 C 
BRANCH  10  11
ATOM     11  C   UNL     1      20.959  34.234  43.905  1.00  0.00    -0.003 C 
ATOM     12  C   UNL     1      21.697  35.317  43.122  1.00  0.00     0.004 C 
ENDBRANCH  10  11
ENDBRANCH   9  10
ENDBRANCH   8   9
ENDBRANCH   7   8
ENDBRANCH   6   7
ENDBRANCH   5   6
ENDBRANCH   4   5
ENDBRANCH   3   4
ENDBRANCH   2   3
ENDBRANCH   1   2
BRANCH   1  13
ATOM     13  C   UNL     1      13.411  36.495  47.868  1.00  0.00     0.000 C 
BRANCH  13  14
ATOM     14  C   UNL     1      14.522  36.288  48.915  1.00  0.00     0.000 C 
BRANCH  14  15
ATOM     15  C   UNL     1      15.211  34.909  48.835  1.00  0.00     0.000 C 
BRANCH  15  16
ATOM     16  C   UNL     1      15.358  34.251  50.219  1.00  0.00     0.000 C 
BRANCH  16  17
ATOM     17  C   UNL     1      15.866  32.802  50.137  1.00  0.00     0.000 C 
BRANCH  17  18
ATOM     18  C   UNL     1      15.230  31.895  51.207  1.00  0.00     0.000 C 
BRANCH  18  19
ATOM     19  C   UNL     1      15.070  30.436  50.740  1.00  0.00     0.000 C 
BRANCH  19  20
ATOM     20  C   UNL     1      13.657  30.049  50.259  1.00  0.00     0.006 C 
BRANCH  20  21
ATOM     21  C   UNL     1      13.320  28.555  50.395  1.00  0.00     0.053 C 
BRANCH  21  22
ATOM     22  C   UNL     1      13.404  28.087  51.816  1.00  0.00     0.041 C 
ATOM     23  O   UNL     1      13.777  26.913  52.075  1.00  0.00    -0.550 OA
ATOM     24  O   UNL     1      13.036  28.936  52.852  1.00  0.00    -0.550 OA
ENDBRANCH  21  22
ENDBRANCH  20  21
ENDBRANCH  19  20
ENDBRANCH  18  19
ENDBRANCH  17  18
ENDBRANCH  16  17
ENDBRANCH  15  16
ENDBRANCH  14  15
ENDBRANCH  13  14
ENDBRANCH   1  13
TORSDOF 20
ENDMDL
MODEL 6
REMARK VINA RESULT:    11.058      4.765     11.392
REMARK INTER + INTRA:          23.203
REMARK INTER:                  24.175
REMARK INTRA:                  -0.971
REMARK UNBOUND:                -0.785
REMARK SMILES CCCCCCCCCCCCCCCCCCCCCC(=O)[O-]
REMARK SMILES IDX 12 1 11 2 10 3 9 4 8 5 7 6 6 7 5 8 4 9 3 10 2 11 1 12 13 13
REMARK SMILES IDX 14 14 15 15 16 16 17 17 18 18 19 19 20 20 21 21 22 22 23 23
REMARK SMILES IDX 24 24
REMARK H PARENT
REMARK Flexibility Score: inf
ROOT
ATOM      1  C   UNL     1      15.583  34.579  50.167  1.00  0.00     0.000 C 
ENDROOT
BRANCH   1   2
ATOM      2  C   UNL     1      15.216  35.715  49.190  1.00  0.00     0.000 C 
BRANCH   2   3
ATOM      3  C   UNL     1      14.151  35.327  48.140  1.00  0.00     0.000 C 
BRANCH   3   4
ATOM      4  C   UNL     1      13.271  36.507  47.687  1.00  0.00    -0.000 C 
BRANCH   4   5
ATOM      5  C   UNL     1      13.908  37.897  47.879  1.00  0.00    -0.000 C 
BRANCH   5   6
ATOM      6  C   UNL     1      13.593  38.917  46.769  1.00  0.00    -0.000 C 
BRANCH   6   7
ATOM      7  C   UNL     1      14.837  39.663  46.265  1.00  0.00    -0.000 C 
BRANCH   7   8
ATOM      8  C   UNL     1      15.950  38.680  45.882  1.00  0.00    -0.000 C 
BRANCH   8   9
ATOM      9  C   UNL     1      17.105  38.735  46.893  1.00  0.00    -0.000 C 
BRANCH   9  10
ATOM     10  C   UNL     1      18.372  38.031  46.383  1.00  0.00    -0.000 C 
BRANCH  10  11
ATOM     11  C   UNL     1      19.638  38.476  47.132  1.00  0.00    -0.003 C 
ATOM     12  C   UNL     1      20.159  39.805  46.590  1.00  0.00     0.004 C 
ENDBRANCH  10  11
ENDBRANCH   9  10
ENDBRANCH   8   9
ENDBRANCH   7   8
ENDBRANCH   6   7
ENDBRANCH   5   6
ENDBRANCH   4   5
ENDBRANCH   3   4
ENDBRANCH   2   3
ENDBRANCH   1   2
BRANCH   1  13
ATOM     13  C   UNL     1      14.954  33.212  49.833  1.00  0.00     0.000 C 
BRANCH  13  14
ATOM     14  C   UNL     1      15.722  31.985  50.361  1.00  0.00     0.000 C 
BRANCH  14  15
ATOM     15  C   UNL     1      14.833  30.949  51.079  1.00  0.00     0.000 C 
BRANCH  15  16
ATOM     16  C   UNL     1      13.633  30.515  50.218  1.00  0.00     0.000 C 
BRANCH  16  17
ATOM     17  C   UNL     1      13.432  28.991  50.202  1.00  0.00     0.000 C 
BRANCH  17  18
ATOM     18  C   UNL     1      13.021  28.467  48.814  1.00  0.00     0.000 C 
BRANCH  18  19
ATOM     19  C   UNL     1      11.907  27.406  48.877  1.00  0.00     0.000 C 
BRANCH  19  20
ATOM     20  C   UNL     1      10.622  27.750  48.098  1.00  0.00     0.006 C 
BRANCH  20  21
ATOM     21  C   UNL     1       9.352  27.056  48.615  1.00  0.00     0.053 C 
BRANCH  21  22
ATOM     22  C   UNL     1       9.139  25.721  47.969  1.00  0.00     0.041 C 
ATOM     23  O   UNL     1       9.905  24.758  48.235  1.00  0.00    -0.550 OA
ATOM     24  O   UNL     1       8.115  25.549  47.044  1.00  0.00    -0.550 OA
ENDBRANCH  21  22
ENDBRANCH  20  21
ENDBRANCH  19  20
ENDBRANCH  18  19
ENDBRANCH  17  18
ENDBRANCH  16  17
ENDBRANCH  15  16
ENDBRANCH  14  15
ENDBRANCH  13  14
ENDBRANCH   1  13
TORSDOF 20
ENDMDL
MODEL 7
REMARK VINA RESULT:    11.120      4.023     10.329
REMARK INTER + INTRA:          23.336
REMARK INTER:                  24.739
REMARK INTRA:                  -1.403
REMARK UNBOUND:                -0.785
REMARK SMILES CCCCCCCCCCCCCCCCCCCCCC(=O)[O-]
REMARK SMILES IDX 12 1 11 2 10 3 9 4 8 5 7 6 6 7 5 8 4 9 3 10 2 11 1 12 13 13
REMARK SMILES IDX 14 14 15 15 16 16 17 17 18 18 19 19 20 20 21 21 22 22 23 23
REMARK SMILES IDX 24 24
REMARK H PARENT
REMARK Flexibility Score: inf
ROOT
ATOM      1  C   UNL     1      14.255  36.115  47.873  1.00  0.00     0.000 C 
ENDROOT
BRANCH   1   2
ATOM      2  C   UNL     1      13.134  37.124  47.553  1.00  0.00     0.000 C 
BRANCH   2   3
ATOM      3  C   UNL     1      13.565  38.269  46.608  1.00  0.00     0.000 C 
BRANCH   3   4
ATOM      4  C   UNL     1      14.189  39.472  47.340  1.00  0.00    -0.000 C 
BRANCH   4   5
ATOM      5  C   UNL     1      15.729  39.520  47.303  1.00  0.00    -0.000 C 
BRANCH   5   6
ATOM      6  C   UNL     1      16.370  38.915  46.040  1.00  0.00    -0.000 C 
BRANCH   6   7
ATOM      7  C   UNL     1      17.380  37.801  46.351  1.00  0.00    -0.000 C 
BRANCH   7   8
ATOM      8  C   UNL     1      18.719  38.386  46.815  1.00  0.00    -0.000 C 
BRANCH   8   9
ATOM      9  C   UNL     1      19.856  37.369  46.632  1.00  0.00    -0.000 C 
BRANCH   9  10
ATOM     10  C   UNL     1      19.509  36.269  45.617  1.00  0.00    -0.000 C 
BRANCH  10  11
ATOM     11  C   UNL     1      20.573  35.162  45.559  1.00  0.00    -0.003 C 
ATOM     12  C   UNL     1      20.951  34.838  44.115  1.00  0.00     0.004 C 
ENDBRANCH  10  11
ENDBRANCH   9  10
ENDBRANCH   8   9
ENDBRANCH   7   8
ENDBRANCH   6   7
ENDBRANCH   5   6
ENDBRANCH   4   5
ENDBRANCH   3   4
ENDBRANCH   2   3
ENDBRANCH   1   2
BRANCH   1  13
ATOM     13  C   UNL     1      15.162  36.510  49.055  1.00  0.00     0.000 C 
BRANCH  13  14
ATOM     14  C   UNL     1      15.758  35.333  49.851  1.00  0.00     0.000 C 
BRANCH  14  15
ATOM     15  C   UNL     1      14.991  34.005  49.677  1.00  0.00     0.000 C 
BRANCH  15  16
ATOM     16  C   UNL     1      15.880  32.778  49.952  1.00  0.00     0.000 C 
BRANCH  16  17
ATOM     17  C   UNL     1      15.276  31.830  51.001  1.00  0.00     0.000 C 
BRANCH  17  18
ATOM     18  C   UNL     1      14.149  30.955  50.422  1.00  0.00     0.000 C 
BRANCH  18  19
ATOM     19  C   UNL     1      13.965  29.629  51.184  1.00  0.00     0.000 C 
BRANCH  19  20
ATOM     20  C   UNL     1      13.818  28.375  50.300  1.00  0.00     0.006 C 
BRANCH  20  21
ATOM     21  C   UNL     1      13.077  28.607  48.974  1.00  0.00     0.053 C 
BRANCH  21  22
ATOM     22  C   UNL     1      12.005  27.586  48.742  1.00  0.00     0.041 C 
ATOM     23  O   UNL     1      12.280  26.358  48.787  1.00  0.00    -0.550 OA
ATOM     24  O   UNL     1      10.710  27.990  48.442  1.00  0.00    -0.550 OA
ENDBRANCH  21  22
ENDBRANCH  20  21
ENDBRANCH  19  20
ENDBRANCH  18  19
ENDBRANCH  17  18
ENDBRANCH  16  17
ENDBRANCH  15  16
ENDBRANCH  14  15
ENDBRANCH  13  14
ENDBRANCH   1  13
TORSDOF 20
ENDMDL
MODEL 8
REMARK VINA RESULT:    11.597      4.126     10.666
REMARK INTER + INTRA:          24.371
REMARK INTER:                  25.816
REMARK INTRA:                  -1.444
REMARK UNBOUND:                -0.785
REMARK SMILES CCCCCCCCCCCCCCCCCCCCCC(=O)[O-]
REMARK SMILES IDX 12 1 11 2 10 3 9 4 8 5 7 6 6 7 5 8 4 9 3 10 2 11 1 12 13 13
REMARK SMILES IDX 14 14 15 15 16 16 17 17 18 18 19 19 20 20 21 21 22 22 23 23
REMARK SMILES IDX 24 24
REMARK H PARENT
REMARK Flexibility Score: inf
ROOT
ATOM      1  C   UNL     1      15.239  35.753  48.676  1.00  0.00     0.000 C 
ENDROOT
BRANCH   1   2
ATOM      2  C   UNL     1      13.852  35.242  48.237  1.00  0.00     0.000 C 
BRANCH   2   3
ATOM      3  C   UNL     1      13.030  36.265  47.421  1.00  0.00     0.000 C 
BRANCH   3   4
ATOM      4  C   UNL     1      13.431  37.729  47.683  1.00  0.00    -0.000 C 
BRANCH   4   5
ATOM      5  C   UNL     1      13.399  38.639  46.440  1.00  0.00    -0.000 C 
BRANCH   5   6
ATOM      6  C   UNL     1      14.684  39.452  46.193  1.00  0.00    -0.000 C 
BRANCH   6   7
ATOM      7  C   UNL     1      15.531  39.638  47.460  1.00  0.00    -0.000 C 
BRANCH   7   8
ATOM      8  C   UNL     1      16.667  38.610  47.517  1.00  0.00    -0.000 C 
BRANCH   8   9
ATOM      9  C   UNL     1      17.137  38.231  46.104  1.00  0.00    -0.000 C 
BRANCH   9  10
ATOM     10  C   UNL     1      18.639  37.910  46.045  1.00  0.00    -0.000 C 
BRANCH  10  11
ATOM     11  C   UNL     1      19.437  38.610  47.156  1.00  0.00    -0.003 C 
ATOM     12  C   UNL     1      20.030  39.926  46.661  1.00  0.00     0.004 C 
ENDBRANCH  10  11
ENDBRANCH   9  10
ENDBRANCH   8   9
ENDBRANCH   7   8
ENDBRANCH   6   7
ENDBRANCH   5   6
ENDBRANCH   4   5
ENDBRANCH   3   4
ENDBRANCH   2   3
ENDBRANCH   1   2
BRANCH   1  13
ATOM     13  C   UNL     1      15.707  35.250  50.055  1.00  0.00     0.000 C 
BRANCH  13  14
ATOM     14  C   UNL     1      15.116  33.899  50.500  1.00  0.00     0.000 C 
BRANCH  14  15
ATOM     15  C   UNL     1      15.961  32.677  50.082  1.00  0.00     0.000 C 
BRANCH  15  16
ATOM     16  C   UNL     1      15.674  31.443  50.957  1.00  0.00     0.000 C 
BRANCH  16  17
ATOM     17  C   UNL     1      14.242  30.910  50.783  1.00  0.00     0.000 C 
BRANCH  17  18
ATOM     18  C   UNL     1      13.932  29.738  51.732  1.00  0.00     0.000 C 
BRANCH  18  19
ATOM     19  C   UNL     1      13.449  28.477  50.992  1.00  0.00     0.000 C 
BRANCH  19  20
ATOM     20  C   UNL     1      13.706  28.467  49.471  1.00  0.00     0.006 C 
BRANCH  20  21
ATOM     21  C   UNL     1      12.455  28.697  48.607  1.00  0.00     0.053 C 
BRANCH  21  22
ATOM     22  C   UNL     1      11.567  27.491  48.572  1.00  0.00     0.041 C 
ATOM     23  O   UNL     1      12.053  26.341  48.732  1.00  0.00    -0.550 OA
ATOM     24  O   UNL     1      10.206  27.634  48.326  1.00  0.00    -0.550 OA
ENDBRANCH  21  22
ENDBRANCH  20  21
ENDBRANCH  19  20
ENDBRANCH  18  19
ENDBRANCH  17  18
ENDBRANCH  16  17
ENDBRANCH  15  16
ENDBRANCH  14  15
ENDBRANCH  13  14
ENDBRANCH   1  13
TORSDOF 20
ENDMDL
MODEL 9
REMARK VINA RESULT:    11.732      1.712      3.082
REMARK INTER + INTRA:          24.663
REMARK INTER:                  24.080
REMARK INTRA:                   0.583
REMARK UNBOUND:                -0.785
REMARK SMILES CCCCCCCCCCCCCCCCCCCCCC(=O)[O-]
REMARK SMILES IDX 12 1 11 2 10 3 9 4 8 5 7 6 6 7 5 8 4 9 3 10 2 11 1 12 13 13
REMARK SMILES IDX 14 14 15 15 16 16 17 17 18 18 19 19 20 20 21 21 22 22 23 23
REMARK SMILES IDX 24 24
REMARK H PARENT
REMARK Flexibility Score: inf
ROOT
ATOM      1  C   UNL     1      13.759  35.698  48.337  1.00  0.00     0.000 C 
ENDROOT
BRANCH   1   2
ATOM      2  C   UNL     1      15.121  36.251  48.804  1.00  0.00     0.000 C 
BRANCH   2   3
ATOM      3  C   UNL     1      15.897  35.304  49.748  1.00  0.00     0.000 C 
BRANCH   3   4
ATOM      4  C   UNL     1      15.321  33.876  49.801  1.00  0.00    -0.000 C 
BRANCH   4   5
ATOM      5  C   UNL     1      16.132  32.886  50.660  1.00  0.00    -0.000 C 
BRANCH   5   6
ATOM      6  C   UNL     1      15.324  31.706  51.232  1.00  0.00    -0.000 C 
BRANCH   6   7
ATOM      7  C   UNL     1      14.480  30.985  50.171  1.00  0.00    -0.000 C 
BRANCH   7   8
ATOM      8  C   UNL     1      13.681  29.834  50.794  1.00  0.00    -0.000 C 
BRANCH   8   9
ATOM      9  C   UNL     1      13.563  28.654  49.817  1.00  0.00    -0.000 C 
BRANCH   9  10
ATOM     10  C   UNL     1      12.837  27.447  50.431  1.00  0.00    -0.000 C 
BRANCH  10  11
ATOM     11  C   UNL     1      13.405  27.049  51.802  1.00  0.00    -0.003 C 
ATOM     12  C   UNL     1      13.358  28.222  52.778  1.00  0.00     0.004 C 
ENDBRANCH  10  11
ENDBRANCH   9  10
ENDBRANCH   8   9
ENDBRANCH   7   8
ENDBRANCH   6   7
ENDBRANCH   5   6
ENDBRANCH   4   5
ENDBRANCH   3   4
ENDBRANCH   2   3
ENDBRANCH   1   2
BRANCH   1  13
ATOM     13  C   UNL     1      12.865  36.716  47.602  1.00  0.00     0.000 C 
BRANCH  13  14
ATOM     14  C   UNL     1      13.587  37.603  46.570  1.00  0.00     0.000 C 
BRANCH  14  15
ATOM     15  C   UNL     1      12.955  38.999  46.392  1.00  0.00     0.000 C 
BRANCH  15  16
ATOM     16  C   UNL     1      14.006  40.124  46.430  1.00  0.00     0.000 C 
BRANCH  16  17
ATOM     17  C   UNL     1      14.847  40.110  47.717  1.00  0.00     0.000 C 
BRANCH  17  18
ATOM     18  C   UNL     1      16.179  39.358  47.540  1.00  0.00     0.000 C 
BRANCH  18  19
ATOM     19  C   UNL     1      16.274  38.612  46.196  1.00  0.00     0.000 C 
BRANCH  19  20
ATOM     20  C   UNL     1      17.692  38.509  45.598  1.00  0.00     0.006 C 
BRANCH  20  21
ATOM     21  C   UNL     1      18.729  37.842  46.516  1.00  0.00     0.053 C 
BRANCH  21  22
ATOM     22  C   UNL     1      19.757  38.817  47.003  1.00  0.00     0.041 C 
ATOM     23  O   UNL     1      19.679  40.032  46.686  1.00  0.00    -0.550 OA
ATOM     24  O   UNL     1      20.824  38.376  47.778  1.00  0.00    -0.550 OA
ENDBRANCH  21  22
ENDBRANCH  20  21
ENDBRANCH  19  20
ENDBRANCH  18  19
ENDBRANCH  17  18
ENDBRANCH  16  17
ENDBRANCH  15  16
ENDBRANCH  14  15
ENDBRANCH  13  14
ENDBRANCH   1  13
TORSDOF 20
ENDMDL
