MODEL 1
REMARK VINA RESULT:    -6.791      0.000      0.000
REMARK INTER + INTRA:         -10.370
REMARK INTER:                  -9.371
REMARK INTRA:                  -0.999
REMARK UNBOUND:                -0.999
REMARK SMILES CCCCc1cccc(O)c1CCCC
REMARK SMILES IDX 5 1 11 2 9 3 8 4 7 5 6 6 4 7 3 8 2 9 1 10 12 11 13 12 14 13
REMARK SMILES IDX 15 14 10 15
REMARK H PARENT 10 16
REMARK Flexibility Score: inf
ROOT
ATOM      1  C   UNL     1      29.974  37.318  26.634  1.00  0.00    -0.041 A 
ATOM      2  C   UNL     1      28.756  37.097  25.928  1.00  0.00    -0.003 A 
ATOM      3  C   UNL     1      28.198  35.798  25.911  1.00  0.00     0.119 A 
ATOM      4  C   UNL     1      28.836  34.747  26.581  1.00  0.00     0.046 A 
ATOM      5  C   UNL     1      30.028  34.967  27.264  1.00  0.00     0.004 A 
ATOM      6  C   UNL     1      30.597  36.238  27.285  1.00  0.00     0.004 A 
ENDROOT
BRANCH   1   7
ATOM      7  C   UNL     1      30.682  38.655  26.651  1.00  0.00     0.036 C 
BRANCH   7   8
ATOM      8  C   UNL     1      31.041  39.056  28.089  1.00  0.00     0.004 C 
BRANCH   8   9
ATOM      9  C   UNL     1      29.802  39.379  28.939  1.00  0.00    -0.003 C 
ATOM     10  C   UNL     1      29.974  38.983  30.406  1.00  0.00     0.004 C 
ENDBRANCH   8   9
ENDBRANCH   7   8
ENDBRANCH   1   7
BRANCH   2  11
ATOM     11  C   UNL     1      28.026  38.227  25.220  1.00  0.00     0.040 C 
BRANCH  11  12
ATOM     12  C   UNL     1      27.235  39.115  26.196  1.00  0.00     0.005 C 
BRANCH  12  13
ATOM     13  C   UNL     1      26.571  38.308  27.321  1.00  0.00    -0.003 C 
ATOM     14  C   UNL     1      25.181  37.832  26.911  1.00  0.00     0.004 C 
ENDBRANCH  12  13
ENDBRANCH  11  12
ENDBRANCH   2  11
BRANCH   3  15
ATOM     15  O   UNL     1      27.007  35.551  25.228  1.00  0.00    -0.508 OA
ATOM     16  H   UNL     1      26.385  34.797  25.495  1.00  0.00     0.293 HD
ENDBRANCH   3  15
TORSDOF 7
ENDMDL
MODEL 2
REMARK VINA RESULT:    -6.741      1.877      3.582
REMARK INTER + INTRA:         -10.302
REMARK INTER:                  -9.287
REMARK INTRA:                  -1.014
REMARK UNBOUND:                -0.999
REMARK SMILES CCCCc1cccc(O)c1CCCC
REMARK SMILES IDX 5 1 11 2 9 3 8 4 7 5 6 6 4 7 3 8 2 9 1 10 12 11 13 12 14 13
REMARK SMILES IDX 15 14 10 15
REMARK H PARENT 10 16
REMARK Flexibility Score: inf
ROOT
ATOM      1  C   UNL     1      29.977  37.660  27.362  1.00  0.00    -0.041 A 
ATOM      2  C   UNL     1      28.771  37.166  27.937  1.00  0.00    -0.003 A 
ATOM      3  C   UNL     1      28.255  37.794  29.095  1.00  0.00     0.119 A 
ATOM      4  C   UNL     1      28.923  38.886  29.663  1.00  0.00     0.046 A 
ATOM      5  C   UNL     1      30.104  39.360  29.100  1.00  0.00     0.004 A 
ATOM      6  C   UNL     1      30.631  38.749  27.965  1.00  0.00     0.004 A 
ENDROOT
BRANCH   1   7
ATOM      7  C   UNL     1      30.642  37.012  26.167  1.00  0.00     0.036 C 
BRANCH   7   8
ATOM      8  C   UNL     1      30.900  38.050  25.065  1.00  0.00     0.004 C 
BRANCH   8   9
ATOM      9  C   UNL     1      29.603  38.536  24.398  1.00  0.00    -0.003 C 
ATOM     10  C   UNL     1      29.650  40.020  24.032  1.00  0.00     0.004 C 
ENDBRANCH   8   9
ENDBRANCH   7   8
ENDBRANCH   1   7
BRANCH   2  11
ATOM     11  C   UNL     1      28.009  36.004  27.322  1.00  0.00     0.040 C 
BRANCH  11  12
ATOM     12  C   UNL     1      27.237  36.416  26.056  1.00  0.00     0.005 C 
BRANCH  12  13
ATOM     13  C   UNL     1      26.553  37.782  26.201  1.00  0.00    -0.003 C 
ATOM     14  C   UNL     1      25.196  37.649  26.888  1.00  0.00     0.004 C 
ENDBRANCH  12  13
ENDBRANCH  11  12
ENDBRANCH   2  11
BRANCH   3  15
ATOM     15  O   UNL     1      27.076  37.333  29.681  1.00  0.00    -0.508 OA
ATOM     16  H   UNL     1      27.029  37.089  30.663  1.00  0.00     0.293 HD
ENDBRANCH   3  15
TORSDOF 7
ENDMDL
MODEL 3
REMARK VINA RESULT:    -6.511      1.866      3.587
REMARK INTER + INTRA:          -9.984
REMARK INTER:                  -9.089
REMARK INTRA:                  -0.896
REMARK UNBOUND:                -0.999
REMARK SMILES CCCCc1cccc(O)c1CCCC
REMARK SMILES IDX 5 1 11 2 9 3 8 4 7 5 6 6 4 7 3 8 2 9 1 10 12 11 13 12 14 13
REMARK SMILES IDX 15 14 10 15
REMARK H PARENT 10 16
REMARK Flexibility Score: inf
ROOT
ATOM      1  C   UNL     1      29.955  38.037  26.540  1.00  0.00    -0.041 A 
ATOM      2  C   UNL     1      28.776  38.810  26.744  1.00  0.00    -0.003 A 
ATOM      3  C   UNL     1      28.204  39.494  25.646  1.00  0.00     0.119 A 
ATOM      4  C   UNL     1      28.793  39.410  24.378  1.00  0.00     0.046 A 
ATOM      5  C   UNL     1      29.948  38.659  24.186  1.00  0.00     0.004 A 
ATOM      6  C   UNL     1      30.529  37.984  25.257  1.00  0.00     0.004 A 
ENDROOT
BRANCH   1   7
ATOM      7  C   UNL     1      30.677  37.328  27.665  1.00  0.00     0.036 C 
BRANCH   7   8
ATOM      8  C   UNL     1      30.828  35.833  27.350  1.00  0.00     0.004 C 
BRANCH   8   9
ATOM      9  C   UNL     1      29.477  35.141  27.112  1.00  0.00    -0.003 C 
ATOM     10  C   UNL     1      29.604  33.880  26.255  1.00  0.00     0.004 C 
ENDBRANCH   8   9
ENDBRANCH   7   8
ENDBRANCH   1   7
BRANCH   2  11
ATOM     11  C   UNL     1      28.099  38.892  28.103  1.00  0.00     0.040 C 
BRANCH  11  12
ATOM     12  C   UNL     1      27.232  37.656  28.400  1.00  0.00     0.005 C 
BRANCH  12  13
ATOM     13  C   UNL     1      26.521  37.120  27.149  1.00  0.00    -0.003 C 
ATOM     14  C   UNL     1      25.132  37.734  26.999  1.00  0.00     0.004 C 
ENDBRANCH  12  13
ENDBRANCH  11  12
ENDBRANCH   2  11
BRANCH   3  15
ATOM     15  O   UNL     1      27.050  40.259  25.815  1.00  0.00    -0.508 OA
ATOM     16  H   UNL     1      27.077  41.271  25.814  1.00  0.00     0.293 HD
ENDBRANCH   3  15
TORSDOF 7
ENDMDL
MODEL 4
REMARK VINA RESULT:    -6.264      1.245      2.139
REMARK INTER + INTRA:          -9.644
REMARK INTER:                  -8.833
REMARK INTRA:                  -0.811
REMARK UNBOUND:                -0.999
REMARK SMILES CCCCc1cccc(O)c1CCCC
REMARK SMILES IDX 5 1 11 2 9 3 8 4 7 5 6 6 4 7 3 8 2 9 1 10 12 11 13 12 14 13
REMARK SMILES IDX 15 14 10 15
REMARK H PARENT 10 16
REMARK Flexibility Score: inf
ROOT
ATOM      1  C   UNL     1      29.859  36.971  26.999  1.00  0.00    -0.041 A 
ATOM      2  C   UNL     1      28.567  37.140  26.424  1.00  0.00    -0.003 A 
ATOM      3  C   UNL     1      27.809  35.994  26.088  1.00  0.00     0.119 A 
ATOM      4  C   UNL     1      28.326  34.714  26.321  1.00  0.00     0.046 A 
ATOM      5  C   UNL     1      29.591  34.555  26.877  1.00  0.00     0.004 A 
ATOM      6  C   UNL     1      30.355  35.672  27.207  1.00  0.00     0.004 A 
ENDROOT
BRANCH   1   7
ATOM      7  C   UNL     1      30.771  38.134  27.326  1.00  0.00     0.036 C 
BRANCH   7   8
ATOM      8  C   UNL     1      30.785  38.398  28.839  1.00  0.00     0.004 C 
BRANCH   8   9
ATOM      9  C   UNL     1      29.707  39.404  29.273  1.00  0.00    -0.003 C 
ATOM     10  C   UNL     1      28.422  38.723  29.744  1.00  0.00     0.004 C 
ENDBRANCH   8   9
ENDBRANCH   7   8
ENDBRANCH   1   7
BRANCH   2  11
ATOM     11  C   UNL     1      27.969  38.518  26.191  1.00  0.00     0.040 C 
BRANCH  11  12
ATOM     12  C   UNL     1      28.040  38.945  24.714  1.00  0.00     0.005 C 
BRANCH  12  13
ATOM     13  C   UNL     1      29.480  39.013  24.188  1.00  0.00    -0.003 C 
ATOM     14  C   UNL     1      29.833  40.425  23.731  1.00  0.00     0.004 C 
ENDBRANCH  12  13
ENDBRANCH  11  12
ENDBRANCH   2  11
BRANCH   3  15
ATOM     15  O   UNL     1      26.541  36.128  25.523  1.00  0.00    -0.508 OA
ATOM     16  H   UNL     1      26.390  36.040  24.525  1.00  0.00     0.293 HD
ENDBRANCH   3  15
TORSDOF 7
ENDMDL
MODEL 5
REMARK VINA RESULT:    -6.231      1.672      4.064
REMARK INTER + INTRA:          -9.599
REMARK INTER:                  -9.129
REMARK INTRA:                  -0.470
REMARK UNBOUND:                -0.999
REMARK SMILES CCCCc1cccc(O)c1CCCC
REMARK SMILES IDX 5 1 11 2 9 3 8 4 7 5 6 6 4 7 3 8 2 9 1 10 12 11 13 12 14 13
REMARK SMILES IDX 15 14 10 15
REMARK H PARENT 10 16
REMARK Flexibility Score: inf
ROOT
ATOM      1  C   UNL     1      29.937  37.592  26.373  1.00  0.00    -0.041 A 
ATOM      2  C   UNL     1      28.679  38.088  26.822  1.00  0.00    -0.003 A 
ATOM      3  C   UNL     1      27.932  38.937  25.973  1.00  0.00     0.119 A 
ATOM      4  C   UNL     1      28.427  39.284  24.710  1.00  0.00     0.046 A 
ATOM      5  C   UNL     1      29.659  38.802  24.278  1.00  0.00     0.004 A 
ATOM      6  C   UNL     1      30.411  37.970  25.104  1.00  0.00     0.004 A 
ENDROOT
BRANCH   1   7
ATOM      7  C   UNL     1      30.837  36.735  27.236  1.00  0.00     0.036 C 
BRANCH   7   8
ATOM      8  C   UNL     1      30.124  35.433  27.630  1.00  0.00     0.004 C 
BRANCH   8   9
ATOM      9  C   UNL     1      29.651  34.627  26.409  1.00  0.00    -0.003 C 
ATOM     10  C   UNL     1      28.127  34.536  26.319  1.00  0.00     0.004 C 
ENDBRANCH   8   9
ENDBRANCH   7   8
ENDBRANCH   1   7
BRANCH   2  11
ATOM     11  C   UNL     1      28.104  37.702  28.175  1.00  0.00     0.040 C 
BRANCH  11  12
ATOM     12  C   UNL     1      28.267  38.819  29.220  1.00  0.00     0.005 C 
BRANCH  12  13
ATOM     13  C   UNL     1      29.725  39.272  29.378  1.00  0.00    -0.003 C 
ATOM     14  C   UNL     1      30.208  39.081  30.813  1.00  0.00     0.004 C 
ENDBRANCH  12  13
ENDBRANCH  11  12
ENDBRANCH   2  11
BRANCH   3  15
ATOM     15  O   UNL     1      26.698  39.439  26.386  1.00  0.00    -0.508 OA
ATOM     16  H   UNL     1      26.229  40.182  25.882  1.00  0.00     0.293 HD
ENDBRANCH   3  15
TORSDOF 7
ENDMDL
MODEL 6
REMARK VINA RESULT:    -6.217      1.723      4.031
REMARK INTER + INTRA:          -9.578
REMARK INTER:                  -8.509
REMARK INTRA:                  -1.069
REMARK UNBOUND:                -0.999
REMARK SMILES CCCCc1cccc(O)c1CCCC
REMARK SMILES IDX 5 1 11 2 9 3 8 4 7 5 6 6 4 7 3 8 2 9 1 10 12 11 13 12 14 13
REMARK SMILES IDX 15 14 10 15
REMARK H PARENT 10 16
REMARK Flexibility Score: inf
ROOT
ATOM      1  C   UNL     1      28.105  37.939  27.047  1.00  0.00    -0.041 A 
ATOM      2  C   UNL     1      29.174  37.536  26.195  1.00  0.00    -0.003 A 
ATOM      3  C   UNL     1      29.333  38.176  24.944  1.00  0.00     0.119 A 
ATOM      4  C   UNL     1      28.449  39.190  24.553  1.00  0.00     0.046 A 
ATOM      5  C   UNL     1      27.404  39.574  25.386  1.00  0.00     0.004 A 
ATOM      6  C   UNL     1      27.228  38.950  26.619  1.00  0.00     0.004 A 
ENDROOT
BRANCH   1   7
ATOM      7  C   UNL     1      27.814  37.267  28.372  1.00  0.00     0.036 C 
BRANCH   7   8
ATOM      8  C   UNL     1      27.868  38.289  29.517  1.00  0.00     0.004 C 
BRANCH   8   9
ATOM      9  C   UNL     1      29.118  39.181  29.453  1.00  0.00    -0.003 C 
ATOM     10  C   UNL     1      30.060  38.960  30.637  1.00  0.00     0.004 C 
ENDBRANCH   8   9
ENDBRANCH   7   8
ENDBRANCH   1   7
BRANCH   2  11
ATOM     11  C   UNL     1      30.165  36.461  26.609  1.00  0.00     0.040 C 
BRANCH  11  12
ATOM     12  C   UNL     1      31.236  36.994  27.577  1.00  0.00     0.005 C 
BRANCH  12  13
ATOM     13  C   UNL     1      32.210  37.969  26.901  1.00  0.00    -0.003 C 
ATOM     14  C   UNL     1      31.928  39.409  27.319  1.00  0.00     0.004 C 
ENDBRANCH  12  13
ENDBRANCH  11  12
ENDBRANCH   2  11
BRANCH   3  15
ATOM     15  O   UNL     1      30.369  37.803  24.087  1.00  0.00    -0.508 OA
ATOM     16  H   UNL     1      31.020  38.482  23.712  1.00  0.00     0.293 HD
ENDBRANCH   3  15
TORSDOF 7
ENDMDL
MODEL 7
REMARK VINA RESULT:    -6.155      1.750      3.676
REMARK INTER + INTRA:          -9.493
REMARK INTER:                  -8.752
REMARK INTRA:                  -0.742
REMARK UNBOUND:                -0.999
REMARK SMILES CCCCc1cccc(O)c1CCCC
REMARK SMILES IDX 5 1 11 2 9 3 8 4 7 5 6 6 4 7 3 8 2 9 1 10 12 11 13 12 14 13
REMARK SMILES IDX 15 14 10 15
REMARK H PARENT 10 16
REMARK Flexibility Score: inf
ROOT
ATOM      1  C   UNL     1      28.562  38.081  26.963  1.00  0.00    -0.041 A 
ATOM      2  C   UNL     1      29.754  37.569  26.374  1.00  0.00    -0.003 A 
ATOM      3  C   UNL     1      30.075  37.933  25.046  1.00  0.00     0.119 A 
ATOM      4  C   UNL     1      29.231  38.786  24.324  1.00  0.00     0.046 A 
ATOM      5  C   UNL     1      28.065  39.278  24.902  1.00  0.00     0.004 A 
ATOM      6  C   UNL     1      27.729  38.924  26.207  1.00  0.00     0.004 A 
ENDROOT
BRANCH   1   7
ATOM      7  C   UNL     1      28.100  37.693  28.351  1.00  0.00     0.036 C 
BRANCH   7   8
ATOM      8  C   UNL     1      28.304  38.858  29.331  1.00  0.00     0.004 C 
BRANCH   8   9
ATOM      9  C   UNL     1      29.789  39.174  29.571  1.00  0.00    -0.003 C 
ATOM     10  C   UNL     1      30.182  39.070  31.045  1.00  0.00     0.004 C 
ENDBRANCH   8   9
ENDBRANCH   7   8
ENDBRANCH   1   7
BRANCH   2  11
ATOM     11  C   UNL     1      30.705  36.668  27.146  1.00  0.00     0.040 C 
BRANCH  11  12
ATOM     12  C   UNL     1      30.057  35.327  27.531  1.00  0.00     0.005 C 
BRANCH  12  13
ATOM     13  C   UNL     1      29.556  34.542  26.311  1.00  0.00    -0.003 C 
ATOM     14  C   UNL     1      28.031  34.527  26.254  1.00  0.00     0.004 C 
ENDBRANCH  12  13
ENDBRANCH  11  12
ENDBRANCH   2  11
BRANCH   3  15
ATOM     15  O   UNL     1      31.235  37.447  24.442  1.00  0.00    -0.508 OA
ATOM     16  H   UNL     1      31.441  37.622  23.466  1.00  0.00     0.293 HD
ENDBRANCH   3  15
TORSDOF 7
ENDMDL
MODEL 8
REMARK VINA RESULT:    -6.097      2.180      4.521
REMARK INTER + INTRA:          -9.412
REMARK INTER:                  -8.811
REMARK INTRA:                  -0.602
REMARK UNBOUND:                -0.999
REMARK SMILES CCCCc1cccc(O)c1CCCC
REMARK SMILES IDX 5 1 11 2 9 3 8 4 7 5 6 6 4 7 3 8 2 9 1 10 12 11 13 12 14 13
REMARK SMILES IDX 15 14 10 15
REMARK H PARENT 10 16
REMARK Flexibility Score: inf
ROOT
ATOM      1  C   UNL     1      28.792  37.295  27.875  1.00  0.00    -0.041 A 
ATOM      2  C   UNL     1      30.061  37.666  27.346  1.00  0.00    -0.003 A 
ATOM      3  C   UNL     1      30.745  38.768  27.911  1.00  0.00     0.119 A 
ATOM      4  C   UNL     1      30.177  39.480  28.975  1.00  0.00     0.046 A 
ATOM      5  C   UNL     1      28.935  39.116  29.484  1.00  0.00     0.004 A 
ATOM      6  C   UNL     1      28.244  38.038  28.935  1.00  0.00     0.004 A 
ENDROOT
BRANCH   1   7
ATOM      7  C   UNL     1      27.955  36.176  27.292  1.00  0.00     0.036 C 
BRANCH   7   8
ATOM      8  C   UNL     1      27.259  36.639  26.004  1.00  0.00     0.004 C 
BRANCH   8   9
ATOM      9  C   UNL     1      26.445  37.928  26.204  1.00  0.00    -0.003 C 
ATOM     10  C   UNL     1      25.147  37.690  26.976  1.00  0.00     0.004 C 
ENDBRANCH   8   9
ENDBRANCH   7   8
ENDBRANCH   1   7
BRANCH   2  11
ATOM     11  C   UNL     1      30.713  36.892  26.213  1.00  0.00     0.040 C 
BRANCH  11  12
ATOM     12  C   UNL     1      30.951  37.764  24.968  1.00  0.00     0.005 C 
BRANCH  12  13
ATOM     13  C   UNL     1      29.645  38.314  24.376  1.00  0.00    -0.003 C 
ATOM     14  C   UNL     1      29.701  39.833  24.236  1.00  0.00     0.004 C 
ENDBRANCH  12  13
ENDBRANCH  11  12
ENDBRANCH   2  11
BRANCH   3  15
ATOM     15  O   UNL     1      31.989  39.157  27.414  1.00  0.00    -0.508 OA
ATOM     16  H   UNL     1      32.835  38.647  27.636  1.00  0.00     0.293 HD
ENDBRANCH   3  15
TORSDOF 7
ENDMDL
MODEL 9
REMARK VINA RESULT:    -6.045      2.195      4.745
REMARK INTER + INTRA:          -9.342
REMARK INTER:                  -8.434
REMARK INTRA:                  -0.908
REMARK UNBOUND:                -0.999
REMARK SMILES CCCCc1cccc(O)c1CCCC
REMARK SMILES IDX 5 1 11 2 9 3 8 4 7 5 6 6 4 7 3 8 2 9 1 10 12 11 13 12 14 13
REMARK SMILES IDX 15 14 10 15
REMARK H PARENT 10 16
REMARK Flexibility Score: inf
ROOT
ATOM      1  C   UNL     1      27.849  37.520  27.156  1.00  0.00    -0.041 A 
ATOM      2  C   UNL     1      28.955  38.417  27.202  1.00  0.00    -0.003 A 
ATOM      3  C   UNL     1      29.282  39.042  28.429  1.00  0.00     0.119 A 
ATOM      4  C   UNL     1      28.526  38.778  29.578  1.00  0.00     0.046 A 
ATOM      5  C   UNL     1      27.444  37.907  29.526  1.00  0.00     0.004 A 
ATOM      6  C   UNL     1      27.102  37.288  28.325  1.00  0.00     0.004 A 
ENDROOT
BRANCH   1   7
ATOM      7  C   UNL     1      27.381  36.860  25.878  1.00  0.00     0.036 C 
BRANCH   7   8
ATOM      8  C   UNL     1      27.583  35.339  25.953  1.00  0.00     0.004 C 
BRANCH   8   9
ATOM      9  C   UNL     1      28.719  34.941  26.907  1.00  0.00    -0.003 C 
ATOM     10  C   UNL     1      29.738  34.008  26.253  1.00  0.00     0.004 C 
ENDBRANCH   8   9
ENDBRANCH   7   8
ENDBRANCH   1   7
BRANCH   2  11
ATOM     11  C   UNL     1      29.811  38.695  25.978  1.00  0.00     0.040 C 
BRANCH  11  12
ATOM     12  C   UNL     1      30.837  37.579  25.715  1.00  0.00     0.005 C 
BRANCH  12  13
ATOM     13  C   UNL     1      32.052  37.664  26.649  1.00  0.00    -0.003 C 
ATOM     14  C   UNL     1      31.923  36.684  27.812  1.00  0.00     0.004 C 
ENDBRANCH  12  13
ENDBRANCH  11  12
ENDBRANCH   2  11
BRANCH   3  15
ATOM     15  O   UNL     1      30.359  39.925  28.505  1.00  0.00    -0.508 OA
ATOM     16  H   UNL     1      30.807  40.293  27.675  1.00  0.00     0.293 HD
ENDBRANCH   3  15
TORSDOF 7
ENDMDL
