MODEL 1
REMARK VINA RESULT:     1.798      0.000      0.000
REMARK INTER + INTRA:           1.798
REMARK INTER:                   1.798
REMARK INTRA:                   0.000
REMARK UNBOUND:                 0.000
REMARK SMILES CC1=CC[C@H]2[C@H](C1)C2(C)C
REMARK SMILES IDX 1 1 2 2 3 3 4 4 5 5 6 6 7 7 8 8 9 9 10 10
REMARK H PARENT
REMARK Flexibility Score: inf
ROOT
ATOM      1  C   UNL     1      -0.226   6.765  -7.164  1.00  0.00     0.039 C 
ATOM      2  C   UNL     1      -0.116   6.269  -8.578  1.00  0.00    -0.077 C 
ATOM      3  C   UNL     1       1.010   5.603  -8.971  1.00  0.00    -0.028 C 
ATOM      4  C   UNL     1       1.170   5.053 -10.387  1.00  0.00     0.031 C 
ATOM      5  C   UNL     1      -0.230   4.860 -10.979  1.00  0.00     0.003 C 
ATOM      6  C   UNL     1      -0.769   6.339 -10.973  1.00  0.00     0.003 C 
ATOM      7  C   UNL     1      -1.296   6.461  -9.539  1.00  0.00     0.034 C 
ATOM      8  C   UNL     1      -1.007   5.418 -12.149  1.00  0.00    -0.029 C 
ATOM      9  C   UNL     1      -0.192   5.687 -13.417  1.00  0.00     0.012 C 
ATOM     10  C   UNL     1      -2.447   4.928 -12.325  1.00  0.00     0.012 C 
ENDROOT
TORSDOF 0
ENDMDL
MODEL 2
REMARK VINA RESULT:     4.146      9.702     11.597
REMARK INTER + INTRA:           4.146
REMARK INTER:                   4.146
REMARK INTRA:                   0.000
REMARK UNBOUND:                 0.000
REMARK SMILES CC1=CC[C@H]2[C@H](C1)C2(C)C
REMARK SMILES IDX 1 1 2 2 3 3 4 4 5 5 6 6 7 7 8 8 9 9 10 10
REMARK H PARENT
REMARK Flexibility Score: inf
ROOT
ATOM      1  C   UNL     1      12.811   8.116  -9.092  1.00  0.00     0.039 C 
ATOM      2  C   UNL     1      11.697   7.876  -8.114  1.00  0.00    -0.077 C 
ATOM      3  C   UNL     1      11.963   7.238  -6.935  1.00  0.00    -0.028 C 
ATOM      4  C   UNL     1      10.879   6.987  -5.889  1.00  0.00     0.031 C 
ATOM      5  C   UNL     1       9.763   8.013  -6.113  1.00  0.00     0.003 C 
ATOM      6  C   UNL     1       9.288   7.633  -7.565  1.00  0.00     0.003 C 
ATOM      7  C   UNL     1      10.293   8.409  -8.423  1.00  0.00     0.034 C 
ATOM      8  C   UNL     1       8.295   7.968  -6.473  1.00  0.00    -0.029 C 
ATOM      9  C   UNL     1       7.502   6.803  -5.875  1.00  0.00     0.012 C 
ATOM     10  C   UNL     1       7.575   9.311  -6.624  1.00  0.00     0.012 C 
ENDROOT
TORSDOF 0
ENDMDL
MODEL 3
REMARK VINA RESULT:     4.312      0.978      4.085
REMARK INTER + INTRA:           4.312
REMARK INTER:                   4.312
REMARK INTRA:                   0.000
REMARK UNBOUND:                 0.000
REMARK SMILES CC1=CC[C@H]2[C@H](C1)C2(C)C
REMARK SMILES IDX 1 1 2 2 3 3 4 4 5 5 6 6 7 7 8 8 9 9 10 10
REMARK H PARENT
REMARK Flexibility Score: inf
ROOT
ATOM      1  C   UNL     1      -1.884   5.304 -12.401  1.00  0.00     0.039 C 
ATOM      2  C   UNL     1      -1.090   5.617 -11.165  1.00  0.00    -0.077 C 
ATOM      3  C   UNL     1       0.250   5.349 -11.140  1.00  0.00    -0.028 C 
ATOM      4  C   UNL     1       1.116   5.668  -9.924  1.00  0.00     0.031 C 
ATOM      5  C   UNL     1       0.414   6.770  -9.122  1.00  0.00     0.003 C 
ATOM      6  C   UNL     1      -0.928   6.050  -8.725  1.00  0.00     0.003 C 
ATOM      7  C   UNL     1      -1.781   6.294  -9.975  1.00  0.00     0.034 C 
ATOM      8  C   UNL     1      -0.171   6.907  -7.735  1.00  0.00    -0.029 C 
ATOM      9  C   UNL     1       0.587   6.178  -6.622  1.00  0.00     0.012 C 
ATOM     10  C   UNL     1      -0.824   8.247  -7.386  1.00  0.00     0.012 C 
ENDROOT
TORSDOF 0
ENDMDL
MODEL 4
REMARK VINA RESULT:     4.487      9.268     11.186
REMARK INTER + INTRA:           4.487
REMARK INTER:                   4.487
REMARK INTRA:                   0.000
REMARK UNBOUND:                 0.000
REMARK SMILES CC1=CC[C@H]2[C@H](C1)C2(C)C
REMARK SMILES IDX 1 1 2 2 3 3 4 4 5 5 6 6 7 7 8 8 9 9 10 10
REMARK H PARENT
REMARK Flexibility Score: inf
ROOT
ATOM      1  C   UNL     1       6.375   9.758  -6.630  1.00  0.00     0.039 C 
ATOM      2  C   UNL     1       7.590   8.881  -6.534  1.00  0.00    -0.077 C 
ATOM      3  C   UNL     1       7.479   7.637  -5.979  1.00  0.00    -0.028 C 
ATOM      4  C   UNL     1       8.671   6.688  -5.876  1.00  0.00     0.031 C 
ATOM      5  C   UNL     1       9.693   7.099  -6.941  1.00  0.00     0.003 C 
ATOM      6  C   UNL     1      10.051   8.558  -6.472  1.00  0.00     0.003 C 
ATOM      7  C   UNL     1       8.922   9.368  -7.118  1.00  0.00     0.034 C 
ATOM      8  C   UNL     1      11.120   7.600  -6.950  1.00  0.00    -0.029 C 
ATOM      9  C   UNL     1      12.039   6.998  -5.883  1.00  0.00     0.012 C 
ATOM     10  C   UNL     1      11.735   7.922  -8.314  1.00  0.00     0.012 C 
ENDROOT
TORSDOF 0
ENDMDL
MODEL 5
REMARK VINA RESULT:     4.765      0.886      2.213
REMARK INTER + INTRA:           4.765
REMARK INTER:                   4.765
REMARK INTRA:                   0.000
REMARK UNBOUND:                 0.000
REMARK SMILES CC1=CC[C@H]2[C@H](C1)C2(C)C
REMARK SMILES IDX 1 1 2 2 3 3 4 4 5 5 6 6 7 7 8 8 9 9 10 10
REMARK H PARENT
REMARK Flexibility Score: inf
ROOT
ATOM      1  C   UNL     1       1.514   5.626  -8.241  1.00  0.00     0.039 C 
ATOM      2  C   UNL     1       0.465   5.652  -9.315  1.00  0.00    -0.077 C 
ATOM      3  C   UNL     1      -0.751   6.218  -9.054  1.00  0.00    -0.028 C 
ATOM      4  C   UNL     1      -1.849   6.299 -10.111  1.00  0.00     0.031 C 
ATOM      5  C   UNL     1      -1.183   6.218 -11.489  1.00  0.00     0.003 C 
ATOM      6  C   UNL     1      -0.523   4.791 -11.425  1.00  0.00     0.003 C 
ATOM      7  C   UNL     1       0.796   5.102 -10.708  1.00  0.00     0.034 C 
ATOM      8  C   UNL     1      -1.230   5.276 -12.671  1.00  0.00    -0.029 C 
ATOM      9  C   UNL     1      -2.600   4.663 -12.975  1.00  0.00     0.012 C 
ATOM     10  C   UNL     1      -0.323   5.606 -13.859  1.00  0.00     0.012 C 
ENDROOT
TORSDOF 0
ENDMDL
