MODEL 1
REMARK VINA RESULT:    -4.352      0.000      0.000
REMARK INTER + INTRA:          -5.945
REMARK INTER:                  -5.624
REMARK INTRA:                  -0.321
REMARK UNBOUND:                -0.321
REMARK SMILES CCO[C@H]1O[C@@H](CO)[C@@H](O)[C@H](O)[C@H]1O
REMARK SMILES IDX 4 1 13 2 11 3 9 4 6 5 5 6 3 7 2 8 1 9 14 10 12 12 7 14 8 15
REMARK SMILES IDX 10 17
REMARK H PARENT 14 11 12 13 8 16 10 18
REMARK Flexibility Score: inf
ROOT
ATOM      1  C   UNL     1      32.353 141.393 -43.745  1.00  0.00     0.281 C 
ATOM      2  C   UNL     1      33.901 141.188 -43.754  1.00  0.00     0.202 C 
ATOM      3  C   UNL     1      34.277 139.788 -44.287  1.00  0.00     0.179 C 
ATOM      4  C   UNL     1      33.553 138.686 -43.477  1.00  0.00     0.177 C 
ATOM      5  C   UNL     1      32.219 139.219 -42.882  1.00  0.00     0.178 C 
ATOM      6  O   UNL     1      31.632 140.165 -43.759  1.00  0.00    -0.341 OA
ENDROOT
BRANCH   1   7
ATOM      7  O   UNL     1      31.968 142.150 -44.882  1.00  0.00    -0.350 OA
BRANCH   7   8
ATOM      8  C   UNL     1      30.760 142.859 -44.647  1.00  0.00     0.160 C 
ATOM      9  C   UNL     1      30.429 143.762 -45.833  1.00  0.00     0.035 C 
ENDBRANCH   7   8
ENDBRANCH   1   7
BRANCH   2  10
ATOM     10  O   UNL     1      34.556 142.212 -44.462  1.00  0.00    -0.385 OA
ATOM     11  H   UNL     1      34.196 143.084 -44.147  1.00  0.00     0.211 HD
ENDBRANCH   2  10
BRANCH   3  12
ATOM     12  O   UNL     1      35.667 139.596 -44.203  1.00  0.00    -0.387 OA
ATOM     13  H   UNL     1      35.829 138.988 -43.431  1.00  0.00     0.211 HD
ENDBRANCH   3  12
BRANCH   5  14
ATOM     14  C   UNL     1      31.206 138.102 -42.554  1.00  0.00     0.191 C 
BRANCH  14  15
ATOM     15  O   UNL     1      30.695 137.504 -43.720  1.00  0.00    -0.394 OA
ATOM     16  H   UNL     1      30.309 136.628 -43.456  1.00  0.00     0.210 HD
ENDBRANCH  14  15
ENDBRANCH   5  14
BRANCH   4  17
ATOM     17  O   UNL     1      33.330 137.584 -44.324  1.00  0.00    -0.387 OA
ATOM     18  H   UNL     1      33.437 136.759 -43.777  1.00  0.00     0.211 HD
ENDBRANCH   4  17
TORSDOF 7
ENDMDL
MODEL 2
REMARK VINA RESULT:    -4.244     14.104     15.187
REMARK INTER + INTRA:          -5.806
REMARK INTER:                  -5.453
REMARK INTRA:                  -0.353
REMARK UNBOUND:                -0.321
REMARK SMILES CCO[C@H]1O[C@@H](CO)[C@@H](O)[C@H](O)[C@H]1O
REMARK SMILES IDX 4 1 13 2 11 3 9 4 6 5 5 6 3 7 2 8 1 9 14 10 12 12 7 14 8 15
REMARK SMILES IDX 10 17
REMARK H PARENT 14 11 12 13 8 16 10 18
REMARK Flexibility Score: inf
ROOT
ATOM      1  C   UNL     1      31.650 140.518 -29.024  1.00  0.00     0.281 C 
ATOM      2  C   UNL     1      31.932 140.725 -30.545  1.00  0.00     0.202 C 
ATOM      3  C   UNL     1      33.312 140.153 -30.942  1.00  0.00     0.179 C 
ATOM      4  C   UNL     1      34.426 140.764 -30.058  1.00  0.00     0.177 C 
ATOM      5  C   UNL     1      33.866 141.190 -28.671  1.00  0.00     0.178 C 
ATOM      6  O   UNL     1      32.836 140.306 -28.265  1.00  0.00    -0.341 OA
ENDROOT
BRANCH   1   7
ATOM      7  O   UNL     1      30.802 139.393 -28.847  1.00  0.00    -0.350 OA
BRANCH   7   8
ATOM      8  C   UNL     1      29.804 139.646 -27.869  1.00  0.00     0.160 C 
ATOM      9  C   UNL     1      28.940 138.405 -27.651  1.00  0.00     0.035 C 
ENDBRANCH   7   8
ENDBRANCH   1   7
BRANCH   2  10
ATOM     10  O   UNL     1      30.899 140.199 -31.341  1.00  0.00    -0.385 OA
ATOM     11  H   UNL     1      30.036 140.568 -31.011  1.00  0.00     0.211 HD
ENDBRANCH   2  10
BRANCH   3  12
ATOM     12  O   UNL     1      33.579 140.430 -32.293  1.00  0.00    -0.387 OA
ATOM     13  H   UNL     1      33.380 141.395 -32.435  1.00  0.00     0.211 HD
ENDBRANCH   3  12
BRANCH   5  14
ATOM     14  C   UNL     1      34.949 141.282 -27.577  1.00  0.00     0.191 C 
BRANCH  14  15
ATOM     15  O   UNL     1      36.072 142.007 -28.015  1.00  0.00    -0.394 OA
ATOM     16  H   UNL     1      36.745 141.976 -27.286  1.00  0.00     0.210 HD
ENDBRANCH  14  15
ENDBRANCH   5  14
BRANCH   4  17
ATOM     17  O   UNL     1      35.458 139.816 -29.923  1.00  0.00    -0.387 OA
ATOM     18  H   UNL     1      35.039 138.913 -29.933  1.00  0.00     0.211 HD
ENDBRANCH   4  17
TORSDOF 7
ENDMDL
MODEL 3
REMARK VINA RESULT:    -4.180      2.419      4.609
REMARK INTER + INTRA:          -5.723
REMARK INTER:                  -5.522
REMARK INTRA:                  -0.201
REMARK UNBOUND:                -0.321
REMARK SMILES CCO[C@H]1O[C@@H](CO)[C@@H](O)[C@H](O)[C@H]1O
REMARK SMILES IDX 4 1 13 2 11 3 9 4 6 5 5 6 3 7 2 8 1 9 14 10 12 12 7 14 8 15
REMARK SMILES IDX 10 17
REMARK H PARENT 14 11 12 13 8 16 10 18
REMARK Flexibility Score: inf
ROOT
ATOM      1  C   UNL     1      34.226 140.106 -43.844  1.00  0.00     0.281 C 
ATOM      2  C   UNL     1      35.633 139.484 -43.578  1.00  0.00     0.202 C 
ATOM      3  C   UNL     1      36.685 140.579 -43.294  1.00  0.00     0.179 C 
ATOM      4  C   UNL     1      36.718 141.611 -44.447  1.00  0.00     0.177 C 
ATOM      5  C   UNL     1      35.340 141.691 -45.162  1.00  0.00     0.178 C 
ATOM      6  O   UNL     1      34.291 141.474 -44.234  1.00  0.00    -0.341 OA
ENDROOT
BRANCH   1   7
ATOM      7  O   UNL     1      33.436 140.014 -42.669  1.00  0.00    -0.350 OA
BRANCH   7   8
ATOM      8  C   UNL     1      32.051 140.002 -42.976  1.00  0.00     0.160 C 
ATOM      9  C   UNL     1      31.508 138.574 -42.948  1.00  0.00     0.035 C 
ENDBRANCH   7   8
ENDBRANCH   1   7
BRANCH   2  10
ATOM     10  O   UNL     1      35.590 138.521 -42.554  1.00  0.00    -0.385 OA
ATOM     11  H   UNL     1      35.955 137.669 -42.914  1.00  0.00     0.211 HD
ENDBRANCH   2  10
BRANCH   3  12
ATOM     12  O   UNL     1      37.957 140.000 -43.145  1.00  0.00    -0.387 OA
ATOM     13  H   UNL     1      37.860 139.032 -43.356  1.00  0.00     0.211 HD
ENDBRANCH   3  12
BRANCH   5  14
ATOM     14  C   UNL     1      35.117 143.020 -45.913  1.00  0.00     0.191 C 
BRANCH  14  15
ATOM     15  O   UNL     1      33.890 143.615 -45.565  1.00  0.00    -0.394 OA
ATOM     16  H   UNL     1      33.998 144.596 -45.671  1.00  0.00     0.210 HD
ENDBRANCH  14  15
ENDBRANCH   5  14
BRANCH   4  17
ATOM     17  O   UNL     1      37.092 142.861 -43.916  1.00  0.00    -0.387 OA
ATOM     18  H   UNL     1      36.260 143.320 -43.616  1.00  0.00     0.211 HD
ENDBRANCH   4  17
TORSDOF 7
ENDMDL
MODEL 4
REMARK VINA RESULT:    -4.160     13.979     14.972
REMARK INTER + INTRA:          -5.697
REMARK INTER:                  -5.252
REMARK INTRA:                  -0.444
REMARK UNBOUND:                -0.321
REMARK SMILES CCO[C@H]1O[C@@H](CO)[C@@H](O)[C@H](O)[C@H]1O
REMARK SMILES IDX 4 1 13 2 11 3 9 4 6 5 5 6 3 7 2 8 1 9 14 10 12 12 7 14 8 15
REMARK SMILES IDX 10 17
REMARK H PARENT 14 11 12 13 8 16 10 18
REMARK Flexibility Score: inf
ROOT
ATOM      1  C   UNL     1      33.915 139.142 -28.495  1.00  0.00     0.281 C 
ATOM      2  C   UNL     1      34.134 138.509 -29.905  1.00  0.00     0.202 C 
ATOM      3  C   UNL     1      33.236 139.183 -30.967  1.00  0.00     0.179 C 
ATOM      4  C   UNL     1      31.752 139.132 -30.533  1.00  0.00     0.177 C 
ATOM      5  C   UNL     1      31.625 139.081 -28.984  1.00  0.00     0.178 C 
ATOM      6  O   UNL     1      32.670 139.824 -28.381  1.00  0.00    -0.341 OA
ENDROOT
BRANCH   1   7
ATOM      7  O   UNL     1      34.957 140.068 -28.224  1.00  0.00    -0.350 OA
BRANCH   7   8
ATOM      8  C   UNL     1      34.482 141.405 -28.256  1.00  0.00     0.160 C 
ATOM      9  C   UNL     1      35.230 142.265 -27.239  1.00  0.00     0.035 C 
ENDBRANCH   7   8
ENDBRANCH   1   7
BRANCH   2  10
ATOM     10  O   UNL     1      35.489 138.526 -30.278  1.00  0.00    -0.385 OA
ATOM     11  H   UNL     1      36.034 138.669 -29.458  1.00  0.00     0.211 HD
ENDBRANCH   2  10
BRANCH   3  12
ATOM     12  O   UNL     1      33.386 138.538 -32.206  1.00  0.00    -0.387 OA
ATOM     13  H   UNL     1      32.511 138.115 -32.420  1.00  0.00     0.211 HD
ENDBRANCH   3  12
BRANCH   5  14
ATOM     14  C   UNL     1      30.258 139.573 -28.466  1.00  0.00     0.191 C 
BRANCH  14  15
ATOM     15  O   UNL     1      29.192 138.979 -29.166  1.00  0.00    -0.394 OA
ATOM     16  H   UNL     1      28.573 139.708 -29.433  1.00  0.00     0.210 HD
ENDBRANCH  14  15
ENDBRANCH   5  14
BRANCH   4  17
ATOM     17  O   UNL     1      31.094 140.259 -31.063  1.00  0.00    -0.387 OA
ATOM     18  H   UNL     1      30.374 140.514 -30.424  1.00  0.00     0.211 HD
ENDBRANCH   4  17
TORSDOF 7
ENDMDL
MODEL 5
REMARK VINA RESULT:    -4.140      1.752      4.077
REMARK INTER + INTRA:          -5.671
REMARK INTER:                  -5.314
REMARK INTRA:                  -0.358
REMARK UNBOUND:                -0.321
REMARK SMILES CCO[C@H]1O[C@@H](CO)[C@@H](O)[C@H](O)[C@H]1O
REMARK SMILES IDX 4 1 13 2 11 3 9 4 6 5 5 6 3 7 2 8 1 9 14 10 12 12 7 14 8 15
REMARK SMILES IDX 10 17
REMARK H PARENT 14 11 12 13 8 16 10 18
REMARK Flexibility Score: inf
ROOT
ATOM      1  C   UNL     1      32.624 139.825 -42.877  1.00  0.00     0.281 C 
ATOM      2  C   UNL     1      32.742 141.270 -43.456  1.00  0.00     0.202 C 
ATOM      3  C   UNL     1      33.781 141.333 -44.598  1.00  0.00     0.179 C 
ATOM      4  C   UNL     1      35.148 140.788 -44.119  1.00  0.00     0.177 C 
ATOM      5  C   UNL     1      34.964 139.754 -42.972  1.00  0.00     0.178 C 
ATOM      6  O   UNL     1      33.766 139.021 -43.158  1.00  0.00    -0.341 OA
ENDROOT
BRANCH   1   7
ATOM      7  O   UNL     1      31.483 139.185 -43.427  1.00  0.00    -0.350 OA
BRANCH   7   8
ATOM      8  C   UNL     1      31.189 137.976 -42.744  1.00  0.00     0.160 C 
ATOM      9  C   UNL     1      31.175 136.799 -43.719  1.00  0.00     0.035 C 
ENDBRANCH   7   8
ENDBRANCH   1   7
BRANCH   2  10
ATOM     10  O   UNL     1      31.492 141.772 -43.857  1.00  0.00    -0.385 OA
ATOM     11  H   UNL     1      30.951 141.014 -44.207  1.00  0.00     0.211 HD
ENDBRANCH   2  10
BRANCH   3  12
ATOM     12  O   UNL     1      33.932 142.657 -45.042  1.00  0.00    -0.387 OA
ATOM     13  H   UNL     1      33.292 143.212 -44.518  1.00  0.00     0.211 HD
ENDBRANCH   3  12
BRANCH   5  14
ATOM     14  C   UNL     1      36.158 138.789 -42.821  1.00  0.00     0.191 C 
BRANCH  14  15
ATOM     15  O   UNL     1      37.384 139.479 -42.784  1.00  0.00    -0.394 OA
ATOM     16  H   UNL     1      37.922 139.165 -43.556  1.00  0.00     0.210 HD
ENDBRANCH  14  15
ENDBRANCH   5  14
BRANCH   4  17
ATOM     17  O   UNL     1      35.812 140.216 -45.221  1.00  0.00    -0.387 OA
ATOM     18  H   UNL     1      36.557 140.826 -45.472  1.00  0.00     0.211 HD
ENDBRANCH   4  17
TORSDOF 7
ENDMDL
MODEL 6
REMARK VINA RESULT:    -4.044     11.762     12.660
REMARK INTER + INTRA:          -5.547
REMARK INTER:                  -5.140
REMARK INTRA:                  -0.408
REMARK UNBOUND:                -0.321
REMARK SMILES CCO[C@H]1O[C@@H](CO)[C@@H](O)[C@H](O)[C@H]1O
REMARK SMILES IDX 4 1 13 2 11 3 9 4 6 5 5 6 3 7 2 8 1 9 14 10 12 12 7 14 8 15
REMARK SMILES IDX 10 17
REMARK H PARENT 14 11 12 13 8 16 10 18
REMARK Flexibility Score: inf
ROOT
ATOM      1  C   UNL     1      33.731 139.390 -30.578  1.00  0.00     0.281 C 
ATOM      2  C   UNL     1      34.846 140.285 -31.205  1.00  0.00     0.202 C 
ATOM      3  C   UNL     1      34.891 140.129 -32.742  1.00  0.00     0.179 C 
ATOM      4  C   UNL     1      35.056 138.641 -33.131  1.00  0.00     0.177 C 
ATOM      5  C   UNL     1      34.465 137.709 -32.036  1.00  0.00     0.178 C 
ATOM      6  O   UNL     1      33.338 138.317 -31.429  1.00  0.00    -0.341 OA
ENDROOT
BRANCH   1   7
ATOM      7  O   UNL     1      32.586 140.182 -30.303  1.00  0.00    -0.350 OA
BRANCH   7   8
ATOM      8  C   UNL     1      31.388 139.442 -30.485  1.00  0.00     0.160 C 
ATOM      9  C   UNL     1      30.747 139.118 -29.137  1.00  0.00     0.035 C 
ENDBRANCH   7   8
ENDBRANCH   1   7
BRANCH   2  10
ATOM     10  O   UNL     1      34.711 141.630 -30.818  1.00  0.00    -0.385 OA
ATOM     11  H   UNL     1      35.596 142.071 -30.918  1.00  0.00     0.211 HD
ENDBRANCH   2  10
BRANCH   3  12
ATOM     12  O   UNL     1      35.958 140.875 -33.271  1.00  0.00    -0.387 OA
ATOM     13  H   UNL     1      36.583 140.226 -33.694  1.00  0.00     0.211 HD
ENDBRANCH   3  12
BRANCH   5  14
ATOM     14  C   UNL     1      34.092 136.308 -32.561  1.00  0.00     0.191 C 
BRANCH  14  15
ATOM     15  O   UNL     1      35.094 135.782 -33.397  1.00  0.00    -0.394 OA
ATOM     16  H   UNL     1      35.548 136.550 -33.831  1.00  0.00     0.210 HD
ENDBRANCH  14  15
ENDBRANCH   5  14
BRANCH   4  17
ATOM     17  O   UNL     1      34.426 138.433 -34.373  1.00  0.00    -0.387 OA
ATOM     18  H   UNL     1      35.033 138.784 -35.080  1.00  0.00     0.211 HD
ENDBRANCH   4  17
TORSDOF 7
ENDMDL
MODEL 7
REMARK VINA RESULT:    -4.044     13.900     14.910
REMARK INTER + INTRA:          -5.547
REMARK INTER:                  -5.120
REMARK INTRA:                  -0.427
REMARK UNBOUND:                -0.321
REMARK SMILES CCO[C@H]1O[C@@H](CO)[C@@H](O)[C@H](O)[C@H]1O
REMARK SMILES IDX 4 1 13 2 11 3 9 4 6 5 5 6 3 7 2 8 1 9 14 10 12 12 7 14 8 15
REMARK SMILES IDX 10 17
REMARK H PARENT 14 11 12 13 8 16 10 18
REMARK Flexibility Score: inf
ROOT
ATOM      1  C   UNL     1      34.750 141.133 -28.953  1.00  0.00     0.281 C 
ATOM      2  C   UNL     1      33.247 140.770 -28.733  1.00  0.00     0.202 C 
ATOM      3  C   UNL     1      32.813 139.605 -29.650  1.00  0.00     0.179 C 
ATOM      4  C   UNL     1      33.117 139.938 -31.130  1.00  0.00     0.177 C 
ATOM      5  C   UNL     1      34.312 140.925 -31.245  1.00  0.00     0.178 C 
ATOM      6  O   UNL     1      35.249 140.686 -30.210  1.00  0.00    -0.341 OA
ENDROOT
BRANCH   1   7
ATOM      7  O   UNL     1      35.535 140.545 -27.927  1.00  0.00    -0.350 OA
BRANCH   7   8
ATOM      8  C   UNL     1      36.577 141.416 -27.510  1.00  0.00     0.160 C 
ATOM      9  C   UNL     1      36.003 142.749 -27.034  1.00  0.00     0.035 C 
ENDBRANCH   7   8
ENDBRANCH   1   7
BRANCH   2  10
ATOM     10  O   UNL     1      32.971 140.504 -27.380  1.00  0.00    -0.385 OA
ATOM     11  H   UNL     1      33.835 140.470 -26.888  1.00  0.00     0.211 HD
ENDBRANCH   2  10
BRANCH   3  12
ATOM     12  O   UNL     1      31.438 139.357 -29.496  1.00  0.00    -0.387 OA
ATOM     13  H   UNL     1      31.326 138.368 -29.450  1.00  0.00     0.211 HD
ENDBRANCH   3  12
BRANCH   5  14
ATOM     14  C   UNL     1      35.015 140.878 -32.617  1.00  0.00     0.191 C 
BRANCH  14  15
ATOM     15  O   UNL     1      34.093 140.726 -33.669  1.00  0.00    -0.394 OA
ATOM     16  H   UNL     1      34.475 140.065 -34.303  1.00  0.00     0.210 HD
ENDBRANCH  14  15
ENDBRANCH   5  14
BRANCH   4  17
ATOM     17  O   UNL     1      33.381 138.734 -31.812  1.00  0.00    -0.387 OA
ATOM     18  H   UNL     1      32.587 138.145 -31.698  1.00  0.00     0.211 HD
ENDBRANCH   4  17
TORSDOF 7
ENDMDL
MODEL 8
REMARK VINA RESULT:    -4.023     13.830     14.872
REMARK INTER + INTRA:          -5.520
REMARK INTER:                  -5.080
REMARK INTRA:                  -0.440
REMARK UNBOUND:                -0.321
REMARK SMILES CCO[C@H]1O[C@@H](CO)[C@@H](O)[C@H](O)[C@H]1O
REMARK SMILES IDX 4 1 13 2 11 3 9 4 6 5 5 6 3 7 2 8 1 9 14 10 12 12 7 14 8 15
REMARK SMILES IDX 10 17
REMARK H PARENT 14 11 12 13 8 16 10 18
REMARK Flexibility Score: inf
ROOT
ATOM      1  C   UNL     1      34.436 140.077 -30.911  1.00  0.00     0.281 C 
ATOM      2  C   UNL     1      33.079 139.659 -30.262  1.00  0.00     0.202 C 
ATOM      3  C   UNL     1      32.780 140.500 -29.000  1.00  0.00     0.179 C 
ATOM      4  C   UNL     1      33.955 140.408 -27.997  1.00  0.00     0.177 C 
ATOM      5  C   UNL     1      35.295 140.126 -28.732  1.00  0.00     0.178 C 
ATOM      6  O   UNL     1      35.299 140.753 -30.004  1.00  0.00    -0.341 OA
ENDROOT
BRANCH   1   7
ATOM      7  O   UNL     1      34.189 140.934 -32.015  1.00  0.00    -0.350 OA
BRANCH   7   8
ATOM      8  C   UNL     1      35.148 140.742 -33.044  1.00  0.00     0.160 C 
ATOM      9  C   UNL     1      35.417 139.253 -33.255  1.00  0.00     0.035 C 
ENDBRANCH   7   8
ENDBRANCH   1   7
BRANCH   2  10
ATOM     10  O   UNL     1      32.022 139.711 -31.188  1.00  0.00    -0.385 OA
ATOM     11  H   UNL     1      31.521 138.853 -31.134  1.00  0.00     0.211 HD
ENDBRANCH   2  10
BRANCH   3  12
ATOM     12  O   UNL     1      31.601 140.046 -28.386  1.00  0.00    -0.387 OA
ATOM     13  H   UNL     1      31.730 140.143 -27.403  1.00  0.00     0.211 HD
ENDBRANCH   3  12
BRANCH   5  14
ATOM     14  C   UNL     1      36.538 140.556 -27.926  1.00  0.00     0.191 C 
BRANCH  14  15
ATOM     15  O   UNL     1      36.791 141.934 -28.055  1.00  0.00    -0.394 OA
ATOM     16  H   UNL     1      36.192 142.278 -28.768  1.00  0.00     0.210 HD
ENDBRANCH  14  15
ENDBRANCH   5  14
BRANCH   4  17
ATOM     17  O   UNL     1      34.014 141.612 -27.269  1.00  0.00    -0.387 OA
ATOM     18  H   UNL     1      33.184 142.123 -27.467  1.00  0.00     0.211 HD
ENDBRANCH   4  17
TORSDOF 7
ENDMDL
MODEL 9
REMARK VINA RESULT:    -4.002     13.533     15.076
REMARK INTER + INTRA:          -5.493
REMARK INTER:                  -5.054
REMARK INTRA:                  -0.439
REMARK UNBOUND:                -0.321
REMARK SMILES CCO[C@H]1O[C@@H](CO)[C@@H](O)[C@H](O)[C@H]1O
REMARK SMILES IDX 4 1 13 2 11 3 9 4 6 5 5 6 3 7 2 8 1 9 14 10 12 12 7 14 8 15
REMARK SMILES IDX 10 17
REMARK H PARENT 14 11 12 13 8 16 10 18
REMARK Flexibility Score: inf
ROOT
ATOM      1  C   UNL     1      33.394 138.493 -28.791  1.00  0.00     0.281 C 
ATOM      2  C   UNL     1      31.967 138.748 -28.210  1.00  0.00     0.202 C 
ATOM      3  C   UNL     1      30.983 139.189 -29.317  1.00  0.00     0.179 C 
ATOM      4  C   UNL     1      31.531 140.425 -30.069  1.00  0.00     0.177 C 
ATOM      5  C   UNL     1      33.085 140.462 -30.021  1.00  0.00     0.178 C 
ATOM      6  O   UNL     1      33.609 139.146 -30.037  1.00  0.00    -0.341 OA
ENDROOT
BRANCH   1   7
ATOM      7  O   UNL     1      33.588 137.099 -28.978  1.00  0.00    -0.350 OA
BRANCH   7   8
ATOM      8  C   UNL     1      33.525 136.748 -30.352  1.00  0.00     0.160 C 
ATOM      9  C   UNL     1      33.797 135.256 -30.537  1.00  0.00     0.035 C 
ENDBRANCH   7   8
ENDBRANCH   1   7
BRANCH   2  10
ATOM     10  O   UNL     1      31.490 137.633 -27.498  1.00  0.00    -0.385 OA
ATOM     11  H   UNL     1      30.796 137.948 -26.859  1.00  0.00     0.211 HD
ENDBRANCH   2  10
BRANCH   3  12
ATOM     12  O   UNL     1      29.732 139.496 -28.755  1.00  0.00    -0.387 OA
ATOM     13  H   UNL     1      29.042 139.096 -29.351  1.00  0.00     0.211 HD
ENDBRANCH   3  12
BRANCH   5  14
ATOM     14  C   UNL     1      33.711 141.296 -31.157  1.00  0.00     0.191 C 
BRANCH  14  15
ATOM     15  O   UNL     1      33.779 140.570 -32.360  1.00  0.00    -0.394 OA
ATOM     16  H   UNL     1      34.719 140.268 -32.469  1.00  0.00     0.210 HD
ENDBRANCH  14  15
ENDBRANCH   5  14
BRANCH   4  17
ATOM     17  O   UNL     1      31.061 140.384 -31.395  1.00  0.00    -0.387 OA
ATOM     18  H   UNL     1      31.478 141.144 -31.884  1.00  0.00     0.211 HD
ENDBRANCH   4  17
TORSDOF 7
ENDMDL
