MODEL 1
REMARK VINA RESULT:    -5.278      0.000      0.000
REMARK INTER + INTRA:          -9.954
REMARK INTER:                  -9.290
REMARK INTRA:                  -0.664
REMARK UNBOUND:                -0.664
REMARK SMILES CCCCCCC=CCCCCCCCC(=O)[O-]
REMARK SMILES IDX 10 1 11 2 12 3 13 4 14 5 15 6 16 7 17 8 18 9 9 10 8 11 7 12
REMARK SMILES IDX 6 13 5 14 4 15 3 16 2 17 1 18
REMARK H PARENT
REMARK Flexibility Score: inf
ROOT
ATOM      1  C   UNL     1    -129.259 110.693  43.183  1.00  0.00     0.004 C 
ENDROOT
BRANCH   1   2
ATOM      2  C   UNL     1    -129.803 109.477  43.949  1.00  0.00     0.000 C 
BRANCH   2   3
ATOM      3  C   UNL     1    -130.087 108.278  43.029  1.00  0.00     0.000 C 
BRANCH   3   4
ATOM      4  C   UNL     1    -129.117 108.196  41.836  1.00  0.00     0.000 C 
BRANCH   4   5
ATOM      5  C   UNL     1    -128.984 106.800  41.193  1.00  0.00     0.006 C 
BRANCH   5   6
ATOM      6  C   UNL     1    -129.620 106.674  39.799  1.00  0.00     0.053 C 
BRANCH   6   7
ATOM      7  C   UNL     1    -129.535 105.276  39.270  1.00  0.00     0.041 C 
ATOM      8  O   UNL     1    -129.702 105.052  38.042  1.00  0.00    -0.550 OA
ATOM      9  O   UNL     1    -129.305 104.215  40.137  1.00  0.00    -0.550 OA
ENDBRANCH   6   7
ENDBRANCH   5   6
ENDBRANCH   4   5
ENDBRANCH   3   4
ENDBRANCH   2   3
ENDBRANCH   1   2
BRANCH   1  10
ATOM     10  C   UNL     1    -129.401 112.004  43.973  1.00  0.00     0.027 C 
BRANCH  10  11
ATOM     11  C   UNL     1    -129.436 113.191  43.051  1.00  0.00    -0.031 C 
ATOM     12  C   UNL     1    -129.892 114.376  43.481  1.00  0.00    -0.031 C 
BRANCH  12  13
ATOM     13  C   UNL     1    -129.934 115.582  42.579  1.00  0.00     0.027 C 
BRANCH  13  14
ATOM     14  C   UNL     1    -129.565 116.881  43.313  1.00  0.00     0.004 C 
BRANCH  14  15
ATOM     15  C   UNL     1    -129.502 116.745  44.846  1.00  0.00     0.000 C 
BRANCH  15  16
ATOM     16  C   UNL     1    -130.058 117.972  45.600  1.00  0.00    -0.000 C 
BRANCH  16  17
ATOM     17  C   UNL     1    -131.126 117.586  46.634  1.00  0.00    -0.003 C 
ATOM     18  C   UNL     1    -130.964 116.136  47.079  1.00  0.00     0.004 C 
ENDBRANCH  16  17
ENDBRANCH  15  16
ENDBRANCH  14  15
ENDBRANCH  13  14
ENDBRANCH  12  13
ENDBRANCH  10  11
ENDBRANCH   1  10
TORSDOF 13
ENDMDL
MODEL 2
REMARK VINA RESULT:    -5.170      5.178      9.983
REMARK INTER + INTRA:          -9.763
REMARK INTER:                  -9.022
REMARK INTRA:                  -0.741
REMARK UNBOUND:                -0.664
REMARK SMILES CCCCCCC=CCCCCCCCC(=O)[O-]
REMARK SMILES IDX 10 1 11 2 12 3 13 4 14 5 15 6 16 7 17 8 18 9 9 10 8 11 7 12
REMARK SMILES IDX 6 13 5 14 4 15 3 16 2 17 1 18
REMARK H PARENT
REMARK Flexibility Score: inf
ROOT
ATOM      1  C   UNL     1    -129.752 113.175  42.770  1.00  0.00     0.004 C 
ENDROOT
BRANCH   1   2
ATOM      2  C   UNL     1    -129.618 114.521  43.501  1.00  0.00     0.000 C 
BRANCH   2   3
ATOM      3  C   UNL     1    -129.573 115.715  42.533  1.00  0.00     0.000 C 
BRANCH   3   4
ATOM      4  C   UNL     1    -129.469 117.070  43.257  1.00  0.00     0.000 C 
BRANCH   4   5
ATOM      5  C   UNL     1    -129.416 116.988  44.796  1.00  0.00     0.006 C 
BRANCH   5   6
ATOM      6  C   UNL     1    -130.101 118.156  45.523  1.00  0.00     0.053 C 
BRANCH   6   7
ATOM      7  C   UNL     1    -130.950 117.685  46.663  1.00  0.00     0.041 C 
ATOM      8  O   UNL     1    -131.606 118.513  47.350  1.00  0.00    -0.550 OA
ATOM      9  O   UNL     1    -130.991 116.335  46.990  1.00  0.00    -0.550 OA
ENDBRANCH   6   7
ENDBRANCH   5   6
ENDBRANCH   4   5
ENDBRANCH   3   4
ENDBRANCH   2   3
ENDBRANCH   1   2
BRANCH   1  10
ATOM     10  C   UNL     1    -129.262 111.990  43.617  1.00  0.00     0.027 C 
BRANCH  10  11
ATOM     11  C   UNL     1    -129.415 110.692  42.873  1.00  0.00    -0.031 C 
ATOM     12  C   UNL     1    -129.652 109.550  43.532  1.00  0.00    -0.031 C 
BRANCH  12  13
ATOM     13  C   UNL     1    -129.812 108.238  42.810  1.00  0.00     0.027 C 
BRANCH  13  14
ATOM     14  C   UNL     1    -128.996 108.176  41.510  1.00  0.00     0.004 C 
BRANCH  14  15
ATOM     15  C   UNL     1    -129.496 107.128  40.498  1.00  0.00     0.000 C 
BRANCH  15  16
ATOM     16  C   UNL     1    -130.011 107.739  39.177  1.00  0.00    -0.000 C 
BRANCH  16  17
ATOM     17  C   UNL     1    -130.675 109.108  39.389  1.00  0.00    -0.003 C 
ATOM     18  C   UNL     1    -132.062 109.151  38.756  1.00  0.00     0.004 C 
ENDBRANCH  16  17
ENDBRANCH  15  16
ENDBRANCH  14  15
ENDBRANCH  13  14
ENDBRANCH  12  13
ENDBRANCH  10  11
ENDBRANCH   1  10
TORSDOF 13
ENDMDL
MODEL 3
REMARK VINA RESULT:    -5.152      5.050     10.210
REMARK INTER + INTRA:          -9.732
REMARK INTER:                  -9.005
REMARK INTRA:                  -0.727
REMARK UNBOUND:                -0.664
REMARK SMILES CCCCCCC=CCCCCCCCC(=O)[O-]
REMARK SMILES IDX 10 1 11 2 12 3 13 4 14 5 15 6 16 7 17 8 18 9 9 10 8 11 7 12
REMARK SMILES IDX 6 13 5 14 4 15 3 16 2 17 1 18
REMARK H PARENT
REMARK Flexibility Score: inf
ROOT
ATOM      1  C   UNL     1    -130.070 113.788  42.818  1.00  0.00     0.004 C 
ENDROOT
BRANCH   1   2
ATOM      2  C   UNL     1    -129.508 115.021  42.093  1.00  0.00     0.000 C 
BRANCH   2   3
ATOM      3  C   UNL     1    -130.182 116.329  42.542  1.00  0.00     0.000 C 
BRANCH   3   4
ATOM      4  C   UNL     1    -129.183 117.353  43.110  1.00  0.00     0.000 C 
BRANCH   4   5
ATOM      5  C   UNL     1    -129.380 117.706  44.598  1.00  0.00     0.006 C 
BRANCH   5   6
ATOM      6  C   UNL     1    -129.901 116.549  45.467  1.00  0.00     0.053 C 
BRANCH   6   7
ATOM      7  C   UNL     1    -130.729 117.040  46.613  1.00  0.00     0.041 C 
ATOM      8  O   UNL     1    -131.358 116.222  47.337  1.00  0.00    -0.550 OA
ATOM      9  O   UNL     1    -130.836 118.402  46.864  1.00  0.00    -0.550 OA
ENDBRANCH   6   7
ENDBRANCH   5   6
ENDBRANCH   4   5
ENDBRANCH   3   4
ENDBRANCH   2   3
ENDBRANCH   1   2
BRANCH   1  10
ATOM     10  C   UNL     1    -129.106 113.233  43.878  1.00  0.00     0.027 C 
BRANCH  10  11
ATOM     11  C   UNL     1    -129.321 111.759  44.087  1.00  0.00    -0.031 C 
ATOM     12  C   UNL     1    -129.337 110.916  43.045  1.00  0.00    -0.031 C 
BRANCH  12  13
ATOM     13  C   UNL     1    -129.546 109.436  43.227  1.00  0.00     0.027 C 
BRANCH  13  14
ATOM     14  C   UNL     1    -128.606 108.595  42.349  1.00  0.00     0.004 C 
BRANCH  14  15
ATOM     15  C   UNL     1    -129.316 107.820  41.224  1.00  0.00     0.000 C 
BRANCH  15  16
ATOM     16  C   UNL     1    -128.829 106.362  41.072  1.00  0.00    -0.000 C 
BRANCH  16  17
ATOM     17  C   UNL     1    -129.738 105.538  40.148  1.00  0.00    -0.003 C 
ATOM     18  C   UNL     1    -129.045 104.257  39.694  1.00  0.00     0.004 C 
ENDBRANCH  16  17
ENDBRANCH  15  16
ENDBRANCH  14  15
ENDBRANCH  13  14
ENDBRANCH  12  13
ENDBRANCH  10  11
ENDBRANCH   1  10
TORSDOF 13
ENDMDL
MODEL 4
REMARK VINA RESULT:    -5.108      2.002      2.902
REMARK INTER + INTRA:          -9.655
REMARK INTER:                  -9.013
REMARK INTRA:                  -0.641
REMARK UNBOUND:                -0.664
REMARK SMILES CCCCCCC=CCCCCCCCC(=O)[O-]
REMARK SMILES IDX 10 1 11 2 12 3 13 4 14 5 15 6 16 7 17 8 18 9 9 10 8 11 7 12
REMARK SMILES IDX 6 13 5 14 4 15 3 16 2 17 1 18
REMARK H PARENT
REMARK Flexibility Score: inf
ROOT
ATOM      1  C   UNL     1    -129.957 111.715  40.982  1.00  0.00     0.004 C 
ENDROOT
BRANCH   1   2
ATOM      2  C   UNL     1    -129.450 111.270  39.601  1.00  0.00     0.000 C 
BRANCH   2   3
ATOM      3  C   UNL     1    -129.439 109.740  39.441  1.00  0.00     0.000 C 
BRANCH   3   4
ATOM      4  C   UNL     1    -130.852 109.134  39.375  1.00  0.00     0.000 C 
BRANCH   4   5
ATOM      5  C   UNL     1    -130.916 107.667  38.902  1.00  0.00     0.006 C 
BRANCH   5   6
ATOM      6  C   UNL     1    -129.571 106.924  38.939  1.00  0.00     0.053 C 
BRANCH   6   7
ATOM      7  C   UNL     1    -129.409 106.121  40.193  1.00  0.00     0.041 C 
ATOM      8  O   UNL     1    -129.655 104.886  40.191  1.00  0.00    -0.550 OA
ATOM      9  O   UNL     1    -129.020 106.743  41.373  1.00  0.00    -0.550 OA
ENDBRANCH   6   7
ENDBRANCH   5   6
ENDBRANCH   4   5
ENDBRANCH   3   4
ENDBRANCH   2   3
ENDBRANCH   1   2
BRANCH   1  10
ATOM     10  C   UNL     1    -129.797 113.225  41.214  1.00  0.00     0.027 C 
BRANCH  10  11
ATOM     11  C   UNL     1    -130.255 113.613  42.593  1.00  0.00    -0.031 C 
ATOM     12  C   UNL     1    -129.370 113.779  43.586  1.00  0.00    -0.031 C 
BRANCH  12  13
ATOM     13  C   UNL     1    -129.803 114.172  44.974  1.00  0.00     0.027 C 
BRANCH  13  14
ATOM     14  C   UNL     1    -129.373 115.600  45.345  1.00  0.00     0.004 C 
BRANCH  14  15
ATOM     15  C   UNL     1    -129.779 116.670  44.314  1.00  0.00     0.000 C 
BRANCH  15  16
ATOM     16  C   UNL     1    -129.572 118.118  44.810  1.00  0.00    -0.000 C 
BRANCH  16  17
ATOM     17  C   UNL     1    -128.500 118.863  44.001  1.00  0.00    -0.003 C 
ATOM     18  C   UNL     1    -128.421 118.333  42.572  1.00  0.00     0.004 C 
ENDBRANCH  16  17
ENDBRANCH  15  16
ENDBRANCH  14  15
ENDBRANCH  13  14
ENDBRANCH  12  13
ENDBRANCH  10  11
ENDBRANCH   1  10
TORSDOF 13
ENDMDL
MODEL 5
REMARK VINA RESULT:    -5.086      2.849      4.015
REMARK INTER + INTRA:          -9.616
REMARK INTER:                  -8.764
REMARK INTRA:                  -0.852
REMARK UNBOUND:                -0.664
REMARK SMILES CCCCCCC=CCCCCCCCC(=O)[O-]
REMARK SMILES IDX 10 1 11 2 12 3 13 4 14 5 15 6 16 7 17 8 18 9 9 10 8 11 7 12
REMARK SMILES IDX 6 13 5 14 4 15 3 16 2 17 1 18
REMARK H PARENT
REMARK Flexibility Score: inf
ROOT
ATOM      1  C   UNL     1    -129.357 111.615  39.680  1.00  0.00     0.004 C 
ENDROOT
BRANCH   1   2
ATOM      2  C   UNL     1    -129.104 110.150  39.290  1.00  0.00     0.000 C 
BRANCH   2   3
ATOM      3  C   UNL     1    -129.886 109.161  40.170  1.00  0.00     0.000 C 
BRANCH   3   4
ATOM      4  C   UNL     1    -129.018 108.520  41.268  1.00  0.00     0.000 C 
BRANCH   4   5
ATOM      5  C   UNL     1    -129.790 108.011  42.502  1.00  0.00     0.006 C 
BRANCH   5   6
ATOM      6  C   UNL     1    -129.918 109.032  43.644  1.00  0.00     0.053 C 
BRANCH   6   7
ATOM      7  C   UNL     1    -130.898 108.588  44.685  1.00  0.00     0.041 C 
ATOM      8  O   UNL     1    -130.568 108.575  45.901  1.00  0.00    -0.550 OA
ATOM      9  O   UNL     1    -132.164 108.155  44.311  1.00  0.00    -0.550 OA
ENDBRANCH   6   7
ENDBRANCH   5   6
ENDBRANCH   4   5
ENDBRANCH   3   4
ENDBRANCH   2   3
ENDBRANCH   1   2
BRANCH   1  10
ATOM     10  C   UNL     1    -130.114 111.752  41.010  1.00  0.00     0.027 C 
BRANCH  10  11
ATOM     11  C   UNL     1    -130.017 113.154  41.547  1.00  0.00    -0.031 C 
ATOM     12  C   UNL     1    -129.893 113.375  42.862  1.00  0.00    -0.031 C 
BRANCH  12  13
ATOM     13  C   UNL     1    -129.791 114.768  43.425  1.00  0.00     0.027 C 
BRANCH  13  14
ATOM     14  C   UNL     1    -129.752 114.783  44.961  1.00  0.00     0.004 C 
BRANCH  14  15
ATOM     15  C   UNL     1    -129.647 116.191  45.578  1.00  0.00     0.000 C 
BRANCH  15  16
ATOM     16  C   UNL     1    -130.109 117.318  44.629  1.00  0.00    -0.000 C 
BRANCH  16  17
ATOM     17  C   UNL     1    -128.999 118.344  44.359  1.00  0.00    -0.003 C 
ATOM     18  C   UNL     1    -128.626 118.377  42.880  1.00  0.00     0.004 C 
ENDBRANCH  16  17
ENDBRANCH  15  16
ENDBRANCH  14  15
ENDBRANCH  13  14
ENDBRANCH  12  13
ENDBRANCH  10  11
ENDBRANCH   1  10
TORSDOF 13
ENDMDL
MODEL 6
REMARK VINA RESULT:    -5.085      5.203      9.266
REMARK INTER + INTRA:          -9.613
REMARK INTER:                  -8.582
REMARK INTRA:                  -1.031
REMARK UNBOUND:                -0.664
REMARK SMILES CCCCCCC=CCCCCCCCC(=O)[O-]
REMARK SMILES IDX 10 1 11 2 12 3 13 4 14 5 15 6 16 7 17 8 18 9 9 10 8 11 7 12
REMARK SMILES IDX 6 13 5 14 4 15 3 16 2 17 1 18
REMARK H PARENT
REMARK Flexibility Score: inf
ROOT
ATOM      1  C   UNL     1    -129.991 113.890  42.741  1.00  0.00     0.004 C 
ENDROOT
BRANCH   1   2
ATOM      2  C   UNL     1    -129.360 115.213  42.275  1.00  0.00     0.000 C 
BRANCH   2   3
ATOM      3  C   UNL     1    -130.174 116.441  42.715  1.00  0.00     0.000 C 
BRANCH   3   4
ATOM      4  C   UNL     1    -129.291 117.588  43.239  1.00  0.00     0.000 C 
BRANCH   4   5
ATOM      5  C   UNL     1    -129.312 117.788  44.768  1.00  0.00     0.006 C 
BRANCH   5   6
ATOM      6  C   UNL     1    -129.929 116.622  45.557  1.00  0.00     0.053 C 
BRANCH   6   7
ATOM      7  C   UNL     1    -130.818 117.103  46.662  1.00  0.00     0.041 C 
ATOM      8  O   UNL     1    -130.811 118.316  47.000  1.00  0.00    -0.550 OA
ATOM      9  O   UNL     1    -131.630 116.204  47.344  1.00  0.00    -0.550 OA
ENDBRANCH   6   7
ENDBRANCH   5   6
ENDBRANCH   4   5
ENDBRANCH   3   4
ENDBRANCH   2   3
ENDBRANCH   1   2
BRANCH   1  10
ATOM     10  C   UNL     1    -129.286 113.297  43.971  1.00  0.00     0.027 C 
BRANCH  10  11
ATOM     11  C   UNL     1    -129.275 111.794  43.918  1.00  0.00    -0.031 C 
ATOM     12  C   UNL     1    -129.273 111.152  42.742  1.00  0.00    -0.031 C 
BRANCH  12  13
ATOM     13  C   UNL     1    -129.259 109.648  42.661  1.00  0.00     0.027 C 
BRANCH  13  14
ATOM     14  C   UNL     1    -129.733 108.983  43.963  1.00  0.00     0.004 C 
BRANCH  14  15
ATOM     15  C   UNL     1    -131.097 108.277  43.852  1.00  0.00     0.000 C 
BRANCH  15  16
ATOM     16  C   UNL     1    -131.943 108.359  45.141  1.00  0.00    -0.000 C 
BRANCH  16  17
ATOM     17  C   UNL     1    -131.222 109.119  46.264  1.00  0.00    -0.003 C 
ATOM     18  C   UNL     1    -130.660 108.158  47.307  1.00  0.00     0.004 C 
ENDBRANCH  16  17
ENDBRANCH  15  16
ENDBRANCH  14  15
ENDBRANCH  13  14
ENDBRANCH  12  13
ENDBRANCH  10  11
ENDBRANCH   1  10
TORSDOF 13
ENDMDL
MODEL 7
REMARK VINA RESULT:    -5.084      2.037      2.273
REMARK INTER + INTRA:          -9.611
REMARK INTER:                  -8.851
REMARK INTRA:                  -0.760
REMARK UNBOUND:                -0.664
REMARK SMILES CCCCCCC=CCCCCCCCC(=O)[O-]
REMARK SMILES IDX 10 1 11 2 12 3 13 4 14 5 15 6 16 7 17 8 18 9 9 10 8 11 7 12
REMARK SMILES IDX 6 13 5 14 4 15 3 16 2 17 1 18
REMARK H PARENT
REMARK Flexibility Score: inf
ROOT
ATOM      1  C   UNL     1    -129.323 110.831  43.023  1.00  0.00     0.004 C 
ENDROOT
BRANCH   1   2
ATOM      2  C   UNL     1    -129.740 109.618  43.871  1.00  0.00     0.000 C 
BRANCH   2   3
ATOM      3  C   UNL     1    -129.695 108.300  43.078  1.00  0.00     0.000 C 
BRANCH   3   4
ATOM      4  C   UNL     1    -129.005 108.447  41.710  1.00  0.00     0.000 C 
BRANCH   4   5
ATOM      5  C   UNL     1    -129.540 107.518  40.602  1.00  0.00     0.006 C 
BRANCH   5   6
ATOM      6  C   UNL     1    -129.809 108.214  39.258  1.00  0.00     0.053 C 
BRANCH   6   7
ATOM      7  C   UNL     1    -130.474 109.543  39.439  1.00  0.00     0.041 C 
ATOM      8  O   UNL     1    -129.782 110.592  39.519  1.00  0.00    -0.550 OA
ATOM      9  O   UNL     1    -131.857 109.621  39.553  1.00  0.00    -0.550 OA
ENDBRANCH   6   7
ENDBRANCH   5   6
ENDBRANCH   4   5
ENDBRANCH   3   4
ENDBRANCH   2   3
ENDBRANCH   1   2
BRANCH   1  10
ATOM     10  C   UNL     1    -129.307 112.139  43.828  1.00  0.00     0.027 C 
BRANCH  10  11
ATOM     11  C   UNL     1    -129.634 113.318  42.953  1.00  0.00    -0.031 C 
ATOM     12  C   UNL     1    -129.427 114.569  43.387  1.00  0.00    -0.031 C 
BRANCH  12  13
ATOM     13  C   UNL     1    -129.742 115.767  42.530  1.00  0.00     0.027 C 
BRANCH  13  14
ATOM     14  C   UNL     1    -129.521 117.096  43.269  1.00  0.00     0.004 C 
BRANCH  14  15
ATOM     15  C   UNL     1    -129.442 116.962  44.801  1.00  0.00     0.000 C 
BRANCH  15  16
ATOM     16  C   UNL     1    -130.204 118.070  45.559  1.00  0.00    -0.000 C 
BRANCH  16  17
ATOM     17  C   UNL     1    -130.901 117.539  46.821  1.00  0.00    -0.003 C 
ATOM     18  C   UNL     1    -130.826 116.017  46.892  1.00  0.00     0.004 C 
ENDBRANCH  16  17
ENDBRANCH  15  16
ENDBRANCH  14  15
ENDBRANCH  13  14
ENDBRANCH  12  13
ENDBRANCH  10  11
ENDBRANCH   1  10
TORSDOF 13
ENDMDL
MODEL 8
REMARK VINA RESULT:    -5.078      6.604      9.671
REMARK INTER + INTRA:          -9.601
REMARK INTER:                  -8.739
REMARK INTRA:                  -0.862
REMARK UNBOUND:                -0.664
REMARK SMILES CCCCCCC=CCCCCCCCC(=O)[O-]
REMARK SMILES IDX 10 1 11 2 12 3 13 4 14 5 15 6 16 7 17 8 18 9 9 10 8 11 7 12
REMARK SMILES IDX 6 13 5 14 4 15 3 16 2 17 1 18
REMARK H PARENT
REMARK Flexibility Score: inf
ROOT
ATOM      1  C   UNL     1    -128.248 113.031  37.605  1.00  0.00     0.004 C 
ENDROOT
BRANCH   1   2
ATOM      2  C   UNL     1    -128.368 113.235  36.085  1.00  0.00     0.000 C 
BRANCH   2   3
ATOM      3  C   UNL     1    -129.783 113.657  35.657  1.00  0.00     0.000 C 
BRANCH   3   4
ATOM      4  C   UNL     1    -129.868 114.048  34.171  1.00  0.00     0.000 C 
BRANCH   4   5
ATOM      5  C   UNL     1    -131.125 113.549  33.431  1.00  0.00     0.006 C 
BRANCH   5   6
ATOM      6  C   UNL     1    -132.275 113.107  34.350  1.00  0.00     0.053 C 
BRANCH   6   7
ATOM      7  C   UNL     1    -133.471 113.999  34.219  1.00  0.00     0.041 C 
ATOM      8  O   UNL     1    -134.330 113.781  33.324  1.00  0.00    -0.550 OA
ATOM      9  O   UNL     1    -133.620 115.093  35.063  1.00  0.00    -0.550 OA
ENDBRANCH   6   7
ENDBRANCH   5   6
ENDBRANCH   4   5
ENDBRANCH   3   4
ENDBRANCH   2   3
ENDBRANCH   1   2
BRANCH   1  10
ATOM     10  C   UNL     1    -127.945 111.574  37.986  1.00  0.00     0.027 C 
BRANCH  10  11
ATOM     11  C   UNL     1    -128.878 111.090  39.061  1.00  0.00    -0.031 C 
ATOM     12  C   UNL     1    -129.274 109.810  39.097  1.00  0.00    -0.031 C 
BRANCH  12  13
ATOM     13  C   UNL     1    -130.205 109.299  40.165  1.00  0.00     0.027 C 
BRANCH  13  14
ATOM     14  C   UNL     1    -129.507 109.129  41.524  1.00  0.00     0.004 C 
BRANCH  14  15
ATOM     15  C   UNL     1    -129.486 107.681  42.047  1.00  0.00     0.000 C 
BRANCH  15  16
ATOM     16  C   UNL     1    -128.638 106.722  41.183  1.00  0.00    -0.000 C 
BRANCH  16  17
ATOM     17  C   UNL     1    -129.497 105.670  40.466  1.00  0.00    -0.003 C 
ATOM     18  C   UNL     1    -129.443 105.852  38.953  1.00  0.00     0.004 C 
ENDBRANCH  16  17
ENDBRANCH  15  16
ENDBRANCH  14  15
ENDBRANCH  13  14
ENDBRANCH  12  13
ENDBRANCH  10  11
ENDBRANCH   1  10
TORSDOF 13
ENDMDL
MODEL 9
REMARK VINA RESULT:    -4.987      1.329      1.840
REMARK INTER + INTRA:          -9.442
REMARK INTER:                  -8.845
REMARK INTRA:                  -0.597
REMARK UNBOUND:                -0.664
REMARK SMILES CCCCCCC=CCCCCCCCC(=O)[O-]
REMARK SMILES IDX 10 1 11 2 12 3 13 4 14 5 15 6 16 7 17 8 18 9 9 10 8 11 7 12
REMARK SMILES IDX 6 13 5 14 4 15 3 16 2 17 1 18
REMARK H PARENT
REMARK Flexibility Score: inf
ROOT
ATOM      1  C   UNL     1    -129.753 111.569  40.274  1.00  0.00     0.004 C 
ENDROOT
BRANCH   1   2
ATOM      2  C   UNL     1    -129.975 110.313  41.133  1.00  0.00     0.000 C 
BRANCH   2   3
ATOM      3  C   UNL     1    -129.597 109.019  40.393  1.00  0.00     0.000 C 
BRANCH   3   4
ATOM      4  C   UNL     1    -128.897 107.993  41.303  1.00  0.00     0.000 C 
BRANCH   4   5
ATOM      5  C   UNL     1    -129.124 106.515  40.922  1.00  0.00     0.006 C 
BRANCH   5   6
ATOM      6  C   UNL     1    -129.615 106.294  39.482  1.00  0.00     0.053 C 
BRANCH   6   7
ATOM      7  C   UNL     1    -129.530 104.855  39.077  1.00  0.00     0.041 C 
ATOM      8  O   UNL     1    -129.793 104.513  37.894  1.00  0.00    -0.550 OA
ATOM      9  O   UNL     1    -129.193 103.886  40.014  1.00  0.00    -0.550 OA
ENDBRANCH   6   7
ENDBRANCH   5   6
ENDBRANCH   4   5
ENDBRANCH   3   4
ENDBRANCH   2   3
ENDBRANCH   1   2
BRANCH   1  10
ATOM     10  C   UNL     1    -130.094 112.867  41.024  1.00  0.00     0.027 C 
BRANCH  10  11
ATOM     11  C   UNL     1    -129.697 112.777  42.472  1.00  0.00    -0.031 C 
ATOM     12  C   UNL     1    -129.759 113.855  43.265  1.00  0.00    -0.031 C 
BRANCH  12  13
ATOM     13  C   UNL     1    -129.371 113.790  44.719  1.00  0.00     0.027 C 
BRANCH  13  14
ATOM     14  C   UNL     1    -129.803 115.041  45.501  1.00  0.00     0.004 C 
BRANCH  14  15
ATOM     15  C   UNL     1    -129.387 116.371  44.845  1.00  0.00     0.000 C 
BRANCH  15  16
ATOM     16  C   UNL     1    -130.143 117.598  45.400  1.00  0.00    -0.000 C 
BRANCH  16  17
ATOM     17  C   UNL     1    -130.822 117.305  46.746  1.00  0.00    -0.003 C 
ATOM     18  C   UNL     1    -131.804 118.411  47.121  1.00  0.00     0.004 C 
ENDBRANCH  16  17
ENDBRANCH  15  16
ENDBRANCH  14  15
ENDBRANCH  13  14
ENDBRANCH  12  13
ENDBRANCH  10  11
ENDBRANCH   1  10
TORSDOF 13
ENDMDL
