MODEL 1
REMARK VINA RESULT:    -6.608      0.000      0.000
REMARK INTER + INTRA:          -8.388
REMARK INTER:                  -8.154
REMARK INTRA:                  -0.234
REMARK UNBOUND:                -0.234
REMARK SMILES Oc1cc(O)c2cc(O)c(-c3cc(O)c(O)c(O)c3)[o+]c2c1
REMARK SMILES IDX 10 1 20 2 21 3 22 4 2 5 3 6 4 7 6 8 7 9 8 10 11 11 12 12
REMARK SMILES IDX 13 13 19 14 15 15 17 16 14 17 16 19 18 21 9 23 1 25 5 27
REMARK H PARENT 14 18 16 20 18 22 9 24 1 26 5 28
REMARK Flexibility Score: inf
ROOT
ATOM      1  C   UNL     1       7.474  -5.379   5.971  1.00  0.00     0.402 A 
ATOM      2  O   UNL     1       7.723  -4.915   4.749  1.00  0.00    -0.202 OA
ATOM      3  C   UNL     1       8.446  -3.824   4.515  1.00  0.00     0.368 A 
ATOM      4  C   UNL     1       8.649  -3.414   3.195  1.00  0.00     0.162 A 
ATOM      5  C   UNL     1       9.401  -2.271   2.921  1.00  0.00     0.128 A 
ATOM      6  C   UNL     1       9.954  -1.531   3.972  1.00  0.00     0.093 A 
ATOM      7  C   UNL     1       9.765  -1.922   5.303  1.00  0.00     0.136 A 
ATOM      8  C   UNL     1       9.002  -3.085   5.587  1.00  0.00     0.125 A 
ATOM      9  C   UNL     1       8.772  -3.559   6.888  1.00  0.00     0.078 A 
ATOM     10  C   UNL     1       8.013  -4.717   7.088  1.00  0.00     0.223 A 
ENDROOT
BRANCH   1  11
ATOM     11  C   UNL     1       6.646  -6.600   6.101  1.00  0.00     0.091 A 
ATOM     12  C   UNL     1       5.282  -6.547   5.775  1.00  0.00     0.068 A 
ATOM     13  C   UNL     1       4.472  -7.679   5.908  1.00  0.00     0.162 A 
ATOM     14  C   UNL     1       7.184  -7.799   6.598  1.00  0.00     0.068 A 
ATOM     15  C   UNL     1       5.020  -8.882   6.386  1.00  0.00     0.200 A 
ATOM     16  C   UNL     1       6.379  -8.938   6.736  1.00  0.00     0.162 A 
BRANCH  13  17
ATOM     17  O   UNL     1       3.124  -7.589   5.560  1.00  0.00    -0.504 OA
ATOM     18  H   UNL     1       2.467  -8.335   5.752  1.00  0.00     0.293 HD
ENDBRANCH  13  17
BRANCH  15  19
ATOM     19  O   UNL     1       4.205 -10.008   6.512  1.00  0.00    -0.502 OA
ATOM     20  H   UNL     1       3.561 -10.125   7.286  1.00  0.00     0.293 HD
ENDBRANCH  15  19
BRANCH  16  21
ATOM     21  O   UNL     1       6.925 -10.125   7.224  1.00  0.00    -0.504 OA
ATOM     22  H   UNL     1       6.551 -10.584   8.046  1.00  0.00     0.293 HD
ENDBRANCH  16  21
ENDBRANCH   1  11
BRANCH  10  23
ATOM     23  O   UNL     1       7.826  -5.215   8.378  1.00  0.00    -0.500 OA
ATOM     24  H   UNL     1       8.601  -5.548   8.939  1.00  0.00     0.294 HD
ENDBRANCH  10  23
BRANCH   5  25
ATOM     25  O   UNL     1       9.593  -1.878   1.598  1.00  0.00    -0.507 OA
ATOM     26  H   UNL     1       9.402  -0.930   1.295  1.00  0.00     0.293 HD
ENDBRANCH   5  25
BRANCH   7  27
ATOM     27  O   UNL     1      10.346  -1.129   6.296  1.00  0.00    -0.507 OA
ATOM     28  H   UNL     1      10.845  -1.490   7.096  1.00  0.00     0.293 HD
ENDBRANCH   7  27
TORSDOF 7
ENDMDL
MODEL 2
REMARK VINA RESULT:    -6.581      0.147      1.798
REMARK INTER + INTRA:          -8.354
REMARK INTER:                  -8.091
REMARK INTRA:                  -0.263
REMARK UNBOUND:                -0.234
REMARK SMILES Oc1cc(O)c2cc(O)c(-c3cc(O)c(O)c(O)c3)[o+]c2c1
REMARK SMILES IDX 10 1 20 2 21 3 22 4 2 5 3 6 4 7 6 8 7 9 8 10 11 11 12 12
REMARK SMILES IDX 13 13 19 14 15 15 17 16 14 17 16 19 18 21 9 23 1 25 5 27
REMARK H PARENT 14 18 16 20 18 22 9 24 1 26 5 28
REMARK Flexibility Score: inf
ROOT
ATOM      1  C   UNL     1       7.406  -5.360   6.007  1.00  0.00     0.402 A 
ATOM      2  O   UNL     1       7.668  -4.883   4.793  1.00  0.00    -0.202 OA
ATOM      3  C   UNL     1       8.443  -3.825   4.575  1.00  0.00     0.368 A 
ATOM      4  C   UNL     1       8.656  -3.398   3.262  1.00  0.00     0.162 A 
ATOM      5  C   UNL     1       9.462  -2.288   3.005  1.00  0.00     0.128 A 
ATOM      6  C   UNL     1      10.059  -1.599   4.066  1.00  0.00     0.093 A 
ATOM      7  C   UNL     1       9.861  -2.008   5.390  1.00  0.00     0.136 A 
ATOM      8  C   UNL     1       9.044  -3.137   5.657  1.00  0.00     0.125 A 
ATOM      9  C   UNL     1       8.800  -3.626   6.950  1.00  0.00     0.078 A 
ATOM     10  C   UNL     1       7.986  -4.748   7.134  1.00  0.00     0.223 A 
ENDROOT
BRANCH   1  11
ATOM     11  C   UNL     1       6.519  -6.540   6.120  1.00  0.00     0.091 A 
ATOM     12  C   UNL     1       7.062  -7.779   6.492  1.00  0.00     0.068 A 
ATOM     13  C   UNL     1       6.252  -8.915   6.586  1.00  0.00     0.162 A 
ATOM     14  C   UNL     1       5.151  -6.460   5.808  1.00  0.00     0.068 A 
ATOM     15  C   UNL     1       4.881  -8.825   6.293  1.00  0.00     0.200 A 
ATOM     16  C   UNL     1       4.332  -7.593   5.898  1.00  0.00     0.162 A 
BRANCH  13  17
ATOM     17  O   UNL     1       6.828 -10.125   6.973  1.00  0.00    -0.504 OA
ATOM     18  H   UNL     1       6.880 -10.922   6.350  1.00  0.00     0.293 HD
ENDBRANCH  13  17
BRANCH  15  19
ATOM     19  O   UNL     1       4.079  -9.963   6.393  1.00  0.00    -0.502 OA
ATOM     20  H   UNL     1       3.446 -10.110   7.170  1.00  0.00     0.293 HD
ENDBRANCH  15  19
BRANCH  16  21
ATOM     21  O   UNL     1       2.975  -7.500   5.592  1.00  0.00    -0.504 OA
ATOM     22  H   UNL     1       2.291  -7.219   6.285  1.00  0.00     0.293 HD
ENDBRANCH  16  21
ENDBRANCH   1  11
BRANCH  10  23
ATOM     23  O   UNL     1       7.785  -5.264   8.415  1.00  0.00    -0.500 OA
ATOM     24  H   UNL     1       6.882  -5.611   8.714  1.00  0.00     0.294 HD
ENDBRANCH  10  23
BRANCH   5  25
ATOM     25  O   UNL     1       9.662  -1.877   1.689  1.00  0.00    -0.507 OA
ATOM     26  H   UNL     1      10.074  -2.495   0.998  1.00  0.00     0.293 HD
ENDBRANCH   5  25
BRANCH   7  27
ATOM     27  O   UNL     1      10.489  -1.265   6.394  1.00  0.00    -0.507 OA
ATOM     28  H   UNL     1      10.780  -1.641   7.286  1.00  0.00     0.293 HD
ENDBRANCH   7  27
TORSDOF 7
ENDMDL
MODEL 3
REMARK VINA RESULT:    -6.480      1.290      7.129
REMARK INTER + INTRA:          -8.229
REMARK INTER:                  -8.044
REMARK INTRA:                  -0.186
REMARK UNBOUND:                -0.234
REMARK SMILES Oc1cc(O)c2cc(O)c(-c3cc(O)c(O)c(O)c3)[o+]c2c1
REMARK SMILES IDX 10 1 20 2 21 3 22 4 2 5 3 6 4 7 6 8 7 9 8 10 11 11 12 12
REMARK SMILES IDX 13 13 19 14 15 15 17 16 14 17 16 19 18 21 9 23 1 25 5 27
REMARK H PARENT 14 18 16 20 18 22 9 24 1 26 5 28
REMARK Flexibility Score: inf
ROOT
ATOM      1  C   UNL     1       7.360  -5.601   6.118  1.00  0.00     0.402 A 
ATOM      2  O   UNL     1       6.065  -5.800   5.886  1.00  0.00    -0.202 OA
ATOM      3  C   UNL     1       5.411  -6.887   6.283  1.00  0.00     0.368 A 
ATOM      4  C   UNL     1       4.050  -7.007   5.988  1.00  0.00     0.162 A 
ATOM      5  C   UNL     1       3.340  -8.139   6.389  1.00  0.00     0.128 A 
ATOM      6  C   UNL     1       3.991  -9.159   7.090  1.00  0.00     0.093 A 
ATOM      7  C   UNL     1       5.354  -9.063   7.398  1.00  0.00     0.136 A 
ATOM      8  C   UNL     1       6.081  -7.912   6.993  1.00  0.00     0.125 A 
ATOM      9  C   UNL     1       7.444  -7.724   7.269  1.00  0.00     0.078 A 
ATOM     10  C   UNL     1       8.092  -6.560   6.841  1.00  0.00     0.223 A 
ENDROOT
BRANCH   1  11
ATOM     11  C   UNL     1       7.977  -4.352   5.616  1.00  0.00     0.091 A 
ATOM     12  C   UNL     1       8.496  -3.422   6.529  1.00  0.00     0.068 A 
ATOM     13  C   UNL     1       9.066  -2.225   6.085  1.00  0.00     0.162 A 
ATOM     14  C   UNL     1       8.004  -4.050   4.244  1.00  0.00     0.068 A 
ATOM     15  C   UNL     1       9.110  -1.937   4.710  1.00  0.00     0.200 A 
ATOM     16  C   UNL     1       8.573  -2.852   3.789  1.00  0.00     0.162 A 
BRANCH  13  17
ATOM     17  O   UNL     1       9.584  -1.334   7.024  1.00  0.00    -0.504 OA
ATOM     18  H   UNL     1      10.412  -1.545   7.569  1.00  0.00     0.293 HD
ENDBRANCH  13  17
BRANCH  15  19
ATOM     19  O   UNL     1       9.684  -0.742   4.274  1.00  0.00    -0.502 OA
ATOM     20  H   UNL     1       9.237  -0.148   3.587  1.00  0.00     0.293 HD
ENDBRANCH  15  19
BRANCH  16  21
ATOM     21  O   UNL     1       8.601  -2.566   2.424  1.00  0.00    -0.504 OA
ATOM     22  H   UNL     1       9.398  -2.806   1.847  1.00  0.00     0.293 HD
ENDBRANCH  16  21
ENDBRANCH   1  11
BRANCH  10  23
ATOM     23  O   UNL     1       9.434  -6.350   7.158  1.00  0.00    -0.500 OA
ATOM     24  H   UNL     1      10.012  -5.706   6.632  1.00  0.00     0.294 HD
ENDBRANCH  10  23
BRANCH   5  25
ATOM     25  O   UNL     1       1.983  -8.240   6.086  1.00  0.00    -0.507 OA
ATOM     26  H   UNL     1       1.330  -7.506   6.334  1.00  0.00     0.293 HD
ENDBRANCH   5  25
BRANCH   7  27
ATOM     27  O   UNL     1       5.934 -10.125   8.097  1.00  0.00    -0.507 OA
ATOM     28  H   UNL     1       6.849 -10.505   7.902  1.00  0.00     0.293 HD
ENDBRANCH   7  27
TORSDOF 7
ENDMDL
MODEL 4
REMARK VINA RESULT:    -6.472      1.760      6.887
REMARK INTER + INTRA:          -8.220
REMARK INTER:                  -7.935
REMARK INTRA:                  -0.285
REMARK UNBOUND:                -0.234
REMARK SMILES Oc1cc(O)c2cc(O)c(-c3cc(O)c(O)c(O)c3)[o+]c2c1
REMARK SMILES IDX 10 1 20 2 21 3 22 4 2 5 3 6 4 7 6 8 7 9 8 10 11 11 12 12
REMARK SMILES IDX 13 13 19 14 15 15 17 16 14 17 16 19 18 21 9 23 1 25 5 27
REMARK H PARENT 14 18 16 20 18 22 9 24 1 26 5 28
REMARK Flexibility Score: inf
ROOT
ATOM      1  C   UNL     1       8.225  -5.401   6.638  1.00  0.00     0.402 A 
ATOM      2  O   UNL     1       7.714  -6.231   5.732  1.00  0.00    -0.202 OA
ATOM      3  C   UNL     1       7.039  -7.332   6.050  1.00  0.00     0.368 A 
ATOM      4  C   UNL     1       6.544  -8.144   5.026  1.00  0.00     0.162 A 
ATOM      5  C   UNL     1       5.835  -9.307   5.330  1.00  0.00     0.128 A 
ATOM      6  C   UNL     1       5.620  -9.663   6.666  1.00  0.00     0.093 A 
ATOM      7  C   UNL     1       6.107  -8.867   7.709  1.00  0.00     0.136 A 
ATOM      8  C   UNL     1       6.827  -7.682   7.405  1.00  0.00     0.125 A 
ATOM      9  C   UNL     1       7.339  -6.816   8.384  1.00  0.00     0.078 A 
ATOM     10  C   UNL     1       8.035  -5.663   8.006  1.00  0.00     0.223 A 
ENDROOT
BRANCH   1  11
ATOM     11  C   UNL     1       8.965  -4.212   6.158  1.00  0.00     0.091 A 
ATOM     12  C   UNL     1       8.286  -3.222   5.433  1.00  0.00     0.068 A 
ATOM     13  C   UNL     1       8.963  -2.098   4.950  1.00  0.00     0.162 A 
ATOM     14  C   UNL     1      10.349  -4.079   6.364  1.00  0.00     0.068 A 
ATOM     15  C   UNL     1      10.343  -1.959   5.177  1.00  0.00     0.200 A 
ATOM     16  C   UNL     1      11.036  -2.956   5.883  1.00  0.00     0.162 A 
BRANCH  13  17
ATOM     17  O   UNL     1       8.248  -1.129   4.246  1.00  0.00    -0.504 OA
ATOM     18  H   UNL     1       7.494  -1.369   3.613  1.00  0.00     0.293 HD
ENDBRANCH  13  17
BRANCH  15  19
ATOM     19  O   UNL     1      11.011  -0.833   4.695  1.00  0.00    -0.502 OA
ATOM     20  H   UNL     1      11.350  -0.102   5.309  1.00  0.00     0.293 HD
ENDBRANCH  15  19
BRANCH  16  21
ATOM     21  O   UNL     1      12.409  -2.832   6.100  1.00  0.00    -0.504 OA
ATOM     22  H   UNL     1      13.029  -2.465   5.387  1.00  0.00     0.293 HD
ENDBRANCH  16  21
ENDBRANCH   1  11
BRANCH  10  23
ATOM     23  O   UNL     1       8.501  -4.778   8.979  1.00  0.00    -0.500 OA
ATOM     24  H   UNL     1       8.042  -4.681   9.876  1.00  0.00     0.294 HD
ENDBRANCH  10  23
BRANCH   5  25
ATOM     25  O   UNL     1       5.348 -10.103   4.296  1.00  0.00    -0.507 OA
ATOM     26  H   UNL     1       5.243 -11.105   4.403  1.00  0.00     0.293 HD
ENDBRANCH   5  25
BRANCH   7  27
ATOM     27  O   UNL     1       5.854  -9.292   9.017  1.00  0.00    -0.507 OA
ATOM     28  H   UNL     1       6.381 -10.008   9.496  1.00  0.00     0.293 HD
ENDBRANCH   7  27
TORSDOF 7
ENDMDL
MODEL 5
REMARK VINA RESULT:    -6.455      1.822      7.477
REMARK INTER + INTRA:          -8.198
REMARK INTER:                  -7.826
REMARK INTRA:                  -0.372
REMARK UNBOUND:                -0.234
REMARK SMILES Oc1cc(O)c2cc(O)c(-c3cc(O)c(O)c(O)c3)[o+]c2c1
REMARK SMILES IDX 10 1 20 2 21 3 22 4 2 5 3 6 4 7 6 8 7 9 8 10 11 11 12 12
REMARK SMILES IDX 13 13 19 14 15 15 17 16 14 17 16 19 18 21 9 23 1 25 5 27
REMARK H PARENT 14 18 16 20 18 22 9 24 1 26 5 28
REMARK Flexibility Score: inf
ROOT
ATOM      1  C   UNL     1       8.620  -4.315   5.965  1.00  0.00     0.402 A 
ATOM      2  O   UNL     1       8.773  -5.424   6.684  1.00  0.00    -0.202 OA
ATOM      3  C   UNL     1       7.925  -6.448   6.636  1.00  0.00     0.368 A 
ATOM      4  C   UNL     1       8.169  -7.569   7.432  1.00  0.00     0.162 A 
ATOM      5  C   UNL     1       7.293  -8.656   7.405  1.00  0.00     0.128 A 
ATOM      6  C   UNL     1       6.167  -8.623   6.576  1.00  0.00     0.093 A 
ATOM      7  C   UNL     1       5.901  -7.510   5.769  1.00  0.00     0.136 A 
ATOM      8  C   UNL     1       6.789  -6.403   5.793  1.00  0.00     0.125 A 
ATOM      9  C   UNL     1       6.610  -5.253   5.009  1.00  0.00     0.078 A 
ATOM     10  C   UNL     1       7.531  -4.203   5.083  1.00  0.00     0.223 A 
ENDROOT
BRANCH   1  11
ATOM     11  C   UNL     1       9.629  -3.241   6.114  1.00  0.00     0.091 A 
ATOM     12  C   UNL     1      10.726  -3.198   5.241  1.00  0.00     0.068 A 
ATOM     13  C   UNL     1      11.704  -2.208   5.371  1.00  0.00     0.162 A 
ATOM     14  C   UNL     1       9.541  -2.294   7.148  1.00  0.00     0.068 A 
ATOM     15  C   UNL     1      11.601  -1.249   6.394  1.00  0.00     0.200 A 
ATOM     16  C   UNL     1      10.518  -1.298   7.287  1.00  0.00     0.162 A 
BRANCH  13  17
ATOM     17  O   UNL     1      12.772  -2.191   4.473  1.00  0.00    -0.504 OA
ATOM     18  H   UNL     1      13.012  -1.367   3.935  1.00  0.00     0.293 HD
ENDBRANCH  13  17
BRANCH  15  19
ATOM     19  O   UNL     1      12.580  -0.262   6.514  1.00  0.00    -0.502 OA
ATOM     20  H   UNL     1      12.716   0.452   5.809  1.00  0.00     0.293 HD
ENDBRANCH  15  19
BRANCH  16  21
ATOM     21  O   UNL     1      10.417  -0.359   8.313  1.00  0.00    -0.504 OA
ATOM     22  H   UNL     1      10.360   0.635   8.121  1.00  0.00     0.293 HD
ENDBRANCH  16  21
ENDBRANCH   1  11
BRANCH  10  23
ATOM     23  O   UNL     1       7.380  -3.081   4.267  1.00  0.00    -0.500 OA
ATOM     24  H   UNL     1       7.662  -2.158   4.572  1.00  0.00     0.294 HD
ENDBRANCH  10  23
BRANCH   5  25
ATOM     25  O   UNL     1       7.553  -9.766   8.206  1.00  0.00    -0.507 OA
ATOM     26  H   UNL     1       6.826 -10.433   8.439  1.00  0.00     0.293 HD
ENDBRANCH   5  25
BRANCH   7  27
ATOM     27  O   UNL     1       4.753  -7.552   4.972  1.00  0.00    -0.507 OA
ATOM     28  H   UNL     1       4.214  -6.741   4.705  1.00  0.00     0.293 HD
ENDBRANCH   7  27
TORSDOF 7
ENDMDL
MODEL 6
REMARK VINA RESULT:    -6.406      2.038      3.237
REMARK INTER + INTRA:          -8.138
REMARK INTER:                  -7.764
REMARK INTRA:                  -0.374
REMARK UNBOUND:                -0.234
REMARK SMILES Oc1cc(O)c2cc(O)c(-c3cc(O)c(O)c(O)c3)[o+]c2c1
REMARK SMILES IDX 10 1 20 2 21 3 22 4 2 5 3 6 4 7 6 8 7 9 8 10 11 11 12 12
REMARK SMILES IDX 13 13 19 14 15 15 17 16 14 17 16 19 18 21 9 23 1 25 5 27
REMARK H PARENT 14 18 16 20 18 22 9 24 1 26 5 28
REMARK Flexibility Score: inf
ROOT
ATOM      1  C   UNL     1       8.036  -4.511   5.322  1.00  0.00     0.402 A 
ATOM      2  O   UNL     1       9.025  -4.681   6.196  1.00  0.00    -0.202 OA
ATOM      3  C   UNL     1      10.075  -3.869   6.277  1.00  0.00     0.368 A 
ATOM      4  C   UNL     1      11.065  -4.132   7.227  1.00  0.00     0.162 A 
ATOM      5  C   UNL     1      12.179  -3.298   7.332  1.00  0.00     0.128 A 
ATOM      6  C   UNL     1      12.306  -2.194   6.483  1.00  0.00     0.093 A 
ATOM      7  C   UNL     1      11.327  -1.909   5.523  1.00  0.00     0.136 A 
ATOM      8  C   UNL     1      10.191  -2.753   5.413  1.00  0.00     0.125 A 
ATOM      9  C   UNL     1       9.155  -2.538   4.491  1.00  0.00     0.078 A 
ATOM     10  C   UNL     1       8.064  -3.411   4.446  1.00  0.00     0.223 A 
ENDROOT
BRANCH   1  11
ATOM     11  C   UNL     1       6.925  -5.491   5.324  1.00  0.00     0.091 A 
ATOM     12  C   UNL     1       5.786  -5.241   6.103  1.00  0.00     0.068 A 
ATOM     13  C   UNL     1       4.731  -6.158   6.139  1.00  0.00     0.162 A 
ATOM     14  C   UNL     1       7.011  -6.695   4.604  1.00  0.00     0.068 A 
ATOM     15  C   UNL     1       4.812  -7.351   5.401  1.00  0.00     0.200 A 
ATOM     16  C   UNL     1       5.959  -7.620   4.636  1.00  0.00     0.162 A 
BRANCH  13  17
ATOM     17  O   UNL     1       3.609  -5.865   6.915  1.00  0.00    -0.504 OA
ATOM     18  H   UNL     1       2.747  -6.392   6.837  1.00  0.00     0.293 HD
ENDBRANCH  13  17
BRANCH  15  19
ATOM     19  O   UNL     1       3.753  -8.259   5.441  1.00  0.00    -0.502 OA
ATOM     20  H   UNL     1       3.671  -9.022   4.779  1.00  0.00     0.293 HD
ENDBRANCH  15  19
BRANCH  16  21
ATOM     21  O   UNL     1       6.052  -8.809   3.913  1.00  0.00    -0.504 OA
ATOM     22  H   UNL     1       6.833  -8.996   3.295  1.00  0.00     0.293 HD
ENDBRANCH  16  21
ENDBRANCH   1  11
BRANCH  10  23
ATOM     23  O   UNL     1       7.010  -3.169   3.564  1.00  0.00    -0.500 OA
ATOM     24  H   UNL     1       6.683  -3.876   2.917  1.00  0.00     0.294 HD
ENDBRANCH  10  23
BRANCH   5  25
ATOM     25  O   UNL     1      13.156  -3.576   8.285  1.00  0.00    -0.507 OA
ATOM     26  H   UNL     1      13.963  -2.975   8.408  1.00  0.00     0.293 HD
ENDBRANCH   5  25
BRANCH   7  27
ATOM     27  O   UNL     1      11.528  -0.790   4.709  1.00  0.00    -0.507 OA
ATOM     28  H   UNL     1      11.664   0.149   5.054  1.00  0.00     0.293 HD
ENDBRANCH   7  27
TORSDOF 7
ENDMDL
MODEL 7
REMARK VINA RESULT:    -6.403      1.817      7.399
REMARK INTER + INTRA:          -8.135
REMARK INTER:                  -7.758
REMARK INTRA:                  -0.377
REMARK UNBOUND:                -0.234
REMARK SMILES Oc1cc(O)c2cc(O)c(-c3cc(O)c(O)c(O)c3)[o+]c2c1
REMARK SMILES IDX 10 1 20 2 21 3 22 4 2 5 3 6 4 7 6 8 7 9 8 10 11 11 12 12
REMARK SMILES IDX 13 13 19 14 15 15 17 16 14 17 16 19 18 21 9 23 1 25 5 27
REMARK H PARENT 14 18 16 20 18 22 9 24 1 26 5 28
REMARK Flexibility Score: inf
ROOT
ATOM      1  C   UNL     1       8.614  -4.357   5.958  1.00  0.00     0.402 A 
ATOM      2  O   UNL     1       8.745  -5.473   6.669  1.00  0.00    -0.202 OA
ATOM      3  C   UNL     1       7.872  -6.475   6.622  1.00  0.00     0.368 A 
ATOM      4  C   UNL     1       8.094  -7.607   7.410  1.00  0.00     0.162 A 
ATOM      5  C   UNL     1       7.192  -8.672   7.384  1.00  0.00     0.128 A 
ATOM      6  C   UNL     1       6.060  -8.606   6.565  1.00  0.00     0.093 A 
ATOM      7  C   UNL     1       5.815  -7.483   5.765  1.00  0.00     0.136 A 
ATOM      8  C   UNL     1       6.731  -6.398   5.788  1.00  0.00     0.125 A 
ATOM      9  C   UNL     1       6.574  -5.239   5.012  1.00  0.00     0.078 A 
ATOM     10  C   UNL     1       7.521  -4.213   5.084  1.00  0.00     0.223 A 
ENDROOT
BRANCH   1  11
ATOM     11  C   UNL     1       9.650  -3.308   6.104  1.00  0.00     0.091 A 
ATOM     12  C   UNL     1       9.495  -2.317   7.085  1.00  0.00     0.068 A 
ATOM     13  C   UNL     1      10.447  -1.303   7.232  1.00  0.00     0.162 A 
ATOM     14  C   UNL     1      10.759  -3.251   5.244  1.00  0.00     0.068 A 
ATOM     15  C   UNL     1      11.566  -1.262   6.383  1.00  0.00     0.200 A 
ATOM     16  C   UNL     1      11.717  -2.238   5.383  1.00  0.00     0.162 A 
BRANCH  13  17
ATOM     17  O   UNL     1      10.264  -0.345   8.229  1.00  0.00    -0.504 OA
ATOM     18  H   UNL     1       9.481  -0.378   8.872  1.00  0.00     0.293 HD
ENDBRANCH  13  17
BRANCH  15  19
ATOM     19  O   UNL     1      12.513  -0.249   6.539  1.00  0.00    -0.502 OA
ATOM     20  H   UNL     1      13.391  -0.249   6.035  1.00  0.00     0.293 HD
ENDBRANCH  15  19
BRANCH  16  21
ATOM     21  O   UNL     1      12.818  -2.194   4.528  1.00  0.00    -0.504 OA
ATOM     22  H   UNL     1      13.248  -1.317   4.258  1.00  0.00     0.293 HD
ENDBRANCH  16  21
ENDBRANCH   1  11
BRANCH  10  23
ATOM     23  O   UNL     1       7.391  -3.083   4.276  1.00  0.00    -0.500 OA
ATOM     24  H   UNL     1       6.521  -2.569   4.214  1.00  0.00     0.294 HD
ENDBRANCH  10  23
BRANCH   5  25
ATOM     25  O   UNL     1       7.431  -9.792   8.176  1.00  0.00    -0.507 OA
ATOM     26  H   UNL     1       6.685 -10.246   8.691  1.00  0.00     0.293 HD
ENDBRANCH   5  25
BRANCH   7  27
ATOM     27  O   UNL     1       4.661  -7.491   4.978  1.00  0.00    -0.507 OA
ATOM     28  H   UNL     1       4.634  -7.235   4.002  1.00  0.00     0.293 HD
ENDBRANCH   7  27
TORSDOF 7
ENDMDL
MODEL 8
REMARK VINA RESULT:    -6.224      1.655      1.922
REMARK INTER + INTRA:          -7.913
REMARK INTER:                  -7.539
REMARK INTRA:                  -0.374
REMARK UNBOUND:                -0.234
REMARK SMILES Oc1cc(O)c2cc(O)c(-c3cc(O)c(O)c(O)c3)[o+]c2c1
REMARK SMILES IDX 10 1 20 2 21 3 22 4 2 5 3 6 4 7 6 8 7 9 8 10 11 11 12 12
REMARK SMILES IDX 13 13 19 14 15 15 17 16 14 17 16 19 18 21 9 23 1 25 5 27
REMARK H PARENT 14 18 16 20 18 22 9 24 1 26 5 28
REMARK Flexibility Score: inf
ROOT
ATOM      1  C   UNL     1       8.365  -5.074   6.717  1.00  0.00     0.402 A 
ATOM      2  O   UNL     1       8.998  -4.497   5.700  1.00  0.00    -0.202 OA
ATOM      3  C   UNL     1       9.964  -3.597   5.857  1.00  0.00     0.368 A 
ATOM      4  C   UNL     1      10.568  -3.044   4.725  1.00  0.00     0.162 A 
ATOM      5  C   UNL     1      11.581  -2.094   4.860  1.00  0.00     0.128 A 
ATOM      6  C   UNL     1      11.995  -1.693   6.135  1.00  0.00     0.093 A 
ATOM      7  C   UNL     1      11.406  -2.233   7.285  1.00  0.00     0.136 A 
ATOM      8  C   UNL     1      10.376  -3.200   7.152  1.00  0.00     0.125 A 
ATOM      9  C   UNL     1       9.738  -3.805   8.247  1.00  0.00     0.078 A 
ATOM     10  C   UNL     1       8.734  -4.754   8.037  1.00  0.00     0.223 A 
ENDROOT
BRANCH   1  11
ATOM     11  C   UNL     1       7.299  -6.056   6.412  1.00  0.00     0.091 A 
ATOM     12  C   UNL     1       5.960  -5.640   6.399  1.00  0.00     0.068 A 
ATOM     13  C   UNL     1       4.931  -6.549   6.134  1.00  0.00     0.162 A 
ATOM     14  C   UNL     1       7.595  -7.412   6.190  1.00  0.00     0.068 A 
ATOM     15  C   UNL     1       5.234  -7.900   5.892  1.00  0.00     0.200 A 
ATOM     16  C   UNL     1       6.571  -8.331   5.925  1.00  0.00     0.162 A 
BRANCH  13  17
ATOM     17  O   UNL     1       3.614  -6.092   6.116  1.00  0.00    -0.504 OA
ATOM     18  H   UNL     1       2.823  -6.725   6.081  1.00  0.00     0.293 HD
ENDBRANCH  13  17
BRANCH  15  19
ATOM     19  O   UNL     1       4.202  -8.801   5.625  1.00  0.00    -0.502 OA
ATOM     20  H   UNL     1       3.715  -8.816   4.737  1.00  0.00     0.293 HD
ENDBRANCH  15  19
BRANCH  16  21
ATOM     21  O   UNL     1       6.877  -9.673   5.699  1.00  0.00    -0.504 OA
ATOM     22  H   UNL     1       6.502 -10.410   6.285  1.00  0.00     0.293 HD
ENDBRANCH  16  21
ENDBRANCH   1  11
BRANCH  10  23
ATOM     23  O   UNL     1       8.135  -5.391   9.124  1.00  0.00    -0.500 OA
ATOM     24  H   UNL     1       8.640  -5.568   9.983  1.00  0.00     0.294 HD
ENDBRANCH  10  23
BRANCH   5  25
ATOM     25  O   UNL     1      12.171  -1.554   3.720  1.00  0.00    -0.507 OA
ATOM     26  H   UNL     1      12.546  -2.145   2.987  1.00  0.00     0.293 HD
ENDBRANCH   5  25
BRANCH   7  27
ATOM     27  O   UNL     1      11.872  -1.779   8.522  1.00  0.00    -0.507 OA
ATOM     28  H   UNL     1      11.546  -2.119   9.415  1.00  0.00     0.293 HD
ENDBRANCH   7  27
TORSDOF 7
ENDMDL
MODEL 9
REMARK VINA RESULT:    -6.004      1.919      2.941
REMARK INTER + INTRA:          -7.642
REMARK INTER:                  -7.328
REMARK INTRA:                  -0.314
REMARK UNBOUND:                -0.234
REMARK SMILES Oc1cc(O)c2cc(O)c(-c3cc(O)c(O)c(O)c3)[o+]c2c1
REMARK SMILES IDX 10 1 20 2 21 3 22 4 2 5 3 6 4 7 6 8 7 9 8 10 11 11 12 12
REMARK SMILES IDX 13 13 19 14 15 15 17 16 14 17 16 19 18 21 9 23 1 25 5 27
REMARK H PARENT 14 18 16 20 18 22 9 24 1 26 5 28
REMARK Flexibility Score: inf
ROOT
ATOM      1  C   UNL     1       7.887  -5.354   6.644  1.00  0.00     0.402 A 
ATOM      2  O   UNL     1       8.824  -4.662   7.285  1.00  0.00    -0.202 OA
ATOM      3  C   UNL     1       9.337  -3.526   6.821  1.00  0.00     0.368 A 
ATOM      4  C   UNL     1      10.322  -2.872   7.566  1.00  0.00     0.162 A 
ATOM      5  C   UNL     1      10.881  -1.680   7.102  1.00  0.00     0.128 A 
ATOM      6  C   UNL     1      10.454  -1.137   5.885  1.00  0.00     0.093 A 
ATOM      7  C   UNL     1       9.468  -1.774   5.121  1.00  0.00     0.136 A 
ATOM      8  C   UNL     1       8.896  -2.985   5.590  1.00  0.00     0.125 A 
ATOM      9  C   UNL     1       7.895  -3.685   4.898  1.00  0.00     0.078 A 
ATOM     10  C   UNL     1       7.376  -4.871   5.426  1.00  0.00     0.223 A 
ENDROOT
BRANCH   1  11
ATOM     11  C   UNL     1       7.402  -6.611   7.259  1.00  0.00     0.091 A 
ATOM     12  C   UNL     1       6.155  -6.629   7.902  1.00  0.00     0.068 A 
ATOM     13  C   UNL     1       5.681  -7.796   8.510  1.00  0.00     0.162 A 
ATOM     14  C   UNL     1       8.189  -7.775   7.263  1.00  0.00     0.068 A 
ATOM     15  C   UNL     1       6.464  -8.964   8.492  1.00  0.00     0.200 A 
ATOM     16  C   UNL     1       7.723  -8.949   7.871  1.00  0.00     0.162 A 
BRANCH  13  17
ATOM     17  O   UNL     1       4.430  -7.777   9.125  1.00  0.00    -0.504 OA
ATOM     18  H   UNL     1       4.323  -7.681  10.128  1.00  0.00     0.293 HD
ENDBRANCH  13  17
BRANCH  15  19
ATOM     19  O   UNL     1       5.982 -10.125   9.098  1.00  0.00    -0.502 OA
ATOM     20  H   UNL     1       5.719 -10.944   8.563  1.00  0.00     0.293 HD
ENDBRANCH  15  19
BRANCH  16  21
ATOM     21  O   UNL     1       8.511 -10.100   7.863  1.00  0.00    -0.504 OA
ATOM     22  H   UNL     1       8.758 -10.570   6.999  1.00  0.00     0.293 HD
ENDBRANCH  16  21
ENDBRANCH   1  11
BRANCH  10  23
ATOM     23  O   UNL     1       6.346  -5.540   4.763  1.00  0.00    -0.500 OA
ATOM     24  H   UNL     1       6.023  -6.452   5.062  1.00  0.00     0.294 HD
ENDBRANCH  10  23
BRANCH   5  25
ATOM     25  O   UNL     1      11.861  -1.042   7.859  1.00  0.00    -0.507 OA
ATOM     26  H   UNL     1      11.664  -0.189   8.370  1.00  0.00     0.293 HD
ENDBRANCH   5  25
BRANCH   7  27
ATOM     27  O   UNL     1       9.099  -1.171   3.915  1.00  0.00    -0.507 OA
ATOM     28  H   UNL     1       8.145  -1.048   3.607  1.00  0.00     0.293 HD
ENDBRANCH   7  27
TORSDOF 7
ENDMDL
