MODEL 1
REMARK VINA RESULT:    -6.197      0.000      0.000
REMARK INTER + INTRA:          -6.555
REMARK INTER:                  -6.740
REMARK INTRA:                   0.185
REMARK UNBOUND:                 0.185
REMARK SMILES C[C@@H]1[C@H]2C3=CC[C@@H]4[C@@]5(C)CC[C@H](O)C(C)(C)[C@H]5CC[C@]4(C)[C@]3(C)CC[C@]2(C(=O)[O-])CC[C@@H]1C
REMARK SMILES IDX 26 1 30 2 25 3 3 4 31 5 24 6 4 7 2 8 32 9 22 10 5 11 1 12
REMARK SMILES IDX 33 13 23 14 20 15 6 16 7 17 19 18 21 19 8 20 18 21 17 22
REMARK SMILES IDX 10 23 9 24 14 25 11 26 12 27 15 28 16 29 27 30 28 31 29 32
REMARK SMILES IDX 13 33
REMARK H PARENT 13 34
REMARK Flexibility Score: inf
ROOT
ATOM      1  C   UNL     1     174.250 169.574 171.669  1.00  0.00     0.017 C 
ATOM      2  C   UNL     1     173.747 170.109 173.034  1.00  0.00     0.014 C 
ATOM      3  C   UNL     1     175.809 169.779 171.589  1.00  0.00     0.014 C 
ATOM      4  C   UNL     1     173.933 168.048 171.541  1.00  0.00     0.030 C 
ATOM      5  C   UNL     1     172.259 169.816 173.252  1.00  0.00     0.004 C 
ATOM      6  C   UNL     1     176.620 168.559 171.070  1.00  0.00     0.013 C 
ATOM      7  C   UNL     1     174.491 167.560 170.188  1.00  0.00    -0.063 C 
ATOM      8  C   UNL     1     172.458 167.643 171.916  1.00  0.00    -0.003 C 
ATOM      9  C   UNL     1     171.981 168.305 173.248  1.00  0.00    -0.011 C 
ATOM     10  C   UNL     1     175.957 167.815 169.852  1.00  0.00    -0.006 C 
ATOM     11  C   UNL     1     173.744 166.919 169.284  1.00  0.00    -0.027 C 
ATOM     12  C   UNL     1     172.282 166.106 172.011  1.00  0.00     0.008 C 
ATOM     13  C   UNL     1     172.546 167.640 174.525  1.00  0.00     0.008 C 
ATOM     14  C   UNL     1     176.028 168.799 168.640  1.00  0.00     0.017 C 
ATOM     15  C   UNL     1     176.639 166.408 169.469  1.00  0.00    -0.020 C 
ATOM     16  C   UNL     1     174.324 165.947 168.298  1.00  0.00     0.032 C 
ATOM     17  C   UNL     1     175.894 165.772 168.214  1.00  0.00     0.006 C 
ATOM     18  C   UNL     1     176.504 165.399 170.646  1.00  0.00     0.008 C 
ATOM     19  C   UNL     1     178.156 166.656 169.158  1.00  0.00     0.012 C 
ATOM     20  C   UNL     1     176.274 164.256 167.824  1.00  0.00    -0.025 C 
ATOM     21  C   UNL     1     176.931 163.965 170.308  1.00  0.00     0.005 C 
ATOM     22  C   UNL     1     176.183 163.321 169.100  1.00  0.00     0.003 C 
ATOM     23  C   UNL     1     177.706 164.143 167.203  1.00  0.00     0.010 C 
ATOM     24  C   UNL     1     175.277 163.817 166.691  1.00  0.00     0.012 C 
ATOM     25  C   UNL     1     176.669 161.818 168.853  1.00  0.00    -0.006 C 
ATOM     26  C   UNL     1     178.164 162.700 166.916  1.00  0.00     0.033 C 
ATOM     27  C   UNL     1     178.076 161.807 168.167  1.00  0.00     0.120 C 
ATOM     28  C   UNL     1     175.625 161.017 168.018  1.00  0.00     0.014 C 
ATOM     29  C   UNL     1     176.791 161.046 170.200  1.00  0.00     0.014 C 
ENDROOT
BRANCH   1  30
ATOM     30  C   UNL     1     173.580 170.407 170.574  1.00  0.00     0.048 C 
ATOM     31  O   UNL     1     174.160 171.394 170.045  1.00  0.00    -0.550 OA
ATOM     32  O   UNL     1     172.322 170.045 170.105  1.00  0.00    -0.550 OA
ENDBRANCH   1  30
BRANCH  27  33
ATOM     33  O   UNL     1     178.504 160.496 167.878  1.00  0.00    -0.393 OA
ATOM     34  H   UNL     1     178.152 160.243 166.985  1.00  0.00     0.210 HD
ENDBRANCH  27  33
TORSDOF 2
ENDMDL
MODEL 2
REMARK VINA RESULT:    -6.188      3.579      6.117
REMARK INTER + INTRA:          -6.546
REMARK INTER:                  -6.724
REMARK INTRA:                   0.179
REMARK UNBOUND:                 0.185
REMARK SMILES C[C@@H]1[C@H]2C3=CC[C@@H]4[C@@]5(C)CC[C@H](O)C(C)(C)[C@H]5CC[C@]4(C)[C@]3(C)CC[C@]2(C(=O)[O-])CC[C@@H]1C
REMARK SMILES IDX 26 1 30 2 25 3 3 4 31 5 24 6 4 7 2 8 32 9 22 10 5 11 1 12
REMARK SMILES IDX 33 13 23 14 20 15 6 16 7 17 19 18 21 19 8 20 18 21 17 22
REMARK SMILES IDX 10 23 9 24 14 25 11 26 12 27 15 28 16 29 27 30 28 31 29 32
REMARK SMILES IDX 13 33
REMARK H PARENT 13 34
REMARK Flexibility Score: inf
ROOT
ATOM      1  C   UNL     1     172.981 169.931 167.447  1.00  0.00     0.017 C 
ATOM      2  C   UNL     1     171.907 170.625 166.571  1.00  0.00     0.014 C 
ATOM      3  C   UNL     1     173.612 170.999 168.415  1.00  0.00     0.014 C 
ATOM      4  C   UNL     1     172.326 168.797 168.302  1.00  0.00     0.030 C 
ATOM      5  C   UNL     1     171.142 169.624 165.700  1.00  0.00     0.004 C 
ATOM      6  C   UNL     1     173.765 170.555 169.896  1.00  0.00     0.013 C 
ATOM      7  C   UNL     1     173.428 168.170 169.181  1.00  0.00    -0.063 C 
ATOM      8  C   UNL     1     171.383 167.823 167.500  1.00  0.00    -0.003 C 
ATOM      9  C   UNL     1     170.400 168.589 166.558  1.00  0.00    -0.011 C 
ATOM     10  C   UNL     1     174.269 169.074 170.077  1.00  0.00    -0.006 C 
ATOM     11  C   UNL     1     173.685 166.859 169.197  1.00  0.00    -0.027 C 
ATOM     12  C   UNL     1     170.577 166.889 168.439  1.00  0.00     0.008 C 
ATOM     13  C   UNL     1     169.200 169.238 167.287  1.00  0.00     0.008 C 
ATOM     14  C   UNL     1     175.747 169.045 169.569  1.00  0.00     0.017 C 
ATOM     15  C   UNL     1     174.185 168.512 171.583  1.00  0.00    -0.020 C 
ATOM     16  C   UNL     1     174.271 166.164 170.391  1.00  0.00     0.032 C 
ATOM     17  C   UNL     1     174.743 167.022 171.633  1.00  0.00     0.006 C 
ATOM     18  C   UNL     1     172.707 168.469 172.067  1.00  0.00     0.008 C 
ATOM     19  C   UNL     1     175.018 169.458 172.516  1.00  0.00     0.012 C 
ATOM     20  C   UNL     1     174.525 166.202 173.003  1.00  0.00    -0.025 C 
ATOM     21  C   UNL     1     172.496 167.752 173.406  1.00  0.00     0.005 C 
ATOM     22  C   UNL     1     173.009 166.279 173.455  1.00  0.00     0.003 C 
ATOM     23  C   UNL     1     175.437 166.727 174.162  1.00  0.00     0.010 C 
ATOM     24  C   UNL     1     174.989 164.726 172.725  1.00  0.00     0.012 C 
ATOM     25  C   UNL     1     172.708 165.609 174.876  1.00  0.00    -0.006 C 
ATOM     26  C   UNL     1     175.188 166.051 175.524  1.00  0.00     0.033 C 
ATOM     27  C   UNL     1     173.712 166.143 175.952  1.00  0.00     0.120 C 
ATOM     28  C   UNL     1     172.747 164.054 174.785  1.00  0.00     0.014 C 
ATOM     29  C   UNL     1     171.268 165.953 175.357  1.00  0.00     0.014 C 
ENDROOT
BRANCH   1  30
ATOM     30  C   UNL     1     174.069 169.404 166.507  1.00  0.00     0.048 C 
ATOM     31  O   UNL     1     174.004 168.250 166.002  1.00  0.00    -0.550 OA
ATOM     32  O   UNL     1     175.132 170.226 166.153  1.00  0.00    -0.550 OA
ENDBRANCH   1  30
BRANCH  27  33
ATOM     33  O   UNL     1     173.513 165.522 177.202  1.00  0.00    -0.393 OA
ATOM     34  H   UNL     1     174.029 164.674 177.213  1.00  0.00     0.210 HD
ENDBRANCH  27  33
TORSDOF 2
ENDMDL
MODEL 3
REMARK VINA RESULT:    -6.110      2.076      3.558
REMARK INTER + INTRA:          -6.461
REMARK INTER:                  -6.646
REMARK INTRA:                   0.185
REMARK UNBOUND:                 0.185
REMARK SMILES C[C@@H]1[C@H]2C3=CC[C@@H]4[C@@]5(C)CC[C@H](O)C(C)(C)[C@H]5CC[C@]4(C)[C@]3(C)CC[C@]2(C(=O)[O-])CC[C@@H]1C
REMARK SMILES IDX 26 1 30 2 25 3 3 4 31 5 24 6 4 7 2 8 32 9 22 10 5 11 1 12
REMARK SMILES IDX 33 13 23 14 20 15 6 16 7 17 19 18 21 19 8 20 18 21 17 22
REMARK SMILES IDX 10 23 9 24 14 25 11 26 12 27 15 28 16 29 27 30 28 31 29 32
REMARK SMILES IDX 13 33
REMARK H PARENT 13 34
REMARK Flexibility Score: inf
ROOT
ATOM      1  C   UNL     1     170.493 169.908 172.804  1.00  0.00     0.017 C 
ATOM      2  C   UNL     1     169.350 169.758 173.840  1.00  0.00     0.014 C 
ATOM      3  C   UNL     1     171.753 170.517 173.524  1.00  0.00     0.014 C 
ATOM      4  C   UNL     1     170.873 168.509 172.217  1.00  0.00     0.030 C 
ATOM      5  C   UNL     1     168.134 169.037 173.252  1.00  0.00     0.004 C 
ATOM      6  C   UNL     1     173.107 169.823 173.210  1.00  0.00     0.013 C 
ATOM      7  C   UNL     1     172.039 168.710 171.227  1.00  0.00    -0.063 C 
ATOM      8  C   UNL     1     169.652 167.634 171.746  1.00  0.00    -0.003 C 
ATOM      9  C   UNL     1     168.493 167.616 172.794  1.00  0.00    -0.011 C 
ATOM     10  C   UNL     1     173.297 169.434 171.696  1.00  0.00    -0.006 C 
ATOM     11  C   UNL     1     172.000 168.277 169.964  1.00  0.00    -0.027 C 
ATOM     12  C   UNL     1     170.071 166.178 171.415  1.00  0.00     0.008 C 
ATOM     13  C   UNL     1     168.752 166.696 174.010  1.00  0.00     0.008 C 
ATOM     14  C   UNL     1     173.424 170.777 170.908  1.00  0.00     0.017 C 
ATOM     15  C   UNL     1     174.565 168.489 171.397  1.00  0.00    -0.020 C 
ATOM     16  C   UNL     1     173.237 167.917 169.194  1.00  0.00     0.032 C 
ATOM     17  C   UNL     1     174.657 168.191 169.835  1.00  0.00     0.006 C 
ATOM     18  C   UNL     1     174.408 167.120 172.120  1.00  0.00     0.008 C 
ATOM     19  C   UNL     1     175.859 169.212 171.910  1.00  0.00     0.012 C 
ATOM     20  C   UNL     1     175.717 167.074 169.362  1.00  0.00    -0.025 C 
ATOM     21  C   UNL     1     175.455 166.070 171.730  1.00  0.00     0.005 C 
ATOM     22  C   UNL     1     175.530 165.746 170.206  1.00  0.00     0.003 C 
ATOM     23  C   UNL     1     177.197 167.565 169.493  1.00  0.00     0.010 C 
ATOM     24  C   UNL     1     175.474 166.843 167.826  1.00  0.00     0.012 C 
ATOM     25  C   UNL     1     176.620 164.615 169.908  1.00  0.00    -0.006 C 
ATOM     26  C   UNL     1     178.255 166.495 169.160  1.00  0.00     0.033 C 
ATOM     27  C   UNL     1     178.064 165.215 169.994  1.00  0.00     0.120 C 
ATOM     28  C   UNL     1     176.368 163.939 168.527  1.00  0.00     0.014 C 
ATOM     29  C   UNL     1     176.522 163.462 170.949  1.00  0.00     0.014 C 
ENDROOT
BRANCH   1  30
ATOM     30  C   UNL     1     170.012 170.884 171.727  1.00  0.00     0.048 C 
ATOM     31  O   UNL     1     170.247 172.121 171.803  1.00  0.00    -0.550 OA
ATOM     32  O   UNL     1     169.345 170.401 170.608  1.00  0.00    -0.550 OA
ENDBRANCH   1  30
BRANCH  27  33
ATOM     33  O   UNL     1     179.046 164.257 169.673  1.00  0.00    -0.393 OA
ATOM     34  H   UNL     1     179.521 164.007 170.508  1.00  0.00     0.210 HD
ENDBRANCH  27  33
TORSDOF 2
ENDMDL
MODEL 4
REMARK VINA RESULT:    -6.073      3.525      8.479
REMARK INTER + INTRA:          -6.420
REMARK INTER:                  -6.600
REMARK INTRA:                   0.180
REMARK UNBOUND:                 0.185
REMARK SMILES C[C@@H]1[C@H]2C3=CC[C@@H]4[C@@]5(C)CC[C@H](O)C(C)(C)[C@H]5CC[C@]4(C)[C@]3(C)CC[C@]2(C(=O)[O-])CC[C@@H]1C
REMARK SMILES IDX 26 1 30 2 25 3 3 4 31 5 24 6 4 7 2 8 32 9 22 10 5 11 1 12
REMARK SMILES IDX 33 13 23 14 20 15 6 16 7 17 19 18 21 19 8 20 18 21 17 22
REMARK SMILES IDX 10 23 9 24 14 25 11 26 12 27 15 28 16 29 27 30 28 31 29 32
REMARK SMILES IDX 13 33
REMARK H PARENT 13 34
REMARK Flexibility Score: inf
ROOT
ATOM      1  C   UNL     1     175.286 168.879 170.818  1.00  0.00     0.017 C 
ATOM      2  C   UNL     1     176.324 168.600 169.701  1.00  0.00     0.014 C 
ATOM      3  C   UNL     1     174.917 170.409 170.795  1.00  0.00     0.014 C 
ATOM      4  C   UNL     1     173.989 168.042 170.567  1.00  0.00     0.030 C 
ATOM      5  C   UNL     1     176.629 167.106 169.562  1.00  0.00     0.004 C 
ATOM      6  C   UNL     1     173.400 170.735 170.888  1.00  0.00     0.013 C 
ATOM      7  C   UNL     1     172.978 168.388 171.679  1.00  0.00    -0.063 C 
ATOM      8  C   UNL     1     174.235 166.520 170.245  1.00  0.00    -0.003 C 
ATOM      9  C   UNL     1     175.368 166.310 169.191  1.00  0.00    -0.011 C 
ATOM     10  C   UNL     1     172.612 169.849 171.924  1.00  0.00    -0.006 C 
ATOM     11  C   UNL     1     172.400 167.461 172.449  1.00  0.00    -0.027 C 
ATOM     12  C   UNL     1     172.943 165.811 169.763  1.00  0.00     0.008 C 
ATOM     13  C   UNL     1     174.942 166.605 167.734  1.00  0.00     0.008 C 
ATOM     14  C   UNL     1     173.126 170.262 173.340  1.00  0.00     0.017 C 
ATOM     15  C   UNL     1     171.010 169.988 171.849  1.00  0.00    -0.020 C 
ATOM     16  C   UNL     1     171.053 167.658 173.078  1.00  0.00     0.032 C 
ATOM     17  C   UNL     1     170.337 169.063 172.958  1.00  0.00     0.006 C 
ATOM     18  C   UNL     1     170.485 169.506 170.465  1.00  0.00     0.008 C 
ATOM     19  C   UNL     1     170.629 171.493 172.063  1.00  0.00     0.012 C 
ATOM     20  C   UNL     1     168.738 168.881 172.890  1.00  0.00    -0.025 C 
ATOM     21  C   UNL     1     168.959 169.397 170.366  1.00  0.00     0.005 C 
ATOM     22  C   UNL     1     168.293 168.466 171.427  1.00  0.00     0.003 C 
ATOM     23  C   UNL     1     167.973 170.179 173.314  1.00  0.00     0.010 C 
ATOM     24  C   UNL     1     168.362 167.791 173.959  1.00  0.00     0.012 C 
ATOM     25  C   UNL     1     166.710 168.388 171.216  1.00  0.00    -0.006 C 
ATOM     26  C   UNL     1     166.442 170.095 173.160  1.00  0.00     0.033 C 
ATOM     27  C   UNL     1     166.027 169.699 171.732  1.00  0.00     0.120 C 
ATOM     28  C   UNL     1     166.111 167.127 171.907  1.00  0.00     0.014 C 
ATOM     29  C   UNL     1     166.359 168.231 169.707  1.00  0.00     0.014 C 
ENDROOT
BRANCH   1  30
ATOM     30  C   UNL     1     175.949 168.546 172.156  1.00  0.00     0.048 C 
ATOM     31  O   UNL     1     175.995 167.364 172.596  1.00  0.00    -0.550 OA
ATOM     32  O   UNL     1     176.567 169.552 172.889  1.00  0.00    -0.550 OA
ENDBRANCH   1  30
BRANCH  27  33
ATOM     33  O   UNL     1     164.624 169.634 171.617  1.00  0.00    -0.393 OA
ATOM     34  H   UNL     1     164.233 170.362 172.167  1.00  0.00     0.210 HD
ENDBRANCH  27  33
TORSDOF 2
ENDMDL
MODEL 5
REMARK VINA RESULT:    -6.067      3.663      6.246
REMARK INTER + INTRA:          -6.414
REMARK INTER:                  -6.599
REMARK INTRA:                   0.186
REMARK UNBOUND:                 0.185
REMARK SMILES C[C@@H]1[C@H]2C3=CC[C@@H]4[C@@]5(C)CC[C@H](O)C(C)(C)[C@H]5CC[C@]4(C)[C@]3(C)CC[C@]2(C(=O)[O-])CC[C@@H]1C
REMARK SMILES IDX 26 1 30 2 25 3 3 4 31 5 24 6 4 7 2 8 32 9 22 10 5 11 1 12
REMARK SMILES IDX 33 13 23 14 20 15 6 16 7 17 19 18 21 19 8 20 18 21 17 22
REMARK SMILES IDX 10 23 9 24 14 25 11 26 12 27 15 28 16 29 27 30 28 31 29 32
REMARK SMILES IDX 13 33
REMARK H PARENT 13 34
REMARK Flexibility Score: inf
ROOT
ATOM      1  C   UNL     1     174.518 169.613 170.762  1.00  0.00     0.017 C 
ATOM      2  C   UNL     1     173.940 170.697 169.815  1.00  0.00     0.014 C 
ATOM      3  C   UNL     1     174.520 170.175 172.232  1.00  0.00     0.014 C 
ATOM      4  C   UNL     1     173.628 168.328 170.712  1.00  0.00     0.030 C 
ATOM      5  C   UNL     1     173.768 170.178 168.385  1.00  0.00     0.004 C 
ATOM      6  C   UNL     1     173.982 169.206 173.321  1.00  0.00     0.013 C 
ATOM      7  C   UNL     1     174.221 167.302 171.699  1.00  0.00    -0.063 C 
ATOM      8  C   UNL     1     173.264 167.829 169.264  1.00  0.00    -0.003 C 
ATOM      9  C   UNL     1     172.793 168.992 168.334  1.00  0.00    -0.011 C 
ATOM     10  C   UNL     1     174.456 167.715 173.150  1.00  0.00    -0.006 C 
ATOM     11  C   UNL     1     174.544 166.056 171.343  1.00  0.00    -0.027 C 
ATOM     12  C   UNL     1     172.186 166.715 169.285  1.00  0.00     0.008 C 
ATOM     13  C   UNL     1     171.342 169.463 168.593  1.00  0.00     0.008 C 
ATOM     14  C   UNL     1     175.993 167.704 173.429  1.00  0.00     0.017 C 
ATOM     15  C   UNL     1     173.708 166.655 174.103  1.00  0.00    -0.020 C 
ATOM     16  C   UNL     1     174.543 164.911 172.313  1.00  0.00     0.032 C 
ATOM     17  C   UNL     1     174.293 165.196 173.849  1.00  0.00     0.006 C 
ATOM     18  C   UNL     1     172.187 166.607 173.777  1.00  0.00     0.008 C 
ATOM     19  C   UNL     1     173.914 167.093 175.594  1.00  0.00     0.012 C 
ATOM     20  C   UNL     1     173.514 163.963 174.534  1.00  0.00    -0.025 C 
ATOM     21  C   UNL     1     171.421 165.480 174.480  1.00  0.00     0.005 C 
ATOM     22  C   UNL     1     171.965 164.043 174.210  1.00  0.00     0.003 C 
ATOM     23  C   UNL     1     173.715 163.921 176.085  1.00  0.00     0.010 C 
ATOM     24  C   UNL     1     174.172 162.648 173.978  1.00  0.00     0.012 C 
ATOM     25  C   UNL     1     171.078 162.939 174.952  1.00  0.00    -0.006 C 
ATOM     26  C   UNL     1     172.901 162.828 176.804  1.00  0.00     0.033 C 
ATOM     27  C   UNL     1     171.398 162.924 176.485  1.00  0.00     0.120 C 
ATOM     28  C   UNL     1     171.281 161.531 174.317  1.00  0.00     0.014 C 
ATOM     29  C   UNL     1     169.560 163.245 174.787  1.00  0.00     0.014 C 
ENDROOT
BRANCH   1  30
ATOM     30  C   UNL     1     175.960 169.345 170.326  1.00  0.00     0.048 C 
ATOM     31  O   UNL     1     176.228 168.587 169.355  1.00  0.00    -0.550 OA
ATOM     32  O   UNL     1     177.007 169.989 170.976  1.00  0.00    -0.550 OA
ENDBRANCH   1  30
BRANCH  27  33
ATOM     33  O   UNL     1     170.677 161.918 177.157  1.00  0.00    -0.393 OA
ATOM     34  H   UNL     1     170.679 162.128 178.127  1.00  0.00     0.210 HD
ENDBRANCH  27  33
TORSDOF 2
ENDMDL
MODEL 6
REMARK VINA RESULT:    -5.989      3.810      6.194
REMARK INTER + INTRA:          -6.329
REMARK INTER:                  -6.517
REMARK INTRA:                   0.188
REMARK UNBOUND:                 0.185
REMARK SMILES C[C@@H]1[C@H]2C3=CC[C@@H]4[C@@]5(C)CC[C@H](O)C(C)(C)[C@H]5CC[C@]4(C)[C@]3(C)CC[C@]2(C(=O)[O-])CC[C@@H]1C
REMARK SMILES IDX 26 1 30 2 25 3 3 4 31 5 24 6 4 7 2 8 32 9 22 10 5 11 1 12
REMARK SMILES IDX 33 13 23 14 20 15 6 16 7 17 19 18 21 19 8 20 18 21 17 22
REMARK SMILES IDX 10 23 9 24 14 25 11 26 12 27 15 28 16 29 27 30 28 31 29 32
REMARK SMILES IDX 13 33
REMARK H PARENT 13 34
REMARK Flexibility Score: inf
ROOT
ATOM      1  C   UNL     1     174.011 165.533 174.358  1.00  0.00     0.017 C 
ATOM      2  C   UNL     1     174.452 164.157 174.920  1.00  0.00     0.014 C 
ATOM      3  C   UNL     1     175.256 166.497 174.347  1.00  0.00     0.014 C 
ATOM      4  C   UNL     1     173.483 165.371 172.895  1.00  0.00     0.030 C 
ATOM      5  C   UNL     1     173.333 163.116 174.830  1.00  0.00     0.004 C 
ATOM      6  C   UNL     1     175.459 167.315 173.041  1.00  0.00     0.013 C 
ATOM      7  C   UNL     1     173.100 166.771 172.372  1.00  0.00    -0.063 C 
ATOM      8  C   UNL     1     172.450 164.201 172.689  1.00  0.00    -0.003 C 
ATOM      9  C   UNL     1     172.910 162.874 173.373  1.00  0.00    -0.011 C 
ATOM     10  C   UNL     1     174.129 167.895 172.429  1.00  0.00    -0.006 C 
ATOM     11  C   UNL     1     171.895 167.051 171.865  1.00  0.00    -0.027 C 
ATOM     12  C   UNL     1     172.163 163.936 171.189  1.00  0.00     0.008 C 
ATOM     13  C   UNL     1     174.011 162.110 172.601  1.00  0.00     0.008 C 
ATOM     14  C   UNL     1     173.622 168.986 173.427  1.00  0.00     0.017 C 
ATOM     15  C   UNL     1     174.281 168.517 170.953  1.00  0.00    -0.020 C 
ATOM     16  C   UNL     1     171.676 168.134 170.850  1.00  0.00     0.032 C 
ATOM     17  C   UNL     1     172.878 169.087 170.461  1.00  0.00     0.006 C 
ATOM     18  C   UNL     1     174.714 167.417 169.940  1.00  0.00     0.008 C 
ATOM     19  C   UNL     1     175.365 169.649 170.997  1.00  0.00     0.012 C 
ATOM     20  C   UNL     1     172.767 169.536 168.918  1.00  0.00    -0.025 C 
ATOM     21  C   UNL     1     174.681 167.856 168.471  1.00  0.00     0.005 C 
ATOM     22  C   UNL     1     173.300 168.384 167.970  1.00  0.00     0.003 C 
ATOM     23  C   UNL     1     173.558 170.854 168.624  1.00  0.00     0.010 C 
ATOM     24  C   UNL     1     171.255 169.873 168.653  1.00  0.00     0.012 C 
ATOM     25  C   UNL     1     173.359 168.778 166.421  1.00  0.00    -0.006 C 
ATOM     26  C   UNL     1     173.578 171.268 167.140  1.00  0.00     0.033 C 
ATOM     27  C   UNL     1     174.106 170.141 166.235  1.00  0.00     0.120 C 
ATOM     28  C   UNL     1     171.932 168.823 165.797  1.00  0.00     0.014 C 
ATOM     29  C   UNL     1     174.127 167.698 165.604  1.00  0.00     0.014 C 
ENDROOT
BRANCH   1  30
ATOM     30  C   UNL     1     172.950 166.098 175.305  1.00  0.00     0.048 C 
ATOM     31  O   UNL     1     173.252 166.887 176.242  1.00  0.00    -0.550 OA
ATOM     32  O   UNL     1     171.611 165.782 175.107  1.00  0.00    -0.550 OA
ENDBRANCH   1  30
BRANCH  27  33
ATOM     33  O   UNL     1     174.119 170.546 164.885  1.00  0.00    -0.393 OA
ATOM     34  H   UNL     1     173.182 170.557 164.555  1.00  0.00     0.210 HD
ENDBRANCH  27  33
TORSDOF 2
ENDMDL
MODEL 7
REMARK VINA RESULT:    -5.953      3.861      6.353
REMARK INTER + INTRA:          -6.290
REMARK INTER:                  -6.489
REMARK INTRA:                   0.200
REMARK UNBOUND:                 0.185
REMARK SMILES C[C@@H]1[C@H]2C3=CC[C@@H]4[C@@]5(C)CC[C@H](O)C(C)(C)[C@H]5CC[C@]4(C)[C@]3(C)CC[C@]2(C(=O)[O-])CC[C@@H]1C
REMARK SMILES IDX 26 1 30 2 25 3 3 4 31 5 24 6 4 7 2 8 32 9 22 10 5 11 1 12
REMARK SMILES IDX 33 13 23 14 20 15 6 16 7 17 19 18 21 19 8 20 18 21 17 22
REMARK SMILES IDX 10 23 9 24 14 25 11 26 12 27 15 28 16 29 27 30 28 31 29 32
REMARK SMILES IDX 13 33
REMARK H PARENT 13 34
REMARK Flexibility Score: inf
ROOT
ATOM      1  C   UNL     1     174.692 168.430 172.094  1.00  0.00     0.017 C 
ATOM      2  C   UNL     1     175.709 167.575 172.892  1.00  0.00     0.014 C 
ATOM      3  C   UNL     1     175.426 169.714 171.553  1.00  0.00     0.014 C 
ATOM      4  C   UNL     1     174.140 167.613 170.880  1.00  0.00     0.030 C 
ATOM      5  C   UNL     1     175.112 166.235 173.332  1.00  0.00     0.004 C 
ATOM      6  C   UNL     1     175.151 170.066 170.064  1.00  0.00     0.013 C 
ATOM      7  C   UNL     1     173.170 168.522 170.099  1.00  0.00    -0.063 C 
ATOM      8  C   UNL     1     173.663 166.153 171.226  1.00  0.00    -0.003 C 
ATOM      9  C   UNL     1     174.688 165.388 172.123  1.00  0.00    -0.011 C 
ATOM     10  C   UNL     1     173.649 169.891 169.626  1.00  0.00    -0.006 C 
ATOM     11  C   UNL     1     171.914 168.166 169.812  1.00  0.00    -0.027 C 
ATOM     12  C   UNL     1     173.368 165.320 169.953  1.00  0.00     0.008 C 
ATOM     13  C   UNL     1     175.927 164.860 171.361  1.00  0.00     0.008 C 
ATOM     14  C   UNL     1     172.837 170.992 170.382  1.00  0.00     0.017 C 
ATOM     15  C   UNL     1     173.392 169.997 168.041  1.00  0.00    -0.020 C 
ATOM     16  C   UNL     1     171.175 168.695 168.618  1.00  0.00     0.032 C 
ATOM     17  C   UNL     1     171.838 169.827 167.735  1.00  0.00     0.006 C 
ATOM     18  C   UNL     1     174.138 168.856 167.290  1.00  0.00     0.008 C 
ATOM     19  C   UNL     1     173.916 171.388 167.542  1.00  0.00     0.012 C 
ATOM     20  C   UNL     1     171.407 169.667 166.191  1.00  0.00    -0.025 C 
ATOM     21  C   UNL     1     173.789 168.739 165.802  1.00  0.00     0.005 C 
ATOM     22  C   UNL     1     172.272 168.538 165.493  1.00  0.00     0.003 C 
ATOM     23  C   UNL     1     171.557 171.002 165.389  1.00  0.00     0.010 C 
ATOM     24  C   UNL     1     169.872 169.330 166.184  1.00  0.00     0.012 C 
ATOM     25  C   UNL     1     172.018 168.387 163.921  1.00  0.00    -0.006 C 
ATOM     26  C   UNL     1     171.265 170.877 163.882  1.00  0.00     0.033 C 
ATOM     27  C   UNL     1     172.120 169.782 163.218  1.00  0.00     0.120 C 
ATOM     28  C   UNL     1     170.645 167.707 163.636  1.00  0.00     0.014 C 
ATOM     29  C   UNL     1     173.079 167.450 163.275  1.00  0.00     0.014 C 
ENDROOT
BRANCH   1  30
ATOM     30  C   UNL     1     173.589 168.857 173.064  1.00  0.00     0.048 C 
ATOM     31  O   UNL     1     172.670 168.065 173.411  1.00  0.00    -0.550 OA
ATOM     32  O   UNL     1     173.618 170.128 173.625  1.00  0.00    -0.550 OA
ENDBRANCH   1  30
BRANCH  27  33
ATOM     33  O   UNL     1     171.836 169.692 161.840  1.00  0.00    -0.393 OA
ATOM     34  H   UNL     1     171.922 168.741 161.567  1.00  0.00     0.210 HD
ENDBRANCH  27  33
TORSDOF 2
ENDMDL
MODEL 8
REMARK VINA RESULT:    -5.847      7.273     10.916
REMARK INTER + INTRA:          -6.174
REMARK INTER:                  -6.364
REMARK INTRA:                   0.190
REMARK UNBOUND:                 0.185
REMARK SMILES C[C@@H]1[C@H]2C3=CC[C@@H]4[C@@]5(C)CC[C@H](O)C(C)(C)[C@H]5CC[C@]4(C)[C@]3(C)CC[C@]2(C(=O)[O-])CC[C@@H]1C
REMARK SMILES IDX 26 1 30 2 25 3 3 4 31 5 24 6 4 7 2 8 32 9 22 10 5 11 1 12
REMARK SMILES IDX 33 13 23 14 20 15 6 16 7 17 19 18 21 19 8 20 18 21 17 22
REMARK SMILES IDX 10 23 9 24 14 25 11 26 12 27 15 28 16 29 27 30 28 31 29 32
REMARK SMILES IDX 13 33
REMARK H PARENT 13 34
REMARK Flexibility Score: inf
ROOT
ATOM      1  C   UNL     1     172.813 164.303 174.224  1.00  0.00     0.017 C 
ATOM      2  C   UNL     1     173.233 165.653 173.588  1.00  0.00     0.014 C 
ATOM      3  C   UNL     1     173.496 164.175 175.636  1.00  0.00     0.014 C 
ATOM      4  C   UNL     1     171.260 164.257 174.407  1.00  0.00     0.030 C 
ATOM      5  C   UNL     1     172.496 165.922 172.273  1.00  0.00     0.004 C 
ATOM      6  C   UNL     1     172.571 163.696 176.788  1.00  0.00     0.013 C 
ATOM      7  C   UNL     1     170.902 162.916 175.080  1.00  0.00    -0.063 C 
ATOM      8  C   UNL     1     170.430 164.688 173.141  1.00  0.00    -0.003 C 
ATOM      9  C   UNL     1     170.977 165.998 172.489  1.00  0.00    -0.011 C 
ATOM     10  C   UNL     1     171.590 162.531 176.387  1.00  0.00    -0.006 C 
ATOM     11  C   UNL     1     170.010 162.063 174.568  1.00  0.00    -0.027 C 
ATOM     12  C   UNL     1     168.924 164.862 173.463  1.00  0.00     0.008 C 
ATOM     13  C   UNL     1     170.595 167.291 173.247  1.00  0.00     0.008 C 
ATOM     14  C   UNL     1     172.479 161.272 176.131  1.00  0.00     0.017 C 
ATOM     15  C   UNL     1     170.453 162.200 177.477  1.00  0.00    -0.020 C 
ATOM     16  C   UNL     1     169.221 161.111 175.418  1.00  0.00     0.032 C 
ATOM     17  C   UNL     1     169.548 160.996 176.962  1.00  0.00     0.006 C 
ATOM     18  C   UNL     1     169.518 163.428 177.680  1.00  0.00     0.008 C 
ATOM     19  C   UNL     1     171.152 161.840 178.833  1.00  0.00     0.012 C 
ATOM     20  C   UNL     1     168.211 160.670 177.801  1.00  0.00    -0.025 C 
ATOM     21  C   UNL     1     168.278 163.148 178.537  1.00  0.00     0.005 C 
ATOM     22  C   UNL     1     167.366 161.991 178.022  1.00  0.00     0.003 C 
ATOM     23  C   UNL     1     168.525 160.020 179.189  1.00  0.00     0.010 C 
ATOM     24  C   UNL     1     167.419 159.585 176.985  1.00  0.00     0.012 C 
ATOM     25  C   UNL     1     166.083 161.806 178.959  1.00  0.00    -0.006 C 
ATOM     26  C   UNL     1     167.288 159.791 180.079  1.00  0.00     0.033 C 
ATOM     27  C   UNL     1     166.482 161.086 180.290  1.00  0.00     0.120 C 
ATOM     28  C   UNL     1     164.949 161.037 178.216  1.00  0.00     0.014 C 
ATOM     29  C   UNL     1     165.463 163.185 179.330  1.00  0.00     0.014 C 
ENDROOT
BRANCH   1  30
ATOM     30  C   UNL     1     173.330 163.187 173.315  1.00  0.00     0.048 C 
ATOM     31  O   UNL     1     174.459 162.654 173.497  1.00  0.00    -0.550 OA
ATOM     32  O   UNL     1     172.524 162.701 172.292  1.00  0.00    -0.550 OA
ENDBRANCH   1  30
BRANCH  27  33
ATOM     33  O   UNL     1     165.360 160.850 181.110  1.00  0.00    -0.393 OA
ATOM     34  H   UNL     1     165.334 159.883 181.331  1.00  0.00     0.210 HD
ENDBRANCH  27  33
TORSDOF 2
ENDMDL
MODEL 9
REMARK VINA RESULT:    -5.815      2.229      7.935
REMARK INTER + INTRA:          -6.140
REMARK INTER:                  -6.317
REMARK INTRA:                   0.178
REMARK UNBOUND:                 0.185
REMARK SMILES C[C@@H]1[C@H]2C3=CC[C@@H]4[C@@]5(C)CC[C@H](O)C(C)(C)[C@H]5CC[C@]4(C)[C@]3(C)CC[C@]2(C(=O)[O-])CC[C@@H]1C
REMARK SMILES IDX 26 1 30 2 25 3 3 4 31 5 24 6 4 7 2 8 32 9 22 10 5 11 1 12
REMARK SMILES IDX 33 13 23 14 20 15 6 16 7 17 19 18 21 19 8 20 18 21 17 22
REMARK SMILES IDX 10 23 9 24 14 25 11 26 12 27 15 28 16 29 27 30 28 31 29 32
REMARK SMILES IDX 13 33
REMARK H PARENT 13 34
REMARK Flexibility Score: inf
ROOT
ATOM      1  C   UNL     1     176.695 165.587 168.978  1.00  0.00     0.017 C 
ATOM      2  C   UNL     1     177.164 164.995 167.624  1.00  0.00     0.014 C 
ATOM      3  C   UNL     1     177.290 167.037 169.129  1.00  0.00     0.014 C 
ATOM      4  C   UNL     1     175.134 165.675 169.013  1.00  0.00     0.030 C 
ATOM      5  C   UNL     1     176.511 163.640 167.334  1.00  0.00     0.004 C 
ATOM      6  C   UNL     1     176.292 168.124 169.613  1.00  0.00     0.013 C 
ATOM      7  C   UNL     1     174.725 166.308 170.358  1.00  0.00    -0.063 C 
ATOM      8  C   UNL     1     174.387 164.365 168.559  1.00  0.00    -0.003 C 
ATOM      9  C   UNL     1     174.983 163.764 167.247  1.00  0.00    -0.011 C 
ATOM     10  C   UNL     1     175.328 167.649 170.764  1.00  0.00    -0.006 C 
ATOM     11  C   UNL     1     173.858 165.732 171.197  1.00  0.00    -0.027 C 
ATOM     12  C   UNL     1     172.865 164.597 168.376  1.00  0.00     0.008 C 
ATOM     13  C   UNL     1     174.565 164.513 165.959  1.00  0.00     0.008 C 
ATOM     14  C   UNL     1     176.221 167.433 172.028  1.00  0.00     0.017 C 
ATOM     15  C   UNL     1     174.125 168.664 171.098  1.00  0.00    -0.020 C 
ATOM     16  C   UNL     1     173.011 166.521 172.152  1.00  0.00     0.032 C 
ATOM     17  C   UNL     1     173.242 168.080 172.288  1.00  0.00     0.006 C 
ATOM     18  C   UNL     1     173.189 168.824 169.865  1.00  0.00     0.008 C 
ATOM     19  C   UNL     1     174.736 170.056 171.480  1.00  0.00     0.012 C 
ATOM     20  C   UNL     1     171.854 168.832 172.611  1.00  0.00    -0.025 C 
ATOM     21  C   UNL     1     171.896 169.601 170.143  1.00  0.00     0.005 C 
ATOM     22  C   UNL     1     171.008 169.017 171.285  1.00  0.00     0.003 C 
ATOM     23  C   UNL     1     172.077 170.229 173.281  1.00  0.00     0.010 C 
ATOM     24  C   UNL     1     171.105 167.956 173.680  1.00  0.00     0.012 C 
ATOM     25  C   UNL     1     169.669 169.871 171.471  1.00  0.00    -0.006 C 
ATOM     26  C   UNL     1     170.786 171.039 173.509  1.00  0.00     0.033 C 
ATOM     27  C   UNL     1     169.980 171.216 172.209  1.00  0.00     0.120 C 
ATOM     28  C   UNL     1     168.576 169.051 172.221  1.00  0.00     0.014 C 
ATOM     29  C   UNL     1     169.039 170.221 170.091  1.00  0.00     0.014 C 
ENDROOT
BRANCH   1  30
ATOM     30  C   UNL     1     177.258 164.698 170.089  1.00  0.00     0.048 C 
ATOM     31  O   UNL     1     176.657 163.657 170.472  1.00  0.00    -0.550 OA
ATOM     32  O   UNL     1     178.487 165.004 170.661  1.00  0.00    -0.550 OA
ENDBRANCH   1  30
BRANCH  27  33
ATOM     33  O   UNL     1     168.808 171.963 172.445  1.00  0.00    -0.393 OA
ATOM     34  H   UNL     1     168.860 172.344 173.360  1.00  0.00     0.210 HD
ENDBRANCH  27  33
TORSDOF 2
ENDMDL
