MODEL 1
REMARK VINA RESULT:    -4.948      0.000      0.000
REMARK INTER + INTRA:          -5.367
REMARK INTER:                  -5.237
REMARK INTRA:                  -0.130
REMARK UNBOUND:                -0.130
REMARK SMILES C=C(C)[C@H]1CC=C(C)CC1
REMARK SMILES IDX 8 1 7 2 6 3 5 4 4 5 10 6 9 7 2 8 1 9 3 10
REMARK H PARENT
REMARK Flexibility Score: inf
ROOT
ATOM      1  C   UNL     1       9.376  10.125  29.928  1.00  0.00     0.039 C 
ATOM      2  C   UNL     1       9.521   8.652  29.656  1.00  0.00    -0.077 C 
ATOM      3  C   UNL     1       9.166   7.771  30.616  1.00  0.00    -0.027 C 
ATOM      4  C   UNL     1       9.325   6.279  30.460  1.00  0.00     0.035 C 
ATOM      5  C   UNL     1       9.381   5.852  28.982  1.00  0.00     0.018 C 
ATOM      6  C   UNL     1      10.381   6.736  28.222  1.00  0.00     0.013 C 
ATOM      7  C   UNL     1       9.933   8.202  28.268  1.00  0.00     0.031 C 
ENDROOT
BRANCH   5   8
ATOM      8  C   UNL     1       9.714   4.371  28.840  1.00  0.00    -0.077 C 
ATOM      9  C   UNL     1      10.146   3.648  29.887  1.00  0.00     0.008 C 
ATOM     10  C   UNL     1       9.568   3.689  27.504  1.00  0.00     0.039 C 
ENDBRANCH   5   8
TORSDOF 1
ENDMDL
MODEL 2
REMARK VINA RESULT:    -4.457     14.820     15.700
REMARK INTER + INTRA:          -4.848
REMARK INTER:                  -4.721
REMARK INTRA:                  -0.127
REMARK UNBOUND:                -0.130
REMARK SMILES C=C(C)[C@H]1CC=C(C)CC1
REMARK SMILES IDX 8 1 7 2 6 3 5 4 4 5 10 6 9 7 2 8 1 9 3 10
REMARK H PARENT
REMARK Flexibility Score: inf
ROOT
ATOM      1  C   UNL     1       2.680   8.609  16.107  1.00  0.00     0.039 C 
ATOM      2  C   UNL     1       3.892   8.151  15.344  1.00  0.00    -0.077 C 
ATOM      3  C   UNL     1       5.063   8.799  15.525  1.00  0.00    -0.027 C 
ATOM      4  C   UNL     1       6.320   8.451  14.767  1.00  0.00     0.035 C 
ATOM      5  C   UNL     1       6.294   7.009  14.229  1.00  0.00     0.018 C 
ATOM      6  C   UNL     1       4.961   6.743  13.515  1.00  0.00     0.013 C 
ATOM      7  C   UNL     1       3.794   6.896  14.498  1.00  0.00     0.031 C 
ENDROOT
BRANCH   5   8
ATOM      8  C   UNL     1       7.487   6.728  13.323  1.00  0.00    -0.077 C 
ATOM      9  C   UNL     1       7.899   5.472  13.079  1.00  0.00     0.008 C 
ATOM     10  C   UNL     1       8.235   7.869  12.684  1.00  0.00     0.039 C 
ENDBRANCH   5   8
TORSDOF 1
ENDMDL
MODEL 3
REMARK VINA RESULT:    -4.453     14.294     15.747
REMARK INTER + INTRA:          -4.843
REMARK INTER:                  -4.718
REMARK INTRA:                  -0.126
REMARK UNBOUND:                -0.130
REMARK SMILES C=C(C)[C@H]1CC=C(C)CC1
REMARK SMILES IDX 8 1 7 2 6 3 5 4 4 5 10 6 9 7 2 8 1 9 3 10
REMARK H PARENT
REMARK Flexibility Score: inf
ROOT
ATOM      1  C   UNL     1       3.757   6.727  16.970  1.00  0.00     0.039 C 
ATOM      2  C   UNL     1       4.759   6.819  15.852  1.00  0.00    -0.077 C 
ATOM      3  C   UNL     1       4.331   6.696  14.577  1.00  0.00    -0.027 C 
ATOM      4  C   UNL     1       5.263   6.721  13.391  1.00  0.00     0.035 C 
ATOM      5  C   UNL     1       6.590   7.433  13.710  1.00  0.00     0.018 C 
ATOM      6  C   UNL     1       7.165   6.898  15.030  1.00  0.00     0.013 C 
ATOM      7  C   UNL     1       6.194   7.180  16.183  1.00  0.00     0.031 C 
ENDROOT
BRANCH   5   8
ATOM      8  C   UNL     1       7.586   7.299  12.564  1.00  0.00    -0.077 C 
ATOM      9  C   UNL     1       7.864   6.104  12.015  1.00  0.00     0.008 C 
ATOM     10  C   UNL     1       8.287   8.520  12.027  1.00  0.00     0.039 C 
ENDBRANCH   5   8
TORSDOF 1
ENDMDL
MODEL 4
REMARK VINA RESULT:    -4.379      7.536      8.999
REMARK INTER + INTRA:          -4.765
REMARK INTER:                  -4.643
REMARK INTRA:                  -0.122
REMARK UNBOUND:                -0.130
REMARK SMILES C=C(C)[C@H]1CC=C(C)CC1
REMARK SMILES IDX 8 1 7 2 6 3 5 4 4 5 10 6 9 7 2 8 1 9 3 10
REMARK H PARENT
REMARK Flexibility Score: inf
ROOT
ATOM      1  C   UNL     1      19.125   9.308  25.278  1.00  0.00     0.039 C 
ATOM      2  C   UNL     1      17.742   9.064  24.737  1.00  0.00    -0.077 C 
ATOM      3  C   UNL     1      16.944  10.123  24.481  1.00  0.00    -0.027 C 
ATOM      4  C   UNL     1      15.524   9.981  23.989  1.00  0.00     0.035 C 
ATOM      5  C   UNL     1      15.281   8.626  23.299  1.00  0.00     0.018 C 
ATOM      6  C   UNL     1      15.825   7.489  24.177  1.00  0.00     0.013 C 
ATOM      7  C   UNL     1      17.338   7.649  24.372  1.00  0.00     0.031 C 
ENDROOT
BRANCH   5   8
ATOM      8  C   UNL     1      13.807   8.426  22.964  1.00  0.00    -0.077 C 
ATOM      9  C   UNL     1      13.396   8.259  21.696  1.00  0.00     0.008 C 
ATOM     10  C   UNL     1      12.777   8.418  24.064  1.00  0.00     0.039 C 
ENDBRANCH   5   8
TORSDOF 1
ENDMDL
MODEL 5
REMARK VINA RESULT:    -4.358      2.738      4.174
REMARK INTER + INTRA:          -4.742
REMARK INTER:                  -4.614
REMARK INTRA:                  -0.128
REMARK UNBOUND:                -0.130
REMARK SMILES C=C(C)[C@H]1CC=C(C)CC1
REMARK SMILES IDX 8 1 7 2 6 3 5 4 4 5 10 6 9 7 2 8 1 9 3 10
REMARK H PARENT
REMARK Flexibility Score: inf
ROOT
ATOM      1  C   UNL     1      14.580   7.764  25.565  1.00  0.00     0.039 C 
ATOM      2  C   UNL     1      13.363   7.121  26.172  1.00  0.00    -0.077 C 
ATOM      3  C   UNL     1      12.146   7.644  25.908  1.00  0.00    -0.027 C 
ATOM      4  C   UNL     1      10.872   7.106  26.511  1.00  0.00     0.035 C 
ATOM      5  C   UNL     1      11.018   5.643  26.967  1.00  0.00     0.018 C 
ATOM      6  C   UNL     1      12.298   5.482  27.800  1.00  0.00     0.013 C 
ATOM      7  C   UNL     1      13.528   5.832  26.953  1.00  0.00     0.031 C 
ENDROOT
BRANCH   5   8
ATOM      8  C   UNL     1       9.785   5.169  27.728  1.00  0.00    -0.077 C 
ATOM      9  C   UNL     1       9.013   6.029  28.413  1.00  0.00     0.008 C 
ATOM     10  C   UNL     1       9.413   3.709  27.729  1.00  0.00     0.039 C 
ENDBRANCH   5   8
TORSDOF 1
ENDMDL
MODEL 6
REMARK VINA RESULT:    -4.342      2.110      3.813
REMARK INTER + INTRA:          -4.725
REMARK INTER:                  -4.596
REMARK INTRA:                  -0.129
REMARK UNBOUND:                -0.130
REMARK SMILES C=C(C)[C@H]1CC=C(C)CC1
REMARK SMILES IDX 8 1 7 2 6 3 5 4 4 5 10 6 9 7 2 8 1 9 3 10
REMARK H PARENT
REMARK Flexibility Score: inf
ROOT
ATOM      1  C   UNL     1      13.092   7.406  24.942  1.00  0.00     0.039 C 
ATOM      2  C   UNL     1      12.223   7.087  26.128  1.00  0.00    -0.077 C 
ATOM      3  C   UNL     1      11.323   8.004  26.545  1.00  0.00    -0.027 C 
ATOM      4  C   UNL     1      10.445   7.801  27.755  1.00  0.00     0.035 C 
ATOM      5  C   UNL     1      10.270   6.311  28.103  1.00  0.00     0.018 C 
ATOM      6  C   UNL     1      11.639   5.616  28.118  1.00  0.00     0.013 C 
ATOM      7  C   UNL     1      12.290   5.699  26.733  1.00  0.00     0.031 C 
ENDROOT
BRANCH   5   8
ATOM      8  C   UNL     1       9.527   6.128  29.421  1.00  0.00    -0.077 C 
ATOM      9  C   UNL     1       9.371   4.913  29.972  1.00  0.00     0.008 C 
ATOM     10  C   UNL     1       8.945   7.322  30.132  1.00  0.00     0.039 C 
ENDBRANCH   5   8
TORSDOF 1
ENDMDL
MODEL 7
REMARK VINA RESULT:    -4.307     14.455     16.164
REMARK INTER + INTRA:          -4.688
REMARK INTER:                  -4.567
REMARK INTRA:                  -0.122
REMARK UNBOUND:                -0.130
REMARK SMILES C=C(C)[C@H]1CC=C(C)CC1
REMARK SMILES IDX 8 1 7 2 6 3 5 4 4 5 10 6 9 7 2 8 1 9 3 10
REMARK H PARENT
REMARK Flexibility Score: inf
ROOT
ATOM      1  C   UNL     1       6.812   5.251  10.875  1.00  0.00     0.039 C 
ATOM      2  C   UNL     1       6.642   6.014  12.161  1.00  0.00    -0.077 C 
ATOM      3  C   UNL     1       7.740   6.469  12.802  1.00  0.00    -0.027 C 
ATOM      4  C   UNL     1       7.679   7.195  14.123  1.00  0.00     0.035 C 
ATOM      5  C   UNL     1       6.301   7.837  14.369  1.00  0.00     0.018 C 
ATOM      6  C   UNL     1       5.192   6.812  14.092  1.00  0.00     0.013 C 
ATOM      7  C   UNL     1       5.242   6.361  12.627  1.00  0.00     0.031 C 
ENDROOT
BRANCH   5   8
ATOM      8  C   UNL     1       6.198   8.417  15.775  1.00  0.00    -0.077 C 
ATOM      9  C   UNL     1       5.993   9.729  15.977  1.00  0.00     0.008 C 
ATOM     10  C   UNL     1       6.332   7.515  16.975  1.00  0.00     0.039 C 
ENDBRANCH   5   8
TORSDOF 1
ENDMDL
MODEL 8
REMARK VINA RESULT:    -4.303     14.129     15.792
REMARK INTER + INTRA:          -4.685
REMARK INTER:                  -4.558
REMARK INTRA:                  -0.127
REMARK UNBOUND:                -0.130
REMARK SMILES C=C(C)[C@H]1CC=C(C)CC1
REMARK SMILES IDX 8 1 7 2 6 3 5 4 4 5 10 6 9 7 2 8 1 9 3 10
REMARK H PARENT
REMARK Flexibility Score: inf
ROOT
ATOM      1  C   UNL     1       6.781   5.584  10.876  1.00  0.00     0.039 C 
ATOM      2  C   UNL     1       6.533   6.053  12.284  1.00  0.00    -0.077 C 
ATOM      3  C   UNL     1       5.268   6.330  12.668  1.00  0.00    -0.027 C 
ATOM      4  C   UNL     1       4.923   6.857  14.039  1.00  0.00     0.035 C 
ATOM      5  C   UNL     1       6.007   6.521  15.080  1.00  0.00     0.018 C 
ATOM      6  C   UNL     1       7.392   6.889  14.527  1.00  0.00     0.013 C 
ATOM      7  C   UNL     1       7.690   6.073  13.263  1.00  0.00     0.031 C 
ENDROOT
BRANCH   5   8
ATOM      8  C   UNL     1       5.731   7.205  16.414  1.00  0.00    -0.077 C 
ATOM      9  C   UNL     1       6.656   7.979  17.007  1.00  0.00     0.008 C 
ATOM     10  C   UNL     1       4.403   7.015  17.100  1.00  0.00     0.039 C 
ENDBRANCH   5   8
TORSDOF 1
ENDMDL
MODEL 9
REMARK VINA RESULT:    -4.291      2.073      3.478
REMARK INTER + INTRA:          -4.671
REMARK INTER:                  -4.543
REMARK INTRA:                  -0.128
REMARK UNBOUND:                -0.130
REMARK SMILES C=C(C)[C@H]1CC=C(C)CC1
REMARK SMILES IDX 8 1 7 2 6 3 5 4 4 5 10 6 9 7 2 8 1 9 3 10
REMARK H PARENT
REMARK Flexibility Score: inf
ROOT
ATOM      1  C   UNL     1      12.803   8.617  25.402  1.00  0.00     0.039 C 
ATOM      2  C   UNL     1      12.022   7.657  26.257  1.00  0.00    -0.077 C 
ATOM      3  C   UNL     1      12.402   6.361  26.300  1.00  0.00    -0.027 C 
ATOM      4  C   UNL     1      11.652   5.312  27.083  1.00  0.00     0.035 C 
ATOM      5  C   UNL     1      10.811   5.923  28.218  1.00  0.00     0.018 C 
ATOM      6  C   UNL     1       9.987   7.102  27.679  1.00  0.00     0.013 C 
ATOM      7  C   UNL     1      10.918   8.198  27.144  1.00  0.00     0.031 C 
ENDROOT
BRANCH   5   8
ATOM      8  C   UNL     1       9.929   4.876  28.887  1.00  0.00    -0.077 C 
ATOM      9  C   UNL     1       9.494   3.797  28.216  1.00  0.00     0.008 C 
ATOM     10  C   UNL     1       9.521   5.042  30.329  1.00  0.00     0.039 C 
ENDBRANCH   5   8
TORSDOF 1
ENDMDL
