MODEL 1
REMARK VINA RESULT:    -3.611      0.000      0.000
REMARK INTER + INTRA:          -8.169
REMARK INTER:                  -6.355
REMARK INTRA:                  -1.815
REMARK UNBOUND:                -1.815
REMARK SMILES CCCCCCCCCCCCCCC(=O)[O-]
REMARK SMILES IDX 9 1 10 2 11 3 12 4 13 5 14 6 15 7 16 8 17 9 8 10 7 11 6 12
REMARK SMILES IDX 5 13 4 14 3 15 2 16 1 17
REMARK H PARENT
REMARK Flexibility Score: inf
ROOT
ATOM      1  C   UNL     1       6.316  -7.839   6.469  1.00  0.00     0.000 C 
ENDROOT
BRANCH   1   2
ATOM      2  C   UNL     1       5.412  -8.598   7.451  1.00  0.00     0.000 C 
BRANCH   2   3
ATOM      3  C   UNL     1       4.200  -9.253   6.765  1.00  0.00     0.000 C 
BRANCH   3   4
ATOM      4  C   UNL     1       4.404 -10.722   6.341  1.00  0.00     0.000 C 
BRANCH   4   5
ATOM      5  C   UNL     1       4.912 -10.923   4.899  1.00  0.00     0.006 C 
BRANCH   5   6
ATOM      6  C   UNL     1       3.865 -10.633   3.811  1.00  0.00     0.053 C 
BRANCH   6   7
ATOM      7  C   UNL     1       4.262  -9.476   2.946  1.00  0.00     0.041 C 
ATOM      8  O   UNL     1       5.344  -8.868   3.158  1.00  0.00    -0.550 OA
ATOM      9  O   UNL     1       3.420  -9.047   1.928  1.00  0.00    -0.550 OA
ENDBRANCH   6   7
ENDBRANCH   5   6
ENDBRANCH   4   5
ENDBRANCH   3   4
ENDBRANCH   2   3
ENDBRANCH   1   2
BRANCH   1  10
ATOM     10  C   UNL     1       7.601  -8.626   6.185  1.00  0.00     0.000 C 
BRANCH  10  11
ATOM     11  C   UNL     1       8.231  -9.140   7.485  1.00  0.00    -0.000 C 
BRANCH  11  12
ATOM     12  C   UNL     1       9.382  -8.233   7.936  1.00  0.00    -0.000 C 
BRANCH  12  13
ATOM     13  C   UNL     1       9.296  -7.944   9.443  1.00  0.00    -0.000 C 
BRANCH  13  14
ATOM     14  C   UNL     1       9.173  -6.444   9.752  1.00  0.00    -0.000 C 
BRANCH  14  15
ATOM     15  C   UNL     1       9.049  -5.586   8.480  1.00  0.00    -0.000 C 
BRANCH  15  16
ATOM     16  C   UNL     1       7.668  -4.926   8.348  1.00  0.00    -0.003 C 
ATOM     17  C   UNL     1       6.642  -5.504   9.324  1.00  0.00     0.004 C 
ENDBRANCH  15  16
ENDBRANCH  14  15
ENDBRANCH  13  14
ENDBRANCH  12  13
ENDBRANCH  11  12
ENDBRANCH  10  11
ENDBRANCH   1  10
TORSDOF 13
ENDMDL
MODEL 2
REMARK VINA RESULT:    -3.587      1.864      3.881
REMARK INTER + INTRA:          -8.127
REMARK INTER:                  -6.397
REMARK INTRA:                  -1.730
REMARK UNBOUND:                -1.815
REMARK SMILES CCCCCCCCCCCCCCC(=O)[O-]
REMARK SMILES IDX 9 1 10 2 11 3 12 4 13 5 14 6 15 7 16 8 17 9 8 10 7 11 6 12
REMARK SMILES IDX 5 13 4 14 3 15 2 16 1 17
REMARK H PARENT
REMARK Flexibility Score: inf
ROOT
ATOM      1  C   UNL     1       6.454  -7.683   6.387  1.00  0.00     0.000 C 
ENDROOT
BRANCH   1   2
ATOM      2  C   UNL     1       6.996  -9.117   6.476  1.00  0.00     0.000 C 
BRANCH   2   3
ATOM      3  C   UNL     1       5.884 -10.180   6.431  1.00  0.00     0.000 C 
BRANCH   3   4
ATOM      4  C   UNL     1       4.462  -9.630   6.204  1.00  0.00     0.000 C 
BRANCH   4   5
ATOM      5  C   UNL     1       3.619 -10.399   5.168  1.00  0.00     0.006 C 
BRANCH   5   6
ATOM      6  C   UNL     1       4.347 -10.686   3.845  1.00  0.00     0.053 C 
BRANCH   6   7
ATOM      7  C   UNL     1       4.443  -9.465   2.982  1.00  0.00     0.041 C 
ATOM      8  O   UNL     1       3.552  -9.221   2.128  1.00  0.00    -0.550 OA
ATOM      9  O   UNL     1       5.537  -8.616   3.099  1.00  0.00    -0.550 OA
ENDBRANCH   6   7
ENDBRANCH   5   6
ENDBRANCH   4   5
ENDBRANCH   3   4
ENDBRANCH   2   3
ENDBRANCH   1   2
BRANCH   1  10
ATOM     10  C   UNL     1       6.907  -6.848   7.590  1.00  0.00     0.000 C 
BRANCH  10  11
ATOM     11  C   UNL     1       6.420  -7.466   8.906  1.00  0.00    -0.000 C 
BRANCH  11  12
ATOM     12  C   UNL     1       5.843  -6.394   9.838  1.00  0.00    -0.000 C 
BRANCH  12  13
ATOM     13  C   UNL     1       4.308  -6.454   9.861  1.00  0.00    -0.000 C 
BRANCH  13  14
ATOM     14  C   UNL     1       3.757  -7.738   9.220  1.00  0.00    -0.000 C 
BRANCH  14  15
ATOM     15  C   UNL     1       2.281  -7.605   8.805  1.00  0.00    -0.000 C 
BRANCH  15  16
ATOM     16  C   UNL     1       1.594  -8.969   8.631  1.00  0.00    -0.003 C 
ATOM     17  C   UNL     1       2.381 -10.112   9.272  1.00  0.00     0.004 C 
ENDBRANCH  15  16
ENDBRANCH  14  15
ENDBRANCH  13  14
ENDBRANCH  12  13
ENDBRANCH  11  12
ENDBRANCH  10  11
ENDBRANCH   1  10
TORSDOF 13
ENDMDL
MODEL 3
REMARK VINA RESULT:    -3.381      1.643      3.448
REMARK INTER + INTRA:          -7.764
REMARK INTER:                  -6.102
REMARK INTRA:                  -1.662
REMARK UNBOUND:                -1.815
REMARK SMILES CCCCCCCCCCCCCCC(=O)[O-]
REMARK SMILES IDX 9 1 10 2 11 3 12 4 13 5 14 6 15 7 16 8 17 9 8 10 7 11 6 12
REMARK SMILES IDX 5 13 4 14 3 15 2 16 1 17
REMARK H PARENT
REMARK Flexibility Score: inf
ROOT
ATOM      1  C   UNL     1       2.661  -8.294   7.877  1.00  0.00     0.000 C 
ENDROOT
BRANCH   1   2
ATOM      2  C   UNL     1       1.922  -9.622   7.655  1.00  0.00     0.000 C 
BRANCH   2   3
ATOM      3  C   UNL     1       2.679 -10.579   6.718  1.00  0.00     0.000 C 
BRANCH   3   4
ATOM      4  C   UNL     1       4.142 -10.186   6.427  1.00  0.00     0.000 C 
BRANCH   4   5
ATOM      5  C   UNL     1       4.697 -10.682   5.076  1.00  0.00     0.006 C 
BRANCH   5   6
ATOM      6  C   UNL     1       3.728 -10.519   3.894  1.00  0.00     0.053 C 
BRANCH   6   7
ATOM      7  C   UNL     1       4.181  -9.455   2.941  1.00  0.00     0.041 C 
ATOM      8  O   UNL     1       3.494  -9.184   1.922  1.00  0.00    -0.550 OA
ATOM      9  O   UNL     1       5.380  -8.789   3.161  1.00  0.00    -0.550 OA
ENDBRANCH   6   7
ENDBRANCH   5   6
ENDBRANCH   4   5
ENDBRANCH   3   4
ENDBRANCH   2   3
ENDBRANCH   1   2
BRANCH   1  10
ATOM     10  C   UNL     1       2.481  -7.799   9.317  1.00  0.00     0.000 C 
BRANCH  10  11
ATOM     11  C   UNL     1       3.754  -7.114   9.827  1.00  0.00    -0.000 C 
BRANCH  11  12
ATOM     12  C   UNL     1       4.992  -7.626   9.081  1.00  0.00    -0.000 C 
BRANCH  12  13
ATOM     13  C   UNL     1       6.158  -6.633   9.205  1.00  0.00    -0.000 C 
BRANCH  13  14
ATOM     14  C   UNL     1       7.026  -6.580   7.937  1.00  0.00    -0.000 C 
BRANCH  14  15
ATOM     15  C   UNL     1       6.490  -7.486   6.815  1.00  0.00    -0.000 C 
BRANCH  15  16
ATOM     16  C   UNL     1       7.498  -8.572   6.405  1.00  0.00    -0.003 C 
ATOM     17  C   UNL     1       7.729  -9.607   7.505  1.00  0.00     0.004 C 
ENDBRANCH  15  16
ENDBRANCH  14  15
ENDBRANCH  13  14
ENDBRANCH  12  13
ENDBRANCH  11  12
ENDBRANCH  10  11
ENDBRANCH   1  10
TORSDOF 13
ENDMDL
MODEL 4
REMARK VINA RESULT:    -3.336     17.173     19.023
REMARK INTER + INTRA:          -7.686
REMARK INTER:                  -6.120
REMARK INTRA:                  -1.566
REMARK UNBOUND:                -1.815
REMARK SMILES CCCCCCCCCCCCCCC(=O)[O-]
REMARK SMILES IDX 9 1 10 2 11 3 12 4 13 5 14 6 15 7 16 8 17 9 8 10 7 11 6 12
REMARK SMILES IDX 5 13 4 14 3 15 2 16 1 17
REMARK H PARENT
REMARK Flexibility Score: inf
ROOT
ATOM      1  C   UNL     1      -4.485 -10.818  -8.266  1.00  0.00     0.000 C 
ENDROOT
BRANCH   1   2
ATOM      2  C   UNL     1      -5.437 -10.365  -9.381  1.00  0.00     0.000 C 
BRANCH   2   3
ATOM      3  C   UNL     1      -6.915 -10.648  -9.058  1.00  0.00     0.000 C 
BRANCH   3   4
ATOM      4  C   UNL     1      -7.713  -9.437  -8.534  1.00  0.00     0.000 C 
BRANCH   4   5
ATOM      5  C   UNL     1      -7.193  -8.061  -8.995  1.00  0.00     0.006 C 
BRANCH   5   6
ATOM      6  C   UNL     1      -7.139  -6.998  -7.886  1.00  0.00     0.053 C 
BRANCH   6   7
ATOM      7  C   UNL     1      -8.251  -6.002  -8.010  1.00  0.00     0.041 C 
ATOM      8  O   UNL     1      -9.231  -6.237  -8.764  1.00  0.00    -0.550 OA
ATOM      9  O   UNL     1      -8.187  -4.798  -7.321  1.00  0.00    -0.550 OA
ENDBRANCH   6   7
ENDBRANCH   5   6
ENDBRANCH   4   5
ENDBRANCH   3   4
ENDBRANCH   2   3
ENDBRANCH   1   2
BRANCH   1  10
ATOM     10  C   UNL     1      -3.652  -9.641  -7.743  1.00  0.00     0.000 C 
BRANCH  10  11
ATOM     11  C   UNL     1      -4.340  -8.964  -6.552  1.00  0.00    -0.000 C 
BRANCH  11  12
ATOM     12  C   UNL     1      -4.869 -10.005  -5.558  1.00  0.00    -0.000 C 
BRANCH  12  13
ATOM     13  C   UNL     1      -6.304  -9.670  -5.123  1.00  0.00    -0.000 C 
BRANCH  13  14
ATOM     14  C   UNL     1      -6.389  -9.221  -3.656  1.00  0.00    -0.000 C 
BRANCH  14  15
ATOM     15  C   UNL     1      -7.792  -9.419  -3.057  1.00  0.00    -0.000 C 
BRANCH  15  16
ATOM     16  C   UNL     1      -7.909 -10.722  -2.251  1.00  0.00    -0.003 C 
ATOM     17  C   UNL     1      -8.951 -10.634  -1.136  1.00  0.00     0.004 C 
ENDBRANCH  15  16
ENDBRANCH  14  15
ENDBRANCH  13  14
ENDBRANCH  12  13
ENDBRANCH  11  12
ENDBRANCH  10  11
ENDBRANCH   1  10
TORSDOF 13
ENDMDL
MODEL 5
REMARK VINA RESULT:    -3.326      2.267      4.521
REMARK INTER + INTRA:          -7.668
REMARK INTER:                  -6.060
REMARK INTRA:                  -1.608
REMARK UNBOUND:                -1.815
REMARK SMILES CCCCCCCCCCCCCCC(=O)[O-]
REMARK SMILES IDX 9 1 10 2 11 3 12 4 13 5 14 6 15 7 16 8 17 9 8 10 7 11 6 12
REMARK SMILES IDX 5 13 4 14 3 15 2 16 1 17
REMARK H PARENT
REMARK Flexibility Score: inf
ROOT
ATOM      1  C   UNL     1       7.426  -9.160   8.062  1.00  0.00     0.000 C 
ENDROOT
BRANCH   1   2
ATOM      2  C   UNL     1       7.812  -8.658   6.663  1.00  0.00     0.000 C 
BRANCH   2   3
ATOM      3  C   UNL     1       6.721  -7.785   6.018  1.00  0.00     0.000 C 
BRANCH   3   4
ATOM      4  C   UNL     1       6.295  -8.214   4.599  1.00  0.00     0.000 C 
BRANCH   4   5
ATOM      5  C   UNL     1       5.084  -9.167   4.539  1.00  0.00     0.006 C 
BRANCH   5   6
ATOM      6  C   UNL     1       4.949  -9.940   3.217  1.00  0.00     0.053 C 
BRANCH   6   7
ATOM      7  C   UNL     1       3.641  -9.665   2.540  1.00  0.00     0.041 C 
ATOM      8  O   UNL     1       3.402  -8.525   2.062  1.00  0.00    -0.550 OA
ATOM      9  O   UNL     1       2.673 -10.659   2.467  1.00  0.00    -0.550 OA
ENDBRANCH   6   7
ENDBRANCH   5   6
ENDBRANCH   4   5
ENDBRANCH   3   4
ENDBRANCH   2   3
ENDBRANCH   1   2
BRANCH   1  10
ATOM     10  C   UNL     1       6.135  -9.986   8.012  1.00  0.00     0.000 C 
BRANCH  10  11
ATOM     11  C   UNL     1       5.200  -9.618   9.170  1.00  0.00    -0.000 C 
BRANCH  11  12
ATOM     12  C   UNL     1       5.150  -8.100   9.377  1.00  0.00    -0.000 C 
BRANCH  12  13
ATOM     13  C   UNL     1       3.699  -7.594   9.394  1.00  0.00    -0.000 C 
BRANCH  13  14
ATOM     14  C   UNL     1       2.865  -8.153   8.231  1.00  0.00    -0.000 C 
BRANCH  14  15
ATOM     15  C   UNL     1       1.631  -8.938   8.711  1.00  0.00    -0.000 C 
BRANCH  15  16
ATOM     16  C   UNL     1       1.324 -10.153   7.822  1.00  0.00    -0.003 C 
ATOM     17  C   UNL     1       2.269 -10.263   6.626  1.00  0.00     0.004 C 
ENDBRANCH  15  16
ENDBRANCH  14  15
ENDBRANCH  13  14
ENDBRANCH  12  13
ENDBRANCH  11  12
ENDBRANCH  10  11
ENDBRANCH   1  10
TORSDOF 13
ENDMDL
MODEL 6
REMARK VINA RESULT:    -3.296     16.793     19.506
REMARK INTER + INTRA:          -7.616
REMARK INTER:                  -6.216
REMARK INTRA:                  -1.400
REMARK UNBOUND:                -1.815
REMARK SMILES CCCCCCCCCCCCCCC(=O)[O-]
REMARK SMILES IDX 9 1 10 2 11 3 12 4 13 5 14 6 15 7 16 8 17 9 8 10 7 11 6 12
REMARK SMILES IDX 5 13 4 14 3 15 2 16 1 17
REMARK H PARENT
REMARK Flexibility Score: inf
ROOT
ATOM      1  C   UNL     1      -9.743  -8.384  -5.500  1.00  0.00     0.000 C 
ENDROOT
BRANCH   1   2
ATOM      2  C   UNL     1      -9.229  -8.631  -6.926  1.00  0.00     0.000 C 
BRANCH   2   3
ATOM      3  C   UNL     1     -10.121  -7.987  -8.003  1.00  0.00     0.000 C 
BRANCH   3   4
ATOM      4  C   UNL     1      -9.433  -7.746  -9.362  1.00  0.00     0.000 C 
BRANCH   4   5
ATOM      5  C   UNL     1      -7.909  -7.521  -9.294  1.00  0.00     0.006 C 
BRANCH   5   6
ATOM      6  C   UNL     1      -7.486  -6.043  -9.267  1.00  0.00     0.053 C 
BRANCH   6   7
ATOM      7  C   UNL     1      -7.269  -5.548  -7.870  1.00  0.00     0.041 C 
ATOM      8  O   UNL     1      -8.109  -4.780  -7.332  1.00  0.00    -0.550 OA
ATOM      9  O   UNL     1      -6.122  -5.908  -7.175  1.00  0.00    -0.550 OA
ENDBRANCH   6   7
ENDBRANCH   5   6
ENDBRANCH   4   5
ENDBRANCH   3   4
ENDBRANCH   2   3
ENDBRANCH   1   2
BRANCH   1  10
ATOM     10  C   UNL     1      -9.390  -9.558  -4.579  1.00  0.00     0.000 C 
BRANCH  10  11
ATOM     11  C   UNL     1      -8.559  -9.087  -3.380  1.00  0.00    -0.000 C 
BRANCH  11  12
ATOM     12  C   UNL     1      -7.309  -9.958  -3.201  1.00  0.00    -0.000 C 
BRANCH  12  13
ATOM     13  C   UNL     1      -6.058  -9.240  -3.730  1.00  0.00    -0.000 C 
BRANCH  13  14
ATOM     14  C   UNL     1      -5.462  -9.927  -4.969  1.00  0.00    -0.000 C 
BRANCH  14  15
ATOM     15  C   UNL     1      -5.958  -9.306  -6.286  1.00  0.00    -0.000 C 
BRANCH  15  16
ATOM     16  C   UNL     1      -4.863  -9.260  -7.364  1.00  0.00    -0.003 C 
ATOM     17  C   UNL     1      -3.497  -8.872  -6.800  1.00  0.00     0.004 C 
ENDBRANCH  15  16
ENDBRANCH  14  15
ENDBRANCH  13  14
ENDBRANCH  12  13
ENDBRANCH  11  12
ENDBRANCH  10  11
ENDBRANCH   1  10
TORSDOF 13
ENDMDL
MODEL 7
REMARK VINA RESULT:    -3.242      3.138      5.889
REMARK INTER + INTRA:          -7.521
REMARK INTER:                  -5.578
REMARK INTRA:                  -1.943
REMARK UNBOUND:                -1.815
REMARK SMILES CCCCCCCCCCCCCCC(=O)[O-]
REMARK SMILES IDX 9 1 10 2 11 3 12 4 13 5 14 6 15 7 16 8 17 9 8 10 7 11 6 12
REMARK SMILES IDX 5 13 4 14 3 15 2 16 1 17
REMARK H PARENT
REMARK Flexibility Score: inf
ROOT
ATOM      1  C   UNL     1       5.480  -8.825   4.000  1.00  0.00     0.000 C 
ENDROOT
BRANCH   1   2
ATOM      2  C   UNL     1       6.696  -8.055   4.537  1.00  0.00     0.000 C 
BRANCH   2   3
ATOM      3  C   UNL     1       6.545  -7.653   6.015  1.00  0.00     0.000 C 
BRANCH   3   4
ATOM      4  C   UNL     1       7.614  -8.234   6.962  1.00  0.00     0.000 C 
BRANCH   4   5
ATOM      5  C   UNL     1       7.696  -7.562   8.348  1.00  0.00     0.006 C 
BRANCH   5   6
ATOM      6  C   UNL     1       7.008  -6.191   8.430  1.00  0.00     0.053 C 
BRANCH   6   7
ATOM      7  C   UNL     1       7.992  -5.064   8.347  1.00  0.00     0.041 C 
ATOM      8  O   UNL     1       7.591  -3.884   8.169  1.00  0.00    -0.550 OA
ATOM      9  O   UNL     1       9.354  -5.323   8.432  1.00  0.00    -0.550 OA
ENDBRANCH   6   7
ENDBRANCH   5   6
ENDBRANCH   4   5
ENDBRANCH   3   4
ENDBRANCH   2   3
ENDBRANCH   1   2
BRANCH   1  10
ATOM     10  C   UNL     1       5.179 -10.051   4.870  1.00  0.00     0.000 C 
BRANCH  10  11
ATOM     11  C   UNL     1       3.669 -10.287   4.986  1.00  0.00    -0.000 C 
BRANCH  11  12
ATOM     12  C   UNL     1       3.182 -10.048   6.421  1.00  0.00    -0.000 C 
BRANCH  12  13
ATOM     13  C   UNL     1       4.283 -10.388   7.438  1.00  0.00    -0.000 C 
BRANCH  13  14
ATOM     14  C   UNL     1       4.385  -9.350   8.566  1.00  0.00    -0.000 C 
BRANCH  14  15
ATOM     15  C   UNL     1       3.649  -8.040   8.234  1.00  0.00    -0.000 C 
BRANCH  15  16
ATOM     16  C   UNL     1       2.656  -7.628   9.332  1.00  0.00    -0.003 C 
ATOM     17  C   UNL     1       1.376  -8.463   9.312  1.00  0.00     0.004 C 
ENDBRANCH  15  16
ENDBRANCH  14  15
ENDBRANCH  13  14
ENDBRANCH  12  13
ENDBRANCH  11  12
ENDBRANCH  10  11
ENDBRANCH   1  10
TORSDOF 13
ENDMDL
MODEL 8
REMARK VINA RESULT:    -3.219     17.064     19.387
REMARK INTER + INTRA:          -7.480
REMARK INTER:                  -5.805
REMARK INTRA:                  -1.675
REMARK UNBOUND:                -1.815
REMARK SMILES CCCCCCCCCCCCCCC(=O)[O-]
REMARK SMILES IDX 9 1 10 2 11 3 12 4 13 5 14 6 15 7 16 8 17 9 8 10 7 11 6 12
REMARK SMILES IDX 5 13 4 14 3 15 2 16 1 17
REMARK H PARENT
REMARK Flexibility Score: inf
ROOT
ATOM      1  C   UNL     1      -4.603  -9.721  -5.451  1.00  0.00     0.000 C 
ENDROOT
BRANCH   1   2
ATOM      2  C   UNL     1      -4.707  -9.055  -6.831  1.00  0.00     0.000 C 
BRANCH   2   3
ATOM      3  C   UNL     1      -6.138  -8.597  -7.167  1.00  0.00     0.000 C 
BRANCH   3   4
ATOM      4  C   UNL     1      -6.514  -8.671  -8.661  1.00  0.00     0.000 C 
BRANCH   4   5
ATOM      5  C   UNL     1      -7.725  -7.813  -9.075  1.00  0.00     0.006 C 
BRANCH   5   6
ATOM      6  C   UNL     1      -8.308  -6.950  -7.944  1.00  0.00     0.053 C 
BRANCH   6   7
ATOM      7  C   UNL     1      -7.801  -5.542  -7.995  1.00  0.00     0.041 C 
ATOM      8  O   UNL     1      -8.318  -4.655  -7.266  1.00  0.00    -0.550 OA
ATOM      9  O   UNL     1      -6.780  -5.201  -8.874  1.00  0.00    -0.550 OA
ENDBRANCH   6   7
ENDBRANCH   5   6
ENDBRANCH   4   5
ENDBRANCH   3   4
ENDBRANCH   2   3
ENDBRANCH   1   2
BRANCH   1  10
ATOM     10  C   UNL     1      -5.992 -10.061  -4.898  1.00  0.00     0.000 C 
BRANCH  10  11
ATOM     11  C   UNL     1      -6.310  -9.224  -3.654  1.00  0.00    -0.000 C 
BRANCH  11  12
ATOM     12  C   UNL     1      -7.180 -10.012  -2.667  1.00  0.00    -0.000 C 
BRANCH  12  13
ATOM     13  C   UNL     1      -8.587 -10.245  -3.240  1.00  0.00    -0.000 C 
BRANCH  13  14
ATOM     14  C   UNL     1      -9.323  -8.933  -3.552  1.00  0.00    -0.000 C 
BRANCH  14  15
ATOM     15  C   UNL     1      -9.690  -8.800  -5.040  1.00  0.00    -0.000 C 
BRANCH  15  16
ATOM     16  C   UNL     1     -10.108 -10.141  -5.665  1.00  0.00    -0.003 C 
ATOM     17  C   UNL     1      -9.327 -10.467  -6.938  1.00  0.00     0.004 C 
ENDBRANCH  15  16
ENDBRANCH  14  15
ENDBRANCH  13  14
ENDBRANCH  12  13
ENDBRANCH  11  12
ENDBRANCH  10  11
ENDBRANCH   1  10
TORSDOF 13
ENDMDL
MODEL 9
REMARK VINA RESULT:    -3.118      3.328      4.591
REMARK INTER + INTRA:          -7.302
REMARK INTER:                  -5.742
REMARK INTRA:                  -1.560
REMARK UNBOUND:                -1.815
REMARK SMILES CCCCCCCCCCCCCCC(=O)[O-]
REMARK SMILES IDX 9 1 10 2 11 3 12 4 13 5 14 6 15 7 16 8 17 9 8 10 7 11 6 12
REMARK SMILES IDX 5 13 4 14 3 15 2 16 1 17
REMARK H PARENT
REMARK Flexibility Score: inf
ROOT
ATOM      1  C   UNL     1       3.972 -10.005   4.849  1.00  0.00     0.000 C 
ENDROOT
BRANCH   1   2
ATOM      2  C   UNL     1       3.112 -10.590   5.979  1.00  0.00     0.000 C 
BRANCH   2   3
ATOM      3  C   UNL     1       2.888  -9.598   7.135  1.00  0.00     0.000 C 
BRANCH   3   4
ATOM      4  C   UNL     1       3.687  -9.901   8.419  1.00  0.00     0.000 C 
BRANCH   4   5
ATOM      5  C   UNL     1       3.597  -8.821   9.516  1.00  0.00     0.006 C 
BRANCH   5   6
ATOM      6  C   UNL     1       3.344  -7.400   8.989  1.00  0.00     0.053 C 
BRANCH   6   7
ATOM      7  C   UNL     1       2.176  -6.750   9.667  1.00  0.00     0.041 C 
ATOM      8  O   UNL     1       1.113  -7.397   9.855  1.00  0.00    -0.550 OA
ATOM      9  O   UNL     1       2.251  -5.420  10.060  1.00  0.00    -0.550 OA
ENDBRANCH   6   7
ENDBRANCH   5   6
ENDBRANCH   4   5
ENDBRANCH   3   4
ENDBRANCH   2   3
ENDBRANCH   1   2
BRANCH   1  10
ATOM     10  C   UNL     1       5.441  -9.898   5.276  1.00  0.00     0.000 C 
BRANCH  10  11
ATOM     11  C   UNL     1       6.049  -8.564   4.828  1.00  0.00    -0.000 C 
BRANCH  11  12
ATOM     12  C   UNL     1       6.542  -7.752   6.032  1.00  0.00    -0.000 C 
BRANCH  12  13
ATOM     13  C   UNL     1       7.463  -8.597   6.926  1.00  0.00    -0.000 C 
BRANCH  13  14
ATOM     14  C   UNL     1       8.097  -7.780   8.062  1.00  0.00    -0.000 C 
BRANCH  14  15
ATOM     15  C   UNL     1       7.056  -7.261   9.070  1.00  0.00    -0.000 C 
BRANCH  15  16
ATOM     16  C   UNL     1       6.822  -5.747   8.947  1.00  0.00    -0.003 C 
ATOM     17  C   UNL     1       7.941  -5.037   8.186  1.00  0.00     0.004 C 
ENDBRANCH  15  16
ENDBRANCH  14  15
ENDBRANCH  13  14
ENDBRANCH  12  13
ENDBRANCH  11  12
ENDBRANCH  10  11
ENDBRANCH   1  10
TORSDOF 13
ENDMDL
