MODEL 1
REMARK VINA RESULT:    11.842      0.000      0.000
REMARK INTER + INTRA:          13.485
REMARK INTER:                  12.881
REMARK INTRA:                   0.605
REMARK UNBOUND:                 0.605
REMARK SMILES C[C@H]1[C@@H](C)CC[C@]2(C(=O)[O-])CC[C@]3(C)C(=CC[C@H]4[C@]5(C)CC[C@@H](O)C(C)(C)[C@@H]5CC[C@]43C)[C@@H]12
REMARK SMILES IDX 7 1 6 2 11 3 33 4 5 5 12 6 15 7 2 8 3 9 13 10 16 11 1 12
REMARK SMILES IDX 4 13 14 14 31 15 17 16 18 17 30 18 32 19 19 20 29 21 28 22
REMARK SMILES IDX 21 23 20 24 25 25 22 26 23 27 26 28 27 29 8 30 9 31 10 32
REMARK SMILES IDX 24 33
REMARK H PARENT 24 34
REMARK Flexibility Score: inf
ROOT
ATOM      1  C   UNL     1     -14.598  21.790   8.537  1.00  0.00     0.017 C 
ATOM      2  C   UNL     1     -13.986  21.884   7.100  1.00  0.00     0.014 C 
ATOM      3  C   UNL     1     -15.854  20.876   8.456  1.00  0.00     0.014 C 
ATOM      4  C   UNL     1     -15.003  23.236   8.980  1.00  0.00     0.030 C 
ATOM      5  C   UNL     1     -12.838  22.902   6.974  1.00  0.00     0.004 C 
ATOM      6  C   UNL     1     -16.800  20.963   9.679  1.00  0.00     0.013 C 
ATOM      7  C   UNL     1     -15.931  23.216  10.208  1.00  0.00    -0.063 C 
ATOM      8  C   UNL     1     -13.787  24.230   8.957  1.00  0.00    -0.003 C 
ATOM      9  C   UNL     1     -13.240  24.298   7.501  1.00  0.00    -0.011 C 
ATOM     10  C   UNL     1     -17.234  22.416  10.095  1.00  0.00    -0.006 C 
ATOM     11  C   UNL     1     -15.577  23.793  11.362  1.00  0.00    -0.027 C 
ATOM     12  C   UNL     1     -12.644  23.944   9.974  1.00  0.00     0.008 C 
ATOM     13  C   UNL     1     -12.082  25.298   7.346  1.00  0.00     0.008 C 
ATOM     14  C   UNL     1     -18.082  23.034   8.925  1.00  0.00     0.017 C 
ATOM     15  C   UNL     1     -18.106  22.428  11.473  1.00  0.00    -0.020 C 
ATOM     16  C   UNL     1     -15.975  23.258  12.696  1.00  0.00     0.032 C 
ATOM     17  C   UNL     1     -17.174  22.255  12.738  1.00  0.00     0.006 C 
ATOM     18  C   UNL     1     -18.957  23.744  11.651  1.00  0.00     0.008 C 
ATOM     19  C   UNL     1     -19.120  21.244  11.373  1.00  0.00     0.012 C 
ATOM     20  C   UNL     1     -17.912  22.316  14.167  1.00  0.00    -0.025 C 
ATOM     21  C   UNL     1     -18.849  24.495  12.991  1.00  0.00     0.005 C 
ATOM     22  C   UNL     1     -18.763  23.657  14.317  1.00  0.00     0.003 C 
ATOM     23  C   UNL     1     -18.732  20.979  14.436  1.00  0.00     0.010 C 
ATOM     24  C   UNL     1     -16.795  22.313  15.275  1.00  0.00     0.012 C 
ATOM     25  C   UNL     1     -20.119  23.518  15.124  1.00  0.00    -0.006 C 
ATOM     26  C   UNL     1     -20.268  21.017  14.641  1.00  0.00     0.033 C 
ATOM     27  C   UNL     1     -20.956  22.381  14.502  1.00  0.00     0.120 C 
ATOM     28  C   UNL     1     -20.947  24.835  15.100  1.00  0.00     0.014 C 
ATOM     29  C   UNL     1     -19.838  23.235  16.629  1.00  0.00     0.014 C 
ENDROOT
BRANCH   1  30
ATOM     30  C   UNL     1     -13.623  21.129   9.507  1.00  0.00     0.048 C 
ATOM     31  O   UNL     1     -13.964  20.875  10.695  1.00  0.00    -0.550 OA
ATOM     32  O   UNL     1     -12.311  20.876   9.126  1.00  0.00    -0.550 OA
ENDBRANCH   1  30
BRANCH  27  33
ATOM     33  O   UNL     1     -22.220  22.296  15.119  1.00  0.00    -0.393 OA
ATOM     34  H   UNL     1     -22.403  23.171  15.553  1.00  0.00     0.210 HD
ENDBRANCH  27  33
TORSDOF 2
ENDMDL
MODEL 2
REMARK VINA RESULT:    13.034      2.064      8.032
REMARK INTER + INTRA:          14.782
REMARK INTER:                  14.203
REMARK INTRA:                   0.580
REMARK UNBOUND:                 0.605
REMARK SMILES C[C@H]1[C@@H](C)CC[C@]2(C(=O)[O-])CC[C@]3(C)C(=CC[C@H]4[C@]5(C)CC[C@@H](O)C(C)(C)[C@@H]5CC[C@]43C)[C@@H]12
REMARK SMILES IDX 7 1 6 2 11 3 33 4 5 5 12 6 15 7 2 8 3 9 13 10 16 11 1 12
REMARK SMILES IDX 4 13 14 14 31 15 17 16 18 17 30 18 32 19 19 20 29 21 28 22
REMARK SMILES IDX 21 23 20 24 25 25 22 26 23 27 26 28 27 29 8 30 9 31 10 32
REMARK SMILES IDX 24 33
REMARK H PARENT 24 34
REMARK Flexibility Score: inf
ROOT
ATOM      1  C   UNL     1     -19.079  21.822  16.467  1.00  0.00     0.017 C 
ATOM      2  C   UNL     1     -19.003  21.943  18.024  1.00  0.00     0.014 C 
ATOM      3  C   UNL     1     -17.922  20.890  16.008  1.00  0.00     0.014 C 
ATOM      4  C   UNL     1     -18.896  23.256  15.865  1.00  0.00     0.030 C 
ATOM      5  C   UNL     1     -19.973  22.980  18.620  1.00  0.00     0.004 C 
ATOM      6  C   UNL     1     -17.602  20.948  14.494  1.00  0.00     0.013 C 
ATOM      7  C   UNL     1     -18.596  23.206  14.356  1.00  0.00    -0.063 C 
ATOM      8  C   UNL     1     -19.973  24.269  16.398  1.00  0.00    -0.003 C 
ATOM      9  C   UNL     1     -19.830  24.363  17.946  1.00  0.00    -0.011 C 
ATOM     10  C   UNL     1     -17.382  22.389  13.904  1.00  0.00    -0.006 C 
ATOM     11  C   UNL     1     -19.413  23.775  13.462  1.00  0.00    -0.027 C 
ATOM     12  C   UNL     1     -21.447  23.987  15.986  1.00  0.00     0.008 C 
ATOM     13  C   UNL     1     -20.796  25.382  18.572  1.00  0.00     0.008 C 
ATOM     14  C   UNL     1     -16.103  23.008  14.577  1.00  0.00     0.017 C 
ATOM     15  C   UNL     1     -17.197  22.370  12.284  1.00  0.00    -0.020 C 
ATOM     16  C   UNL     1     -19.642  23.217  12.097  1.00  0.00     0.032 C 
ATOM     17  C   UNL     1     -18.589  22.195  11.555  1.00  0.00     0.006 C 
ATOM     18  C   UNL     1     -16.498  23.671  11.730  1.00  0.00     0.008 C 
ATOM     19  C   UNL     1     -16.250  21.172  11.954  1.00  0.00     0.012 C 
ATOM     20  C   UNL     1     -18.547  22.227   9.947  1.00  0.00    -0.025 C 
ATOM     21  C   UNL     1     -17.173  24.407  10.557  1.00  0.00     0.005 C 
ATOM     22  C   UNL     1     -17.835  23.553   9.416  1.00  0.00     0.003 C 
ATOM     23  C   UNL     1     -17.937  20.875   9.372  1.00  0.00     0.010 C 
ATOM     24  C   UNL     1     -20.035  22.227   9.436  1.00  0.00     0.012 C 
ATOM     25  C   UNL     1     -16.968  23.384   8.102  1.00  0.00    -0.006 C 
ATOM     26  C   UNL     1     -16.643  20.887   8.516  1.00  0.00     0.033 C 
ATOM     27  C   UNL     1     -15.953  22.242   8.317  1.00  0.00     0.120 C 
ATOM     28  C   UNL     1     -16.202  24.688   7.739  1.00  0.00     0.014 C 
ATOM     29  C   UNL     1     -17.879  23.086   6.875  1.00  0.00     0.014 C 
ENDROOT
BRANCH   1  30
ATOM     30  C   UNL     1     -20.385  21.164  16.030  1.00  0.00     0.048 C 
ATOM     31  O   UNL     1     -20.622  20.941  14.811  1.00  0.00    -0.550 OA
ATOM     32  O   UNL     1     -21.377  20.878  16.960  1.00  0.00    -0.550 OA
ENDBRANCH   1  30
BRANCH  27  33
ATOM     33  O   UNL     1     -15.085  22.131   7.213  1.00  0.00    -0.393 OA
ATOM     34  H   UNL     1     -14.186  21.888   7.559  1.00  0.00     0.210 HD
ENDBRANCH  27  33
TORSDOF 2
ENDMDL
