MODEL 1
REMARK VINA RESULT:    -5.811      0.000      0.000
REMARK INTER + INTRA:          -6.249
REMARK INTER:                  -6.151
REMARK INTRA:                  -0.098
REMARK UNBOUND:                -0.098
REMARK SMILES C=C(C)[C@H]1CC=C(C)C(=O)C1
REMARK SMILES IDX 8 1 7 2 6 3 5 4 4 5 11 6 9 7 10 8 2 9 1 10 3 11
REMARK H PARENT
REMARK Flexibility Score: inf
ROOT
ATOM      1  C   UNL     1       7.604  19.776  24.397  1.00  0.00     0.048 C 
ATOM      2  C   UNL     1       8.947  20.440  24.261  1.00  0.00    -0.012 C 
ATOM      3  C   UNL     1       9.078  21.748  24.542  1.00  0.00    -0.019 C 
ATOM      4  C   UNL     1      10.395  22.465  24.404  1.00  0.00     0.036 C 
ATOM      5  C   UNL     1      11.574  21.525  24.718  1.00  0.00     0.025 C 
ATOM      6  C   UNL     1      11.503  20.266  23.836  1.00  0.00     0.089 C 
ATOM      7  C   UNL     1      10.145  19.625  23.938  1.00  0.00     0.158 C 
ATOM      8  O   UNL     1      10.030  18.391  23.709  1.00  0.00    -0.295 OA
ENDROOT
BRANCH   5   9
ATOM      9  C   UNL     1      12.911  22.238  24.563  1.00  0.00    -0.077 C 
ATOM     10  C   UNL     1      13.783  21.836  23.624  1.00  0.00     0.008 C 
ATOM     11  C   UNL     1      13.289  23.401  25.447  1.00  0.00     0.039 C 
ENDBRANCH   5   9
TORSDOF 1
ENDMDL
MODEL 2
REMARK VINA RESULT:    -5.480      1.707      4.840
REMARK INTER + INTRA:          -5.899
REMARK INTER:                  -5.800
REMARK INTRA:                  -0.098
REMARK UNBOUND:                -0.098
REMARK SMILES C=C(C)[C@H]1CC=C(C)C(=O)C1
REMARK SMILES IDX 8 1 7 2 6 3 5 4 4 5 11 6 9 7 10 8 2 9 1 10 3 11
REMARK H PARENT
REMARK Flexibility Score: inf
ROOT
ATOM      1  C   UNL     1      13.143  21.792  24.295  1.00  0.00     0.048 C 
ATOM      2  C   UNL     1      11.786  21.159  24.154  1.00  0.00    -0.012 C 
ATOM      3  C   UNL     1      11.670  19.820  24.149  1.00  0.00    -0.019 C 
ATOM      4  C   UNL     1      10.338  19.135  23.992  1.00  0.00     0.036 C 
ATOM      5  C   UNL     1       9.208  19.968  24.626  1.00  0.00     0.025 C 
ATOM      6  C   UNL     1       9.202  21.393  24.043  1.00  0.00     0.089 C 
ATOM      7  C   UNL     1      10.570  22.011  24.145  1.00  0.00     0.158 C 
ATOM      8  O   UNL     1      10.675  23.266  24.185  1.00  0.00    -0.295 OA
ENDROOT
BRANCH   5   9
ATOM      9  C   UNL     1       7.854  19.291  24.455  1.00  0.00    -0.077 C 
ATOM     10  C   UNL     1       6.940  19.815  23.623  1.00  0.00     0.008 C 
ATOM     11  C   UNL     1       7.506  18.029  25.205  1.00  0.00     0.039 C 
ENDBRANCH   5   9
TORSDOF 1
ENDMDL
MODEL 3
REMARK VINA RESULT:    -5.006      1.420      2.058
REMARK INTER + INTRA:          -5.397
REMARK INTER:                  -5.302
REMARK INTRA:                  -0.095
REMARK UNBOUND:                -0.098
REMARK SMILES C=C(C)[C@H]1CC=C(C)C(=O)C1
REMARK SMILES IDX 8 1 7 2 6 3 5 4 4 5 11 6 9 7 10 8 2 9 1 10 3 11
REMARK H PARENT
REMARK Flexibility Score: inf
ROOT
ATOM      1  C   UNL     1       7.548  19.078  24.014  1.00  0.00     0.048 C 
ATOM      2  C   UNL     1       8.881  19.739  24.232  1.00  0.00    -0.012 C 
ATOM      3  C   UNL     1      10.003  19.140  23.797  1.00  0.00    -0.019 C 
ATOM      4  C   UNL     1      11.365  19.750  24.006  1.00  0.00     0.036 C 
ATOM      5  C   UNL     1      11.294  21.288  23.976  1.00  0.00     0.025 C 
ATOM      6  C   UNL     1      10.266  21.796  25.003  1.00  0.00     0.089 C 
ATOM      7  C   UNL     1       8.944  21.103  24.813  1.00  0.00     0.158 C 
ATOM      8  O   UNL     1       7.889  21.682  25.189  1.00  0.00    -0.295 OA
ENDROOT
BRANCH   5   9
ATOM      9  C   UNL     1      12.664  21.913  24.205  1.00  0.00    -0.077 C 
ATOM     10  C   UNL     1      13.732  21.460  23.530  1.00  0.00     0.008 C 
ATOM     11  C   UNL     1      12.858  23.046  25.183  1.00  0.00     0.039 C 
ENDBRANCH   5   9
TORSDOF 1
ENDMDL
MODEL 4
REMARK VINA RESULT:    -4.599      1.337      4.374
REMARK INTER + INTRA:          -4.966
REMARK INTER:                  -4.871
REMARK INTRA:                  -0.095
REMARK UNBOUND:                -0.098
REMARK SMILES C=C(C)[C@H]1CC=C(C)C(=O)C1
REMARK SMILES IDX 8 1 7 2 6 3 5 4 4 5 11 6 9 7 10 8 2 9 1 10 3 11
REMARK H PARENT
REMARK Flexibility Score: inf
ROOT
ATOM      1  C   UNL     1      13.201  22.673  24.235  1.00  0.00     0.048 C 
ATOM      2  C   UNL     1      11.898  21.936  24.380  1.00  0.00    -0.012 C 
ATOM      3  C   UNL     1      10.739  22.571  24.137  1.00  0.00    -0.019 C 
ATOM      4  C   UNL     1       9.407  21.885  24.285  1.00  0.00     0.036 C 
ATOM      5  C   UNL     1       9.511  20.389  23.934  1.00  0.00     0.025 C 
ATOM      6  C   UNL     1      10.609  19.717  24.779  1.00  0.00     0.089 C 
ATOM      7  C   UNL     1      11.902  20.480  24.668  1.00  0.00     0.158 C 
ATOM      8  O   UNL     1      12.990  19.873  24.861  1.00  0.00    -0.295 OA
ENDROOT
BRANCH   5   9
ATOM      9  C   UNL     1       8.172  19.683  24.099  1.00  0.00    -0.077 C 
ATOM     10  C   UNL     1       7.057  20.226  23.585  1.00  0.00     0.008 C 
ATOM     11  C   UNL     1       8.061  18.370  24.834  1.00  0.00     0.039 C 
ENDBRANCH   5   9
TORSDOF 1
ENDMDL
MODEL 5
REMARK VINA RESULT:    -4.132     11.748     12.954
REMARK INTER + INTRA:          -4.472
REMARK INTER:                  -4.373
REMARK INTRA:                  -0.099
REMARK UNBOUND:                -0.098
REMARK SMILES C=C(C)[C@H]1CC=C(C)C(=O)C1
REMARK SMILES IDX 8 1 7 2 6 3 5 4 4 5 11 6 9 7 10 8 2 9 1 10 3 11
REMARK H PARENT
REMARK Flexibility Score: inf
ROOT
ATOM      1  C   UNL     1      13.468  15.963  16.326  1.00  0.00     0.048 C 
ATOM      2  C   UNL     1      14.461  14.957  15.811  1.00  0.00    -0.012 C 
ATOM      3  C   UNL     1      15.684  15.360  15.429  1.00  0.00    -0.019 C 
ATOM      4  C   UNL     1      16.709  14.397  14.889  1.00  0.00     0.036 C 
ATOM      5  C   UNL     1      16.563  13.009  15.541  1.00  0.00     0.025 C 
ATOM      6  C   UNL     1      15.126  12.486  15.369  1.00  0.00     0.089 C 
ATOM      7  C   UNL     1      14.131  13.510  15.844  1.00  0.00     0.158 C 
ATOM      8  O   UNL     1      12.996  13.126  16.236  1.00  0.00    -0.295 OA
ENDROOT
BRANCH   5   9
ATOM      9  C   UNL     1      17.584  12.023  14.987  1.00  0.00    -0.077 C 
ATOM     10  C   UNL     1      17.174  10.876  14.423  1.00  0.00     0.008 C 
ATOM     11  C   UNL     1      19.065  12.305  15.052  1.00  0.00     0.039 C 
ENDBRANCH   5   9
TORSDOF 1
ENDMDL
MODEL 6
REMARK VINA RESULT:    -4.130     10.131     11.291
REMARK INTER + INTRA:          -4.470
REMARK INTER:                  -4.376
REMARK INTRA:                  -0.094
REMARK UNBOUND:                -0.098
REMARK SMILES C=C(C)[C@H]1CC=C(C)C(=O)C1
REMARK SMILES IDX 8 1 7 2 6 3 5 4 4 5 11 6 9 7 10 8 2 9 1 10 3 11
REMARK H PARENT
REMARK Flexibility Score: inf
ROOT
ATOM      1  C   UNL     1       4.161  14.602  14.066  1.00  0.00     0.048 C 
ATOM      2  C   UNL     1       5.369  15.391  14.492  1.00  0.00    -0.012 C 
ATOM      3  C   UNL     1       6.594  15.001  14.098  1.00  0.00    -0.019 C 
ATOM      4  C   UNL     1       7.838  15.744  14.511  1.00  0.00     0.036 C 
ATOM      5  C   UNL     1       7.559  17.251  14.662  1.00  0.00     0.025 C 
ATOM      6  C   UNL     1       6.392  17.484  15.639  1.00  0.00     0.089 C 
ATOM      7  C   UNL     1       5.197  16.662  15.238  1.00  0.00     0.158 C 
ATOM      8  O   UNL     1       4.045  17.047  15.578  1.00  0.00    -0.295 OA
ENDROOT
BRANCH   5   9
ATOM      9  C   UNL     1       8.807  18.007  15.098  1.00  0.00    -0.077 C 
ATOM     10  C   UNL     1       9.970  17.814  14.455  1.00  0.00     0.008 C 
ATOM     11  C   UNL     1       8.774  18.984  16.248  1.00  0.00     0.039 C 
ENDBRANCH   5   9
TORSDOF 1
ENDMDL
MODEL 7
REMARK VINA RESULT:    -4.118     11.912     13.518
REMARK INTER + INTRA:          -4.457
REMARK INTER:                  -4.359
REMARK INTRA:                  -0.098
REMARK UNBOUND:                -0.098
REMARK SMILES C=C(C)[C@H]1CC=C(C)C(=O)C1
REMARK SMILES IDX 8 1 7 2 6 3 5 4 4 5 11 6 9 7 10 8 2 9 1 10 3 11
REMARK H PARENT
REMARK Flexibility Score: inf
ROOT
ATOM      1  C   UNL     1      19.313  12.096  15.023  1.00  0.00     0.048 C 
ATOM      2  C   UNL     1      17.901  12.606  15.113  1.00  0.00    -0.012 C 
ATOM      3  C   UNL     1      16.873  11.741  15.064  1.00  0.00    -0.019 C 
ATOM      4  C   UNL     1      15.441  12.201  15.131  1.00  0.00     0.036 C 
ATOM      5  C   UNL     1      15.302  13.457  16.012  1.00  0.00     0.025 C 
ATOM      6  C   UNL     1      16.245  14.566  15.513  1.00  0.00     0.089 C 
ATOM      7  C   UNL     1      17.651  14.044  15.381  1.00  0.00     0.158 C 
ATOM      8  O   UNL     1      18.615  14.852  15.463  1.00  0.00    -0.295 OA
ENDROOT
BRANCH   5   9
ATOM      9  C   UNL     1      13.859  13.939  16.070  1.00  0.00    -0.077 C 
ATOM     10  C   UNL     1      13.591  15.241  16.261  1.00  0.00     0.008 C 
ATOM     11  C   UNL     1      12.702  12.982  15.916  1.00  0.00     0.039 C 
ENDBRANCH   5   9
TORSDOF 1
ENDMDL
MODEL 8
REMARK VINA RESULT:    -4.004     11.234     13.282
REMARK INTER + INTRA:          -4.337
REMARK INTER:                  -4.238
REMARK INTRA:                  -0.099
REMARK UNBOUND:                -0.098
REMARK SMILES C=C(C)[C@H]1CC=C(C)C(=O)C1
REMARK SMILES IDX 8 1 7 2 6 3 5 4 4 5 11 6 9 7 10 8 2 9 1 10 3 11
REMARK H PARENT
REMARK Flexibility Score: inf
ROOT
ATOM      1  C   UNL     1       7.722  17.693  15.856  1.00  0.00     0.048 C 
ATOM      2  C   UNL     1       6.577  16.861  15.348  1.00  0.00    -0.012 C 
ATOM      3  C   UNL     1       5.314  17.286  15.522  1.00  0.00    -0.019 C 
ATOM      4  C   UNL     1       4.130  16.482  15.049  1.00  0.00     0.036 C 
ATOM      5  C   UNL     1       4.471  15.693  13.771  1.00  0.00     0.025 C 
ATOM      6  C   UNL     1       5.715  14.816  14.000  1.00  0.00     0.089 C 
ATOM      7  C   UNL     1       6.848  15.640  14.549  1.00  0.00     0.158 C 
ATOM      8  O   UNL     1       8.034  15.259  14.355  1.00  0.00    -0.295 OA
ENDROOT
BRANCH   5   9
ATOM      9  C   UNL     1       3.285  14.863  13.297  1.00  0.00    -0.077 C 
ATOM     10  C   UNL     1       3.377  13.525  13.247  1.00  0.00     0.008 C 
ATOM     11  C   UNL     1       1.990  15.512  12.875  1.00  0.00     0.039 C 
ENDBRANCH   5   9
TORSDOF 1
ENDMDL
