MODEL 1
REMARK VINA RESULT:    -5.124      0.000      0.000
REMARK INTER + INTRA:          -5.619
REMARK INTER:                  -5.574
REMARK INTRA:                  -0.045
REMARK UNBOUND:                -0.045
REMARK SMILES COc1cc2ccc(=O)oc2cc1O
REMARK SMILES IDX 3 1 13 2 12 3 11 4 5 5 4 6 6 7 7 8 8 9 9 10 10 11 2 12 1 13
REMARK SMILES IDX 14 14
REMARK H PARENT 14 15
REMARK Flexibility Score: inf
ROOT
ATOM      1  C   UNL     1      19.748  -1.276 -18.915  1.00  0.00     0.161 A 
ATOM      2  C   UNL     1      20.074  -0.033 -18.349  1.00  0.00     0.161 A 
ATOM      3  C   UNL     1      20.690   0.959 -19.124  1.00  0.00     0.098 A 
ATOM      4  C   UNL     1      20.986   0.719 -20.469  1.00  0.00     0.142 A 
ATOM      5  C   UNL     1      20.662  -0.527 -21.046  1.00  0.00     0.022 A 
ATOM      6  C   UNL     1      20.046  -1.519 -20.271  1.00  0.00     0.062 A 
ATOM      7  C   UNL     1      20.970  -0.737 -22.394  1.00  0.00     0.019 A 
ATOM      8  C   UNL     1      21.582   0.281 -23.123  1.00  0.00     0.094 A 
ATOM      9  C   UNL     1      21.875   1.491 -22.485  1.00  0.00     0.336 A 
ATOM     10  O   UNL     1      22.428   2.423 -23.125  1.00  0.00    -0.246 OA
ATOM     11  O   UNL     1      21.570   1.665 -21.201  1.00  0.00    -0.423 OA
ENDROOT
BRANCH   1  12
ATOM     12  O   UNL     1      19.133  -2.239 -18.101  1.00  0.00    -0.493 OA
ATOM     13  C   UNL     1      18.615  -3.481 -18.570  1.00  0.00     0.278 C 
ENDBRANCH   1  12
BRANCH   2  14
ATOM     14  O   UNL     1      19.780   0.209 -17.008  1.00  0.00    -0.504 OA
ATOM     15  H   UNL     1      18.867   0.535 -16.715  1.00  0.00     0.293 HD
ENDBRANCH   2  14
TORSDOF 2
ENDMDL
MODEL 2
REMARK VINA RESULT:    -5.047     15.937     17.228
REMARK INTER + INTRA:          -5.535
REMARK INTER:                  -5.489
REMARK INTRA:                  -0.046
REMARK UNBOUND:                -0.045
REMARK SMILES COc1cc2ccc(=O)oc2cc1O
REMARK SMILES IDX 3 1 13 2 12 3 11 4 5 5 4 6 6 7 7 8 8 9 9 10 10 11 2 12 1 13
REMARK SMILES IDX 14 14
REMARK H PARENT 14 15
REMARK Flexibility Score: inf
ROOT
ATOM      1  C   UNL     1       7.586  -4.297 -10.648  1.00  0.00     0.161 A 
ATOM      2  C   UNL     1       7.185  -4.355  -9.304  1.00  0.00     0.161 A 
ATOM      3  C   UNL     1       7.898  -5.137  -8.385  1.00  0.00     0.098 A 
ATOM      4  C   UNL     1       9.016  -5.866  -8.799  1.00  0.00     0.142 A 
ATOM      5  C   UNL     1       9.426  -5.814 -10.148  1.00  0.00     0.022 A 
ATOM      6  C   UNL     1       8.713  -5.032 -11.068  1.00  0.00     0.062 A 
ATOM      7  C   UNL     1      10.548  -6.555 -10.532  1.00  0.00     0.019 A 
ATOM      8  C   UNL     1      11.224  -7.317  -9.581  1.00  0.00     0.094 A 
ATOM      9  C   UNL     1      10.759  -7.322  -8.261  1.00  0.00     0.336 A 
ATOM     10  O   UNL     1      11.355  -8.003  -7.386  1.00  0.00    -0.246 OA
ATOM     11  O   UNL     1       9.690  -6.607  -7.922  1.00  0.00    -0.423 OA
ENDROOT
BRANCH   1  12
ATOM     12  O   UNL     1       6.842  -3.501 -11.533  1.00  0.00    -0.493 OA
ATOM     13  C   UNL     1       7.318  -3.031 -12.790  1.00  0.00     0.278 C 
ENDBRANCH   1  12
BRANCH   2  14
ATOM     14  O   UNL     1       6.071  -3.628  -8.888  1.00  0.00    -0.504 OA
ATOM     15  H   UNL     1       5.606  -2.969  -9.503  1.00  0.00     0.293 HD
ENDBRANCH   2  14
TORSDOF 2
ENDMDL
MODEL 3
REMARK VINA RESULT:    -4.894     15.751     18.014
REMARK INTER + INTRA:          -5.368
REMARK INTER:                  -5.323
REMARK INTRA:                  -0.045
REMARK UNBOUND:                -0.045
REMARK SMILES COc1cc2ccc(=O)oc2cc1O
REMARK SMILES IDX 3 1 13 2 12 3 11 4 5 5 4 6 6 7 7 8 8 9 9 10 10 11 2 12 1 13
REMARK SMILES IDX 14 14
REMARK H PARENT 14 15
REMARK Flexibility Score: inf
ROOT
ATOM      1  C   UNL     1       7.839  -5.167 -11.793  1.00  0.00     0.161 A 
ATOM      2  C   UNL     1       8.095  -6.523 -12.046  1.00  0.00     0.161 A 
ATOM      3  C   UNL     1       8.281  -7.419 -10.984  1.00  0.00     0.098 A 
ATOM      4  C   UNL     1       8.214  -6.969  -9.662  1.00  0.00     0.142 A 
ATOM      5  C   UNL     1       7.958  -5.606  -9.399  1.00  0.00     0.022 A 
ATOM      6  C   UNL     1       7.771  -4.710 -10.461  1.00  0.00     0.062 A 
ATOM      7  C   UNL     1       7.897  -5.185  -8.067  1.00  0.00     0.019 A 
ATOM      8  C   UNL     1       8.089  -6.114  -7.046  1.00  0.00     0.094 A 
ATOM      9  C   UNL     1       8.339  -7.449  -7.382  1.00  0.00     0.336 A 
ATOM     10  O   UNL     1       8.516  -8.304  -6.475  1.00  0.00    -0.246 OA
ATOM     11  O   UNL     1       8.391  -7.823  -8.658  1.00  0.00    -0.423 OA
ENDROOT
BRANCH   1  12
ATOM     12  O   UNL     1       7.659  -4.306 -12.887  1.00  0.00    -0.493 OA
ATOM     13  C   UNL     1       7.298  -2.932 -12.783  1.00  0.00     0.278 C 
ENDBRANCH   1  12
BRANCH   2  14
ATOM     14  O   UNL     1       8.161  -6.976 -13.362  1.00  0.00    -0.504 OA
ATOM     15  H   UNL     1       7.446  -6.744 -14.041  1.00  0.00     0.293 HD
ENDBRANCH   2  14
TORSDOF 2
ENDMDL
MODEL 4
REMARK VINA RESULT:    -4.879      1.392      5.397
REMARK INTER + INTRA:          -5.351
REMARK INTER:                  -5.297
REMARK INTRA:                  -0.055
REMARK UNBOUND:                -0.045
REMARK SMILES COc1cc2ccc(=O)oc2cc1O
REMARK SMILES IDX 3 1 13 2 12 3 11 4 5 5 4 6 6 7 7 8 8 9 9 10 10 11 2 12 1 13
REMARK SMILES IDX 14 14
REMARK H PARENT 14 15
REMARK Flexibility Score: inf
ROOT
ATOM      1  C   UNL     1      21.238   0.533 -21.339  1.00  0.00     0.161 A 
ATOM      2  C   UNL     1      20.661  -0.670 -21.773  1.00  0.00     0.161 A 
ATOM      3  C   UNL     1      19.933  -1.470 -20.881  1.00  0.00     0.098 A 
ATOM      4  C   UNL     1      19.775  -1.076 -19.550  1.00  0.00     0.142 A 
ATOM      5  C   UNL     1      20.352   0.132 -19.104  1.00  0.00     0.022 A 
ATOM      6  C   UNL     1      21.080   0.932 -19.995  1.00  0.00     0.062 A 
ATOM      7  C   UNL     1      20.177   0.500 -17.766  1.00  0.00     0.019 A 
ATOM      8  C   UNL     1      19.445  -0.329 -16.918  1.00  0.00     0.094 A 
ATOM      9  C   UNL     1      18.902  -1.513 -17.430  1.00  0.00     0.336 A 
ATOM     10  O   UNL     1      18.237  -2.276 -16.681  1.00  0.00    -0.246 OA
ATOM     11  O   UNL     1      19.083  -1.839 -18.707  1.00  0.00    -0.423 OA
ENDROOT
BRANCH   1  12
ATOM     12  O   UNL     1      21.958   1.302 -22.266  1.00  0.00    -0.493 OA
ATOM     13  C   UNL     1      21.772   2.699 -22.474  1.00  0.00     0.278 C 
ENDBRANCH   1  12
BRANCH   2  14
ATOM     14  O   UNL     1      20.816  -1.066 -23.101  1.00  0.00    -0.504 OA
ATOM     15  H   UNL     1      21.552  -0.687 -23.685  1.00  0.00     0.293 HD
ENDBRANCH   2  14
TORSDOF 2
ENDMDL
MODEL 5
REMARK VINA RESULT:    -4.841      1.726      2.714
REMARK INTER + INTRA:          -5.310
REMARK INTER:                  -5.249
REMARK INTRA:                  -0.061
REMARK UNBOUND:                -0.045
REMARK SMILES COc1cc2ccc(=O)oc2cc1O
REMARK SMILES IDX 3 1 13 2 12 3 11 4 5 5 4 6 6 7 7 8 8 9 9 10 10 11 2 12 1 13
REMARK SMILES IDX 14 14
REMARK H PARENT 14 15
REMARK Flexibility Score: inf
ROOT
ATOM      1  C   UNL     1      19.137  -1.166 -17.678  1.00  0.00     0.161 A 
ATOM      2  C   UNL     1      19.108  -2.310 -18.490  1.00  0.00     0.161 A 
ATOM      3  C   UNL     1      19.681  -2.286 -19.769  1.00  0.00     0.098 A 
ATOM      4  C   UNL     1      20.286  -1.121 -20.248  1.00  0.00     0.142 A 
ATOM      5  C   UNL     1      20.320   0.034 -19.438  1.00  0.00     0.022 A 
ATOM      6  C   UNL     1      19.748   0.010 -18.159  1.00  0.00     0.062 A 
ATOM      7  C   UNL     1      20.934   1.185 -19.944  1.00  0.00     0.019 A 
ATOM      8  C   UNL     1      21.489   1.159 -21.222  1.00  0.00     0.094 A 
ATOM      9  C   UNL     1      21.418  -0.022 -21.969  1.00  0.00     0.336 A 
ATOM     10  O   UNL     1      21.913  -0.067 -23.125  1.00  0.00    -0.246 OA
ATOM     11  O   UNL     1      20.829  -1.103 -21.463  1.00  0.00    -0.423 OA
ENDROOT
BRANCH   1  12
ATOM     12  O   UNL     1      18.552  -1.236 -16.404  1.00  0.00    -0.493 OA
ATOM     13  C   UNL     1      17.440  -0.452 -15.982  1.00  0.00     0.278 C 
ENDBRANCH   1  12
BRANCH   2  14
ATOM     14  O   UNL     1      18.505  -3.474 -18.016  1.00  0.00    -0.504 OA
ATOM     15  H   UNL     1      19.053  -4.264 -17.697  1.00  0.00     0.293 HD
ENDBRANCH   2  14
TORSDOF 2
ENDMDL
MODEL 6
REMARK VINA RESULT:    -4.801     16.265     18.300
REMARK INTER + INTRA:          -5.267
REMARK INTER:                  -5.219
REMARK INTRA:                  -0.048
REMARK UNBOUND:                -0.045
REMARK SMILES COc1cc2ccc(=O)oc2cc1O
REMARK SMILES IDX 3 1 13 2 12 3 11 4 5 5 4 6 6 7 7 8 8 9 9 10 10 11 2 12 1 13
REMARK SMILES IDX 14 14
REMARK H PARENT 14 15
REMARK Flexibility Score: inf
ROOT
ATOM      1  C   UNL     1       8.095  -6.652  -6.813  1.00  0.00     0.161 A 
ATOM      2  C   UNL     1       8.387  -7.942  -7.284  1.00  0.00     0.161 A 
ATOM      3  C   UNL     1       8.502  -8.184  -8.660  1.00  0.00     0.098 A 
ATOM      4  C   UNL     1       8.327  -7.143  -9.576  1.00  0.00     0.142 A 
ATOM      5  C   UNL     1       8.032  -5.844  -9.110  1.00  0.00     0.022 A 
ATOM      6  C   UNL     1       7.917  -5.601  -7.735  1.00  0.00     0.062 A 
ATOM      7  C   UNL     1       7.862  -4.822 -10.051  1.00  0.00     0.019 A 
ATOM      8  C   UNL     1       7.987  -5.113 -11.408  1.00  0.00     0.094 A 
ATOM      9  C   UNL     1       8.279  -6.425 -11.796  1.00  0.00     0.336 A 
ATOM     10  O   UNL     1       8.396  -6.709 -13.017  1.00  0.00    -0.246 OA
ATOM     11  O   UNL     1       8.438  -7.378 -10.881  1.00  0.00    -0.423 OA
ENDROOT
BRANCH   1  12
ATOM     12  O   UNL     1       7.989  -6.456  -5.427  1.00  0.00    -0.493 OA
ATOM     13  C   UNL     1       8.349  -5.255  -4.752  1.00  0.00     0.278 C 
ENDBRANCH   1  12
BRANCH   2  14
ATOM     14  O   UNL     1       8.564  -8.982  -6.374  1.00  0.00    -0.504 OA
ATOM     15  H   UNL     1       7.955  -9.094  -5.571  1.00  0.00     0.293 HD
ENDBRANCH   2  14
TORSDOF 2
ENDMDL
MODEL 7
REMARK VINA RESULT:    -4.721     13.949     16.514
REMARK INTER + INTRA:          -5.180
REMARK INTER:                  -5.134
REMARK INTRA:                  -0.046
REMARK UNBOUND:                -0.045
REMARK SMILES COc1cc2ccc(=O)oc2cc1O
REMARK SMILES IDX 3 1 13 2 12 3 11 4 5 5 4 6 6 7 7 8 8 9 9 10 10 11 2 12 1 13
REMARK SMILES IDX 14 14
REMARK H PARENT 14 15
REMARK Flexibility Score: inf
ROOT
ATOM      1  C   UNL     1       9.791  -7.520  -7.728  1.00  0.00     0.161 A 
ATOM      2  C   UNL     1      10.544  -6.338  -7.807  1.00  0.00     0.161 A 
ATOM      3  C   UNL     1      11.511  -6.180  -8.809  1.00  0.00     0.098 A 
ATOM      4  C   UNL     1      11.735  -7.199  -9.739  1.00  0.00     0.142 A 
ATOM      5  C   UNL     1      10.983  -8.391  -9.666  1.00  0.00     0.022 A 
ATOM      6  C   UNL     1      10.016  -8.550  -8.665  1.00  0.00     0.062 A 
ATOM      7  C   UNL     1      11.230  -9.393 -10.611  1.00  0.00     0.019 A 
ATOM      8  C   UNL     1      12.202  -9.188 -11.588  1.00  0.00     0.094 A 
ATOM      9  C   UNL     1      12.910  -7.981 -11.598  1.00  0.00     0.336 A 
ATOM     10  O   UNL     1      13.792  -7.776 -12.472  1.00  0.00    -0.246 OA
ATOM     11  O   UNL     1      12.655  -7.044 -10.689  1.00  0.00    -0.423 OA
ENDROOT
BRANCH   1  12
ATOM     12  O   UNL     1       8.833  -7.634  -6.709  1.00  0.00    -0.493 OA
ATOM     13  C   UNL     1       7.802  -8.617  -6.676  1.00  0.00     0.278 C 
ENDBRANCH   1  12
BRANCH   2  14
ATOM     14  O   UNL     1      10.322  -5.320  -6.882  1.00  0.00    -0.504 OA
ATOM     15  H   UNL     1       9.576  -5.375  -6.199  1.00  0.00     0.293 HD
ENDBRANCH   2  14
TORSDOF 2
ENDMDL
MODEL 8
REMARK VINA RESULT:    -4.706     15.964     17.346
REMARK INTER + INTRA:          -5.164
REMARK INTER:                  -5.103
REMARK INTRA:                  -0.061
REMARK UNBOUND:                -0.045
REMARK SMILES COc1cc2ccc(=O)oc2cc1O
REMARK SMILES IDX 3 1 13 2 12 3 11 4 5 5 4 6 6 7 7 8 8 9 9 10 10 11 2 12 1 13
REMARK SMILES IDX 14 14
REMARK H PARENT 14 15
REMARK Flexibility Score: inf
ROOT
ATOM      1  C   UNL     1       8.697  -6.899  -8.187  1.00  0.00     0.161 A 
ATOM      2  C   UNL     1       8.376  -5.534  -8.125  1.00  0.00     0.161 A 
ATOM      3  C   UNL     1       8.030  -4.835  -9.289  1.00  0.00     0.098 A 
ATOM      4  C   UNL     1       8.001  -5.490 -10.523  1.00  0.00     0.142 A 
ATOM      5  C   UNL     1       8.323  -6.862 -10.594  1.00  0.00     0.022 A 
ATOM      6  C   UNL     1       8.670  -7.562  -9.430  1.00  0.00     0.062 A 
ATOM      7  C   UNL     1       8.286  -7.491 -11.843  1.00  0.00     0.019 A 
ATOM      8  C   UNL     1       7.935  -6.752 -12.972  1.00  0.00     0.094 A 
ATOM      9  C   UNL     1       7.629  -5.394 -12.825  1.00  0.00     0.336 A 
ATOM     10  O   UNL     1       7.310  -4.709 -13.831  1.00  0.00    -0.246 OA
ATOM     11  O   UNL     1       7.671  -4.821 -11.625  1.00  0.00    -0.423 OA
ENDROOT
BRANCH   1  12
ATOM     12  O   UNL     1       9.038  -7.559  -6.996  1.00  0.00    -0.493 OA
ATOM     13  C   UNL     1       8.136  -8.342  -6.220  1.00  0.00     0.278 C 
ENDBRANCH   1  12
BRANCH   2  14
ATOM     14  O   UNL     1       8.403  -4.877  -6.896  1.00  0.00    -0.504 OA
ATOM     15  H   UNL     1       7.723  -5.077  -6.172  1.00  0.00     0.293 HD
ENDBRANCH   2  14
TORSDOF 2
ENDMDL
MODEL 9
REMARK VINA RESULT:    -4.706     15.924     18.503
REMARK INTER + INTRA:          -5.164
REMARK INTER:                  -5.099
REMARK INTRA:                  -0.065
REMARK UNBOUND:                -0.045
REMARK SMILES COc1cc2ccc(=O)oc2cc1O
REMARK SMILES IDX 3 1 13 2 12 3 11 4 5 5 4 6 6 7 7 8 8 9 9 10 10 11 2 12 1 13
REMARK SMILES IDX 14 14
REMARK H PARENT 14 15
REMARK Flexibility Score: inf
ROOT
ATOM      1  C   UNL     1       8.034  -6.997 -11.069  1.00  0.00     0.161 A 
ATOM      2  C   UNL     1       8.124  -5.612 -10.862  1.00  0.00     0.161 A 
ATOM      3  C   UNL     1       8.142  -5.089  -9.562  1.00  0.00     0.098 A 
ATOM      4  C   UNL     1       8.072  -5.943  -8.458  1.00  0.00     0.142 A 
ATOM      5  C   UNL     1       7.981  -7.337  -8.657  1.00  0.00     0.022 A 
ATOM      6  C   UNL     1       7.963  -7.861  -9.957  1.00  0.00     0.062 A 
ATOM      7  C   UNL     1       7.912  -8.167  -7.533  1.00  0.00     0.019 A 
ATOM      8  C   UNL     1       7.935  -7.600  -6.260  1.00  0.00     0.094 A 
ATOM      9  C   UNL     1       8.025  -6.208  -6.140  1.00  0.00     0.336 A 
ATOM     10  O   UNL     1       8.047  -5.675  -5.000  1.00  0.00    -0.246 OA
ATOM     11  O   UNL     1       8.091  -5.442  -7.226  1.00  0.00    -0.423 OA
ENDROOT
BRANCH   1  12
ATOM     12  O   UNL     1       8.019  -7.476 -12.388  1.00  0.00    -0.493 OA
ATOM     13  C   UNL     1       9.100  -8.164 -13.010  1.00  0.00     0.278 C 
ENDBRANCH   1  12
BRANCH   2  14
ATOM     14  O   UNL     1       8.194  -4.757 -11.961  1.00  0.00    -0.504 OA
ATOM     15  H   UNL     1       8.362  -3.763 -11.851  1.00  0.00     0.293 HD
ENDBRANCH   2  14
TORSDOF 2
ENDMDL
