MODEL 1
REMARK VINA RESULT:    -5.518      0.000      0.000
REMARK INTER + INTRA:          -5.680
REMARK INTER:                  -5.680
REMARK INTRA:                   0.000
REMARK UNBOUND:                 0.000
REMARK SMILES O=c1ccc2ccc(O)cc2o1
REMARK SMILES IDX 6 1 7 2 8 3 10 4 11 5 5 6 4 7 3 8 2 9 1 10 12 11 9 12
REMARK H PARENT 9 13
REMARK Flexibility Score: inf
ROOT
ATOM      1  C   UNL     1       3.172  47.416   8.325  1.00  0.00     0.016 A 
ATOM      2  C   UNL     1       4.278  48.207   7.995  1.00  0.00     0.047 A 
ATOM      3  C   UNL     1       5.494  48.039   8.666  1.00  0.00     0.119 A 
ATOM      4  C   UNL     1       5.609  47.070   9.674  1.00  0.00     0.094 A 
ATOM      5  C   UNL     1       4.509  46.273  10.011  1.00  0.00     0.142 A 
ATOM      6  C   UNL     1       3.282  46.447   9.333  1.00  0.00     0.018 A 
ATOM      7  C   UNL     1       2.201  45.637   9.691  1.00  0.00     0.019 A 
ATOM      8  C   UNL     1       2.363  44.688  10.700  1.00  0.00     0.094 A 
ATOM      9  C   UNL     1       3.607  44.572  11.329  1.00  0.00     0.336 A 
ATOM     10  O   UNL     1       3.772  43.721  12.242  1.00  0.00    -0.246 OA
ATOM     11  O   UNL     1       4.621  45.356  10.969  1.00  0.00    -0.423 OA
ENDROOT
BRANCH   3  12
ATOM     12  O   UNL     1       6.583  48.836   8.322  1.00  0.00    -0.508 OA
ATOM     13  H   UNL     1       7.257  49.138   9.016  1.00  0.00     0.293 HD
ENDBRANCH   3  12
TORSDOF 1
ENDMDL
MODEL 2
REMARK VINA RESULT:    -5.478      2.841      3.784
REMARK INTER + INTRA:          -5.639
REMARK INTER:                  -5.639
REMARK INTRA:                   0.000
REMARK UNBOUND:                 0.000
REMARK SMILES O=c1ccc2ccc(O)cc2o1
REMARK SMILES IDX 6 1 7 2 8 3 10 4 11 5 5 6 4 7 3 8 2 9 1 10 12 11 9 12
REMARK H PARENT 9 13
REMARK Flexibility Score: inf
ROOT
ATOM      1  C   UNL     1       5.519  49.842   8.489  1.00  0.00     0.016 A 
ATOM      2  C   UNL     1       6.632  49.139   8.961  1.00  0.00     0.047 A 
ATOM      3  C   UNL     1       6.552  47.761   9.193  1.00  0.00     0.119 A 
ATOM      4  C   UNL     1       5.351  47.079   8.949  1.00  0.00     0.094 A 
ATOM      5  C   UNL     1       4.232  47.774   8.476  1.00  0.00     0.142 A 
ATOM      6  C   UNL     1       4.316  49.165   8.244  1.00  0.00     0.018 A 
ATOM      7  C   UNL     1       3.182  49.833   7.772  1.00  0.00     0.019 A 
ATOM      8  C   UNL     1       2.010  49.112   7.545  1.00  0.00     0.094 A 
ATOM      9  C   UNL     1       2.000  47.736   7.797  1.00  0.00     0.336 A 
ATOM     10  O   UNL     1       0.950  47.069   7.599  1.00  0.00    -0.246 OA
ATOM     11  O   UNL     1       3.093  47.125   8.247  1.00  0.00    -0.423 OA
ENDROOT
BRANCH   3  12
ATOM     12  O   UNL     1       7.672  47.078   9.663  1.00  0.00    -0.508 OA
ATOM     13  H   UNL     1       8.517  47.569   9.930  1.00  0.00     0.293 HD
ENDBRANCH   3  12
TORSDOF 1
ENDMDL
MODEL 3
REMARK VINA RESULT:    -5.461      1.875      4.973
REMARK INTER + INTRA:          -5.620
REMARK INTER:                  -5.620
REMARK INTRA:                   0.000
REMARK UNBOUND:                 0.000
REMARK SMILES O=c1ccc2ccc(O)cc2o1
REMARK SMILES IDX 6 1 7 2 8 3 10 4 11 5 5 6 4 7 3 8 2 9 1 10 12 11 9 12
REMARK H PARENT 9 13
REMARK Flexibility Score: inf
ROOT
ATOM      1  C   UNL     1       4.138  44.626  11.776  1.00  0.00     0.016 A 
ATOM      2  C   UNL     1       3.113  43.839  12.312  1.00  0.00     0.047 A 
ATOM      3  C   UNL     1       1.828  43.881  11.760  1.00  0.00     0.119 A 
ATOM      4  C   UNL     1       1.564  44.714  10.662  1.00  0.00     0.094 A 
ATOM      5  C   UNL     1       2.583  45.504  10.119  1.00  0.00     0.142 A 
ATOM      6  C   UNL     1       3.879  45.461  10.679  1.00  0.00     0.018 A 
ATOM      7  C   UNL     1       4.877  46.261  10.116  1.00  0.00     0.019 A 
ATOM      8  C   UNL     1       4.567  47.074   9.026  1.00  0.00     0.094 A 
ATOM      9  C   UNL     1       3.261  47.066   8.523  1.00  0.00     0.336 A 
ATOM     10  O   UNL     1       2.962  47.793   7.539  1.00  0.00    -0.246 OA
ATOM     11  O   UNL     1       2.330  46.294   9.078  1.00  0.00    -0.423 OA
ENDROOT
BRANCH   3  12
ATOM     12  O   UNL     1       0.820  43.090  12.307  1.00  0.00    -0.508 OA
ATOM     13  H   UNL     1       0.665  42.139  11.993  1.00  0.00     0.293 HD
ENDBRANCH   3  12
TORSDOF 1
ENDMDL
MODEL 4
REMARK VINA RESULT:    -5.395      2.159      2.738
REMARK INTER + INTRA:          -5.553
REMARK INTER:                  -5.553
REMARK INTRA:                   0.000
REMARK UNBOUND:                 0.000
REMARK SMILES O=c1ccc2ccc(O)cc2o1
REMARK SMILES IDX 6 1 7 2 8 3 10 4 11 5 5 6 4 7 3 8 2 9 1 10 12 11 9 12
REMARK H PARENT 9 13
REMARK Flexibility Score: inf
ROOT
ATOM      1  C   UNL     1       6.323  47.376   9.353  1.00  0.00     0.016 A 
ATOM      2  C   UNL     1       6.767  48.683   9.578  1.00  0.00     0.047 A 
ATOM      3  C   UNL     1       5.868  49.675   9.987  1.00  0.00     0.119 A 
ATOM      4  C   UNL     1       4.514  49.358  10.173  1.00  0.00     0.094 A 
ATOM      5  C   UNL     1       4.061  48.053   9.951  1.00  0.00     0.142 A 
ATOM      6  C   UNL     1       4.971  47.055   9.537  1.00  0.00     0.018 A 
ATOM      7  C   UNL     1       4.489  45.760   9.322  1.00  0.00     0.019 A 
ATOM      8  C   UNL     1       3.135  45.493   9.520  1.00  0.00     0.094 A 
ATOM      9  C   UNL     1       2.291  46.532   9.929  1.00  0.00     0.336 A 
ATOM     10  O   UNL     1       1.065  46.310  10.113  1.00  0.00    -0.246 OA
ATOM     11  O   UNL     1       2.775  47.755  10.127  1.00  0.00    -0.423 OA
ENDROOT
BRANCH   3  12
ATOM     12  O   UNL     1       6.329  50.971  10.207  1.00  0.00    -0.508 OA
ATOM     13  H   UNL     1       6.260  51.409  11.117  1.00  0.00     0.293 HD
ENDBRANCH   3  12
TORSDOF 1
ENDMDL
MODEL 5
REMARK VINA RESULT:    -5.330      2.441      3.306
REMARK INTER + INTRA:          -5.485
REMARK INTER:                  -5.485
REMARK INTRA:                   0.000
REMARK UNBOUND:                 0.000
REMARK SMILES O=c1ccc2ccc(O)cc2o1
REMARK SMILES IDX 6 1 7 2 8 3 10 4 11 5 5 6 4 7 3 8 2 9 1 10 12 11 9 12
REMARK H PARENT 9 13
REMARK Flexibility Score: inf
ROOT
ATOM      1  C   UNL     1       4.548  46.246   9.917  1.00  0.00     0.016 A 
ATOM      2  C   UNL     1       5.673  47.026   9.626  1.00  0.00     0.047 A 
ATOM      3  C   UNL     1       5.600  48.042   8.666  1.00  0.00     0.119 A 
ATOM      4  C   UNL     1       4.394  48.283   7.992  1.00  0.00     0.094 A 
ATOM      5  C   UNL     1       3.264  47.508   8.276  1.00  0.00     0.142 A 
ATOM      6  C   UNL     1       3.341  46.483   9.244  1.00  0.00     0.018 A 
ATOM      7  C   UNL     1       2.195  45.726   9.507  1.00  0.00     0.019 A 
ATOM      8  C   UNL     1       1.019  46.001   8.810  1.00  0.00     0.094 A 
ATOM      9  C   UNL     1       1.017  47.032   7.864  1.00  0.00     0.336 A 
ATOM     10  O   UNL     1      -0.036  47.296   7.225  1.00  0.00    -0.246 OA
ATOM     11  O   UNL     1       2.121  47.738   7.633  1.00  0.00    -0.423 OA
ENDROOT
BRANCH   3  12
ATOM     12  O   UNL     1       6.731  48.808   8.391  1.00  0.00    -0.508 OA
ATOM     13  H   UNL     1       7.626  48.602   8.820  1.00  0.00     0.293 HD
ENDBRANCH   3  12
TORSDOF 1
ENDMDL
MODEL 6
REMARK VINA RESULT:    -5.329      2.588      3.803
REMARK INTER + INTRA:          -5.485
REMARK INTER:                  -5.485
REMARK INTRA:                   0.000
REMARK UNBOUND:                 0.000
REMARK SMILES O=c1ccc2ccc(O)cc2o1
REMARK SMILES IDX 6 1 7 2 8 3 10 4 11 5 5 6 4 7 3 8 2 9 1 10 12 11 9 12
REMARK H PARENT 9 13
REMARK Flexibility Score: inf
ROOT
ATOM      1  C   UNL     1       2.269  47.811   8.174  1.00  0.00     0.016 A 
ATOM      2  C   UNL     1       1.789  48.941   7.504  1.00  0.00     0.047 A 
ATOM      3  C   UNL     1       2.646  50.008   7.213  1.00  0.00     0.119 A 
ATOM      4  C   UNL     1       3.995  49.945   7.594  1.00  0.00     0.094 A 
ATOM      5  C   UNL     1       4.485  48.819   8.264  1.00  0.00     0.142 A 
ATOM      6  C   UNL     1       3.616  47.744   8.556  1.00  0.00     0.018 A 
ATOM      7  C   UNL     1       4.133  46.632   9.227  1.00  0.00     0.019 A 
ATOM      8  C   UNL     1       5.481  46.616   9.586  1.00  0.00     0.094 A 
ATOM      9  C   UNL     1       6.282  47.717   9.264  1.00  0.00     0.336 A 
ATOM     10  O   UNL     1       7.501  47.720   9.580  1.00  0.00    -0.246 OA
ATOM     11  O   UNL     1       5.765  48.763   8.625  1.00  0.00    -0.423 OA
ENDROOT
BRANCH   3  12
ATOM     12  O   UNL     1       2.149  51.125   6.545  1.00  0.00    -0.508 OA
ATOM     13  H   UNL     1       1.594  51.033   5.703  1.00  0.00     0.293 HD
ENDBRANCH   3  12
TORSDOF 1
ENDMDL
MODEL 7
REMARK VINA RESULT:    -5.280      2.486      3.751
REMARK INTER + INTRA:          -5.435
REMARK INTER:                  -5.435
REMARK INTRA:                   0.000
REMARK UNBOUND:                 0.000
REMARK SMILES O=c1ccc2ccc(O)cc2o1
REMARK SMILES IDX 6 1 7 2 8 3 10 4 11 5 5 6 4 7 3 8 2 9 1 10 12 11 9 12
REMARK H PARENT 9 13
REMARK Flexibility Score: inf
ROOT
ATOM      1  C   UNL     1       4.752  50.490   8.649  1.00  0.00     0.016 A 
ATOM      2  C   UNL     1       3.774  51.125   7.876  1.00  0.00     0.047 A 
ATOM      3  C   UNL     1       2.752  50.379   7.278  1.00  0.00     0.119 A 
ATOM      4  C   UNL     1       2.705  48.988   7.455  1.00  0.00     0.094 A 
ATOM      5  C   UNL     1       3.678  48.345   8.227  1.00  0.00     0.142 A 
ATOM      6  C   UNL     1       4.709  49.100   8.828  1.00  0.00     0.018 A 
ATOM      7  C   UNL     1       5.668  48.430   9.594  1.00  0.00     0.019 A 
ATOM      8  C   UNL     1       5.580  47.046   9.740  1.00  0.00     0.094 A 
ATOM      9  C   UNL     1       4.531  46.363   9.115  1.00  0.00     0.336 A 
ATOM     10  O   UNL     1       4.435  45.113   9.236  1.00  0.00    -0.246 OA
ATOM     11  O   UNL     1       3.632  47.025   8.392  1.00  0.00    -0.423 OA
ENDROOT
BRANCH   3  12
ATOM     12  O   UNL     1       1.787  51.029   6.512  1.00  0.00    -0.508 OA
ATOM     13  H   UNL     1       1.362  51.895   6.821  1.00  0.00     0.293 HD
ENDBRANCH   3  12
TORSDOF 1
ENDMDL
MODEL 8
REMARK VINA RESULT:    -5.269      1.563      2.304
REMARK INTER + INTRA:          -5.424
REMARK INTER:                  -5.424
REMARK INTRA:                   0.000
REMARK UNBOUND:                 0.000
REMARK SMILES O=c1ccc2ccc(O)cc2o1
REMARK SMILES IDX 6 1 7 2 8 3 10 4 11 5 5 6 4 7 3 8 2 9 1 10 12 11 9 12
REMARK H PARENT 9 13
REMARK Flexibility Score: inf
ROOT
ATOM      1  C   UNL     1       5.300  46.729   9.795  1.00  0.00     0.016 A 
ATOM      2  C   UNL     1       5.103  47.660   8.769  1.00  0.00     0.047 A 
ATOM      3  C   UNL     1       3.840  47.812   8.186  1.00  0.00     0.119 A 
ATOM      4  C   UNL     1       2.765  47.028   8.631  1.00  0.00     0.094 A 
ATOM      5  C   UNL     1       2.952  46.095   9.656  1.00  0.00     0.142 A 
ATOM      6  C   UNL     1       4.229  45.944  10.242  1.00  0.00     0.018 A 
ATOM      7  C   UNL     1       4.386  45.003  11.265  1.00  0.00     0.019 A 
ATOM      8  C   UNL     1       3.288  44.246  11.672  1.00  0.00     0.094 A 
ATOM      9  C   UNL     1       2.054  44.450  11.046  1.00  0.00     0.336 A 
ATOM     10  O   UNL     1       1.050  43.776  11.401  1.00  0.00    -0.246 OA
ATOM     11  O   UNL     1       1.931  45.352  10.075  1.00  0.00    -0.423 OA
ENDROOT
BRANCH   3  12
ATOM     12  O   UNL     1       3.663  48.744   7.166  1.00  0.00    -0.508 OA
ATOM     13  H   UNL     1       3.512  48.456   6.206  1.00  0.00     0.293 HD
ENDBRANCH   3  12
TORSDOF 1
ENDMDL
MODEL 9
REMARK VINA RESULT:    -5.243      1.515      4.249
REMARK INTER + INTRA:          -5.397
REMARK INTER:                  -5.397
REMARK INTRA:                   0.000
REMARK UNBOUND:                 0.000
REMARK SMILES O=c1ccc2ccc(O)cc2o1
REMARK SMILES IDX 6 1 7 2 8 3 10 4 11 5 5 6 4 7 3 8 2 9 1 10 12 11 9 12
REMARK H PARENT 9 13
REMARK Flexibility Score: inf
ROOT
ATOM      1  C   UNL     1       1.602  44.866  10.499  1.00  0.00     0.016 A 
ATOM      2  C   UNL     1       2.406  44.262  11.473  1.00  0.00     0.047 A 
ATOM      3  C   UNL     1       3.758  44.604  11.584  1.00  0.00     0.119 A 
ATOM      4  C   UNL     1       4.313  45.558  10.717  1.00  0.00     0.094 A 
ATOM      5  C   UNL     1       3.517  46.166   9.741  1.00  0.00     0.142 A 
ATOM      6  C   UNL     1       2.152  45.819   9.631  1.00  0.00     0.018 A 
ATOM      7  C   UNL     1       1.382  46.444   8.645  1.00  0.00     0.019 A 
ATOM      8  C   UNL     1       1.978  47.385   7.806  1.00  0.00     0.094 A 
ATOM      9  C   UNL     1       3.335  47.679   7.974  1.00  0.00     0.336 A 
ATOM     10  O   UNL     1       3.891  48.526   7.225  1.00  0.00    -0.246 OA
ATOM     11  O   UNL     1       4.046  47.070   8.919  1.00  0.00    -0.423 OA
ENDROOT
BRANCH   3  12
ATOM     12  O   UNL     1       4.542  43.992  12.560  1.00  0.00    -0.508 OA
ATOM     13  H   UNL     1       4.602  42.984  12.635  1.00  0.00     0.293 HD
ENDBRANCH   3  12
TORSDOF 1
ENDMDL
