MODEL 1
REMARK VINA RESULT:    -5.115      0.000      0.000
REMARK INTER + INTRA:          -5.773
REMARK INTER:                  -6.012
REMARK INTRA:                   0.239
REMARK UNBOUND:                 0.239
REMARK SMILES O=c1c(O)c(-c2ccc(O)cc2)oc2cc(O)cc(O)c12
REMARK SMILES IDX 5 1 3 2 2 3 1 4 21 5 19 6 18 7 16 8 15 9 14 10 13 11 6 12
REMARK SMILES IDX 7 13 8 14 9 15 12 16 11 17 10 18 4 20 20 22 17 24
REMARK H PARENT 10 19 4 21 20 23 17 25
REMARK Flexibility Score: inf
ROOT
ATOM      1  C   UNL     1      21.893 -47.027   5.960  1.00  0.00     0.180 A 
ATOM      2  C   UNL     1      20.516 -46.953   6.226  1.00  0.00     0.208 A 
ATOM      3  C   UNL     1      20.030 -45.894   7.011  1.00  0.00     0.238 A 
ATOM      4  O   UNL     1      18.803 -45.863   7.292  1.00  0.00    -0.285 OA
ATOM      5  C   UNL     1      20.926 -44.915   7.507  1.00  0.00     0.111 A 
ATOM      6  C   UNL     1      20.538 -43.779   8.278  1.00  0.00     0.134 A 
ATOM      7  C   UNL     1      21.523 -42.947   8.825  1.00  0.00     0.093 A 
ATOM      8  C   UNL     1      22.876 -43.172   8.574  1.00  0.00     0.123 A 
ATOM      9  C   UNL     1      23.263 -44.247   7.772  1.00  0.00     0.094 A 
ATOM     10  C   UNL     1      22.306 -45.114   7.242  1.00  0.00     0.146 A 
ATOM     11  O   UNL     1      22.717 -46.131   6.493  1.00  0.00    -0.452 OA
ENDROOT
BRANCH   1  12
ATOM     12  C   UNL     1      22.477 -48.098   5.120  1.00  0.00     0.021 A 
ATOM     13  C   UNL     1      21.971 -49.411   5.149  1.00  0.00     0.016 A 
ATOM     14  C   UNL     1      22.523 -50.400   4.329  1.00  0.00     0.047 A 
ATOM     15  C   UNL     1      23.574 -50.090   3.462  1.00  0.00     0.115 A 
ATOM     16  C   UNL     1      23.520 -47.789   4.231  1.00  0.00     0.016 A 
ATOM     17  C   UNL     1      24.071 -48.780   3.413  1.00  0.00     0.047 A 
BRANCH  15  18
ATOM     18  O   UNL     1      24.115 -51.085   2.652  1.00  0.00    -0.508 OA
ATOM     19  H   UNL     1      25.108 -51.127   2.455  1.00  0.00     0.293 HD
ENDBRANCH  15  18
ENDBRANCH   1  12
BRANCH   2  20
ATOM     20  O   UNL     1      19.653 -47.941   5.747  1.00  0.00    -0.502 OA
ATOM     21  H   UNL     1      19.107 -48.533   6.363  1.00  0.00     0.293 HD
ENDBRANCH   2  20
BRANCH   6  22
ATOM     22  O   UNL     1      19.210 -43.410   8.511  1.00  0.00    -0.507 OA
ATOM     23  H   UNL     1      18.700 -43.604   9.360  1.00  0.00     0.293 HD
ENDBRANCH   6  22
BRANCH   8  24
ATOM     24  O   UNL     1      23.828 -42.315   9.122  1.00  0.00    -0.508 OA
ATOM     25  H   UNL     1      24.692 -42.667   9.520  1.00  0.00     0.293 HD
ENDBRANCH   8  24
TORSDOF 5
ENDMDL
MODEL 2
REMARK VINA RESULT:    -4.981      1.261      3.114
REMARK INTER + INTRA:          -5.616
REMARK INTER:                  -5.930
REMARK INTRA:                   0.314
REMARK UNBOUND:                 0.239
REMARK SMILES O=c1c(O)c(-c2ccc(O)cc2)oc2cc(O)cc(O)c12
REMARK SMILES IDX 5 1 3 2 2 3 1 4 21 5 19 6 18 7 16 8 15 9 14 10 13 11 6 12
REMARK SMILES IDX 7 13 8 14 9 15 12 16 11 17 10 18 4 20 20 22 17 24
REMARK H PARENT 10 19 4 21 20 23 17 25
REMARK Flexibility Score: inf
ROOT
ATOM      1  C   UNL     1      21.853 -47.055   5.904  1.00  0.00     0.180 A 
ATOM      2  C   UNL     1      22.629 -46.030   6.469  1.00  0.00     0.208 A 
ATOM      3  C   UNL     1      21.999 -45.060   7.267  1.00  0.00     0.238 A 
ATOM      4  O   UNL     1      22.690 -44.113   7.726  1.00  0.00    -0.285 OA
ATOM      5  C   UNL     1      20.605 -45.138   7.502  1.00  0.00     0.111 A 
ATOM      6  C   UNL     1      19.870 -44.234   8.325  1.00  0.00     0.134 A 
ATOM      7  C   UNL     1      18.474 -44.329   8.381  1.00  0.00     0.093 A 
ATOM      8  C   UNL     1      17.793 -45.334   7.697  1.00  0.00     0.123 A 
ATOM      9  C   UNL     1      18.507 -46.261   6.935  1.00  0.00     0.094 A 
ATOM     10  C   UNL     1      19.897 -46.170   6.832  1.00  0.00     0.146 A 
ATOM     11  O   UNL     1      20.538 -47.064   6.088  1.00  0.00    -0.452 OA
ENDROOT
BRANCH   1  12
ATOM     12  C   UNL     1      22.448 -48.127   5.073  1.00  0.00     0.021 A 
ATOM     13  C   UNL     1      21.908 -49.426   5.054  1.00  0.00     0.016 A 
ATOM     14  C   UNL     1      22.473 -50.415   4.243  1.00  0.00     0.047 A 
ATOM     15  C   UNL     1      23.572 -50.118   3.432  1.00  0.00     0.115 A 
ATOM     16  C   UNL     1      23.540 -47.831   4.239  1.00  0.00     0.016 A 
ATOM     17  C   UNL     1      24.104 -48.822   3.431  1.00  0.00     0.047 A 
BRANCH  15  18
ATOM     18  O   UNL     1      24.125 -51.114   2.630  1.00  0.00    -0.508 OA
ATOM     19  H   UNL     1      24.750 -51.814   3.011  1.00  0.00     0.293 HD
ENDBRANCH  15  18
ENDBRANCH   1  12
BRANCH   2  20
ATOM     20  O   UNL     1      23.999 -45.958   6.207  1.00  0.00    -0.502 OA
ATOM     21  H   UNL     1      24.430 -45.148   5.777  1.00  0.00     0.293 HD
ENDBRANCH   2  20
BRANCH   6  22
ATOM     22  O   UNL     1      20.461 -43.250   9.124  1.00  0.00    -0.507 OA
ATOM     23  H   UNL     1      20.538 -43.294  10.129  1.00  0.00     0.293 HD
ENDBRANCH   6  22
BRANCH   8  24
ATOM     24  O   UNL     1      16.405 -45.408   7.787  1.00  0.00    -0.508 OA
ATOM     25  H   UNL     1      15.872 -44.733   8.324  1.00  0.00     0.293 HD
ENDBRANCH   8  24
TORSDOF 5
ENDMDL
MODEL 3
REMARK VINA RESULT:    -3.579      2.722      6.765
REMARK INTER + INTRA:          -3.967
REMARK INTER:                  -3.888
REMARK INTRA:                  -0.079
REMARK UNBOUND:                 0.239
REMARK SMILES O=c1c(O)c(-c2ccc(O)cc2)oc2cc(O)cc(O)c12
REMARK SMILES IDX 5 1 3 2 2 3 1 4 21 5 19 6 18 7 16 8 15 9 14 10 13 11 6 12
REMARK SMILES IDX 7 13 8 14 9 15 12 16 11 17 10 18 4 20 20 22 17 24
REMARK H PARENT 10 19 4 21 20 23 17 25
REMARK Flexibility Score: inf
ROOT
ATOM      1  C   UNL     1      20.083 -47.653   7.277  1.00  0.00     0.180 A 
ATOM      2  C   UNL     1      20.365 -48.812   8.020  1.00  0.00     0.208 A 
ATOM      3  C   UNL     1      21.421 -49.642   7.612  1.00  0.00     0.238 A 
ATOM      4  O   UNL     1      21.634 -50.707   8.249  1.00  0.00    -0.285 OA
ATOM      5  C   UNL     1      22.192 -49.296   6.475  1.00  0.00     0.111 A 
ATOM      6  C   UNL     1      23.309 -50.043   5.995  1.00  0.00     0.134 A 
ATOM      7  C   UNL     1      23.915 -49.678   4.787  1.00  0.00     0.093 A 
ATOM      8  C   UNL     1      23.488 -48.558   4.076  1.00  0.00     0.123 A 
ATOM      9  C   UNL     1      22.434 -47.786   4.567  1.00  0.00     0.094 A 
ATOM     10  C   UNL     1      21.786 -48.145   5.751  1.00  0.00     0.146 A 
ATOM     11  O   UNL     1      20.781 -47.389   6.178  1.00  0.00    -0.452 OA
ENDROOT
BRANCH   1  12
ATOM     12  C   UNL     1      19.003 -46.715   7.659  1.00  0.00     0.021 A 
ATOM     13  C   UNL     1      19.273 -45.366   7.955  1.00  0.00     0.016 A 
ATOM     14  C   UNL     1      18.233 -44.494   8.290  1.00  0.00     0.047 A 
ATOM     15  C   UNL     1      16.912 -44.951   8.320  1.00  0.00     0.115 A 
ATOM     16  C   UNL     1      17.670 -47.162   7.671  1.00  0.00     0.016 A 
ATOM     17  C   UNL     1      16.633 -46.288   8.008  1.00  0.00     0.047 A 
BRANCH  15  18
ATOM     18  O   UNL     1      15.887 -44.071   8.657  1.00  0.00    -0.508 OA
ATOM     19  H   UNL     1      16.041 -43.071   8.705  1.00  0.00     0.293 HD
ENDBRANCH  15  18
ENDBRANCH   1  12
BRANCH   2  20
ATOM     20  O   UNL     1      19.579 -49.147   9.125  1.00  0.00    -0.502 OA
ATOM     21  H   UNL     1      19.493 -50.098   9.464  1.00  0.00     0.293 HD
ENDBRANCH   2  20
BRANCH   6  22
ATOM     22  O   UNL     1      23.875 -51.125   6.676  1.00  0.00    -0.507 OA
ATOM     23  H   UNL     1      24.291 -51.930   6.231  1.00  0.00     0.293 HD
ENDBRANCH   6  22
BRANCH   8  24
ATOM     24  O   UNL     1      24.125 -48.216   2.885  1.00  0.00    -0.508 OA
ATOM     25  H   UNL     1      25.127 -48.070   2.842  1.00  0.00     0.293 HD
ENDBRANCH   8  24
TORSDOF 5
ENDMDL
MODEL 4
REMARK VINA RESULT:    -3.146      4.181      8.078
REMARK INTER + INTRA:          -3.459
REMARK INTER:                  -3.282
REMARK INTRA:                  -0.177
REMARK UNBOUND:                 0.239
REMARK SMILES O=c1c(O)c(-c2ccc(O)cc2)oc2cc(O)cc(O)c12
REMARK SMILES IDX 5 1 3 2 2 3 1 4 21 5 19 6 18 7 16 8 15 9 14 10 13 11 6 12
REMARK SMILES IDX 7 13 8 14 9 15 12 16 11 17 10 18 4 20 20 22 17 24
REMARK H PARENT 10 19 4 21 20 23 17 25
REMARK Flexibility Score: inf
ROOT
ATOM      1  C   UNL     1      17.023 -45.717   7.884  1.00  0.00     0.180 A 
ATOM      2  C   UNL     1      18.149 -45.101   7.313  1.00  0.00     0.208 A 
ATOM      3  C   UNL     1      19.328 -45.848   7.157  1.00  0.00     0.238 A 
ATOM      4  O   UNL     1      20.350 -45.276   6.695  1.00  0.00    -0.285 OA
ATOM      5  C   UNL     1      19.362 -47.206   7.559  1.00  0.00     0.111 A 
ATOM      6  C   UNL     1      20.489 -48.067   7.411  1.00  0.00     0.134 A 
ATOM      7  C   UNL     1      20.452 -49.354   7.964  1.00  0.00     0.093 A 
ATOM      8  C   UNL     1      19.308 -49.832   8.600  1.00  0.00     0.123 A 
ATOM      9  C   UNL     1      18.178 -49.018   8.698  1.00  0.00     0.094 A 
ATOM     10  C   UNL     1      18.197 -47.718   8.189  1.00  0.00     0.146 A 
ATOM     11  O   UNL     1      17.105 -46.972   8.312  1.00  0.00    -0.452 OA
ENDROOT
BRANCH   1  12
ATOM     12  C   UNL     1      15.738 -45.003   8.058  1.00  0.00     0.021 A 
ATOM     13  C   UNL     1      15.598 -43.963   8.995  1.00  0.00     0.016 A 
ATOM     14  C   UNL     1      14.381 -43.287   9.125  1.00  0.00     0.047 A 
ATOM     15  C   UNL     1      13.295 -43.629   8.314  1.00  0.00     0.115 A 
ATOM     16  C   UNL     1      14.648 -45.328   7.232  1.00  0.00     0.016 A 
ATOM     17  C   UNL     1      13.433 -44.651   7.365  1.00  0.00     0.047 A 
BRANCH  15  18
ATOM     18  O   UNL     1      12.088 -42.948   8.455  1.00  0.00    -0.508 OA
ATOM     19  H   UNL     1      11.448 -42.838   7.677  1.00  0.00     0.293 HD
ENDBRANCH  15  18
ENDBRANCH   1  12
BRANCH   2  20
ATOM     20  O   UNL     1      18.103 -43.755   6.943  1.00  0.00    -0.502 OA
ATOM     21  H   UNL     1      18.912 -43.148   6.992  1.00  0.00     0.293 HD
ENDBRANCH   2  20
BRANCH   6  22
ATOM     22  O   UNL     1      21.649 -47.721   6.712  1.00  0.00    -0.507 OA
ATOM     23  H   UNL     1      21.678 -47.101   5.917  1.00  0.00     0.293 HD
ENDBRANCH   6  22
BRANCH   8  24
ATOM     24  O   UNL     1      19.302 -51.122   9.125  1.00  0.00    -0.508 OA
ATOM     25  H   UNL     1      20.053 -51.776   8.934  1.00  0.00     0.293 HD
ENDBRANCH   8  24
TORSDOF 5
ENDMDL
MODEL 5
REMARK VINA RESULT:    -2.942      3.704      6.968
REMARK INTER + INTRA:          -3.219
REMARK INTER:                  -3.207
REMARK INTRA:                  -0.012
REMARK UNBOUND:                 0.239
REMARK SMILES O=c1c(O)c(-c2ccc(O)cc2)oc2cc(O)cc(O)c12
REMARK SMILES IDX 5 1 3 2 2 3 1 4 21 5 19 6 18 7 16 8 15 9 14 10 13 11 6 12
REMARK SMILES IDX 7 13 8 14 9 15 12 16 11 17 10 18 4 20 20 22 17 24
REMARK H PARENT 10 19 4 21 20 23 17 25
REMARK Flexibility Score: inf
ROOT
ATOM      1  C   UNL     1      17.653 -45.102   8.236  1.00  0.00     0.180 A 
ATOM      2  C   UNL     1      18.134 -46.415   8.381  1.00  0.00     0.208 A 
ATOM      3  C   UNL     1      19.521 -46.634   8.393  1.00  0.00     0.238 A 
ATOM      4  O   UNL     1      19.945 -47.817   8.469  1.00  0.00    -0.285 OA
ATOM      5  C   UNL     1      20.409 -45.538   8.276  1.00  0.00     0.111 A 
ATOM      6  C   UNL     1      21.832 -45.640   8.316  1.00  0.00     0.134 A 
ATOM      7  C   UNL     1      22.613 -44.506   8.059  1.00  0.00     0.093 A 
ATOM      8  C   UNL     1      22.025 -43.263   7.829  1.00  0.00     0.123 A 
ATOM      9  C   UNL     1      20.635 -43.140   7.846  1.00  0.00     0.094 A 
ATOM     10  C   UNL     1      19.829 -44.260   8.064  1.00  0.00     0.146 A 
ATOM     11  O   UNL     1      18.510 -44.102   8.062  1.00  0.00    -0.452 OA
ENDROOT
BRANCH   1  12
ATOM     12  C   UNL     1      16.206 -44.788   8.239  1.00  0.00     0.021 A 
ATOM     13  C   UNL     1      15.663 -43.839   9.125  1.00  0.00     0.016 A 
ATOM     14  C   UNL     1      14.297 -43.542   9.093  1.00  0.00     0.047 A 
ATOM     15  C   UNL     1      13.460 -44.175   8.170  1.00  0.00     0.115 A 
ATOM     16  C   UNL     1      15.362 -45.405   7.300  1.00  0.00     0.016 A 
ATOM     17  C   UNL     1      13.996 -45.107   7.271  1.00  0.00     0.047 A 
BRANCH  15  18
ATOM     18  O   UNL     1      12.101 -43.870   8.151  1.00  0.00    -0.508 OA
ATOM     19  H   UNL     1      11.772 -42.929   7.968  1.00  0.00     0.293 HD
ENDBRANCH  15  18
ENDBRANCH   1  12
BRANCH   2  20
ATOM     20  O   UNL     1      17.240 -47.485   8.472  1.00  0.00    -0.502 OA
ATOM     21  H   UNL     1      16.899 -47.981   7.658  1.00  0.00     0.293 HD
ENDBRANCH   2  20
BRANCH   6  22
ATOM     22  O   UNL     1      22.521 -46.815   8.628  1.00  0.00    -0.507 OA
ATOM     23  H   UNL     1      22.103 -47.635   9.040  1.00  0.00     0.293 HD
ENDBRANCH   6  22
BRANCH   8  24
ATOM     24  O   UNL     1      22.834 -42.154   7.592  1.00  0.00    -0.508 OA
ATOM     25  H   UNL     1      23.365 -41.716   8.336  1.00  0.00     0.293 HD
ENDBRANCH   8  24
TORSDOF 5
ENDMDL
