MODEL 1
REMARK VINA RESULT:    -4.585      0.000      0.000
REMARK INTER + INTRA:          -5.650
REMARK INTER:                  -5.524
REMARK INTRA:                  -0.126
REMARK UNBOUND:                -0.126
REMARK SMILES CCCCc1oc(O)c2ccccc12
REMARK SMILES IDX 4 1 5 2 7 3 6 4 9 5 14 6 10 7 13 8 11 9 12 10 8 11 3 13 2 14
REMARK SMILES IDX 1 15
REMARK H PARENT 8 12
REMARK Flexibility Score: inf
ROOT
ATOM      1  C   UNL     1       0.879  56.097  28.897  1.00  0.00     0.076 C 
ENDROOT
BRANCH   1   2
ATOM      2  C   UNL     1       0.457  54.719  29.302  1.00  0.00     0.116 A 
ATOM      3  C   UNL     1      -0.562  52.832  29.259  1.00  0.00     0.290 A 
ATOM      4  O   UNL     1      -0.387  53.971  28.615  1.00  0.00    -0.430 OA
ATOM      5  C   UNL     1       0.191  52.832  30.414  1.00  0.00     0.066 A 
ATOM      6  C   UNL     1       0.841  54.036  30.443  1.00  0.00     0.027 A 
ATOM      7  C   UNL     1       0.346  51.884  31.425  1.00  0.00     0.016 A 
ATOM      8  C   UNL     1       1.692  54.386  31.492  1.00  0.00     0.012 A 
ATOM      9  C   UNL     1       1.202  52.206  32.495  1.00  0.00     0.001 A 
ATOM     10  C   UNL     1       1.871  53.451  32.529  1.00  0.00     0.001 A 
BRANCH   3  11
ATOM     11  O   UNL     1      -1.392  51.809  28.810  1.00  0.00    -0.480 OA
ATOM     12  H   UNL     1      -1.360  51.489  27.851  1.00  0.00     0.297 HD
ENDBRANCH   3  11
ENDBRANCH   1   2
BRANCH   1  13
ATOM     13  C   UNL     1       0.428  57.125  29.939  1.00  0.00     0.008 C 
BRANCH  13  14
ATOM     14  C   UNL     1      -1.097  57.125  30.085  1.00  0.00    -0.003 C 
ATOM     15  C   UNL     1      -1.782  57.105  28.722  1.00  0.00     0.004 C 
ENDBRANCH  13  14
ENDBRANCH   1  13
TORSDOF 4
ENDMDL
MODEL 2
REMARK VINA RESULT:    -4.231     11.403     13.500
REMARK INTER + INTRA:          -5.223
REMARK INTER:                  -4.911
REMARK INTRA:                  -0.313
REMARK UNBOUND:                -0.126
REMARK SMILES CCCCc1oc(O)c2ccccc12
REMARK SMILES IDX 4 1 5 2 7 3 6 4 9 5 14 6 10 7 13 8 11 9 12 10 8 11 3 13 2 14
REMARK SMILES IDX 1 15
REMARK H PARENT 8 12
REMARK Flexibility Score: inf
ROOT
ATOM      1  C   UNL     1      -2.593  50.623  44.124  1.00  0.00     0.076 C 
ENDROOT
BRANCH   1   2
ATOM      2  C   UNL     1      -1.776  51.312  43.075  1.00  0.00     0.116 A 
ATOM      3  C   UNL     1      -1.277  52.285  41.231  1.00  0.00     0.290 A 
ATOM      4  O   UNL     1      -2.263  51.759  41.932  1.00  0.00    -0.430 OA
ATOM      5  C   UNL     1      -0.097  52.177  41.935  1.00  0.00     0.066 A 
ATOM      6  C   UNL     1      -0.414  51.554  43.112  1.00  0.00     0.027 A 
ATOM      7  C   UNL     1       1.208  52.565  41.634  1.00  0.00     0.016 A 
ATOM      8  C   UNL     1       0.554  51.268  44.076  1.00  0.00     0.012 A 
ATOM      9  C   UNL     1       2.207  52.294  42.588  1.00  0.00     0.001 A 
ATOM     10  C   UNL     1       1.882  51.647  43.802  1.00  0.00     0.001 A 
BRANCH   3  11
ATOM     11  O   UNL     1      -1.440  52.853  39.970  1.00  0.00    -0.480 OA
ATOM     12  H   UNL     1      -1.490  52.279  39.138  1.00  0.00     0.297 HD
ENDBRANCH   3  11
ENDBRANCH   1   2
BRANCH   1  13
ATOM     13  C   UNL     1      -2.410  49.105  44.037  1.00  0.00     0.008 C 
BRANCH  13  14
ATOM     14  C   UNL     1      -2.984  48.557  42.726  1.00  0.00    -0.003 C 
ATOM     15  C   UNL     1      -2.952  47.032  42.705  1.00  0.00     0.004 C 
ENDBRANCH  13  14
ENDBRANCH   1  13
TORSDOF 4
ENDMDL
MODEL 3
REMARK VINA RESULT:    -4.011     10.939     12.748
REMARK INTER + INTRA:          -4.958
REMARK INTER:                  -4.488
REMARK INTRA:                  -0.470
REMARK UNBOUND:                -0.126
REMARK SMILES CCCCc1oc(O)c2ccccc12
REMARK SMILES IDX 4 1 5 2 7 3 6 4 9 5 14 6 10 7 13 8 11 9 12 10 8 11 3 13 2 14
REMARK SMILES IDX 1 15
REMARK H PARENT 8 12
REMARK Flexibility Score: inf
ROOT
ATOM      1  C   UNL     1       4.915  48.374  37.608  1.00  0.00     0.076 C 
ENDROOT
BRANCH   1   2
ATOM      2  C   UNL     1       4.829  49.094  38.918  1.00  0.00     0.116 A 
ATOM      3  C   UNL     1       4.452  50.663  40.331  1.00  0.00     0.290 A 
ATOM      4  O   UNL     1       4.365  50.323  39.059  1.00  0.00    -0.430 OA
ATOM      5  C   UNL     1       4.998  49.624  41.053  1.00  0.00     0.066 A 
ATOM      6  C   UNL     1       5.240  48.622  40.152  1.00  0.00     0.027 A 
ATOM      7  C   UNL     1       5.299  49.487  42.407  1.00  0.00     0.016 A 
ATOM      8  C   UNL     1       5.808  47.408  40.539  1.00  0.00     0.012 A 
ATOM      9  C   UNL     1       5.871  48.271  42.830  1.00  0.00     0.001 A 
ATOM     10  C   UNL     1       6.125  47.237  41.900  1.00  0.00     0.001 A 
BRANCH   3  11
ATOM     11  O   UNL     1       4.048  51.898  40.832  1.00  0.00    -0.480 OA
ATOM     12  H   UNL     1       3.489  52.532  40.276  1.00  0.00     0.297 HD
ENDBRANCH   3  11
ENDBRANCH   1   2
BRANCH   1  13
ATOM     13  C   UNL     1       3.876  47.251  37.544  1.00  0.00     0.008 C 
BRANCH  13  14
ATOM     14  C   UNL     1       4.552  45.887  37.372  1.00  0.00    -0.003 C 
ATOM     15  C   UNL     1       6.043  46.042  37.088  1.00  0.00     0.004 C 
ENDBRANCH  13  14
ENDBRANCH   1  13
TORSDOF 4
ENDMDL
MODEL 4
REMARK VINA RESULT:    -3.917     10.463     12.627
REMARK INTER + INTRA:          -4.845
REMARK INTER:                  -4.402
REMARK INTRA:                  -0.443
REMARK UNBOUND:                -0.126
REMARK SMILES CCCCc1oc(O)c2ccccc12
REMARK SMILES IDX 4 1 5 2 7 3 6 4 9 5 14 6 10 7 13 8 11 9 12 10 8 11 3 13 2 14
REMARK SMILES IDX 1 15
REMARK H PARENT 8 12
REMARK Flexibility Score: inf
ROOT
ATOM      1  C   UNL     1      -1.979  51.058  41.664  1.00  0.00     0.076 C 
ENDROOT
BRANCH   1   2
ATOM      2  C   UNL     1      -0.988  52.143  41.375  1.00  0.00     0.116 A 
ATOM      3  C   UNL     1      -0.084  53.842  40.429  1.00  0.00     0.290 A 
ATOM      4  O   UNL     1      -1.146  53.060  40.437  1.00  0.00    -0.430 OA
ATOM      5  C   UNL     1       0.808  53.424  41.393  1.00  0.00     0.066 A 
ATOM      6  C   UNL     1       0.233  52.338  41.997  1.00  0.00     0.027 A 
ATOM      7  C   UNL     1       2.061  53.902  41.774  1.00  0.00     0.016 A 
ATOM      8  C   UNL     1       0.872  51.645  43.025  1.00  0.00     0.012 A 
ATOM      9  C   UNL     1       2.730  53.226  42.812  1.00  0.00     0.001 A 
ATOM     10  C   UNL     1       2.139  52.102  43.434  1.00  0.00     0.001 A 
BRANCH   3  11
ATOM     11  O   UNL     1       0.079  54.919  39.561  1.00  0.00    -0.480 OA
ATOM     12  H   UNL     1      -0.710  55.321  39.071  1.00  0.00     0.297 HD
ENDBRANCH   3  11
ENDBRANCH   1   2
BRANCH   1  13
ATOM     13  C   UNL     1      -2.925  51.483  42.792  1.00  0.00     0.008 C 
BRANCH  13  14
ATOM     14  C   UNL     1      -2.507  50.853  44.125  1.00  0.00    -0.003 C 
ATOM     15  C   UNL     1      -2.521  49.330  44.044  1.00  0.00     0.004 C 
ENDBRANCH  13  14
ENDBRANCH   1  13
TORSDOF 4
ENDMDL
MODEL 5
REMARK VINA RESULT:    -3.783     10.624     12.367
REMARK INTER + INTRA:          -4.684
REMARK INTER:                  -4.383
REMARK INTRA:                  -0.300
REMARK UNBOUND:                -0.126
REMARK SMILES CCCCc1oc(O)c2ccccc12
REMARK SMILES IDX 4 1 5 2 7 3 6 4 9 5 14 6 10 7 13 8 11 9 12 10 8 11 3 13 2 14
REMARK SMILES IDX 1 15
REMARK H PARENT 8 12
REMARK Flexibility Score: inf
ROOT
ATOM      1  C   UNL     1       2.193  52.867  42.230  1.00  0.00     0.076 C 
ENDROOT
BRANCH   1   2
ATOM      2  C   UNL     1       0.747  52.723  41.866  1.00  0.00     0.116 A 
ATOM      3  C   UNL     1      -1.103  53.012  40.820  1.00  0.00     0.290 A 
ATOM      4  O   UNL     1       0.177  53.331  40.842  1.00  0.00    -0.430 OA
ATOM      5  C   UNL     1      -1.387  52.166  41.871  1.00  0.00     0.066 A 
ATOM      6  C   UNL     1      -0.207  51.982  42.540  1.00  0.00     0.027 A 
ATOM      7  C   UNL     1      -2.573  51.560  42.285  1.00  0.00     0.016 A 
ATOM      8  C   UNL     1      -0.126  51.181  43.680  1.00  0.00     0.012 A 
ATOM      9  C   UNL     1      -2.523  50.742  43.430  1.00  0.00     0.001 A 
ATOM     10  C   UNL     1      -1.306  50.554  44.125  1.00  0.00     0.001 A 
BRANCH   3  11
ATOM     11  O   UNL     1      -2.002  53.480  39.866  1.00  0.00    -0.480 OA
ATOM     12  H   UNL     1      -2.075  54.466  39.653  1.00  0.00     0.297 HD
ENDBRANCH   3  11
ENDBRANCH   1   2
BRANCH   1  13
ATOM     13  C   UNL     1       3.004  51.691  41.679  1.00  0.00     0.008 C 
BRANCH  13  14
ATOM     14  C   UNL     1       4.219  52.185  40.886  1.00  0.00    -0.003 C 
ATOM     15  C   UNL     1       3.861  53.392  40.024  1.00  0.00     0.004 C 
ENDBRANCH  13  14
ENDBRANCH   1  13
TORSDOF 4
ENDMDL
MODEL 6
REMARK VINA RESULT:    -3.742     11.200     12.313
REMARK INTER + INTRA:          -4.634
REMARK INTER:                  -4.228
REMARK INTRA:                  -0.406
REMARK UNBOUND:                -0.126
REMARK SMILES CCCCc1oc(O)c2ccccc12
REMARK SMILES IDX 4 1 5 2 7 3 6 4 9 5 14 6 10 7 13 8 11 9 12 10 8 11 3 13 2 14
REMARK SMILES IDX 1 15
REMARK H PARENT 8 12
REMARK Flexibility Score: inf
ROOT
ATOM      1  C   UNL     1       6.125  50.882  39.733  1.00  0.00     0.076 C 
ENDROOT
BRANCH   1   2
ATOM      2  C   UNL     1       5.643  49.481  39.954  1.00  0.00     0.116 A 
ATOM      3  C   UNL     1       5.174  47.652  40.970  1.00  0.00     0.290 A 
ATOM      4  O   UNL     1       5.631  48.879  41.129  1.00  0.00    -0.430 OA
ATOM      5  C   UNL     1       4.878  47.436  39.641  1.00  0.00     0.066 A 
ATOM      6  C   UNL     1       5.178  48.603  38.991  1.00  0.00     0.027 A 
ATOM      7  C   UNL     1       4.383  46.322  38.965  1.00  0.00     0.016 A 
ATOM      8  C   UNL     1       5.010  48.741  37.613  1.00  0.00     0.012 A 
ATOM      9  C   UNL     1       4.198  46.430  37.574  1.00  0.00     0.001 A 
ATOM     10  C   UNL     1       4.511  47.634  36.901  1.00  0.00     0.001 A 
BRANCH   3  11
ATOM     11  O   UNL     1       5.029  46.738  42.010  1.00  0.00    -0.480 OA
ATOM     12  H   UNL     1       4.673  47.023  42.913  1.00  0.00     0.297 HD
ENDBRANCH   3  11
ENDBRANCH   1   2
BRANCH   1  13
ATOM     13  C   UNL     1       5.532  51.826  40.784  1.00  0.00     0.008 C 
BRANCH  13  14
ATOM     14  C   UNL     1       4.042  52.071  40.522  1.00  0.00    -0.003 C 
ATOM     15  C   UNL     1       3.182  51.480  41.635  1.00  0.00     0.004 C 
ENDBRANCH  13  14
ENDBRANCH   1  13
TORSDOF 4
ENDMDL
MODEL 7
REMARK VINA RESULT:    -3.607     10.174     11.540
REMARK INTER + INTRA:          -4.472
REMARK INTER:                  -4.230
REMARK INTRA:                  -0.242
REMARK UNBOUND:                -0.126
REMARK SMILES CCCCc1oc(O)c2ccccc12
REMARK SMILES IDX 4 1 5 2 7 3 6 4 9 5 14 6 10 7 13 8 11 9 12 10 8 11 3 13 2 14
REMARK SMILES IDX 1 15
REMARK H PARENT 8 12
REMARK Flexibility Score: inf
ROOT
ATOM      1  C   UNL     1       4.703  51.620  40.761  1.00  0.00     0.076 C 
ENDROOT
BRANCH   1   2
ATOM      2  C   UNL     1       3.616  52.648  40.836  1.00  0.00     0.116 A 
ATOM      3  C   UNL     1       1.745  53.565  41.346  1.00  0.00     0.290 A 
ATOM      4  O   UNL     1       2.491  52.488  41.508  1.00  0.00    -0.430 OA
ATOM      5  C   UNL     1       2.401  54.465  40.533  1.00  0.00     0.066 A 
ATOM      6  C   UNL     1       3.595  53.880  40.206  1.00  0.00     0.027 A 
ATOM      7  C   UNL     1       2.043  55.726  40.061  1.00  0.00     0.016 A 
ATOM      8  C   UNL     1       4.520  54.513  39.375  1.00  0.00     0.012 A 
ATOM      9  C   UNL     1       2.957  56.393  39.223  1.00  0.00     0.001 A 
ATOM     10  C   UNL     1       4.189  55.789  38.880  1.00  0.00     0.001 A 
BRANCH   3  11
ATOM     11  O   UNL     1       0.489  53.731  41.922  1.00  0.00    -0.480 OA
ATOM     12  H   UNL     1      -0.326  53.929  41.355  1.00  0.00     0.297 HD
ENDBRANCH   3  11
ENDBRANCH   1   2
BRANCH   1  13
ATOM     13  C   UNL     1       4.229  50.394  39.975  1.00  0.00     0.008 C 
BRANCH  13  14
ATOM     14  C   UNL     1       5.387  49.759  39.198  1.00  0.00    -0.003 C 
ATOM     15  C   UNL     1       4.872  48.803  38.126  1.00  0.00     0.004 C 
ENDBRANCH  13  14
ENDBRANCH   1  13
TORSDOF 4
ENDMDL
MODEL 8
REMARK VINA RESULT:    -3.565      9.577     11.207
REMARK INTER + INTRA:          -4.420
REMARK INTER:                  -4.056
REMARK INTRA:                  -0.364
REMARK UNBOUND:                -0.126
REMARK SMILES CCCCc1oc(O)c2ccccc12
REMARK SMILES IDX 4 1 5 2 7 3 6 4 9 5 14 6 10 7 13 8 11 9 12 10 8 11 3 13 2 14
REMARK SMILES IDX 1 15
REMARK H PARENT 8 12
REMARK Flexibility Score: inf
ROOT
ATOM      1  C   UNL     1       5.628  52.644  40.817  1.00  0.00     0.076 C 
ENDROOT
BRANCH   1   2
ATOM      2  C   UNL     1       5.056  53.765  40.004  1.00  0.00     0.116 A 
ATOM      3  C   UNL     1       4.966  55.427  38.651  1.00  0.00     0.290 A 
ATOM      4  O   UNL     1       5.765  54.525  39.189  1.00  0.00    -0.430 OA
ATOM      5  C   UNL     1       3.686  55.258  39.133  1.00  0.00     0.066 A 
ATOM      6  C   UNL     1       3.742  54.198  39.998  1.00  0.00     0.027 A 
ATOM      7  C   UNL     1       2.499  55.946  38.886  1.00  0.00     0.016 A 
ATOM      8  C   UNL     1       2.614  53.750  40.685  1.00  0.00     0.012 A 
ATOM      9  C   UNL     1       1.341  55.516  39.562  1.00  0.00     0.001 A 
ATOM     10  C   UNL     1       1.399  54.424  40.458  1.00  0.00     0.001 A 
BRANCH   3  11
ATOM     11  O   UNL     1       5.389  56.391  37.741  1.00  0.00    -0.480 OA
ATOM     12  H   UNL     1       5.089  57.354  37.819  1.00  0.00     0.297 HD
ENDBRANCH   3  11
ENDBRANCH   1   2
BRANCH   1  13
ATOM     13  C   UNL     1       5.703  51.361  39.984  1.00  0.00     0.008 C 
BRANCH  13  14
ATOM     14  C   UNL     1       4.380  50.590  40.043  1.00  0.00    -0.003 C 
ATOM     15  C   UNL     1       4.427  49.345  39.162  1.00  0.00     0.004 C 
ENDBRANCH  13  14
ENDBRANCH   1  13
TORSDOF 4
ENDMDL
MODEL 9
REMARK VINA RESULT:    -3.540     11.474     13.007
REMARK INTER + INTRA:          -4.391
REMARK INTER:                  -4.121
REMARK INTRA:                  -0.270
REMARK UNBOUND:                -0.126
REMARK SMILES CCCCc1oc(O)c2ccccc12
REMARK SMILES IDX 4 1 5 2 7 3 6 4 9 5 14 6 10 7 13 8 11 9 12 10 8 11 3 13 2 14
REMARK SMILES IDX 1 15
REMARK H PARENT 8 12
REMARK Flexibility Score: inf
ROOT
ATOM      1  C   UNL     1       5.071  48.276  37.962  1.00  0.00     0.076 C 
ENDROOT
BRANCH   1   2
ATOM      2  C   UNL     1       5.244  48.420  39.443  1.00  0.00     0.116 A 
ATOM      3  C   UNL     1       5.678  47.900  41.478  1.00  0.00     0.290 A 
ATOM      4  O   UNL     1       5.663  47.451  40.237  1.00  0.00    -0.430 OA
ATOM      5  C   UNL     1       5.249  49.210  41.503  1.00  0.00     0.066 A 
ATOM      6  C   UNL     1       4.970  49.542  40.205  1.00  0.00     0.027 A 
ATOM      7  C   UNL     1       5.079  50.115  42.550  1.00  0.00     0.016 A 
ATOM      8  C   UNL     1       4.495  50.807  39.856  1.00  0.00     0.012 A 
ATOM      9  C   UNL     1       4.605  51.401  42.230  1.00  0.00     0.001 A 
ATOM     10  C   UNL     1       4.313  51.745  40.890  1.00  0.00     0.001 A 
BRANCH   3  11
ATOM     11  O   UNL     1       6.070  47.135  42.573  1.00  0.00    -0.480 OA
ATOM     12  H   UNL     1       5.511  46.357  42.898  1.00  0.00     0.297 HD
ENDBRANCH   3  11
ENDBRANCH   1   2
BRANCH   1  13
ATOM     13  C   UNL     1       3.890  47.353  37.648  1.00  0.00     0.008 C 
BRANCH  13  14
ATOM     14  C   UNL     1       4.362  45.911  37.434  1.00  0.00    -0.003 C 
ATOM     15  C   UNL     1       5.816  45.869  36.973  1.00  0.00     0.004 C 
ENDBRANCH  13  14
ENDBRANCH   1  13
TORSDOF 4
ENDMDL
