MODEL 1
REMARK VINA RESULT:     8.295      0.000      0.000
REMARK INTER + INTRA:           8.830
REMARK INTER:                   9.023
REMARK INTRA:                  -0.192
REMARK UNBOUND:                -0.192
REMARK SMILES Cc1ccc(C(C)C)c(O)c1
REMARK SMILES IDX 1 1 2 2 11 3 9 4 5 5 4 6 3 7 10 8 6 10 7 11 8 12
REMARK H PARENT 10 9
REMARK Flexibility Score: inf
ROOT
ATOM      1  C   UNL     1     -20.204  14.751 -25.360  1.00  0.00     0.044 C 
ATOM      2  C   UNL     1     -18.763  14.911 -24.976  1.00  0.00    -0.047 A 
ATOM      3  C   UNL     1     -18.126  13.935 -24.203  1.00  0.00     0.049 A 
ATOM      4  C   UNL     1     -16.769  14.046 -23.876  1.00  0.00     0.119 A 
ATOM      5  C   UNL     1     -16.030  15.186 -24.296  1.00  0.00    -0.004 A 
ATOM      6  C   UNL     1     -16.671  16.125 -25.132  1.00  0.00     0.008 A 
ATOM      7  C   UNL     1     -18.019  15.991 -25.464  1.00  0.00     0.004 A 
ENDROOT
BRANCH   4   8
ATOM      8  O   UNL     1     -16.195  12.994 -23.156  1.00  0.00    -0.508 OA
ATOM      9  H   UNL     1     -16.724  12.314 -22.628  1.00  0.00     0.293 HD
ENDBRANCH   4   8
BRANCH   5  10
ATOM     10  C   UNL     1     -14.560  15.364 -23.926  1.00  0.00     0.017 C 
ATOM     11  C   UNL     1     -13.823  16.124 -25.032  1.00  0.00     0.012 C 
ATOM     12  C   UNL     1     -14.355  16.051 -22.565  1.00  0.00     0.012 C 
ENDBRANCH   5  10
TORSDOF 2
ENDMDL
MODEL 2
REMARK VINA RESULT:     8.559      1.077      4.141
REMARK INTER + INTRA:           9.117
REMARK INTER:                   9.073
REMARK INTRA:                   0.044
REMARK UNBOUND:                -0.192
REMARK SMILES Cc1ccc(C(C)C)c(O)c1
REMARK SMILES IDX 1 1 2 2 11 3 9 4 5 5 4 6 3 7 10 8 6 10 7 11 8 12
REMARK H PARENT 10 9
REMARK Flexibility Score: inf
ROOT
ATOM      1  C   UNL     1     -13.631  15.347 -23.497  1.00  0.00     0.044 C 
ATOM      2  C   UNL     1     -15.066  15.150 -23.890  1.00  0.00    -0.047 A 
ATOM      3  C   UNL     1     -15.774  14.032 -23.435  1.00  0.00     0.049 A 
ATOM      4  C   UNL     1     -17.127  13.858 -23.753  1.00  0.00     0.119 A 
ATOM      5  C   UNL     1     -17.786  14.803 -24.587  1.00  0.00    -0.004 A 
ATOM      6  C   UNL     1     -17.075  15.957 -24.979  1.00  0.00     0.008 A 
ATOM      7  C   UNL     1     -15.733  16.125 -24.639  1.00  0.00     0.004 A 
ENDROOT
BRANCH   4   8
ATOM      8  O   UNL     1     -17.776  12.749 -23.203  1.00  0.00    -0.508 OA
ATOM      9  H   UNL     1     -17.349  11.840 -23.091  1.00  0.00     0.293 HD
ENDBRANCH   4   8
BRANCH   5  10
ATOM     10  C   UNL     1     -19.248  14.627 -24.990  1.00  0.00     0.017 C 
ATOM     11  C   UNL     1     -20.147  14.660 -23.751  1.00  0.00     0.012 C 
ATOM     12  C   UNL     1     -19.719  15.657 -26.032  1.00  0.00     0.012 C 
ENDBRANCH   5  10
TORSDOF 2
ENDMDL
MODEL 3
REMARK VINA RESULT:     9.125      1.694      4.607
REMARK INTER + INTRA:           9.733
REMARK INTER:                   9.826
REMARK INTRA:                  -0.093
REMARK UNBOUND:                -0.192
REMARK SMILES Cc1ccc(C(C)C)c(O)c1
REMARK SMILES IDX 1 1 2 2 11 3 9 4 5 5 4 6 3 7 10 8 6 10 7 11 8 12
REMARK H PARENT 10 9
REMARK Flexibility Score: inf
ROOT
ATOM      1  C   UNL     1     -12.499  16.125 -23.356  1.00  0.00     0.044 C 
ATOM      2  C   UNL     1     -13.875  15.634 -23.697  1.00  0.00    -0.047 A 
ATOM      3  C   UNL     1     -14.528  16.106 -24.842  1.00  0.00     0.049 A 
ATOM      4  C   UNL     1     -15.792  15.622 -25.200  1.00  0.00     0.119 A 
ATOM      5  C   UNL     1     -16.449  14.671 -24.372  1.00  0.00    -0.004 A 
ATOM      6  C   UNL     1     -15.747  14.157 -23.261  1.00  0.00     0.008 A 
ATOM      7  C   UNL     1     -14.479  14.636 -22.927  1.00  0.00     0.004 A 
ENDROOT
BRANCH   4   8
ATOM      8  O   UNL     1     -16.345  16.097 -26.394  1.00  0.00    -0.508 OA
ATOM      9  H   UNL     1     -17.029  15.594 -26.941  1.00  0.00     0.293 HD
ENDBRANCH   4   8
BRANCH   5  10
ATOM     10  C   UNL     1     -17.844  14.150 -24.707  1.00  0.00     0.017 C 
ATOM     11  C   UNL     1     -18.181  12.939 -23.833  1.00  0.00     0.012 C 
ATOM     12  C   UNL     1     -18.938  15.226 -24.591  1.00  0.00     0.012 C 
ENDBRANCH   5  10
TORSDOF 2
ENDMDL
