MODEL 1
REMARK VINA RESULT:    -6.137      0.000      0.000
REMARK INTER + INTRA:          -6.650
REMARK INTER:                  -6.495
REMARK INTRA:                  -0.155
REMARK UNBOUND:                -0.155
REMARK SMILES CC1=C[C@@H]2C(=C(C)CC[C@H]2C(C)C)CC1
REMARK SMILES IDX 1 1 2 2 3 3 4 4 10 5 9 6 8 7 6 8 5 9 14 10 15 11 7 12 11 13
REMARK SMILES IDX 12 14 13 15
REMARK H PARENT
REMARK Flexibility Score: inf
ROOT
ATOM      1  C   UNL     1       9.798  10.125  30.758  1.00  0.00     0.039 C 
ATOM      2  C   UNL     1       9.606   8.801  30.071  1.00  0.00    -0.076 C 
ATOM      3  C   UNL     1      10.158   8.586  28.864  1.00  0.00    -0.020 C 
ATOM      4  C   UNL     1      10.012   7.256  28.142  1.00  0.00     0.041 C 
ATOM      5  C   UNL     1      11.166   7.087  27.086  1.00  0.00     0.003 C 
ATOM      6  C   UNL     1      11.576   5.605  26.831  1.00  0.00     0.009 C 
ATOM      7  C   UNL     1      10.478   4.621  27.227  1.00  0.00     0.031 C 
ATOM      8  C   UNL     1      10.139   4.822  28.682  1.00  0.00    -0.073 C 
ATOM      9  C   UNL     1       9.925   6.086  29.131  1.00  0.00    -0.064 C 
ATOM     10  C   UNL     1       9.540   6.357  30.579  1.00  0.00     0.036 C 
ATOM     11  C   UNL     1       8.818   7.699  30.729  1.00  0.00     0.035 C 
ATOM     12  C   UNL     1      10.101   3.625  29.604  1.00  0.00     0.039 C 
ENDROOT
BRANCH   5  13
ATOM     13  C   UNL     1      10.857   7.878  25.770  1.00  0.00    -0.013 C 
ATOM     14  C   UNL     1      11.484   9.281  25.791  1.00  0.00     0.007 C 
ATOM     15  C   UNL     1      11.263   7.135  24.483  1.00  0.00     0.007 C 
ENDBRANCH   5  13
TORSDOF 1
ENDMDL
MODEL 2
REMARK VINA RESULT:    -5.596      2.939      5.385
REMARK INTER + INTRA:          -6.077
REMARK INTER:                  -5.822
REMARK INTRA:                  -0.255
REMARK UNBOUND:                -0.155
REMARK SMILES CC1=C[C@@H]2C(=C(C)CC[C@H]2C(C)C)CC1
REMARK SMILES IDX 1 1 2 2 3 3 4 4 10 5 9 6 8 7 6 8 5 9 14 10 15 11 7 12 11 13
REMARK SMILES IDX 12 14 13 15
REMARK H PARENT
REMARK Flexibility Score: inf
ROOT
ATOM      1  C   UNL     1      10.656   5.639  27.713  1.00  0.00     0.039 C 
ATOM      2  C   UNL     1      11.924   5.937  26.959  1.00  0.00    -0.076 C 
ATOM      3  C   UNL     1      11.865   6.551  25.765  1.00  0.00    -0.020 C 
ATOM      4  C   UNL     1      13.120   6.894  24.977  1.00  0.00     0.041 C 
ATOM      5  C   UNL     1      12.815   8.053  23.958  1.00  0.00     0.003 C 
ATOM      6  C   UNL     1      14.044   8.962  23.650  1.00  0.00     0.009 C 
ATOM      7  C   UNL     1      15.370   8.272  23.961  1.00  0.00     0.031 C 
ATOM      8  C   UNL     1      15.381   7.857  25.411  1.00  0.00    -0.073 C 
ATOM      9  C   UNL     1      14.299   7.205  25.908  1.00  0.00    -0.064 C 
ATOM     10  C   UNL     1      14.260   6.724  27.353  1.00  0.00     0.036 C 
ATOM     11  C   UNL     1      13.266   5.574  27.537  1.00  0.00     0.035 C 
ATOM     12  C   UNL     1      16.565   8.226  26.275  1.00  0.00     0.039 C 
ENDROOT
BRANCH   5  13
ATOM     13  C   UNL     1      12.110   7.509  22.669  1.00  0.00    -0.013 C 
ATOM     14  C   UNL     1      10.634   7.932  22.610  1.00  0.00     0.007 C 
ATOM     15  C   UNL     1      12.824   7.890  21.358  1.00  0.00     0.007 C 
ENDBRANCH   5  13
TORSDOF 1
ENDMDL
MODEL 3
REMARK VINA RESULT:    -5.594      1.104      4.868
REMARK INTER + INTRA:          -6.076
REMARK INTER:                  -5.707
REMARK INTRA:                  -0.368
REMARK UNBOUND:                -0.155
REMARK SMILES CC1=C[C@@H]2C(=C(C)CC[C@H]2C(C)C)CC1
REMARK SMILES IDX 1 1 2 2 3 3 4 4 10 5 9 6 8 7 6 8 5 9 14 10 15 11 7 12 11 13
REMARK SMILES IDX 12 14 13 15
REMARK H PARENT
REMARK Flexibility Score: inf
ROOT
ATOM      1  C   UNL     1      13.220   6.702  25.297  1.00  0.00     0.039 C 
ATOM      2  C   UNL     1      12.022   7.001  26.157  1.00  0.00    -0.076 C 
ATOM      3  C   UNL     1      11.701   6.175  27.168  1.00  0.00    -0.020 C 
ATOM      4  C   UNL     1      10.515   6.448  28.079  1.00  0.00     0.041 C 
ATOM      5  C   UNL     1      10.700   5.691  29.445  1.00  0.00     0.003 C 
ATOM      6  C   UNL     1      10.029   6.405  30.658  1.00  0.00     0.009 C 
ATOM      7  C   UNL     1       8.924   7.367  30.229  1.00  0.00     0.031 C 
ATOM      8  C   UNL     1       9.501   8.387  29.281  1.00  0.00    -0.073 C 
ATOM      9  C   UNL     1      10.275   7.954  28.252  1.00  0.00    -0.064 C 
ATOM     10  C   UNL     1      10.857   8.927  27.236  1.00  0.00     0.036 C 
ATOM     11  C   UNL     1      11.187   8.229  25.913  1.00  0.00     0.035 C 
ATOM     12  C   UNL     1       9.247   9.855  29.533  1.00  0.00     0.039 C 
ENDROOT
BRANCH   5  13
ATOM     13  C   UNL     1      10.303   4.181  29.320  1.00  0.00    -0.013 C 
ATOM     14  C   UNL     1      10.011   3.556  30.693  1.00  0.00     0.007 C 
ATOM     15  C   UNL     1       9.129   3.920  28.358  1.00  0.00     0.007 C 
ENDBRANCH   5  13
TORSDOF 1
ENDMDL
MODEL 4
REMARK VINA RESULT:    -5.590      3.393      5.951
REMARK INTER + INTRA:          -6.071
REMARK INTER:                  -5.835
REMARK INTRA:                  -0.236
REMARK UNBOUND:                -0.155
REMARK SMILES CC1=C[C@@H]2C(=C(C)CC[C@H]2C(C)C)CC1
REMARK SMILES IDX 1 1 2 2 3 3 4 4 10 5 9 6 8 7 6 8 5 9 14 10 15 11 7 12 11 13
REMARK SMILES IDX 12 14 13 15
REMARK H PARENT
REMARK Flexibility Score: inf
ROOT
ATOM      1  C   UNL     1      13.497   5.299  28.137  1.00  0.00     0.039 C 
ATOM      2  C   UNL     1      13.189   6.357  27.113  1.00  0.00    -0.076 C 
ATOM      3  C   UNL     1      14.179   6.868  26.360  1.00  0.00    -0.020 C 
ATOM      4  C   UNL     1      13.913   7.922  25.297  1.00  0.00     0.041 C 
ATOM      5  C   UNL     1      15.075   7.921  24.236  1.00  0.00     0.003 C 
ATOM      6  C   UNL     1      14.625   8.354  22.808  1.00  0.00     0.009 C 
ATOM      7  C   UNL     1      13.336   9.170  22.826  1.00  0.00     0.031 C 
ATOM      8  C   UNL     1      12.250   8.360  23.488  1.00  0.00    -0.073 C 
ATOM      9  C   UNL     1      12.524   7.748  24.669  1.00  0.00    -0.064 C 
ATOM     10  C   UNL     1      11.462   6.947  25.410  1.00  0.00     0.036 C 
ATOM     11  C   UNL     1      11.778   6.839  26.904  1.00  0.00     0.035 C 
ATOM     12  C   UNL     1      10.916   8.208  22.795  1.00  0.00     0.039 C 
ENDROOT
BRANCH   5  13
ATOM     13  C   UNL     1      16.325   8.708  24.757  1.00  0.00    -0.013 C 
ATOM     14  C   UNL     1      17.616   7.889  24.600  1.00  0.00     0.007 C 
ATOM     15  C   UNL     1      16.498  10.099  24.119  1.00  0.00     0.007 C 
ENDBRANCH   5  13
TORSDOF 1
ENDMDL
MODEL 5
REMARK VINA RESULT:    -5.566      2.897      6.681
REMARK INTER + INTRA:          -6.046
REMARK INTER:                  -5.663
REMARK INTRA:                  -0.384
REMARK UNBOUND:                -0.155
REMARK SMILES CC1=C[C@@H]2C(=C(C)CC[C@H]2C(C)C)CC1
REMARK SMILES IDX 1 1 2 2 3 3 4 4 10 5 9 6 8 7 6 8 5 9 14 10 15 11 7 12 11 13
REMARK SMILES IDX 12 14 13 15
REMARK H PARENT
REMARK Flexibility Score: inf
ROOT
ATOM      1  C   UNL     1      10.953   7.152  21.001  1.00  0.00     0.039 C 
ATOM      2  C   UNL     1      11.863   7.620  22.104  1.00  0.00    -0.076 C 
ATOM      3  C   UNL     1      11.727   7.118  23.343  1.00  0.00    -0.020 C 
ATOM      4  C   UNL     1      12.638   7.542  24.484  1.00  0.00     0.041 C 
ATOM      5  C   UNL     1      12.638   6.443  25.610  1.00  0.00     0.003 C 
ATOM      6  C   UNL     1      13.973   6.361  26.411  1.00  0.00     0.009 C 
ATOM      7  C   UNL     1      14.787   7.649  26.319  1.00  0.00     0.031 C 
ATOM      8  C   UNL     1      15.070   7.949  24.868  1.00  0.00    -0.073 C 
ATOM      9  C   UNL     1      14.045   7.888  23.980  1.00  0.00    -0.064 C 
ATOM     10  C   UNL     1      14.253   8.217  22.508  1.00  0.00     0.036 C 
ATOM     11  C   UNL     1      12.943   8.633  21.832  1.00  0.00     0.035 C 
ATOM     12  C   UNL     1      16.487   8.253  24.441  1.00  0.00     0.039 C 
ENDROOT
BRANCH   5  13
ATOM     13  C   UNL     1      11.373   6.563  26.525  1.00  0.00    -0.013 C 
ATOM     14  C   UNL     1      11.457   5.617  27.734  1.00  0.00     0.007 C 
ATOM     15  C   UNL     1      11.075   7.999  26.996  1.00  0.00     0.007 C 
ENDBRANCH   5  13
TORSDOF 1
ENDMDL
MODEL 6
REMARK VINA RESULT:    -5.551      2.965      6.366
REMARK INTER + INTRA:          -6.030
REMARK INTER:                  -5.657
REMARK INTRA:                  -0.373
REMARK UNBOUND:                -0.155
REMARK SMILES CC1=C[C@@H]2C(=C(C)CC[C@H]2C(C)C)CC1
REMARK SMILES IDX 1 1 2 2 3 3 4 4 10 5 9 6 8 7 6 8 5 9 14 10 15 11 7 12 11 13
REMARK SMILES IDX 12 14 13 15
REMARK H PARENT
REMARK Flexibility Score: inf
ROOT
ATOM      1  C   UNL     1      16.875   8.901  26.245  1.00  0.00     0.039 C 
ATOM      2  C   UNL     1      15.778   8.282  25.423  1.00  0.00    -0.076 C 
ATOM      3  C   UNL     1      14.555   8.115  25.955  1.00  0.00    -0.020 C 
ATOM      4  C   UNL     1      13.408   7.516  25.156  1.00  0.00     0.041 C 
ATOM      5  C   UNL     1      12.032   7.944  25.786  1.00  0.00     0.003 C 
ATOM      6  C   UNL     1      10.870   8.050  24.752  1.00  0.00     0.009 C 
ATOM      7  C   UNL     1      11.143   7.242  23.486  1.00  0.00     0.031 C 
ATOM      8  C   UNL     1      12.433   7.717  22.867  1.00  0.00    -0.073 C 
ATOM      9  C   UNL     1      13.522   7.862  23.666  1.00  0.00    -0.064 C 
ATOM     10  C   UNL     1      14.866   8.301  23.099  1.00  0.00     0.036 C 
ATOM     11  C   UNL     1      16.026   7.864  23.998  1.00  0.00     0.035 C 
ATOM     12  C   UNL     1      12.461   8.069  21.398  1.00  0.00     0.039 C 
ENDROOT
BRANCH   5  13
ATOM     13  C   UNL     1      11.674   7.063  27.030  1.00  0.00    -0.013 C 
ATOM     14  C   UNL     1      10.178   7.142  27.370  1.00  0.00     0.007 C 
ATOM     15  C   UNL     1      12.112   5.591  26.901  1.00  0.00     0.007 C 
ENDBRANCH   5  13
TORSDOF 1
ENDMDL
MODEL 7
REMARK VINA RESULT:    -5.459      4.419      7.033
REMARK INTER + INTRA:          -5.933
REMARK INTER:                  -5.603
REMARK INTRA:                  -0.330
REMARK UNBOUND:                -0.155
REMARK SMILES CC1=C[C@@H]2C(=C(C)CC[C@H]2C(C)C)CC1
REMARK SMILES IDX 1 1 2 2 3 3 4 4 10 5 9 6 8 7 6 8 5 9 14 10 15 11 7 12 11 13
REMARK SMILES IDX 12 14 13 15
REMARK H PARENT
REMARK Flexibility Score: inf
ROOT
ATOM      1  C   UNL     1      13.309  10.021  21.023  1.00  0.00     0.039 C 
ATOM      2  C   UNL     1      13.584   9.083  22.168  1.00  0.00    -0.076 C 
ATOM      3  C   UNL     1      14.721   9.203  22.873  1.00  0.00    -0.020 C 
ATOM      4  C   UNL     1      15.032   8.294  24.053  1.00  0.00     0.041 C 
ATOM      5  C   UNL     1      16.084   8.981  24.999  1.00  0.00     0.003 C 
ATOM      6  C   UNL     1      15.947   8.573  26.497  1.00  0.00     0.009 C 
ATOM      7  C   UNL     1      15.209   7.248  26.674  1.00  0.00     0.031 C 
ATOM      8  C   UNL     1      13.846   7.355  26.038  1.00  0.00    -0.073 C 
ATOM      9  C   UNL     1      13.752   7.867  24.784  1.00  0.00    -0.064 C 
ATOM     10  C   UNL     1      12.412   7.968  24.069  1.00  0.00     0.036 C 
ATOM     11  C   UNL     1      12.587   8.022  22.548  1.00  0.00     0.035 C 
ATOM     12  C   UNL     1      12.627   6.943  26.832  1.00  0.00     0.039 C 
ENDROOT
BRANCH   5  13
ATOM     13  C   UNL     1      17.540   8.822  24.445  1.00  0.00    -0.013 C 
ATOM     14  C   UNL     1      18.549   9.649  25.257  1.00  0.00     0.007 C 
ATOM     15  C   UNL     1      18.014   7.359  24.342  1.00  0.00     0.007 C 
ENDBRANCH   5  13
TORSDOF 1
ENDMDL
MODEL 8
REMARK VINA RESULT:    -5.451     10.229     12.589
REMARK INTER + INTRA:          -5.924
REMARK INTER:                  -5.551
REMARK INTRA:                  -0.373
REMARK UNBOUND:                -0.155
REMARK SMILES CC1=C[C@@H]2C(=C(C)CC[C@H]2C(C)C)CC1
REMARK SMILES IDX 1 1 2 2 3 3 4 4 10 5 9 6 8 7 6 8 5 9 14 10 15 11 7 12 11 13
REMARK SMILES IDX 12 14 13 15
REMARK H PARENT
REMARK Flexibility Score: inf
ROOT
ATOM      1  C   UNL     1       6.276   7.088  21.084  1.00  0.00     0.039 C 
ATOM      2  C   UNL     1       5.349   7.835  20.163  1.00  0.00    -0.076 C 
ATOM      3  C   UNL     1       5.415   7.631  18.836  1.00  0.00    -0.020 C 
ATOM      4  C   UNL     1       4.484   8.344  17.868  1.00  0.00     0.041 C 
ATOM      5  C   UNL     1       4.390   7.539  16.521  1.00  0.00     0.003 C 
ATOM      6  C   UNL     1       3.024   7.697  15.786  1.00  0.00     0.009 C 
ATOM      7  C   UNL     1       2.276   8.957  16.212  1.00  0.00     0.031 C 
ATOM      8  C   UNL     1       2.061   8.921  17.704  1.00  0.00    -0.073 C 
ATOM      9  C   UNL     1       3.115   8.616  18.505  1.00  0.00    -0.064 C 
ATOM     10  C   UNL     1       2.977   8.599  20.022  1.00  0.00     0.036 C 
ATOM     11  C   UNL     1       4.329   8.796  20.712  1.00  0.00     0.035 C 
ATOM     12  C   UNL     1       0.677   9.169  18.257  1.00  0.00     0.039 C 
ENDROOT
BRANCH   5  13
ATOM     13  C   UNL     1       5.624   7.821  15.599  1.00  0.00    -0.013 C 
ATOM     14  C   UNL     1       5.503   7.094  14.250  1.00  0.00     0.007 C 
ATOM     15  C   UNL     1       5.905   9.319  15.370  1.00  0.00     0.007 C 
ENDBRANCH   5  13
TORSDOF 1
ENDMDL
MODEL 9
REMARK VINA RESULT:    -5.434     10.041     12.539
REMARK INTER + INTRA:          -5.906
REMARK INTER:                  -5.524
REMARK INTRA:                  -0.382
REMARK UNBOUND:                -0.155
REMARK SMILES CC1=C[C@@H]2C(=C(C)CC[C@H]2C(C)C)CC1
REMARK SMILES IDX 1 1 2 2 3 3 4 4 10 5 9 6 8 7 6 8 5 9 14 10 15 11 7 12 11 13
REMARK SMILES IDX 12 14 13 15
REMARK H PARENT
REMARK Flexibility Score: inf
ROOT
ATOM      1  C   UNL     1      -0.451   8.411  18.373  1.00  0.00     0.039 C 
ATOM      2  C   UNL     1       0.966   8.898  18.245  1.00  0.00    -0.076 C 
ATOM      3  C   UNL     1       1.887   8.525  19.150  1.00  0.00    -0.020 C 
ATOM      4  C   UNL     1       3.337   8.973  19.050  1.00  0.00     0.041 C 
ATOM      5  C   UNL     1       4.262   7.986  19.853  1.00  0.00     0.003 C 
ATOM      6  C   UNL     1       5.705   7.864  19.277  1.00  0.00     0.009 C 
ATOM      7  C   UNL     1       6.091   9.063  18.415  1.00  0.00     0.031 C 
ATOM      8  C   UNL     1       5.094   9.203  17.292  1.00  0.00    -0.073 C 
ATOM      9  C   UNL     1       3.770   9.149  17.589  1.00  0.00    -0.064 C 
ATOM     10  C   UNL     1       2.710   9.322  16.509  1.00  0.00     0.036 C 
ATOM     11  C   UNL     1       1.375   9.785  17.099  1.00  0.00     0.035 C 
ATOM     12  C   UNL     1       5.595   9.342  15.873  1.00  0.00     0.039 C 
ENDROOT
BRANCH   5  13
ATOM     13  C   UNL     1       4.233   8.298  21.388  1.00  0.00    -0.013 C 
ATOM     14  C   UNL     1       5.256   7.448  22.159  1.00  0.00     0.007 C 
ATOM     15  C   UNL     1       4.420   9.789  21.727  1.00  0.00     0.007 C 
ENDBRANCH   5  13
TORSDOF 1
ENDMDL
