MODEL 1
REMARK VINA RESULT:    -5.219      0.000      0.000
REMARK INTER + INTRA:         -11.408
REMARK INTER:                  -9.490
REMARK INTRA:                  -1.918
REMARK UNBOUND:                -1.918
REMARK SMILES CCCCCC=CCC=CCCCCCCCC(=O)[O-]
REMARK SMILES IDX 11 1 12 2 13 3 14 4 15 5 16 6 17 7 18 8 19 9 20 10 10 11
REMARK SMILES IDX 9 12 8 13 7 14 6 15 5 16 4 17 3 18 2 19 1 20
REMARK H PARENT
REMARK Flexibility Score: inf
ROOT
ATOM      1  C   UNL     1      14.347 -17.623  -4.195  1.00  0.00     0.027 C 
ENDROOT
BRANCH   1   2
ATOM      2  C   UNL     1      13.439 -18.807  -4.574  1.00  0.00     0.004 C 
BRANCH   2   3
ATOM      3  C   UNL     1      12.398 -18.478  -5.661  1.00  0.00     0.000 C 
BRANCH   3   4
ATOM      4  C   UNL     1      10.961 -18.810  -5.222  1.00  0.00     0.000 C 
BRANCH   4   5
ATOM      5  C   UNL     1      10.145 -17.555  -4.870  1.00  0.00     0.000 C 
BRANCH   5   6
ATOM      6  C   UNL     1       9.685 -17.536  -3.406  1.00  0.00     0.006 C 
BRANCH   6   7
ATOM      7  C   UNL     1      10.534 -18.482  -2.553  1.00  0.00     0.053 C 
BRANCH   7   8
ATOM      8  C   UNL     1       9.810 -18.850  -1.296  1.00  0.00     0.041 C 
ATOM      9  O   UNL     1       8.887 -18.115  -0.861  1.00  0.00    -0.550 OA
ATOM     10  O   UNL     1      10.200 -19.968  -0.571  1.00  0.00    -0.550 OA
ENDBRANCH   7   8
ENDBRANCH   6   7
ENDBRANCH   5   6
ENDBRANCH   4   5
ENDBRANCH   3   4
ENDBRANCH   2   3
ENDBRANCH   1   2
BRANCH   1  11
ATOM     11  C   UNL     1      13.616 -16.308  -4.214  1.00  0.00    -0.031 C 
ATOM     12  C   UNL     1      13.047 -15.803  -3.109  1.00  0.00    -0.027 C 
BRANCH  12  13
ATOM     13  C   UNL     1      12.303 -14.499  -3.124  1.00  0.00     0.054 C 
BRANCH  13  14
ATOM     14  C   UNL     1      11.566 -14.319  -4.427  1.00  0.00    -0.027 C 
ATOM     15  C   UNL     1      11.482 -13.173  -5.131  1.00  0.00    -0.031 C 
BRANCH  15  16
ATOM     16  C   UNL     1      12.117 -11.857  -4.755  1.00  0.00     0.027 C 
BRANCH  16  17
ATOM     17  C   UNL     1      12.532 -11.039  -5.988  1.00  0.00     0.004 C 
BRANCH  17  18
ATOM     18  C   UNL     1      12.092  -9.563  -5.932  1.00  0.00     0.000 C 
BRANCH  18  19
ATOM     19  C   UNL     1      11.214  -9.158  -7.123  1.00  0.00    -0.003 C 
ATOM     20  C   UNL     1       9.745  -9.460  -6.850  1.00  0.00     0.004 C 
ENDBRANCH  18  19
ENDBRANCH  17  18
ENDBRANCH  16  17
ENDBRANCH  15  16
ENDBRANCH  13  14
ENDBRANCH  12  13
ENDBRANCH   1  11
TORSDOF 14
ENDMDL
MODEL 2
REMARK VINA RESULT:    -5.004      0.945      1.881
REMARK INTER + INTRA:         -11.018
REMARK INTER:                  -9.332
REMARK INTRA:                  -1.686
REMARK UNBOUND:                -1.918
REMARK SMILES CCCCCC=CCC=CCCCCCCCC(=O)[O-]
REMARK SMILES IDX 11 1 12 2 13 3 14 4 15 5 16 6 17 7 18 8 19 9 20 10 10 11
REMARK SMILES IDX 9 12 8 13 7 14 6 15 5 16 4 17 3 18 2 19 1 20
REMARK H PARENT
REMARK Flexibility Score: inf
ROOT
ATOM      1  C   UNL     1      13.322 -18.613  -4.971  1.00  0.00     0.027 C 
ENDROOT
BRANCH   1   2
ATOM      2  C   UNL     1      12.127 -18.499  -5.934  1.00  0.00     0.004 C 
BRANCH   2   3
ATOM      3  C   UNL     1      11.193 -17.310  -5.639  1.00  0.00     0.000 C 
BRANCH   3   4
ATOM      4  C   UNL     1       9.873 -17.744  -4.979  1.00  0.00     0.000 C 
BRANCH   4   5
ATOM      5  C   UNL     1       9.318 -16.683  -4.014  1.00  0.00     0.000 C 
BRANCH   5   6
ATOM      6  C   UNL     1       9.517 -17.059  -2.539  1.00  0.00     0.006 C 
BRANCH   6   7
ATOM      7  C   UNL     1       9.954 -18.520  -2.401  1.00  0.00     0.053 C 
BRANCH   7   8
ATOM      8  C   UNL     1       9.712 -19.012  -1.009  1.00  0.00     0.041 C 
ATOM      9  O   UNL     1      10.337 -20.013  -0.574  1.00  0.00    -0.550 OA
ATOM     10  O   UNL     1       8.748 -18.404  -0.216  1.00  0.00    -0.550 OA
ENDBRANCH   7   8
ENDBRANCH   6   7
ENDBRANCH   5   6
ENDBRANCH   4   5
ENDBRANCH   3   4
ENDBRANCH   2   3
ENDBRANCH   1   2
BRANCH   1  11
ATOM     11  C   UNL     1      13.282 -17.579  -3.878  1.00  0.00    -0.031 C 
ATOM     12  C   UNL     1      14.136 -16.545  -3.857  1.00  0.00    -0.027 C 
BRANCH  12  13
ATOM     13  C   UNL     1      14.112 -15.518  -2.762  1.00  0.00     0.054 C 
BRANCH  13  14
ATOM     14  C   UNL     1      12.695 -15.138  -2.415  1.00  0.00    -0.027 C 
ATOM     15  C   UNL     1      11.832 -14.495  -3.225  1.00  0.00    -0.031 C 
BRANCH  15  16
ATOM     16  C   UNL     1      12.116 -14.042  -4.637  1.00  0.00     0.027 C 
BRANCH  16  17
ATOM     17  C   UNL     1      11.628 -12.608  -4.896  1.00  0.00     0.004 C 
BRANCH  17  18
ATOM     18  C   UNL     1      12.768 -11.586  -5.066  1.00  0.00     0.000 C 
BRANCH  18  19
ATOM     19  C   UNL     1      12.503 -10.580  -6.195  1.00  0.00    -0.003 C 
ATOM     20  C   UNL     1      11.865  -9.304  -5.655  1.00  0.00     0.004 C 
ENDBRANCH  18  19
ENDBRANCH  17  18
ENDBRANCH  16  17
ENDBRANCH  15  16
ENDBRANCH  13  14
ENDBRANCH  12  13
ENDBRANCH   1  11
TORSDOF 14
ENDMDL
MODEL 3
REMARK VINA RESULT:    -4.853      3.441      6.859
REMARK INTER + INTRA:         -10.743
REMARK INTER:                  -9.648
REMARK INTRA:                  -1.095
REMARK UNBOUND:                -1.918
REMARK SMILES CCCCCC=CCC=CCCCCCCCC(=O)[O-]
REMARK SMILES IDX 11 1 12 2 13 3 14 4 15 5 16 6 17 7 18 8 19 9 20 10 10 11
REMARK SMILES IDX 9 12 8 13 7 14 6 15 5 16 4 17 3 18 2 19 1 20
REMARK H PARENT
REMARK Flexibility Score: inf
ROOT
ATOM      1  C   UNL     1      14.240 -16.559  -3.452  1.00  0.00     0.027 C 
ENDROOT
BRANCH   1   2
ATOM      2  C   UNL     1      13.996 -17.927  -4.113  1.00  0.00     0.004 C 
BRANCH   2   3
ATOM      3  C   UNL     1      15.283 -18.715  -4.424  1.00  0.00     0.000 C 
BRANCH   3   4
ATOM      4  C   UNL     1      16.430 -18.380  -3.454  1.00  0.00     0.000 C 
BRANCH   4   5
ATOM      5  C   UNL     1      17.557 -19.424  -3.489  1.00  0.00     0.000 C 
BRANCH   5   6
ATOM      6  C   UNL     1      17.823 -20.060  -2.117  1.00  0.00     0.006 C 
BRANCH   6   7
ATOM      7  C   UNL     1      18.125 -21.555  -2.256  1.00  0.00     0.053 C 
BRANCH   7   8
ATOM      8  C   UNL     1      17.020 -22.248  -2.989  1.00  0.00     0.041 C 
ATOM      9  O   UNL     1      15.826 -21.890  -2.818  1.00  0.00    -0.550 OA
ATOM     10  O   UNL     1      17.303 -23.331  -3.809  1.00  0.00    -0.550 OA
ENDBRANCH   7   8
ENDBRANCH   6   7
ENDBRANCH   5   6
ENDBRANCH   4   5
ENDBRANCH   3   4
ENDBRANCH   2   3
ENDBRANCH   1   2
BRANCH   1  11
ATOM     11  C   UNL     1      13.079 -15.618  -3.631  1.00  0.00    -0.031 C 
ATOM     12  C   UNL     1      12.469 -15.471  -4.816  1.00  0.00    -0.027 C 
BRANCH  12  13
ATOM     13  C   UNL     1      11.321 -14.522  -5.007  1.00  0.00     0.054 C 
BRANCH  13  14
ATOM     14  C   UNL     1      10.187 -14.862  -4.074  1.00  0.00    -0.027 C 
ATOM     15  C   UNL     1       9.603 -16.070  -3.953  1.00  0.00    -0.031 C 
BRANCH  15  16
ATOM     16  C   UNL     1       9.981 -17.315  -4.718  1.00  0.00     0.027 C 
BRANCH  16  17
ATOM     17  C   UNL     1      10.244 -18.511  -3.790  1.00  0.00     0.004 C 
BRANCH  17  18
ATOM     18  C   UNL     1      10.594 -18.110  -2.344  1.00  0.00     0.000 C 
BRANCH  18  19
ATOM     19  C   UNL     1       9.612 -18.685  -1.313  1.00  0.00    -0.003 C 
ATOM     20  C   UNL     1      10.216 -19.883  -0.589  1.00  0.00     0.004 C 
ENDBRANCH  18  19
ENDBRANCH  17  18
ENDBRANCH  16  17
ENDBRANCH  15  16
ENDBRANCH  13  14
ENDBRANCH  12  13
ENDBRANCH   1  11
TORSDOF 14
ENDMDL
MODEL 4
REMARK VINA RESULT:    -4.799      2.601      7.114
REMARK INTER + INTRA:         -10.645
REMARK INTER:                  -9.341
REMARK INTRA:                  -1.304
REMARK UNBOUND:                -1.918
REMARK SMILES CCCCCC=CCC=CCCCCCCCC(=O)[O-]
REMARK SMILES IDX 11 1 12 2 13 3 14 4 15 5 16 6 17 7 18 8 19 9 20 10 10 11
REMARK SMILES IDX 9 12 8 13 7 14 6 15 5 16 4 17 3 18 2 19 1 20
REMARK H PARENT
REMARK Flexibility Score: inf
ROOT
ATOM      1  C   UNL     1      11.850 -14.347  -4.123  1.00  0.00     0.027 C 
ENDROOT
BRANCH   1   2
ATOM      2  C   UNL     1      10.673 -15.148  -4.706  1.00  0.00     0.004 C 
BRANCH   2   3
ATOM      3  C   UNL     1      11.090 -16.242  -5.708  1.00  0.00     0.000 C 
BRANCH   3   4
ATOM      4  C   UNL     1      10.316 -17.556  -5.504  1.00  0.00     0.000 C 
BRANCH   4   5
ATOM      5  C   UNL     1      11.182 -18.660  -4.876  1.00  0.00     0.000 C 
BRANCH   5   6
ATOM      6  C   UNL     1      11.185 -18.613  -3.342  1.00  0.00     0.006 C 
BRANCH   6   7
ATOM      7  C   UNL     1       9.856 -18.071  -2.808  1.00  0.00     0.053 C 
BRANCH   7   8
ATOM      8  C   UNL     1       9.592 -18.591  -1.430  1.00  0.00     0.041 C 
ATOM      9  O   UNL     1       8.782 -17.996  -0.675  1.00  0.00    -0.550 OA
ATOM     10  O   UNL     1      10.291 -19.694  -0.958  1.00  0.00    -0.550 OA
ENDBRANCH   7   8
ENDBRANCH   6   7
ENDBRANCH   5   6
ENDBRANCH   4   5
ENDBRANCH   3   4
ENDBRANCH   2   3
ENDBRANCH   1   2
BRANCH   1  11
ATOM     11  C   UNL     1      12.843 -15.222  -3.405  1.00  0.00    -0.031 C 
ATOM     12  C   UNL     1      13.707 -15.999  -4.073  1.00  0.00    -0.027 C 
BRANCH  12  13
ATOM     13  C   UNL     1      14.689 -16.886  -3.364  1.00  0.00     0.054 C 
BRANCH  13  14
ATOM     14  C   UNL     1      14.726 -18.255  -3.995  1.00  0.00    -0.027 C 
ATOM     15  C   UNL     1      15.758 -19.119  -3.939  1.00  0.00    -0.031 C 
BRANCH  15  16
ATOM     16  C   UNL     1      17.068 -18.886  -3.226  1.00  0.00     0.027 C 
BRANCH  16  17
ATOM     17  C   UNL     1      17.342 -19.950  -2.152  1.00  0.00     0.004 C 
BRANCH  17  18
ATOM     18  C   UNL     1      17.848 -21.290  -2.719  1.00  0.00     0.000 C 
BRANCH  18  19
ATOM     19  C   UNL     1      16.716 -22.297  -2.966  1.00  0.00    -0.003 C 
ATOM     20  C   UNL     1      17.261 -23.612  -3.514  1.00  0.00     0.004 C 
ENDBRANCH  18  19
ENDBRANCH  17  18
ENDBRANCH  16  17
ENDBRANCH  15  16
ENDBRANCH  13  14
ENDBRANCH  12  13
ENDBRANCH   1  11
TORSDOF 14
ENDMDL
MODEL 5
REMARK VINA RESULT:    -4.797      3.395      7.124
REMARK INTER + INTRA:         -10.641
REMARK INTER:                  -9.313
REMARK INTRA:                  -1.328
REMARK UNBOUND:                -1.918
REMARK SMILES CCCCCC=CCC=CCCCCCCCC(=O)[O-]
REMARK SMILES IDX 11 1 12 2 13 3 14 4 15 5 16 6 17 7 18 8 19 9 20 10 10 11
REMARK SMILES IDX 9 12 8 13 7 14 6 15 5 16 4 17 3 18 2 19 1 20
REMARK H PARENT
REMARK Flexibility Score: inf
ROOT
ATOM      1  C   UNL     1      11.910 -14.115  -4.534  1.00  0.00     0.027 C 
ENDROOT
BRANCH   1   2
ATOM      2  C   UNL     1      12.974 -14.402  -3.461  1.00  0.00     0.004 C 
BRANCH   2   3
ATOM      3  C   UNL     1      13.038 -15.876  -3.016  1.00  0.00     0.000 C 
BRANCH   3   4
ATOM      4  C   UNL     1      14.273 -16.607  -3.570  1.00  0.00     0.000 C 
BRANCH   4   5
ATOM      5  C   UNL     1      13.939 -18.009  -4.105  1.00  0.00     0.000 C 
BRANCH   5   6
ATOM      6  C   UNL     1      15.188 -18.871  -4.338  1.00  0.00     0.006 C 
BRANCH   6   7
ATOM      7  C   UNL     1      16.312 -18.475  -3.377  1.00  0.00     0.053 C 
BRANCH   7   8
ATOM      8  C   UNL     1      16.923 -19.690  -2.755  1.00  0.00     0.041 C 
ATOM      9  O   UNL     1      16.486 -20.835  -3.040  1.00  0.00    -0.550 OA
ATOM     10  O   UNL     1      17.931 -19.555  -1.809  1.00  0.00    -0.550 OA
ENDBRANCH   7   8
ENDBRANCH   6   7
ENDBRANCH   5   6
ENDBRANCH   4   5
ENDBRANCH   3   4
ENDBRANCH   2   3
ENDBRANCH   1   2
BRANCH   1  11
ATOM     11  C   UNL     1      11.073 -15.324  -4.853  1.00  0.00    -0.031 C 
ATOM     12  C   UNL     1      11.386 -16.149  -5.863  1.00  0.00    -0.027 C 
BRANCH  12  13
ATOM     13  C   UNL     1      10.547 -17.349  -6.197  1.00  0.00     0.054 C 
BRANCH  13  14
ATOM     14  C   UNL     1      10.884 -18.506  -5.292  1.00  0.00    -0.027 C 
ATOM     15  C   UNL     1      10.433 -18.679  -4.034  1.00  0.00    -0.031 C 
BRANCH  15  16
ATOM     16  C   UNL     1       9.496 -17.753  -3.297  1.00  0.00     0.027 C 
BRANCH  16  17
ATOM     17  C   UNL     1       9.591 -17.924  -1.773  1.00  0.00     0.004 C 
BRANCH  17  18
ATOM     18  C   UNL     1      10.194 -19.272  -1.335  1.00  0.00     0.000 C 
BRANCH  18  19
ATOM     19  C   UNL     1       9.809 -19.658   0.100  1.00  0.00    -0.003 C 
ATOM     20  C   UNL     1      10.705 -20.774   0.627  1.00  0.00     0.004 C 
ENDBRANCH  18  19
ENDBRANCH  17  18
ENDBRANCH  16  17
ENDBRANCH  15  16
ENDBRANCH  13  14
ENDBRANCH  12  13
ENDBRANCH   1  11
TORSDOF 14
ENDMDL
MODEL 6
REMARK VINA RESULT:    -4.692      3.970      6.776
REMARK INTER + INTRA:         -10.451
REMARK INTER:                  -9.505
REMARK INTRA:                  -0.946
REMARK UNBOUND:                -1.918
REMARK SMILES CCCCCC=CCC=CCCCCCCCC(=O)[O-]
REMARK SMILES IDX 11 1 12 2 13 3 14 4 15 5 16 6 17 7 18 8 19 9 20 10 10 11
REMARK SMILES IDX 9 12 8 13 7 14 6 15 5 16 4 17 3 18 2 19 1 20
REMARK H PARENT
REMARK Flexibility Score: inf
ROOT
ATOM      1  C   UNL     1      13.338 -18.357  -4.245  1.00  0.00     0.027 C 
ENDROOT
BRANCH   1   2
ATOM      2  C   UNL     1      14.784 -18.805  -4.518  1.00  0.00     0.004 C 
BRANCH   2   3
ATOM      3  C   UNL     1      15.822 -18.208  -3.547  1.00  0.00     0.000 C 
BRANCH   3   4
ATOM      4  C   UNL     1      17.226 -18.805  -3.743  1.00  0.00     0.000 C 
BRANCH   4   5
ATOM      5  C   UNL     1      17.706 -19.603  -2.520  1.00  0.00     0.000 C 
BRANCH   5   6
ATOM      6  C   UNL     1      18.125 -21.037  -2.872  1.00  0.00     0.006 C 
BRANCH   6   7
ATOM      7  C   UNL     1      16.945 -22.002  -2.727  1.00  0.00     0.053 C 
BRANCH   7   8
ATOM      8  C   UNL     1      17.403 -23.419  -2.880  1.00  0.00     0.041 C 
ATOM      9  O   UNL     1      17.233 -24.023  -3.970  1.00  0.00    -0.550 OA
ATOM     10  O   UNL     1      17.956 -24.091  -1.799  1.00  0.00    -0.550 OA
ENDBRANCH   7   8
ENDBRANCH   6   7
ENDBRANCH   5   6
ENDBRANCH   4   5
ENDBRANCH   3   4
ENDBRANCH   2   3
ENDBRANCH   1   2
BRANCH   1  11
ATOM     11  C   UNL     1      13.178 -16.861  -4.300  1.00  0.00    -0.031 C 
ATOM     12  C   UNL     1      12.959 -16.137  -3.193  1.00  0.00    -0.027 C 
BRANCH  12  13
ATOM     13  C   UNL     1      12.783 -14.646  -3.241  1.00  0.00     0.054 C 
BRANCH  13  14
ATOM     14  C   UNL     1      11.940 -14.245  -4.424  1.00  0.00    -0.027 C 
ATOM     15  C   UNL     1      10.686 -14.668  -4.676  1.00  0.00    -0.031 C 
BRANCH  15  16
ATOM     16  C   UNL     1       9.883 -15.613  -3.816  1.00  0.00     0.027 C 
BRANCH  16  17
ATOM     17  C   UNL     1       9.625 -16.957  -4.514  1.00  0.00     0.004 C 
BRANCH  17  18
ATOM     18  C   UNL     1       9.918 -18.184  -3.629  1.00  0.00     0.000 C 
BRANCH  18  19
ATOM     19  C   UNL     1      10.024 -17.831  -2.139  1.00  0.00    -0.003 C 
ATOM     20  C   UNL     1       9.853 -19.071  -1.268  1.00  0.00     0.004 C 
ENDBRANCH  18  19
ENDBRANCH  17  18
ENDBRANCH  16  17
ENDBRANCH  15  16
ENDBRANCH  13  14
ENDBRANCH  12  13
ENDBRANCH   1  11
TORSDOF 14
ENDMDL
MODEL 7
REMARK VINA RESULT:    -4.674      3.286      7.527
REMARK INTER + INTRA:         -10.418
REMARK INTER:                  -8.797
REMARK INTRA:                  -1.621
REMARK UNBOUND:                -1.918
REMARK SMILES CCCCCC=CCC=CCCCCCCCC(=O)[O-]
REMARK SMILES IDX 11 1 12 2 13 3 14 4 15 5 16 6 17 7 18 8 19 9 20 10 10 11
REMARK SMILES IDX 9 12 8 13 7 14 6 15 5 16 4 17 3 18 2 19 1 20
REMARK H PARENT
REMARK Flexibility Score: inf
ROOT
ATOM      1  C   UNL     1      11.559 -14.603  -4.364  1.00  0.00     0.027 C 
ENDROOT
BRANCH   1   2
ATOM      2  C   UNL     1      10.715 -15.091  -3.174  1.00  0.00     0.004 C 
BRANCH   2   3
ATOM      3  C   UNL     1       9.321 -15.619  -3.565  1.00  0.00     0.000 C 
BRANCH   3   4
ATOM      4  C   UNL     1       9.122 -17.097  -3.190  1.00  0.00     0.000 C 
BRANCH   4   5
ATOM      5  C   UNL     1      10.330 -17.685  -2.443  1.00  0.00     0.000 C 
BRANCH   5   6
ATOM      6  C   UNL     1      11.255 -18.502  -3.357  1.00  0.00     0.006 C 
BRANCH   6   7
ATOM      7  C   UNL     1      10.543 -18.879  -4.659  1.00  0.00     0.053 C 
BRANCH   7   8
ATOM      8  C   UNL     1      11.252 -18.287  -5.836  1.00  0.00     0.041 C 
ATOM      9  O   UNL     1      12.341 -18.778  -6.230  1.00  0.00    -0.550 OA
ATOM     10  O   UNL     1      10.744 -17.153  -6.455  1.00  0.00    -0.550 OA
ENDBRANCH   7   8
ENDBRANCH   6   7
ENDBRANCH   5   6
ENDBRANCH   4   5
ENDBRANCH   3   4
ENDBRANCH   2   3
ENDBRANCH   1   2
BRANCH   1  11
ATOM     11  C   UNL     1      12.890 -15.301  -4.451  1.00  0.00    -0.031 C 
ATOM     12  C   UNL     1      13.424 -15.932  -3.395  1.00  0.00    -0.027 C 
BRANCH  12  13
ATOM     13  C   UNL     1      14.758 -16.616  -3.470  1.00  0.00     0.054 C 
BRANCH  13  14
ATOM     14  C   UNL     1      14.614 -18.007  -4.033  1.00  0.00    -0.027 C 
ATOM     15  C   UNL     1      15.567 -18.960  -4.030  1.00  0.00    -0.031 C 
BRANCH  15  16
ATOM     16  C   UNL     1      16.954 -18.819  -3.451  1.00  0.00     0.027 C 
BRANCH  16  17
ATOM     17  C   UNL     1      17.214 -19.820  -2.314  1.00  0.00     0.004 C 
BRANCH  17  18
ATOM     18  C   UNL     1      17.875 -21.131  -2.779  1.00  0.00     0.000 C 
BRANCH  18  19
ATOM     19  C   UNL     1      16.854 -22.236  -3.087  1.00  0.00    -0.003 C 
ATOM     20  C   UNL     1      17.552 -23.530  -3.490  1.00  0.00     0.004 C 
ENDBRANCH  18  19
ENDBRANCH  17  18
ENDBRANCH  16  17
ENDBRANCH  15  16
ENDBRANCH  13  14
ENDBRANCH  12  13
ENDBRANCH   1  11
TORSDOF 14
ENDMDL
MODEL 8
REMARK VINA RESULT:    -4.506      3.885      6.572
REMARK INTER + INTRA:         -10.113
REMARK INTER:                  -9.008
REMARK INTRA:                  -1.105
REMARK UNBOUND:                -1.918
REMARK SMILES CCCCCC=CCC=CCCCCCCCC(=O)[O-]
REMARK SMILES IDX 11 1 12 2 13 3 14 4 15 5 16 6 17 7 18 8 19 9 20 10 10 11
REMARK SMILES IDX 9 12 8 13 7 14 6 15 5 16 4 17 3 18 2 19 1 20
REMARK H PARENT
REMARK Flexibility Score: inf
ROOT
ATOM      1  C   UNL     1      14.305 -16.585  -3.130  1.00  0.00     0.027 C 
ENDROOT
BRANCH   1   2
ATOM      2  C   UNL     1      14.106 -17.679  -4.194  1.00  0.00     0.004 C 
BRANCH   2   3
ATOM      3  C   UNL     1      15.304 -18.637  -4.343  1.00  0.00     0.000 C 
BRANCH   3   4
ATOM      4  C   UNL     1      16.329 -18.483  -3.207  1.00  0.00     0.000 C 
BRANCH   4   5
ATOM      5  C   UNL     1      17.677 -19.147  -3.533  1.00  0.00     0.000 C 
BRANCH   5   6
ATOM      6  C   UNL     1      18.115 -20.160  -2.466  1.00  0.00     0.006 C 
BRANCH   6   7
ATOM      7  C   UNL     1      17.068 -21.265  -2.299  1.00  0.00     0.053 C 
BRANCH   7   8
ATOM      8  C   UNL     1      17.671 -22.606  -2.576  1.00  0.00     0.041 C 
ATOM      9  O   UNL     1      18.123 -23.303  -1.632  1.00  0.00    -0.550 OA
ATOM     10  O   UNL     1      17.793 -23.056  -3.884  1.00  0.00    -0.550 OA
ENDBRANCH   7   8
ENDBRANCH   6   7
ENDBRANCH   5   6
ENDBRANCH   4   5
ENDBRANCH   3   4
ENDBRANCH   2   3
ENDBRANCH   1   2
BRANCH   1  11
ATOM     11  C   UNL     1      13.227 -15.536  -3.174  1.00  0.00    -0.031 C 
ATOM     12  C   UNL     1      12.830 -14.982  -4.329  1.00  0.00    -0.027 C 
BRANCH  12  13
ATOM     13  C   UNL     1      11.766 -13.924  -4.378  1.00  0.00     0.054 C 
BRANCH  13  14
ATOM     14  C   UNL     1      10.496 -14.471  -4.979  1.00  0.00    -0.027 C 
ATOM     15  C   UNL     1       9.654 -15.338  -4.383  1.00  0.00    -0.031 C 
BRANCH  15  16
ATOM     16  C   UNL     1       9.816 -15.918  -2.999  1.00  0.00     0.027 C 
BRANCH  16  17
ATOM     17  C   UNL     1       9.539 -17.429  -2.966  1.00  0.00     0.004 C 
BRANCH  17  18
ATOM     18  C   UNL     1      10.526 -18.260  -3.807  1.00  0.00     0.000 C 
BRANCH  18  19
ATOM     19  C   UNL     1      10.313 -18.088  -5.318  1.00  0.00    -0.003 C 
ATOM     20  C   UNL     1      11.377 -18.839  -6.111  1.00  0.00     0.004 C 
ENDBRANCH  18  19
ENDBRANCH  17  18
ENDBRANCH  16  17
ENDBRANCH  15  16
ENDBRANCH  13  14
ENDBRANCH  12  13
ENDBRANCH   1  11
TORSDOF 14
ENDMDL
MODEL 9
REMARK VINA RESULT:    -4.502      3.761      7.339
REMARK INTER + INTRA:         -10.105
REMARK INTER:                  -8.349
REMARK INTRA:                  -1.757
REMARK UNBOUND:                -1.918
REMARK SMILES CCCCCC=CCC=CCCCCCCCC(=O)[O-]
REMARK SMILES IDX 11 1 12 2 13 3 14 4 15 5 16 6 17 7 18 8 19 9 20 10 10 11
REMARK SMILES IDX 9 12 8 13 7 14 6 15 5 16 4 17 3 18 2 19 1 20
REMARK H PARENT
REMARK Flexibility Score: inf
ROOT
ATOM      1  C   UNL     1      14.323 -15.846  -2.823  1.00  0.00     0.027 C 
ENDROOT
BRANCH   1   2
ATOM      2  C   UNL     1      13.261 -14.750  -2.624  1.00  0.00     0.004 C 
BRANCH   2   3
ATOM      3  C   UNL     1      11.835 -15.177  -3.022  1.00  0.00     0.000 C 
BRANCH   3   4
ATOM      4  C   UNL     1      11.320 -14.433  -4.266  1.00  0.00     0.000 C 
BRANCH   4   5
ATOM      5  C   UNL     1      12.320 -13.387  -4.785  1.00  0.00     0.000 C 
BRANCH   5   6
ATOM      6  C   UNL     1      11.683 -12.006  -4.990  1.00  0.00     0.006 C 
BRANCH   6   7
ATOM      7  C   UNL     1      12.645 -11.063  -5.718  1.00  0.00     0.053 C 
BRANCH   7   8
ATOM      8  C   UNL     1      12.040  -9.702  -5.860  1.00  0.00     0.041 C 
ATOM      9  O   UNL     1      11.233  -9.464  -6.795  1.00  0.00    -0.550 OA
ATOM     10  O   UNL     1      12.419  -8.679  -5.000  1.00  0.00    -0.550 OA
ENDBRANCH   7   8
ENDBRANCH   6   7
ENDBRANCH   5   6
ENDBRANCH   4   5
ENDBRANCH   3   4
ENDBRANCH   2   3
ENDBRANCH   1   2
BRANCH   1  11
ATOM     11  C   UNL     1      14.033 -16.720  -4.013  1.00  0.00    -0.031 C 
ATOM     12  C   UNL     1      13.591 -17.978  -3.871  1.00  0.00    -0.027 C 
BRANCH  12  13
ATOM     13  C   UNL     1      13.315 -18.861  -5.054  1.00  0.00     0.054 C 
BRANCH  13  14
ATOM     14  C   UNL     1      12.390 -18.177  -6.028  1.00  0.00    -0.027 C 
ATOM     15  C   UNL     1      11.058 -18.041  -5.885  1.00  0.00    -0.031 C 
BRANCH  15  16
ATOM     16  C   UNL     1      10.239 -18.539  -4.719  1.00  0.00     0.027 C 
BRANCH  16  17
ATOM     17  C   UNL     1       9.489 -17.402  -4.008  1.00  0.00     0.004 C 
BRANCH  17  18
ATOM     18  C   UNL     1       9.411 -17.570  -2.479  1.00  0.00     0.000 C 
BRANCH  18  19
ATOM     19  C   UNL     1      10.468 -18.538  -1.931  1.00  0.00    -0.003 C 
ATOM     20  C   UNL     1       9.914 -19.356  -0.769  1.00  0.00     0.004 C 
ENDBRANCH  18  19
ENDBRANCH  17  18
ENDBRANCH  16  17
ENDBRANCH  15  16
ENDBRANCH  13  14
ENDBRANCH  12  13
ENDBRANCH   1  11
TORSDOF 14
ENDMDL
