MODEL 1
REMARK VINA RESULT:    -3.374      0.000      0.000
REMARK INTER + INTRA:          -5.238
REMARK INTER:                  -4.755
REMARK INTRA:                  -0.483
REMARK UNBOUND:                -0.483
REMARK SMILES CCCCCCCCC(=O)[O-]
REMARK SMILES IDX 6 1 7 2 8 3 9 4 10 5 11 6 5 7 4 8 3 9 2 10 1 11
REMARK H PARENT
REMARK Flexibility Score: inf
ROOT
ATOM      1  C   UNL     1       6.397  10.308 -13.374  1.00  0.00     0.000 C 
ENDROOT
BRANCH   1   2
ATOM      2  C   UNL     1       6.859   9.131 -12.501  1.00  0.00     0.006 C 
BRANCH   2   3
ATOM      3  C   UNL     1       5.707   8.197 -12.110  1.00  0.00     0.053 C 
BRANCH   3   4
ATOM      4  C   UNL     1       4.890   8.805 -11.014  1.00  0.00     0.041 C 
ATOM      5  O   UNL     1       3.754   9.286 -11.263  1.00  0.00    -0.550 OA
ATOM      6  O   UNL     1       5.362   8.795  -9.708  1.00  0.00    -0.550 OA
ENDBRANCH   3   4
ENDBRANCH   2   3
ENDBRANCH   1   2
BRANCH   1   7
ATOM      7  C   UNL     1       5.742   9.845 -14.688  1.00  0.00     0.000 C 
BRANCH   7   8
ATOM      8  C   UNL     1       4.823  10.914 -15.301  1.00  0.00    -0.000 C 
BRANCH   8   9
ATOM      9  C   UNL     1       3.871  11.538 -14.267  1.00  0.00    -0.000 C 
BRANCH   9  10
ATOM     10  C   UNL     1       3.508  12.993 -14.603  1.00  0.00    -0.003 C 
ATOM     11  C   UNL     1       3.860  13.375 -16.041  1.00  0.00     0.004 C 
ENDBRANCH   9  10
ENDBRANCH   8   9
ENDBRANCH   7   8
ENDBRANCH   1   7
TORSDOF 7
ENDMDL
MODEL 2
REMARK VINA RESULT:    -3.368     13.044     14.582
REMARK INTER + INTRA:          -5.229
REMARK INTER:                  -4.876
REMARK INTRA:                  -0.353
REMARK UNBOUND:                -0.483
REMARK SMILES CCCCCCCCC(=O)[O-]
REMARK SMILES IDX 6 1 7 2 8 3 9 4 10 5 11 6 5 7 4 8 3 9 2 10 1 11
REMARK H PARENT
REMARK Flexibility Score: inf
ROOT
ATOM      1  C   UNL     1      18.297  11.529 -13.541  1.00  0.00     0.000 C 
ENDROOT
BRANCH   1   2
ATOM      2  C   UNL     1      19.252  11.974 -14.660  1.00  0.00     0.006 C 
BRANCH   2   3
ATOM      3  C   UNL     1      20.671  12.254 -14.148  1.00  0.00     0.053 C 
BRANCH   3   4
ATOM      4  C   UNL     1      21.050  13.677 -14.409  1.00  0.00     0.041 C 
ATOM      5  O   UNL     1      20.450  14.339 -15.296  1.00  0.00    -0.550 OA
ATOM      6  O   UNL     1      22.031  14.288 -13.640  1.00  0.00    -0.550 OA
ENDBRANCH   3   4
ENDBRANCH   2   3
ENDBRANCH   1   2
BRANCH   1   7
ATOM      7  C   UNL     1      18.002  10.019 -13.584  1.00  0.00     0.000 C 
BRANCH   7   8
ATOM      8  C   UNL     1      18.087   9.438 -15.004  1.00  0.00    -0.000 C 
BRANCH   8   9
ATOM      9  C   UNL     1      17.082   8.296 -15.236  1.00  0.00    -0.000 C 
BRANCH   9  10
ATOM     10  C   UNL     1      16.093   8.137 -14.071  1.00  0.00    -0.003 C 
ATOM     11  C   UNL     1      14.637   8.069 -14.532  1.00  0.00     0.004 C 
ENDBRANCH   9  10
ENDBRANCH   8   9
ENDBRANCH   7   8
ENDBRANCH   1   7
TORSDOF 7
ENDMDL
MODEL 3
REMARK VINA RESULT:    -3.170      1.940      4.842
REMARK INTER + INTRA:          -4.950
REMARK INTER:                  -4.506
REMARK INTRA:                  -0.445
REMARK UNBOUND:                -0.483
REMARK SMILES CCCCCCCCC(=O)[O-]
REMARK SMILES IDX 6 1 7 2 8 3 9 4 10 5 11 6 5 7 4 8 3 9 2 10 1 11
REMARK H PARENT
REMARK Flexibility Score: inf
ROOT
ATOM      1  C   UNL     1       6.526  10.237 -13.396  1.00  0.00     0.000 C 
ENDROOT
BRANCH   1   2
ATOM      2  C   UNL     1       5.627   9.782 -14.555  1.00  0.00     0.006 C 
BRANCH   2   3
ATOM      3  C   UNL     1       4.960  10.957 -15.282  1.00  0.00     0.053 C 
BRANCH   3   4
ATOM      4  C   UNL     1       3.922  11.589 -14.411  1.00  0.00     0.041 C 
ATOM      5  O   UNL     1       3.729  12.832 -14.456  1.00  0.00    -0.550 OA
ATOM      6  O   UNL     1       3.132  10.800 -13.585  1.00  0.00    -0.550 OA
ENDBRANCH   3   4
ENDBRANCH   2   3
ENDBRANCH   1   2
BRANCH   1   7
ATOM      7  C   UNL     1       6.820   9.104 -12.396  1.00  0.00     0.000 C 
BRANCH   7   8
ATOM      8  C   UNL     1       5.832   7.933 -12.521  1.00  0.00    -0.000 C 
BRANCH   8   9
ATOM      9  C   UNL     1       4.772   7.934 -11.405  1.00  0.00    -0.000 C 
BRANCH   9  10
ATOM     10  C   UNL     1       5.251   8.660 -10.139  1.00  0.00    -0.003 C 
ATOM     11  C   UNL     1       4.490   8.231  -8.884  1.00  0.00     0.004 C 
ENDBRANCH   9  10
ENDBRANCH   8   9
ENDBRANCH   7   8
ENDBRANCH   1   7
TORSDOF 7
ENDMDL
MODEL 4
REMARK VINA RESULT:    -3.159     14.428     15.837
REMARK INTER + INTRA:          -4.935
REMARK INTER:                  -4.161
REMARK INTRA:                  -0.775
REMARK UNBOUND:                -0.483
REMARK SMILES CCCCCCCCC(=O)[O-]
REMARK SMILES IDX 6 1 7 2 8 3 9 4 10 5 11 6 5 7 4 8 3 9 2 10 1 11
REMARK H PARENT
REMARK Flexibility Score: inf
ROOT
ATOM      1  C   UNL     1      21.488  10.883 -14.639  1.00  0.00     0.000 C 
ENDROOT
BRANCH   1   2
ATOM      2  C   UNL     1      22.125  12.279 -14.723  1.00  0.00     0.006 C 
BRANCH   2   3
ATOM      3  C   UNL     1      21.223  13.376 -14.141  1.00  0.00     0.053 C 
BRANCH   3   4
ATOM      4  C   UNL     1      20.594  14.172 -15.240  1.00  0.00     0.041 C 
ATOM      5  O   UNL     1      21.148  15.223 -15.658  1.00  0.00    -0.550 OA
ATOM      6  O   UNL     1      19.422  13.727 -15.838  1.00  0.00    -0.550 OA
ENDBRANCH   3   4
ENDBRANCH   2   3
ENDBRANCH   1   2
BRANCH   1   7
ATOM      7  C   UNL     1      20.922  10.411 -15.991  1.00  0.00     0.000 C 
BRANCH   7   8
ATOM      8  C   UNL     1      19.405  10.171 -15.948  1.00  0.00    -0.000 C 
BRANCH   8   9
ATOM      9  C   UNL     1      18.929   9.640 -14.584  1.00  0.00    -0.000 C 
BRANCH   9  10
ATOM     10  C   UNL     1      17.719  10.415 -14.040  1.00  0.00    -0.003 C 
ATOM     11  C   UNL     1      18.119  11.634 -13.210  1.00  0.00     0.004 C 
ENDBRANCH   9  10
ENDBRANCH   8   9
ENDBRANCH   7   8
ENDBRANCH   1   7
TORSDOF 7
ENDMDL
MODEL 5
REMARK VINA RESULT:    -3.137     14.179     15.412
REMARK INTER + INTRA:          -4.905
REMARK INTER:                  -4.604
REMARK INTRA:                  -0.301
REMARK UNBOUND:                -0.483
REMARK SMILES CCCCCCCCC(=O)[O-]
REMARK SMILES IDX 6 1 7 2 8 3 9 4 10 5 11 6 5 7 4 8 3 9 2 10 1 11
REMARK H PARENT
REMARK Flexibility Score: inf
ROOT
ATOM      1  C   UNL     1      18.729  11.901 -13.632  1.00  0.00     0.000 C 
ENDROOT
BRANCH   1   2
ATOM      2  C   UNL     1      18.447  10.465 -14.102  1.00  0.00     0.006 C 
BRANCH   2   3
ATOM      3  C   UNL     1      18.879  10.224 -15.554  1.00  0.00     0.053 C 
BRANCH   3   4
ATOM      4  C   UNL     1      18.981   8.758 -15.832  1.00  0.00     0.041 C 
ATOM      5  O   UNL     1      20.110   8.209 -15.935  1.00  0.00    -0.550 OA
ATOM      6  O   UNL     1      17.830   7.986 -15.927  1.00  0.00    -0.550 OA
ENDBRANCH   3   4
ENDBRANCH   2   3
ENDBRANCH   1   2
BRANCH   1   7
ATOM      7  C   UNL     1      19.641  12.671 -14.604  1.00  0.00     0.000 C 
BRANCH   7   8
ATOM      8  C   UNL     1      20.937  13.163 -13.938  1.00  0.00    -0.000 C 
BRANCH   8   9
ATOM      9  C   UNL     1      21.778  14.053 -14.870  1.00  0.00    -0.000 C 
BRANCH   9  10
ATOM     10  C   UNL     1      20.913  14.887 -15.827  1.00  0.00    -0.003 C 
ATOM     11  C   UNL     1      21.512  16.261 -16.124  1.00  0.00     0.004 C 
ENDBRANCH   9  10
ENDBRANCH   8   9
ENDBRANCH   7   8
ENDBRANCH   1   7
TORSDOF 7
ENDMDL
MODEL 6
REMARK VINA RESULT:    -3.127     14.189     15.416
REMARK INTER + INTRA:          -4.890
REMARK INTER:                  -4.271
REMARK INTRA:                  -0.619
REMARK UNBOUND:                -0.483
REMARK SMILES CCCCCCCCC(=O)[O-]
REMARK SMILES IDX 6 1 7 2 8 3 9 4 10 5 11 6 5 7 4 8 3 9 2 10 1 11
REMARK H PARENT
REMARK Flexibility Score: inf
ROOT
ATOM      1  C   UNL     1      21.237  11.267 -15.577  1.00  0.00     0.000 C 
ENDROOT
BRANCH   1   2
ATOM      2  C   UNL     1      20.252  10.105 -15.379  1.00  0.00     0.006 C 
BRANCH   2   3
ATOM      3  C   UNL     1      18.788  10.543 -15.514  1.00  0.00     0.053 C 
BRANCH   3   4
ATOM      4  C   UNL     1      18.096  10.466 -14.190  1.00  0.00     0.041 C 
ATOM      5  O   UNL     1      18.239  11.389 -13.346  1.00  0.00    -0.550 OA
ATOM      6  O   UNL     1      17.251   9.400 -13.908  1.00  0.00    -0.550 OA
ENDBRANCH   3   4
ENDBRANCH   2   3
ENDBRANCH   1   2
BRANCH   1   7
ATOM      7  C   UNL     1      21.678  11.900 -14.244  1.00  0.00     0.000 C 
BRANCH   7   8
ATOM      8  C   UNL     1      21.286  13.382 -14.133  1.00  0.00    -0.000 C 
BRANCH   8   9
ATOM      9  C   UNL     1      20.240  13.797 -15.182  1.00  0.00    -0.000 C 
BRANCH   9  10
ATOM     10  C   UNL     1      20.715  14.967 -16.058  1.00  0.00    -0.003 C 
ATOM     11  C   UNL     1      21.969  15.647 -15.509  1.00  0.00     0.004 C 
ENDBRANCH   9  10
ENDBRANCH   8   9
ENDBRANCH   7   8
ENDBRANCH   1   7
TORSDOF 7
ENDMDL
MODEL 7
REMARK VINA RESULT:    -3.101     13.719     15.012
REMARK INTER + INTRA:          -4.853
REMARK INTER:                  -4.334
REMARK INTRA:                  -0.519
REMARK UNBOUND:                -0.483
REMARK SMILES CCCCCCCCC(=O)[O-]
REMARK SMILES IDX 6 1 7 2 8 3 9 4 10 5 11 6 5 7 4 8 3 9 2 10 1 11
REMARK H PARENT
REMARK Flexibility Score: inf
ROOT
ATOM      1  C   UNL     1      19.381  11.688 -14.920  1.00  0.00     0.000 C 
ENDROOT
BRANCH   1   2
ATOM      2  C   UNL     1      18.318  11.262 -13.896  1.00  0.00     0.006 C 
BRANCH   2   3
ATOM      3  C   UNL     1      18.380   9.764 -13.569  1.00  0.00     0.053 C 
BRANCH   3   4
ATOM      4  C   UNL     1      17.534   8.985 -14.524  1.00  0.00     0.041 C 
ATOM      5  O   UNL     1      16.329   8.741 -14.250  1.00  0.00    -0.550 OA
ATOM      6  O   UNL     1      18.059   8.570 -15.741  1.00  0.00    -0.550 OA
ENDBRANCH   3   4
ENDBRANCH   2   3
ENDBRANCH   1   2
BRANCH   1   7
ATOM      7  C   UNL     1      20.765  11.082 -14.621  1.00  0.00     0.000 C 
BRANCH   7   8
ATOM      8  C   UNL     1      21.869  12.147 -14.521  1.00  0.00    -0.000 C 
BRANCH   8   9
ATOM      9  C   UNL     1      21.374  13.453 -13.876  1.00  0.00    -0.000 C 
BRANCH   9  10
ATOM     10  C   UNL     1      21.844  14.701 -14.639  1.00  0.00    -0.003 C 
ATOM     11  C   UNL     1      21.006  14.985 -15.885  1.00  0.00     0.004 C 
ENDBRANCH   9  10
ENDBRANCH   8   9
ENDBRANCH   7   8
ENDBRANCH   1   7
TORSDOF 7
ENDMDL
MODEL 8
REMARK VINA RESULT:    -3.063      2.668      5.226
REMARK INTER + INTRA:          -4.799
REMARK INTER:                  -4.423
REMARK INTRA:                  -0.376
REMARK UNBOUND:                -0.483
REMARK SMILES CCCCCCCCC(=O)[O-]
REMARK SMILES IDX 6 1 7 2 8 3 9 4 10 5 11 6 5 7 4 8 3 9 2 10 1 11
REMARK H PARENT
REMARK Flexibility Score: inf
ROOT
ATOM      1  C   UNL     1       6.159  10.488 -13.202  1.00  0.00     0.000 C 
ENDROOT
BRANCH   1   2
ATOM      2  C   UNL     1       5.290  10.358 -14.462  1.00  0.00     0.006 C 
BRANCH   2   3
ATOM      3  C   UNL     1       3.899  10.983 -14.287  1.00  0.00     0.053 C 
BRANCH   3   4
ATOM      4  C   UNL     1       3.842  12.322 -14.949  1.00  0.00     0.041 C 
ATOM      5  O   UNL     1       4.282  12.470 -16.119  1.00  0.00    -0.550 OA
ATOM      6  O   UNL     1       3.255  13.397 -14.294  1.00  0.00    -0.550 OA
ENDBRANCH   3   4
ENDBRANCH   2   3
ENDBRANCH   1   2
BRANCH   1   7
ATOM      7  C   UNL     1       6.781   9.147 -12.773  1.00  0.00     0.000 C 
BRANCH   7   8
ATOM      8  C   UNL     1       5.762   8.205 -12.112  1.00  0.00    -0.000 C 
BRANCH   8   9
ATOM      9  C   UNL     1       4.848   8.934 -11.110  1.00  0.00    -0.000 C 
BRANCH   9  10
ATOM     10  C   UNL     1       5.222   8.638  -9.649  1.00  0.00    -0.003 C 
ATOM     11  C   UNL     1       4.029   8.176  -8.813  1.00  0.00     0.004 C 
ENDBRANCH   9  10
ENDBRANCH   8   9
ENDBRANCH   7   8
ENDBRANCH   1   7
TORSDOF 7
ENDMDL
MODEL 9
REMARK VINA RESULT:    -2.897     14.255     15.761
REMARK INTER + INTRA:          -4.566
REMARK INTER:                  -3.847
REMARK INTRA:                  -0.718
REMARK UNBOUND:                -0.483
REMARK SMILES CCCCCCCCC(=O)[O-]
REMARK SMILES IDX 6 1 7 2 8 3 9 4 10 5 11 6 5 7 4 8 3 9 2 10 1 11
REMARK H PARENT
REMARK Flexibility Score: inf
ROOT
ATOM      1  C   UNL     1      18.422  11.648 -13.519  1.00  0.00     0.000 C 
ENDROOT
BRANCH   1   2
ATOM      2  C   UNL     1      19.751  12.348 -13.845  1.00  0.00     0.006 C 
BRANCH   2   3
ATOM      3  C   UNL     1      19.701  13.123 -15.168  1.00  0.00     0.053 C 
BRANCH   3   4
ATOM      4  C   UNL     1      20.932  13.957 -15.331  1.00  0.00     0.041 C 
ATOM      5  O   UNL     1      22.060  13.487 -15.031  1.00  0.00    -0.550 OA
ATOM      6  O   UNL     1      20.839  15.237 -15.862  1.00  0.00    -0.550 OA
ENDBRANCH   3   4
ENDBRANCH   2   3
ENDBRANCH   1   2
BRANCH   1   7
ATOM      7  C   UNL     1      18.551  10.114 -13.504  1.00  0.00     0.000 C 
BRANCH   7   8
ATOM      8  C   UNL     1      17.936   9.455 -14.749  1.00  0.00    -0.000 C 
BRANCH   8   9
ATOM      9  C   UNL     1      18.865   9.523 -15.974  1.00  0.00    -0.000 C 
BRANCH   9  10
ATOM     10  C   UNL     1      20.234   8.877 -15.710  1.00  0.00    -0.003 C 
ATOM     11  C   UNL     1      21.401   9.830 -15.968  1.00  0.00     0.004 C 
ENDBRANCH   9  10
ENDBRANCH   8   9
ENDBRANCH   7   8
ENDBRANCH   1   7
TORSDOF 7
ENDMDL
