MODEL 1
REMARK VINA RESULT:    -4.828      0.000      0.000
REMARK INTER + INTRA:         -10.933
REMARK INTER:                  -9.061
REMARK INTRA:                  -1.872
REMARK UNBOUND:                -1.872
REMARK SMILES O=C([O-])CCCCCCCCCCCCCCC(=O)[O-]
REMARK SMILES IDX 10 1 9 2 8 3 7 4 6 5 5 6 4 7 2 8 1 9 3 10 11 11 12 12 13 13
REMARK SMILES IDX 14 14 15 15 16 16 17 17 18 18 19 19 20 20
REMARK H PARENT
REMARK Flexibility Score: inf
ROOT
ATOM      1  C   UNL     1       4.122  43.156  10.294  1.00  0.00     0.000 C 
ENDROOT
BRANCH   1   2
ATOM      2  C   UNL     1       3.661  43.968  11.516  1.00  0.00     0.000 C 
BRANCH   2   3
ATOM      3  C   UNL     1       4.442  45.283  11.684  1.00  0.00     0.000 C 
BRANCH   3   4
ATOM      4  C   UNL     1       3.879  46.422  10.818  1.00  0.00     0.000 C 
BRANCH   4   5
ATOM      5  C   UNL     1       4.452  46.415   9.390  1.00  0.00     0.000 C 
BRANCH   5   6
ATOM      6  C   UNL     1       5.306  47.660   9.085  1.00  0.00     0.006 C 
BRANCH   6   7
ATOM      7  C   UNL     1       6.773  47.547   9.529  1.00  0.00     0.053 C 
BRANCH   7   8
ATOM      8  C   UNL     1       7.513  48.838   9.357  1.00  0.00     0.041 C 
ATOM      9  O   UNL     1       8.588  49.040   9.980  1.00  0.00    -0.550 OA
ATOM     10  O   UNL     1       7.031  49.805   8.483  1.00  0.00    -0.550 OA
ENDBRANCH   7   8
ENDBRANCH   6   7
ENDBRANCH   5   6
ENDBRANCH   4   5
ENDBRANCH   3   4
ENDBRANCH   2   3
ENDBRANCH   1   2
BRANCH   1  11
ATOM     11  C   UNL     1       3.000  42.957   9.262  1.00  0.00     0.000 C 
BRANCH  11  12
ATOM     12  C   UNL     1       1.672  43.596   9.703  1.00  0.00     0.000 C 
BRANCH  12  13
ATOM     13  C   UNL     1       1.110  44.571   8.654  1.00  0.00     0.000 C 
BRANCH  13  14
ATOM     14  C   UNL     1       0.683  45.919   9.262  1.00  0.00     0.000 C 
BRANCH  14  15
ATOM     15  C   UNL     1       0.280  47.003   8.241  1.00  0.00     0.000 C 
BRANCH  15  16
ATOM     16  C   UNL     1       1.447  47.831   7.674  1.00  0.00     0.006 C 
BRANCH  16  17
ATOM     17  C   UNL     1       1.843  49.000   8.585  1.00  0.00     0.053 C 
BRANCH  17  18
ATOM     18  C   UNL     1       2.219  50.196   7.766  1.00  0.00     0.041 C 
ATOM     19  O   UNL     1       1.334  50.846   7.150  1.00  0.00    -0.550 OA
ATOM     20  O   UNL     1       3.553  50.561   7.641  1.00  0.00    -0.550 OA
ENDBRANCH  17  18
ENDBRANCH  16  17
ENDBRANCH  15  16
ENDBRANCH  14  15
ENDBRANCH  13  14
ENDBRANCH  12  13
ENDBRANCH  11  12
ENDBRANCH   1  11
TORSDOF 15
ENDMDL
MODEL 2
REMARK VINA RESULT:    -4.817      3.176      5.227
REMARK INTER + INTRA:         -10.914
REMARK INTER:                  -9.105
REMARK INTRA:                  -1.809
REMARK UNBOUND:                -1.872
REMARK SMILES O=C([O-])CCCCCCCCCCCCCCC(=O)[O-]
REMARK SMILES IDX 10 1 9 2 8 3 7 4 6 5 5 6 4 7 2 8 1 9 3 10 11 11 12 12 13 13
REMARK SMILES IDX 14 14 15 15 16 16 17 17 18 18 19 19 20 20
REMARK H PARENT
REMARK Flexibility Score: inf
ROOT
ATOM      1  C   UNL     1       4.912  47.148   9.146  1.00  0.00     0.000 C 
ENDROOT
BRANCH   1   2
ATOM      2  C   UNL     1       3.465  46.714   9.430  1.00  0.00     0.000 C 
BRANCH   2   3
ATOM      3  C   UNL     1       3.224  46.381  10.914  1.00  0.00     0.000 C 
BRANCH   3   4
ATOM      4  C   UNL     1       4.335  45.503  11.512  1.00  0.00     0.000 C 
BRANCH   4   5
ATOM      5  C   UNL     1       3.780  44.351  12.366  1.00  0.00     0.000 C 
BRANCH   5   6
ATOM      6  C   UNL     1       2.489  43.746  11.783  1.00  0.00     0.006 C 
BRANCH   6   7
ATOM      7  C   UNL     1       2.721  42.593  10.793  1.00  0.00     0.053 C 
BRANCH   7   8
ATOM      8  C   UNL     1       2.856  43.083   9.383  1.00  0.00     0.041 C 
ATOM      9  O   UNL     1       1.829  43.334   8.699  1.00  0.00    -0.550 OA
ATOM     10  O   UNL     1       4.116  43.294   8.838  1.00  0.00    -0.550 OA
ENDBRANCH   7   8
ENDBRANCH   6   7
ENDBRANCH   5   6
ENDBRANCH   4   5
ENDBRANCH   3   4
ENDBRANCH   2   3
ENDBRANCH   1   2
BRANCH   1  11
ATOM     11  C   UNL     1       4.987  48.467   8.359  1.00  0.00     0.000 C 
BRANCH  11  12
ATOM     12  C   UNL     1       3.794  48.655   7.407  1.00  0.00     0.000 C 
BRANCH  12  13
ATOM     13  C   UNL     1       3.185  50.065   7.498  1.00  0.00     0.000 C 
BRANCH  13  14
ATOM     14  C   UNL     1       1.952  50.124   8.417  1.00  0.00     0.000 C 
BRANCH  14  15
ATOM     15  C   UNL     1       0.596  49.910   7.714  1.00  0.00     0.000 C 
BRANCH  15  16
ATOM     16  C   UNL     1      -0.155  48.628   8.119  1.00  0.00     0.006 C 
BRANCH  16  17
ATOM     17  C   UNL     1       0.406  47.372   7.441  1.00  0.00     0.053 C 
BRANCH  17  18
ATOM     18  C   UNL     1      -0.125  46.140   8.104  1.00  0.00     0.041 C 
ATOM     19  O   UNL     1      -0.669  45.235   7.419  1.00  0.00    -0.550 OA
ATOM     20  O   UNL     1      -0.065  46.014   9.487  1.00  0.00    -0.550 OA
ENDBRANCH  17  18
ENDBRANCH  16  17
ENDBRANCH  15  16
ENDBRANCH  14  15
ENDBRANCH  13  14
ENDBRANCH  12  13
ENDBRANCH  11  12
ENDBRANCH   1  11
TORSDOF 15
ENDMDL
MODEL 3
REMARK VINA RESULT:    -4.801      2.906      5.397
REMARK INTER + INTRA:         -10.884
REMARK INTER:                  -8.913
REMARK INTRA:                  -1.971
REMARK UNBOUND:                -1.872
REMARK SMILES O=C([O-])CCCCCCCCCCCCCCC(=O)[O-]
REMARK SMILES IDX 10 1 9 2 8 3 7 4 6 5 5 6 4 7 2 8 1 9 3 10 11 11 12 12 13 13
REMARK SMILES IDX 14 14 15 15 16 16 17 17 18 18 19 19 20 20
REMARK H PARENT
REMARK Flexibility Score: inf
ROOT
ATOM      1  C   UNL     1      -0.365  47.405   7.230  1.00  0.00     0.000 C 
ENDROOT
BRANCH   1   2
ATOM      2  C   UNL     1      -0.351  48.578   8.224  1.00  0.00     0.000 C 
BRANCH   2   3
ATOM      3  C   UNL     1       0.571  49.726   7.775  1.00  0.00     0.000 C 
BRANCH   3   4
ATOM      4  C   UNL     1       1.910  49.741   8.532  1.00  0.00     0.000 C 
BRANCH   4   5
ATOM      5  C   UNL     1       3.121  49.755   7.585  1.00  0.00     0.000 C 
BRANCH   5   6
ATOM      6  C   UNL     1       3.770  48.367   7.427  1.00  0.00     0.006 C 
BRANCH   6   7
ATOM      7  C   UNL     1       3.698  47.487   8.685  1.00  0.00     0.053 C 
BRANCH   7   8
ATOM      8  C   UNL     1       5.016  47.412   9.394  1.00  0.00     0.041 C 
ATOM      9  O   UNL     1       6.058  47.852   8.841  1.00  0.00    -0.550 OA
ATOM     10  O   UNL     1       5.086  46.888  10.679  1.00  0.00    -0.550 OA
ENDBRANCH   7   8
ENDBRANCH   6   7
ENDBRANCH   5   6
ENDBRANCH   4   5
ENDBRANCH   3   4
ENDBRANCH   2   3
ENDBRANCH   1   2
BRANCH   1  11
ATOM     11  C   UNL     1      -0.098  46.052   7.911  1.00  0.00     0.000 C 
BRANCH  11  12
ATOM     12  C   UNL     1       0.318  46.206   9.385  1.00  0.00     0.000 C 
BRANCH  12  13
ATOM     13  C   UNL     1       1.138  45.008   9.893  1.00  0.00     0.000 C 
BRANCH  13  14
ATOM     14  C   UNL     1       1.338  43.924   8.819  1.00  0.00     0.000 C 
BRANCH  14  15
ATOM     15  C   UNL     1       2.658  43.133   8.920  1.00  0.00     0.000 C 
BRANCH  15  16
ATOM     16  C   UNL     1       3.797  43.854   9.661  1.00  0.00     0.006 C 
BRANCH  16  17
ATOM     17  C   UNL     1       4.256  43.105  10.919  1.00  0.00     0.053 C 
BRANCH  17  18
ATOM     18  C   UNL     1       3.642  43.714  12.141  1.00  0.00     0.041 C 
ATOM     19  O   UNL     1       4.292  44.542  12.831  1.00  0.00    -0.550 OA
ATOM     20  O   UNL     1       2.371  43.326  12.546  1.00  0.00    -0.550 OA
ENDBRANCH  17  18
ENDBRANCH  16  17
ENDBRANCH  15  16
ENDBRANCH  14  15
ENDBRANCH  13  14
ENDBRANCH  12  13
ENDBRANCH  11  12
ENDBRANCH   1  11
TORSDOF 15
ENDMDL
MODEL 4
REMARK VINA RESULT:    -4.771      3.705      6.818
REMARK INTER + INTRA:         -10.826
REMARK INTER:                  -9.029
REMARK INTRA:                  -1.798
REMARK UNBOUND:                -1.872
REMARK SMILES O=C([O-])CCCCCCCCCCCCCCC(=O)[O-]
REMARK SMILES IDX 10 1 9 2 8 3 7 4 6 5 5 6 4 7 2 8 1 9 3 10 11 11 12 12 13 13
REMARK SMILES IDX 14 14 15 15 16 16 17 17 18 18 19 19 20 20
REMARK H PARENT
REMARK Flexibility Score: inf
ROOT
ATOM      1  C   UNL     1       3.776  48.582   7.526  1.00  0.00     0.000 C 
ENDROOT
BRANCH   1   2
ATOM      2  C   UNL     1       3.175  49.983   7.324  1.00  0.00     0.000 C 
BRANCH   2   3
ATOM      3  C   UNL     1       1.950  50.239   8.220  1.00  0.00     0.000 C 
BRANCH   3   4
ATOM      4  C   UNL     1       1.278  48.940   8.691  1.00  0.00     0.000 C 
BRANCH   4   5
ATOM      5  C   UNL     1      -0.097  48.717   8.038  1.00  0.00     0.000 C 
BRANCH   5   6
ATOM      6  C   UNL     1      -0.327  47.253   7.617  1.00  0.00     0.006 C 
BRANCH   6   7
ATOM      7  C   UNL     1       0.358  46.218   8.525  1.00  0.00     0.053 C 
BRANCH   7   8
ATOM      8  C   UNL     1       0.433  44.868   7.878  1.00  0.00     0.041 C 
ATOM      9  O   UNL     1      -0.190  44.643   6.808  1.00  0.00    -0.550 OA
ATOM     10  O   UNL     1       1.218  43.870   8.441  1.00  0.00    -0.550 OA
ENDBRANCH   7   8
ENDBRANCH   6   7
ENDBRANCH   5   6
ENDBRANCH   4   5
ENDBRANCH   3   4
ENDBRANCH   2   3
ENDBRANCH   1   2
BRANCH   1  11
ATOM     11  C   UNL     1       5.116  48.619   8.280  1.00  0.00     0.000 C 
BRANCH  11  12
ATOM     12  C   UNL     1       5.328  47.381   9.167  1.00  0.00     0.000 C 
BRANCH  12  13
ATOM     13  C   UNL     1       4.071  46.497   9.255  1.00  0.00     0.000 C 
BRANCH  13  14
ATOM     14  C   UNL     1       3.579  46.304  10.700  1.00  0.00     0.000 C 
BRANCH  14  15
ATOM     15  C   UNL     1       4.519  45.490  11.613  1.00  0.00     0.000 C 
BRANCH  15  16
ATOM     16  C   UNL     1       3.842  44.355  12.401  1.00  0.00     0.006 C 
BRANCH  16  17
ATOM     17  C   UNL     1       3.013  43.423  11.508  1.00  0.00     0.053 C 
BRANCH  17  18
ATOM     18  C   UNL     1       1.590  43.389  11.968  1.00  0.00     0.041 C 
ATOM     19  O   UNL     1       0.788  44.295  11.619  1.00  0.00    -0.550 OA
ATOM     20  O   UNL     1       1.161  42.383  12.826  1.00  0.00    -0.550 OA
ENDBRANCH  17  18
ENDBRANCH  16  17
ENDBRANCH  15  16
ENDBRANCH  14  15
ENDBRANCH  13  14
ENDBRANCH  12  13
ENDBRANCH  11  12
ENDBRANCH   1  11
TORSDOF 15
ENDMDL
MODEL 5
REMARK VINA RESULT:    -4.742      0.899      4.788
REMARK INTER + INTRA:         -10.772
REMARK INTER:                  -9.178
REMARK INTRA:                  -1.594
REMARK UNBOUND:                -1.872
REMARK SMILES O=C([O-])CCCCCCCCCCCCCCC(=O)[O-]
REMARK SMILES IDX 10 1 9 2 8 3 7 4 6 5 5 6 4 7 2 8 1 9 3 10 11 11 12 12 13 13
REMARK SMILES IDX 14 14 15 15 16 16 17 17 18 18 19 19 20 20
REMARK H PARENT
REMARK Flexibility Score: inf
ROOT
ATOM      1  C   UNL     1       2.973  42.897  10.426  1.00  0.00     0.000 C 
ENDROOT
BRANCH   1   2
ATOM      2  C   UNL     1       2.325  43.216   9.069  1.00  0.00     0.000 C 
BRANCH   2   3
ATOM      3  C   UNL     1       1.388  44.437   9.131  1.00  0.00     0.000 C 
BRANCH   3   4
ATOM      4  C   UNL     1       0.509  44.574   7.877  1.00  0.00     0.000 C 
BRANCH   4   5
ATOM      5  C   UNL     1       0.146  46.037   7.570  1.00  0.00     0.000 C 
BRANCH   5   6
ATOM      6  C   UNL     1       0.983  47.042   8.384  1.00  0.00     0.006 C 
BRANCH   6   7
ATOM      7  C   UNL     1       0.652  48.517   8.104  1.00  0.00     0.053 C 
BRANCH   7   8
ATOM      8  C   UNL     1       1.885  49.362   8.014  1.00  0.00     0.041 C 
ATOM      9  O   UNL     1       1.961  50.442   8.656  1.00  0.00    -0.550 OA
ATOM     10  O   UNL     1       2.964  48.939   7.248  1.00  0.00    -0.550 OA
ENDBRANCH   7   8
ENDBRANCH   6   7
ENDBRANCH   5   6
ENDBRANCH   4   5
ENDBRANCH   3   4
ENDBRANCH   2   3
ENDBRANCH   1   2
BRANCH   1  11
ATOM     11  C   UNL     1       2.291  43.631  11.592  1.00  0.00     0.000 C 
BRANCH  11  12
ATOM     12  C   UNL     1       3.286  44.439  12.443  1.00  0.00     0.000 C 
BRANCH  12  13
ATOM     13  C   UNL     1       4.400  45.080  11.597  1.00  0.00     0.000 C 
BRANCH  13  14
ATOM     14  C   UNL     1       3.919  46.314  10.814  1.00  0.00     0.000 C 
BRANCH  14  15
ATOM     15  C   UNL     1       4.485  46.450   9.386  1.00  0.00     0.000 C 
BRANCH  15  16
ATOM     16  C   UNL     1       5.345  47.702   9.140  1.00  0.00     0.006 C 
BRANCH  16  17
ATOM     17  C   UNL     1       6.775  47.554   9.674  1.00  0.00     0.053 C 
BRANCH  17  18
ATOM     18  C   UNL     1       7.570  48.790   9.387  1.00  0.00     0.041 C 
ATOM     19  O   UNL     1       8.672  48.983   9.964  1.00  0.00    -0.550 OA
ATOM     20  O   UNL     1       7.068  49.752   8.519  1.00  0.00    -0.550 OA
ENDBRANCH  17  18
ENDBRANCH  16  17
ENDBRANCH  15  16
ENDBRANCH  14  15
ENDBRANCH  13  14
ENDBRANCH  12  13
ENDBRANCH  11  12
ENDBRANCH   1  11
TORSDOF 15
ENDMDL
MODEL 6
REMARK VINA RESULT:    -4.653      2.962      5.477
REMARK INTER + INTRA:         -10.605
REMARK INTER:                  -8.877
REMARK INTRA:                  -1.728
REMARK UNBOUND:                -1.872
REMARK SMILES O=C([O-])CCCCCCCCCCCCCCC(=O)[O-]
REMARK SMILES IDX 10 1 9 2 8 3 7 4 6 5 5 6 4 7 2 8 1 9 3 10 11 11 12 12 13 13
REMARK SMILES IDX 14 14 15 15 16 16 17 17 18 18 19 19 20 20
REMARK H PARENT
REMARK Flexibility Score: inf
ROOT
ATOM      1  C   UNL     1       0.247  47.208   7.409  1.00  0.00     0.000 C 
ENDROOT
BRANCH   1   2
ATOM      2  C   UNL     1      -0.270  45.850   7.909  1.00  0.00     0.000 C 
BRANCH   2   3
ATOM      3  C   UNL     1       0.756  45.111   8.787  1.00  0.00     0.000 C 
BRANCH   3   4
ATOM      4  C   UNL     1       0.724  45.572  10.253  1.00  0.00     0.000 C 
BRANCH   4   5
ATOM      5  C   UNL     1       1.199  44.479  11.225  1.00  0.00     0.000 C 
BRANCH   5   6
ATOM      6  C   UNL     1       2.609  44.751  11.784  1.00  0.00     0.006 C 
BRANCH   6   7
ATOM      7  C   UNL     1       3.611  43.606  11.562  1.00  0.00     0.053 C 
BRANCH   7   8
ATOM      8  C   UNL     1       3.558  43.077  10.162  1.00  0.00     0.041 C 
ATOM      9  O   UNL     1       2.969  41.992   9.917  1.00  0.00    -0.550 OA
ATOM     10  O   UNL     1       4.130  43.801   9.123  1.00  0.00    -0.550 OA
ENDBRANCH   7   8
ENDBRANCH   6   7
ENDBRANCH   5   6
ENDBRANCH   4   5
ENDBRANCH   3   4
ENDBRANCH   2   3
ENDBRANCH   1   2
BRANCH   1  11
ATOM     11  C   UNL     1      -0.146  48.367   8.341  1.00  0.00     0.000 C 
BRANCH  11  12
ATOM     12  C   UNL     1      -0.376  49.684   7.580  1.00  0.00     0.000 C 
BRANCH  12  13
ATOM     13  C   UNL     1       0.865  50.593   7.588  1.00  0.00     0.000 C 
BRANCH  13  14
ATOM     14  C   UNL     1       2.033  50.000   8.396  1.00  0.00     0.000 C 
BRANCH  14  15
ATOM     15  C   UNL     1       3.312  49.706   7.585  1.00  0.00     0.000 C 
BRANCH  15  16
ATOM     16  C   UNL     1       3.743  48.229   7.559  1.00  0.00     0.006 C 
BRANCH  16  17
ATOM     17  C   UNL     1       3.675  47.566   8.941  1.00  0.00     0.053 C 
BRANCH  17  18
ATOM     18  C   UNL     1       5.053  47.318   9.470  1.00  0.00     0.041 C 
ATOM     19  O   UNL     1       5.221  46.608  10.496  1.00  0.00    -0.550 OA
ATOM     20  O   UNL     1       6.149  47.914   8.858  1.00  0.00    -0.550 OA
ENDBRANCH  17  18
ENDBRANCH  16  17
ENDBRANCH  15  16
ENDBRANCH  14  15
ENDBRANCH  13  14
ENDBRANCH  12  13
ENDBRANCH  11  12
ENDBRANCH   1  11
TORSDOF 15
ENDMDL
MODEL 7
REMARK VINA RESULT:    -4.552      1.243      4.828
REMARK INTER + INTRA:         -10.416
REMARK INTER:                  -8.632
REMARK INTRA:                  -1.783
REMARK UNBOUND:                -1.872
REMARK SMILES O=C([O-])CCCCCCCCCCCCCCC(=O)[O-]
REMARK SMILES IDX 10 1 9 2 8 3 7 4 6 5 5 6 4 7 2 8 1 9 3 10 11 11 12 12 13 13
REMARK SMILES IDX 14 14 15 15 16 16 17 17 18 18 19 19 20 20
REMARK H PARENT
REMARK Flexibility Score: inf
ROOT
ATOM      1  C   UNL     1       1.556  43.695   9.304  1.00  0.00     0.000 C 
ENDROOT
BRANCH   1   2
ATOM      2  C   UNL     1       1.352  44.939   8.424  1.00  0.00     0.000 C 
BRANCH   2   3
ATOM      3  C   UNL     1      -0.002  44.932   7.690  1.00  0.00     0.000 C 
BRANCH   3   4
ATOM      4  C   UNL     1      -0.443  46.336   7.246  1.00  0.00     0.000 C 
BRANCH   4   5
ATOM      5  C   UNL     1       0.683  47.376   7.373  1.00  0.00     0.000 C 
BRANCH   5   6
ATOM      6  C   UNL     1       0.376  48.461   8.422  1.00  0.00     0.006 C 
BRANCH   6   7
ATOM      7  C   UNL     1       1.557  49.396   8.732  1.00  0.00     0.053 C 
BRANCH   7   8
ATOM      8  C   UNL     1       1.678  50.499   7.725  1.00  0.00     0.041 C 
ATOM      9  O   UNL     1       2.813  50.869   7.324  1.00  0.00    -0.550 OA
ATOM     10  O   UNL     1       0.536  51.094   7.204  1.00  0.00    -0.550 OA
ENDBRANCH   7   8
ENDBRANCH   6   7
ENDBRANCH   5   6
ENDBRANCH   4   5
ENDBRANCH   3   4
ENDBRANCH   2   3
ENDBRANCH   1   2
BRANCH   1  11
ATOM     11  C   UNL     1       2.938  43.051   9.101  1.00  0.00     0.000 C 
BRANCH  11  12
ATOM     12  C   UNL     1       3.687  42.833  10.427  1.00  0.00     0.000 C 
BRANCH  12  13
ATOM     13  C   UNL     1       2.842  43.224  11.652  1.00  0.00     0.000 C 
BRANCH  13  14
ATOM     14  C   UNL     1       3.458  44.383  12.456  1.00  0.00     0.000 C 
BRANCH  14  15
ATOM     15  C   UNL     1       4.486  45.241  11.691  1.00  0.00     0.000 C 
BRANCH  15  16
ATOM     16  C   UNL     1       3.899  46.452  10.943  1.00  0.00     0.006 C 
BRANCH  16  17
ATOM     17  C   UNL     1       4.249  46.453   9.449  1.00  0.00     0.053 C 
BRANCH  17  18
ATOM     18  C   UNL     1       5.242  47.531   9.147  1.00  0.00     0.041 C 
ATOM     19  O   UNL     1       6.302  47.623   9.820  1.00  0.00    -0.550 OA
ATOM     20  O   UNL     1       4.974  48.464   8.153  1.00  0.00    -0.550 OA
ENDBRANCH  17  18
ENDBRANCH  16  17
ENDBRANCH  15  16
ENDBRANCH  14  15
ENDBRANCH  13  14
ENDBRANCH  12  13
ENDBRANCH  11  12
ENDBRANCH   1  11
TORSDOF 15
ENDMDL
MODEL 8
REMARK VINA RESULT:    -4.551      3.705      5.779
REMARK INTER + INTRA:         -10.413
REMARK INTER:                  -8.823
REMARK INTRA:                  -1.590
REMARK UNBOUND:                -1.872
REMARK SMILES O=C([O-])CCCCCCCCCCCCCCC(=O)[O-]
REMARK SMILES IDX 10 1 9 2 8 3 7 4 6 5 5 6 4 7 2 8 1 9 3 10 11 11 12 12 13 13
REMARK SMILES IDX 14 14 15 15 16 16 17 17 18 18 19 19 20 20
REMARK H PARENT
REMARK Flexibility Score: inf
ROOT
ATOM      1  C   UNL     1       4.971  48.840   8.061  1.00  0.00     0.000 C 
ENDROOT
BRANCH   1   2
ATOM      2  C   UNL     1       5.143  47.625   8.987  1.00  0.00     0.000 C 
BRANCH   2   3
ATOM      3  C   UNL     1       3.858  46.787   9.112  1.00  0.00     0.000 C 
BRANCH   3   4
ATOM      4  C   UNL     1       4.083  45.464   9.863  1.00  0.00     0.000 C 
BRANCH   4   5
ATOM      5  C   UNL     1       4.273  45.670  11.375  1.00  0.00     0.000 C 
BRANCH   5   6
ATOM      6  C   UNL     1       4.013  44.388  12.188  1.00  0.00     0.006 C 
BRANCH   6   7
ATOM      7  C   UNL     1       3.117  43.359  11.480  1.00  0.00     0.053 C 
BRANCH   7   8
ATOM      8  C   UNL     1       1.690  43.457  11.924  1.00  0.00     0.041 C 
ATOM      9  O   UNL     1       0.964  44.401  11.517  1.00  0.00    -0.550 OA
ATOM     10  O   UNL     1       1.153  42.486  12.760  1.00  0.00    -0.550 OA
ENDBRANCH   7   8
ENDBRANCH   6   7
ENDBRANCH   5   6
ENDBRANCH   4   5
ENDBRANCH   3   4
ENDBRANCH   2   3
ENDBRANCH   1   2
BRANCH   1  11
ATOM     11  C   UNL     1       3.605  48.853   7.354  1.00  0.00     0.000 C 
BRANCH  11  12
ATOM     12  C   UNL     1       2.983  50.259   7.299  1.00  0.00     0.000 C 
BRANCH  12  13
ATOM     13  C   UNL     1       1.525  50.276   7.791  1.00  0.00     0.000 C 
BRANCH  13  14
ATOM     14  C   UNL     1       1.036  48.894   8.259  1.00  0.00     0.000 C 
BRANCH  14  15
ATOM     15  C   UNL     1      -0.434  48.569   7.929  1.00  0.00     0.000 C 
BRANCH  15  16
ATOM     16  C   UNL     1      -0.735  47.079   7.688  1.00  0.00     0.006 C 
BRANCH  16  17
ATOM     17  C   UNL     1       0.223  46.149   8.442  1.00  0.00     0.053 C 
BRANCH  17  18
ATOM     18  C   UNL     1       0.382  44.855   7.707  1.00  0.00     0.041 C 
ATOM     19  O   UNL     1      -0.167  44.692   6.585  1.00  0.00    -0.550 OA
ATOM     20  O   UNL     1       1.093  43.811   8.284  1.00  0.00    -0.550 OA
ENDBRANCH  17  18
ENDBRANCH  16  17
ENDBRANCH  15  16
ENDBRANCH  14  15
ENDBRANCH  13  14
ENDBRANCH  12  13
ENDBRANCH  11  12
ENDBRANCH   1  11
TORSDOF 15
ENDMDL
MODEL 9
REMARK VINA RESULT:    -4.518      2.931      5.543
REMARK INTER + INTRA:         -10.352
REMARK INTER:                  -8.720
REMARK INTRA:                  -1.632
REMARK UNBOUND:                -1.872
REMARK SMILES O=C([O-])CCCCCCCCCCCCCCC(=O)[O-]
REMARK SMILES IDX 10 1 9 2 8 3 7 4 6 5 5 6 4 7 2 8 1 9 3 10 11 11 12 12 13 13
REMARK SMILES IDX 14 14 15 15 16 16 17 17 18 18 19 19 20 20
REMARK H PARENT
REMARK Flexibility Score: inf
ROOT
ATOM      1  C   UNL     1       0.122  47.155   7.443  1.00  0.00     0.000 C 
ENDROOT
BRANCH   1   2
ATOM      2  C   UNL     1      -0.483  45.897   8.086  1.00  0.00     0.000 C 
BRANCH   2   3
ATOM      3  C   UNL     1       0.390  44.646   7.879  1.00  0.00     0.000 C 
BRANCH   3   4
ATOM      4  C   UNL     1       1.363  44.402   9.044  1.00  0.00     0.000 C 
BRANCH   4   5
ATOM      5  C   UNL     1       2.400  43.312   8.727  1.00  0.00     0.000 C 
BRANCH   5   6
ATOM      6  C   UNL     1       2.917  42.597   9.990  1.00  0.00     0.006 C 
BRANCH   6   7
ATOM      7  C   UNL     1       3.986  43.380  10.770  1.00  0.00     0.053 C 
BRANCH   7   8
ATOM      8  C   UNL     1       3.491  43.817  12.115  1.00  0.00     0.041 C 
ATOM      9  O   UNL     1       4.230  44.501  12.870  1.00  0.00    -0.550 OA
ATOM     10  O   UNL     1       2.201  43.497  12.519  1.00  0.00    -0.550 OA
ENDBRANCH   7   8
ENDBRANCH   6   7
ENDBRANCH   5   6
ENDBRANCH   4   5
ENDBRANCH   3   4
ENDBRANCH   2   3
ENDBRANCH   1   2
BRANCH   1  11
ATOM     11  C   UNL     1       0.050  48.382   8.368  1.00  0.00     0.000 C 
BRANCH  11  12
ATOM     12  C   UNL     1      -0.264  49.680   7.603  1.00  0.00     0.000 C 
BRANCH  12  13
ATOM     13  C   UNL     1       0.958  50.608   7.492  1.00  0.00     0.000 C 
BRANCH  13  14
ATOM     14  C   UNL     1       2.132  50.156   8.379  1.00  0.00     0.000 C 
BRANCH  14  15
ATOM     15  C   UNL     1       3.447  49.860   7.630  1.00  0.00     0.000 C 
BRANCH  15  16
ATOM     16  C   UNL     1       3.780  48.367   7.460  1.00  0.00     0.006 C 
BRANCH  16  17
ATOM     17  C   UNL     1       3.608  47.568   8.758  1.00  0.00     0.053 C 
BRANCH  17  18
ATOM     18  C   UNL     1       4.935  47.345   9.414  1.00  0.00     0.041 C 
ATOM     19  O   UNL     1       5.001  46.770  10.531  1.00  0.00    -0.550 OA
ATOM     20  O   UNL     1       6.095  47.819   8.813  1.00  0.00    -0.550 OA
ENDBRANCH  17  18
ENDBRANCH  16  17
ENDBRANCH  15  16
ENDBRANCH  14  15
ENDBRANCH  13  14
ENDBRANCH  12  13
ENDBRANCH  11  12
ENDBRANCH   1  11
TORSDOF 15
ENDMDL
