MODEL 1
REMARK VINA RESULT:    -1.220      0.000      0.000
REMARK INTER + INTRA:          -5.475
REMARK INTER:                  -2.362
REMARK INTRA:                  -3.114
REMARK UNBOUND:                -3.114
REMARK SMILES CCCCCCCCCCCCCCCCCC(=O)[O-]
REMARK SMILES IDX 10 1 11 2 12 3 13 4 14 5 15 6 16 7 17 8 18 9 19 10 20 11
REMARK SMILES IDX 9 12 8 13 7 14 6 15 5 16 4 17 3 18 2 19 1 20
REMARK H PARENT
REMARK Flexibility Score: inf
ROOT
ATOM      1  C   UNL     1      23.923 -28.531   1.301  1.00  0.00     0.000 C 
ENDROOT
BRANCH   1   2
ATOM      2  C   UNL     1      23.062 -28.337   2.559  1.00  0.00     0.000 C 
BRANCH   2   3
ATOM      3  C   UNL     1      23.063 -26.885   3.070  1.00  0.00     0.000 C 
BRANCH   3   4
ATOM      4  C   UNL     1      21.674 -26.237   3.206  1.00  0.00     0.000 C 
BRANCH   4   5
ATOM      5  C   UNL     1      20.534 -27.161   2.755  1.00  0.00     0.000 C 
BRANCH   5   6
ATOM      6  C   UNL     1      19.664 -27.581   3.946  1.00  0.00     0.000 C 
BRANCH   6   7
ATOM      7  C   UNL     1      19.148 -29.016   3.774  1.00  0.00     0.006 C 
BRANCH   7   8
ATOM      8  C   UNL     1      20.205 -30.034   4.212  1.00  0.00     0.053 C 
BRANCH   8   9
ATOM      9  C   UNL     1      19.605 -31.399   4.319  1.00  0.00     0.041 C 
ATOM     10  O   UNL     1      19.297 -31.871   5.445  1.00  0.00    -0.550 OA
ATOM     11  O   UNL     1      19.426 -32.171   3.178  1.00  0.00    -0.550 OA
ENDBRANCH   8   9
ENDBRANCH   7   8
ENDBRANCH   6   7
ENDBRANCH   5   6
ENDBRANCH   4   5
ENDBRANCH   3   4
ENDBRANCH   2   3
ENDBRANCH   1   2
BRANCH   1  12
ATOM     12  C   UNL     1      24.279 -27.203   0.609  1.00  0.00     0.000 C 
BRANCH  12  13
ATOM     13  C   UNL     1      23.474 -26.886  -0.669  1.00  0.00    -0.000 C 
BRANCH  13  14
ATOM     14  C   UNL     1      22.283 -25.930  -0.478  1.00  0.00    -0.000 C 
BRANCH  14  15
ATOM     15  C   UNL     1      20.968 -26.495  -1.039  1.00  0.00    -0.000 C 
BRANCH  15  16
ATOM     16  C   UNL     1      21.188 -27.603  -2.085  1.00  0.00    -0.000 C 
BRANCH  16  17
ATOM     17  C   UNL     1      20.536 -28.958  -1.754  1.00  0.00    -0.000 C 
BRANCH  17  18
ATOM     18  C   UNL     1      19.920 -29.002  -0.348  1.00  0.00    -0.000 C 
BRANCH  18  19
ATOM     19  C   UNL     1      20.528 -30.139   0.481  1.00  0.00    -0.003 C 
ATOM     20  C   UNL     1      21.650 -30.838  -0.280  1.00  0.00     0.004 C 
ENDBRANCH  18  19
ENDBRANCH  17  18
ENDBRANCH  16  17
ENDBRANCH  15  16
ENDBRANCH  14  15
ENDBRANCH  13  14
ENDBRANCH  12  13
ENDBRANCH   1  12
TORSDOF 16
ENDMDL
MODEL 2
REMARK VINA RESULT:    -1.220      3.642      6.794
REMARK INTER + INTRA:          -5.475
REMARK INTER:                  -3.097
REMARK INTRA:                  -2.378
REMARK UNBOUND:                -3.114
REMARK SMILES CCCCCCCCCCCCCCCCCC(=O)[O-]
REMARK SMILES IDX 10 1 11 2 12 3 13 4 14 5 15 6 16 7 17 8 18 9 19 10 20 11
REMARK SMILES IDX 9 12 8 13 7 14 6 15 5 16 4 17 3 18 2 19 1 20
REMARK H PARENT
REMARK Flexibility Score: inf
ROOT
ATOM      1  C   UNL     1      19.277 -32.393   4.768  1.00  0.00     0.000 C 
ENDROOT
BRANCH   1   2
ATOM      2  C   UNL     1      20.251 -31.542   3.938  1.00  0.00     0.000 C 
BRANCH   2   3
ATOM      3  C   UNL     1      20.434 -32.069   2.503  1.00  0.00     0.000 C 
BRANCH   3   4
ATOM      4  C   UNL     1      19.775 -31.218   1.403  1.00  0.00     0.000 C 
BRANCH   4   5
ATOM      5  C   UNL     1      20.106 -29.723   1.521  1.00  0.00     0.000 C 
BRANCH   5   6
ATOM      6  C   UNL     1      19.722 -28.973   0.239  1.00  0.00     0.000 C 
BRANCH   6   7
ATOM      7  C   UNL     1      20.586 -29.425  -0.945  1.00  0.00     0.006 C 
BRANCH   7   8
ATOM      8  C   UNL     1      20.739 -28.300  -1.972  1.00  0.00     0.053 C 
BRANCH   8   9
ATOM      9  C   UNL     1      21.517 -27.162  -1.393  1.00  0.00     0.041 C 
ATOM     10  O   UNL     1      22.698 -27.340  -0.992  1.00  0.00    -0.550 OA
ATOM     11  O   UNL     1      20.924 -25.914  -1.254  1.00  0.00    -0.550 OA
ENDBRANCH   8   9
ENDBRANCH   7   8
ENDBRANCH   6   7
ENDBRANCH   5   6
ENDBRANCH   4   5
ENDBRANCH   3   4
ENDBRANCH   2   3
ENDBRANCH   1   2
BRANCH   1  12
ATOM     12  C   UNL     1      17.936 -31.684   5.030  1.00  0.00     0.000 C 
BRANCH  12  13
ATOM     13  C   UNL     1      17.937 -30.158   4.802  1.00  0.00    -0.000 C 
BRANCH  13  14
ATOM     14  C   UNL     1      16.764 -29.614   3.967  1.00  0.00    -0.000 C 
BRANCH  14  15
ATOM     15  C   UNL     1      16.435 -30.498   2.753  1.00  0.00    -0.000 C 
BRANCH  15  16
ATOM     16  C   UNL     1      15.024 -31.108   2.819  1.00  0.00    -0.000 C 
BRANCH  16  17
ATOM     17  C   UNL     1      14.975 -32.643   2.921  1.00  0.00    -0.000 C 
BRANCH  17  18
ATOM     18  C   UNL     1      15.631 -33.346   1.723  1.00  0.00    -0.000 C 
BRANCH  18  19
ATOM     19  C   UNL     1      16.798 -34.231   2.177  1.00  0.00    -0.003 C 
ATOM     20  C   UNL     1      17.869 -34.329   1.095  1.00  0.00     0.004 C 
ENDBRANCH  18  19
ENDBRANCH  17  18
ENDBRANCH  16  17
ENDBRANCH  15  16
ENDBRANCH  14  15
ENDBRANCH  13  14
ENDBRANCH  12  13
ENDBRANCH   1  12
TORSDOF 16
ENDMDL
MODEL 3
REMARK VINA RESULT:    -1.203      4.214      7.081
REMARK INTER + INTRA:          -5.441
REMARK INTER:                  -2.862
REMARK INTRA:                  -2.579
REMARK UNBOUND:                -3.114
REMARK SMILES CCCCCCCCCCCCCCCCCC(=O)[O-]
REMARK SMILES IDX 10 1 11 2 12 3 13 4 14 5 15 6 16 7 17 8 18 9 19 10 20 11
REMARK SMILES IDX 9 12 8 13 7 14 6 15 5 16 4 17 3 18 2 19 1 20
REMARK H PARENT
REMARK Flexibility Score: inf
ROOT
ATOM      1  C   UNL     1      15.672 -30.442   2.771  1.00  0.00     0.000 C 
ENDROOT
BRANCH   1   2
ATOM      2  C   UNL     1      15.579 -29.403   3.900  1.00  0.00     0.000 C 
BRANCH   2   3
ATOM      3  C   UNL     1      16.686 -29.564   4.957  1.00  0.00     0.000 C 
BRANCH   3   4
ATOM      4  C   UNL     1      18.125 -29.467   4.419  1.00  0.00     0.000 C 
BRANCH   4   5
ATOM      5  C   UNL     1      18.940 -30.748   4.649  1.00  0.00     0.000 C 
BRANCH   5   6
ATOM      6  C   UNL     1      19.876 -31.023   3.466  1.00  0.00     0.000 C 
BRANCH   6   7
ATOM      7  C   UNL     1      19.237 -30.582   2.143  1.00  0.00     0.006 C 
BRANCH   7   8
ATOM      8  C   UNL     1      20.197 -30.805   0.971  1.00  0.00     0.053 C 
BRANCH   8   9
ATOM      9  C   UNL     1      20.492 -29.511   0.281  1.00  0.00     0.041 C 
ATOM     10  O   UNL     1      19.586 -28.907  -0.352  1.00  0.00    -0.550 OA
ATOM     11  O   UNL     1      21.781 -28.993   0.300  1.00  0.00    -0.550 OA
ENDBRANCH   8   9
ENDBRANCH   7   8
ENDBRANCH   6   7
ENDBRANCH   5   6
ENDBRANCH   4   5
ENDBRANCH   3   4
ENDBRANCH   2   3
ENDBRANCH   1   2
BRANCH   1  12
ATOM     12  C   UNL     1      15.566 -31.891   3.281  1.00  0.00     0.000 C 
BRANCH  12  13
ATOM     13  C   UNL     1      16.352 -32.939   2.466  1.00  0.00    -0.000 C 
BRANCH  13  14
ATOM     14  C   UNL     1      17.277 -33.856   3.286  1.00  0.00    -0.000 C 
BRANCH  14  15
ATOM     15  C   UNL     1      18.504 -34.332   2.490  1.00  0.00    -0.000 C 
BRANCH  15  16
ATOM     16  C   UNL     1      18.352 -34.124   0.972  1.00  0.00    -0.000 C 
BRANCH  16  17
ATOM     17  C   UNL     1      18.265 -35.415   0.138  1.00  0.00    -0.000 C 
BRANCH  17  18
ATOM     18  C   UNL     1      16.843 -35.990   0.067  1.00  0.00    -0.000 C 
BRANCH  18  19
ATOM     19  C   UNL     1      15.859 -34.954  -0.488  1.00  0.00    -0.003 C 
ATOM     20  C   UNL     1      15.471 -35.278  -1.927  1.00  0.00     0.004 C 
ENDBRANCH  18  19
ENDBRANCH  17  18
ENDBRANCH  16  17
ENDBRANCH  15  16
ENDBRANCH  14  15
ENDBRANCH  13  14
ENDBRANCH  12  13
ENDBRANCH   1  12
TORSDOF 16
ENDMDL
MODEL 4
REMARK VINA RESULT:    -1.202      4.297      7.894
REMARK INTER + INTRA:          -5.440
REMARK INTER:                  -2.524
REMARK INTRA:                  -2.916
REMARK UNBOUND:                -3.114
REMARK SMILES CCCCCCCCCCCCCCCCCC(=O)[O-]
REMARK SMILES IDX 10 1 11 2 12 3 13 4 14 5 15 6 16 7 17 8 18 9 19 10 20 11
REMARK SMILES IDX 9 12 8 13 7 14 6 15 5 16 4 17 3 18 2 19 1 20
REMARK H PARENT
REMARK Flexibility Score: inf
ROOT
ATOM      1  C   UNL     1      14.395 -34.013   1.830  1.00  0.00     0.000 C 
ENDROOT
BRANCH   1   2
ATOM      2  C   UNL     1      14.059 -32.515   1.920  1.00  0.00     0.000 C 
BRANCH   2   3
ATOM      3  C   UNL     1      14.922 -31.767   2.952  1.00  0.00     0.000 C 
BRANCH   3   4
ATOM      4  C   UNL     1      16.236 -32.469   3.339  1.00  0.00     0.000 C 
BRANCH   4   5
ATOM      5  C   UNL     1      17.444 -31.970   2.533  1.00  0.00     0.000 C 
BRANCH   5   6
ATOM      6  C   UNL     1      17.785 -30.520   2.898  1.00  0.00     0.000 C 
BRANCH   6   7
ATOM      7  C   UNL     1      19.282 -30.242   2.713  1.00  0.00     0.006 C 
BRANCH   7   8
ATOM      8  C   UNL     1      19.871 -31.126   1.610  1.00  0.00     0.053 C 
BRANCH   8   9
ATOM      9  C   UNL     1      20.372 -30.288   0.477  1.00  0.00     0.041 C 
ATOM     10  O   UNL     1      21.430 -30.604  -0.128  1.00  0.00    -0.550 OA
ATOM     11  O   UNL     1      19.693 -29.131   0.117  1.00  0.00    -0.550 OA
ENDBRANCH   8   9
ENDBRANCH   7   8
ENDBRANCH   6   7
ENDBRANCH   5   6
ENDBRANCH   4   5
ENDBRANCH   3   4
ENDBRANCH   2   3
ENDBRANCH   1   2
BRANCH   1  12
ATOM     12  C   UNL     1      15.040 -34.402   0.487  1.00  0.00     0.000 C 
BRANCH  12  13
ATOM     13  C   UNL     1      16.209 -35.405   0.581  1.00  0.00    -0.000 C 
BRANCH  13  14
ATOM     14  C   UNL     1      17.602 -34.827   0.275  1.00  0.00    -0.000 C 
BRANCH  14  15
ATOM     15  C   UNL     1      18.677 -35.303   1.266  1.00  0.00    -0.000 C 
BRANCH  15  16
ATOM     16  C   UNL     1      18.096 -35.707   2.633  1.00  0.00    -0.000 C 
BRANCH  16  17
ATOM     17  C   UNL     1      18.839 -35.139   3.856  1.00  0.00    -0.000 C 
BRANCH  17  18
ATOM     18  C   UNL     1      20.118 -34.376   3.482  1.00  0.00    -0.000 C 
BRANCH  18  19
ATOM     19  C   UNL     1      20.506 -33.384   4.585  1.00  0.00    -0.003 C 
ATOM     20  C   UNL     1      19.317 -33.069   5.487  1.00  0.00     0.004 C 
ENDBRANCH  18  19
ENDBRANCH  17  18
ENDBRANCH  16  17
ENDBRANCH  15  16
ENDBRANCH  14  15
ENDBRANCH  13  14
ENDBRANCH  12  13
ENDBRANCH   1  12
TORSDOF 16
ENDMDL
MODEL 5
REMARK VINA RESULT:    -1.200      3.061      6.322
REMARK INTER + INTRA:          -5.435
REMARK INTER:                  -2.589
REMARK INTRA:                  -2.846
REMARK UNBOUND:                -3.114
REMARK SMILES CCCCCCCCCCCCCCCCCC(=O)[O-]
REMARK SMILES IDX 10 1 11 2 12 3 13 4 14 5 15 6 16 7 17 8 18 9 19 10 20 11
REMARK SMILES IDX 9 12 8 13 7 14 6 15 5 16 4 17 3 18 2 19 1 20
REMARK H PARENT
REMARK Flexibility Score: inf
ROOT
ATOM      1  C   UNL     1      19.795 -31.429   5.055  1.00  0.00     0.000 C 
ENDROOT
BRANCH   1   2
ATOM      2  C   UNL     1      20.461 -31.013   3.735  1.00  0.00     0.000 C 
BRANCH   2   3
ATOM      3  C   UNL     1      19.703 -29.887   3.008  1.00  0.00     0.000 C 
BRANCH   3   4
ATOM      4  C   UNL     1      19.464 -30.122   1.506  1.00  0.00     0.000 C 
BRANCH   4   5
ATOM      5  C   UNL     1      20.720 -30.606   0.767  1.00  0.00     0.000 C 
BRANCH   5   6
ATOM      6  C   UNL     1      20.941 -29.805  -0.522  1.00  0.00     0.000 C 
BRANCH   6   7
ATOM      7  C   UNL     1      20.052 -28.555  -0.554  1.00  0.00     0.006 C 
BRANCH   7   8
ATOM      8  C   UNL     1      20.895 -27.280  -0.459  1.00  0.00     0.053 C 
BRANCH   8   9
ATOM      9  C   UNL     1      20.975 -26.809   0.958  1.00  0.00     0.041 C 
ATOM     10  O   UNL     1      20.206 -25.901   1.369  1.00  0.00    -0.550 OA
ATOM     11  O   UNL     1      21.929 -27.343   1.815  1.00  0.00    -0.550 OA
ENDBRANCH   8   9
ENDBRANCH   7   8
ENDBRANCH   6   7
ENDBRANCH   5   6
ENDBRANCH   4   5
ENDBRANCH   3   4
ENDBRANCH   2   3
ENDBRANCH   1   2
BRANCH   1  12
ATOM     12  C   UNL     1      18.875 -30.338   5.633  1.00  0.00     0.000 C 
BRANCH  12  13
ATOM     13  C   UNL     1      17.400 -30.747   5.823  1.00  0.00    -0.000 C 
BRANCH  13  14
ATOM     14  C   UNL     1      16.416 -30.176   4.787  1.00  0.00    -0.000 C 
BRANCH  14  15
ATOM     15  C   UNL     1      15.676 -31.270   4.000  1.00  0.00    -0.000 C 
BRANCH  15  16
ATOM     16  C   UNL     1      16.459 -31.755   2.766  1.00  0.00    -0.000 C 
BRANCH  16  17
ATOM     17  C   UNL     1      17.169 -33.111   2.930  1.00  0.00    -0.000 C 
BRANCH  17  18
ATOM     18  C   UNL     1      17.942 -33.541   1.675  1.00  0.00    -0.000 C 
BRANCH  18  19
ATOM     19  C   UNL     1      19.351 -34.024   2.037  1.00  0.00    -0.003 C 
ATOM     20  C   UNL     1      20.204 -34.223   0.787  1.00  0.00     0.004 C 
ENDBRANCH  18  19
ENDBRANCH  17  18
ENDBRANCH  16  17
ENDBRANCH  15  16
ENDBRANCH  14  15
ENDBRANCH  13  14
ENDBRANCH  12  13
ENDBRANCH   1  12
TORSDOF 16
ENDMDL
MODEL 6
REMARK VINA RESULT:    -1.195      3.314      5.901
REMARK INTER + INTRA:          -5.426
REMARK INTER:                  -2.395
REMARK INTRA:                  -3.031
REMARK UNBOUND:                -3.114
REMARK SMILES CCCCCCCCCCCCCCCCCC(=O)[O-]
REMARK SMILES IDX 10 1 11 2 12 3 13 4 14 5 15 6 16 7 17 8 18 9 19 10 20 11
REMARK SMILES IDX 9 12 8 13 7 14 6 15 5 16 4 17 3 18 2 19 1 20
REMARK H PARENT
REMARK Flexibility Score: inf
ROOT
ATOM      1  C   UNL     1      20.008 -31.346   5.264  1.00  0.00     0.000 C 
ENDROOT
BRANCH   1   2
ATOM      2  C   UNL     1      18.971 -30.215   5.361  1.00  0.00     0.000 C 
BRANCH   2   3
ATOM      3  C   UNL     1      17.541 -30.683   5.037  1.00  0.00     0.000 C 
BRANCH   3   4
ATOM      4  C   UNL     1      16.782 -29.813   4.019  1.00  0.00     0.000 C 
BRANCH   4   5
ATOM      5  C   UNL     1      16.437 -30.565   2.725  1.00  0.00     0.000 C 
BRANCH   5   6
ATOM      6  C   UNL     1      15.625 -31.830   3.025  1.00  0.00     0.000 C 
BRANCH   6   7
ATOM      7  C   UNL     1      16.237 -33.056   2.336  1.00  0.00     0.006 C 
BRANCH   7   8
ATOM      8  C   UNL     1      15.208 -33.753   1.443  1.00  0.00     0.053 C 
BRANCH   8   9
ATOM      9  C   UNL     1      15.891 -34.519   0.355  1.00  0.00     0.041 C 
ATOM     10  O   UNL     1      15.214 -35.089  -0.541  1.00  0.00    -0.550 OA
ATOM     11  O   UNL     1      17.274 -34.642   0.355  1.00  0.00    -0.550 OA
ENDBRANCH   8   9
ENDBRANCH   7   8
ENDBRANCH   6   7
ENDBRANCH   5   6
ENDBRANCH   4   5
ENDBRANCH   3   4
ENDBRANCH   2   3
ENDBRANCH   1   2
BRANCH   1  12
ATOM     12  C   UNL     1      19.595 -32.454   4.278  1.00  0.00     0.000 C 
BRANCH  12  13
ATOM     13  C   UNL     1      20.449 -32.552   2.996  1.00  0.00    -0.000 C 
BRANCH  13  14
ATOM     14  C   UNL     1      19.712 -32.223   1.686  1.00  0.00    -0.000 C 
BRANCH  14  15
ATOM     15  C   UNL     1      20.306 -31.007   0.956  1.00  0.00    -0.000 C 
BRANCH  15  16
ATOM     16  C   UNL     1      19.695 -29.672   1.419  1.00  0.00    -0.000 C 
BRANCH  16  17
ATOM     17  C   UNL     1      20.597 -28.815   2.325  1.00  0.00    -0.000 C 
BRANCH  17  18
ATOM     18  C   UNL     1      22.082 -29.194   2.227  1.00  0.00    -0.000 C 
BRANCH  18  19
ATOM     19  C   UNL     1      22.683 -29.423   3.619  1.00  0.00    -0.003 C 
ATOM     20  C   UNL     1      22.188 -28.375   4.612  1.00  0.00     0.004 C 
ENDBRANCH  18  19
ENDBRANCH  17  18
ENDBRANCH  16  17
ENDBRANCH  15  16
ENDBRANCH  14  15
ENDBRANCH  13  14
ENDBRANCH  12  13
ENDBRANCH   1  12
TORSDOF 16
ENDMDL
MODEL 7
REMARK VINA RESULT:    -1.180      1.450      4.082
REMARK INTER + INTRA:          -5.397
REMARK INTER:                  -2.442
REMARK INTRA:                  -2.954
REMARK UNBOUND:                -3.114
REMARK SMILES CCCCCCCCCCCCCCCCCC(=O)[O-]
REMARK SMILES IDX 10 1 11 2 12 3 13 4 14 5 15 6 16 7 17 8 18 9 19 10 20 11
REMARK SMILES IDX 9 12 8 13 7 14 6 15 5 16 4 17 3 18 2 19 1 20
REMARK H PARENT
REMARK Flexibility Score: inf
ROOT
ATOM      1  C   UNL     1      20.117 -28.565  -0.433  1.00  0.00     0.000 C 
ENDROOT
BRANCH   1   2
ATOM      2  C   UNL     1      20.710 -29.340  -1.620  1.00  0.00     0.000 C 
BRANCH   2   3
ATOM      3  C   UNL     1      21.799 -30.343  -1.199  1.00  0.00     0.000 C 
BRANCH   3   4
ATOM      4  C   UNL     1      21.835 -30.679   0.303  1.00  0.00     0.000 C 
BRANCH   4   5
ATOM      5  C   UNL     1      21.401 -32.120   0.606  1.00  0.00     0.000 C 
BRANCH   5   6
ATOM      6  C   UNL     1      20.032 -32.146   1.297  1.00  0.00     0.000 C 
BRANCH   6   7
ATOM      7  C   UNL     1      19.942 -31.068   2.385  1.00  0.00     0.006 C 
BRANCH   7   8
ATOM      8  C   UNL     1      18.541 -30.451   2.431  1.00  0.00     0.053 C 
BRANCH   8   9
ATOM      9  C   UNL     1      18.039 -30.394   3.838  1.00  0.00     0.041 C 
ATOM     10  O   UNL     1      17.658 -29.301   4.332  1.00  0.00    -0.550 OA
ATOM     11  O   UNL     1      18.034 -31.542   4.620  1.00  0.00    -0.550 OA
ENDBRANCH   8   9
ENDBRANCH   7   8
ENDBRANCH   6   7
ENDBRANCH   5   6
ENDBRANCH   4   5
ENDBRANCH   3   4
ENDBRANCH   2   3
ENDBRANCH   1   2
BRANCH   1  12
ATOM     12  C   UNL     1      20.711 -27.152  -0.284  1.00  0.00     0.000 C 
BRANCH  12  13
ATOM     13  C   UNL     1      21.588 -26.674  -1.461  1.00  0.00    -0.000 C 
BRANCH  13  14
ATOM     14  C   UNL     1      23.073 -26.448  -1.129  1.00  0.00    -0.000 C 
BRANCH  14  15
ATOM     15  C   UNL     1      23.537 -27.240   0.105  1.00  0.00    -0.000 C 
BRANCH  15  16
ATOM     16  C   UNL     1      23.997 -26.335   1.261  1.00  0.00    -0.000 C 
BRANCH  16  17
ATOM     17  C   UNL     1      23.410 -26.682   2.641  1.00  0.00    -0.000 C 
BRANCH  17  18
ATOM     18  C   UNL     1      22.755 -28.071   2.684  1.00  0.00    -0.000 C 
BRANCH  18  19
ATOM     19  C   UNL     1      21.676 -28.135   3.771  1.00  0.00    -0.003 C 
ATOM     20  C   UNL     1      20.440 -27.336   3.369  1.00  0.00     0.004 C 
ENDBRANCH  18  19
ENDBRANCH  17  18
ENDBRANCH  16  17
ENDBRANCH  15  16
ENDBRANCH  14  15
ENDBRANCH  13  14
ENDBRANCH  12  13
ENDBRANCH   1  12
TORSDOF 16
ENDMDL
MODEL 8
REMARK VINA RESULT:    -1.172      6.915      9.167
REMARK INTER + INTRA:          -5.381
REMARK INTER:                  -2.450
REMARK INTRA:                  -2.931
REMARK UNBOUND:                -3.114
REMARK SMILES CCCCCCCCCCCCCCCCCC(=O)[O-]
REMARK SMILES IDX 10 1 11 2 12 3 13 4 14 5 15 6 16 7 17 8 18 9 19 10 20 11
REMARK SMILES IDX 9 12 8 13 7 14 6 15 5 16 4 17 3 18 2 19 1 20
REMARK H PARENT
REMARK Flexibility Score: inf
ROOT
ATOM      1  C   UNL     1      16.568 -33.758   3.133  1.00  0.00     0.000 C 
ENDROOT
BRANCH   1   2
ATOM      2  C   UNL     1      15.546 -34.625   3.885  1.00  0.00     0.000 C 
BRANCH   2   3
ATOM      3  C   UNL     1      14.622 -35.418   2.942  1.00  0.00     0.000 C 
BRANCH   3   4
ATOM      4  C   UNL     1      13.124 -35.086   3.061  1.00  0.00     0.000 C 
BRANCH   4   5
ATOM      5  C   UNL     1      12.682 -33.960   2.115  1.00  0.00     0.000 C 
BRANCH   5   6
ATOM      6  C   UNL     1      12.550 -32.631   2.868  1.00  0.00     0.000 C 
BRANCH   6   7
ATOM      7  C   UNL     1      13.598 -31.618   2.387  1.00  0.00     0.006 C 
BRANCH   7   8
ATOM      8  C   UNL     1      13.731 -30.456   3.376  1.00  0.00     0.053 C 
BRANCH   8   9
ATOM      9  C   UNL     1      15.065 -29.796   3.232  1.00  0.00     0.041 C 
ATOM     10  O   UNL     1      15.985 -30.357   2.580  1.00  0.00    -0.550 OA
ATOM     11  O   UNL     1      15.308 -28.578   3.855  1.00  0.00    -0.550 OA
ENDBRANCH   8   9
ENDBRANCH   7   8
ENDBRANCH   6   7
ENDBRANCH   5   6
ENDBRANCH   4   5
ENDBRANCH   3   4
ENDBRANCH   2   3
ENDBRANCH   1   2
BRANCH   1  12
ATOM     12  C   UNL     1      16.471 -33.907   1.604  1.00  0.00     0.000 C 
BRANCH  12  13
ATOM     13  C   UNL     1      17.772 -34.344   0.898  1.00  0.00    -0.000 C 
BRANCH  13  14
ATOM     14  C   UNL     1      17.614 -35.469  -0.140  1.00  0.00    -0.000 C 
BRANCH  14  15
ATOM     15  C   UNL     1      16.999 -36.747   0.454  1.00  0.00    -0.000 C 
BRANCH  15  16
ATOM     16  C   UNL     1      15.647 -37.115  -0.183  1.00  0.00    -0.000 C 
BRANCH  16  17
ATOM     17  C   UNL     1      15.194 -36.203  -1.337  1.00  0.00    -0.000 C 
BRANCH  17  18
ATOM     18  C   UNL     1      13.946 -35.375  -0.997  1.00  0.00    -0.000 C 
BRANCH  18  19
ATOM     19  C   UNL     1      14.154 -33.898  -1.351  1.00  0.00    -0.003 C 
ATOM     20  C   UNL     1      12.827 -33.146  -1.380  1.00  0.00     0.004 C 
ENDBRANCH  18  19
ENDBRANCH  17  18
ENDBRANCH  16  17
ENDBRANCH  15  16
ENDBRANCH  14  15
ENDBRANCH  13  14
ENDBRANCH  12  13
ENDBRANCH   1  12
TORSDOF 16
ENDMDL
MODEL 9
REMARK VINA RESULT:    -1.163      2.122      3.699
REMARK INTER + INTRA:          -5.365
REMARK INTER:                  -2.089
REMARK INTRA:                  -3.276
REMARK UNBOUND:                -3.114
REMARK SMILES CCCCCCCCCCCCCCCCCC(=O)[O-]
REMARK SMILES IDX 10 1 11 2 12 3 13 4 14 5 15 6 16 7 17 8 18 9 19 10 20 11
REMARK SMILES IDX 9 12 8 13 7 14 6 15 5 16 4 17 3 18 2 19 1 20
REMARK H PARENT
REMARK Flexibility Score: inf
ROOT
ATOM      1  C   UNL     1      22.779 -30.422   3.194  1.00  0.00     0.000 C 
ENDROOT
BRANCH   1   2
ATOM      2  C   UNL     1      22.128 -31.770   2.845  1.00  0.00     0.000 C 
BRANCH   2   3
ATOM      3  C   UNL     1      21.597 -31.825   1.401  1.00  0.00     0.000 C 
BRANCH   3   4
ATOM      4  C   UNL     1      20.077 -32.031   1.270  1.00  0.00     0.000 C 
BRANCH   4   5
ATOM      5  C   UNL     1      19.314 -31.713   2.564  1.00  0.00     0.000 C 
BRANCH   5   6
ATOM      6  C   UNL     1      18.812 -30.265   2.564  1.00  0.00     0.000 C 
BRANCH   6   7
ATOM      7  C   UNL     1      19.098 -29.581   3.907  1.00  0.00     0.006 C 
BRANCH   7   8
ATOM      8  C   UNL     1      19.704 -28.191   3.695  1.00  0.00     0.053 C 
BRANCH   8   9
ATOM      9  C   UNL     1      20.583 -27.821   4.848  1.00  0.00     0.041 C 
ATOM     10  O   UNL     1      21.048 -26.655   4.943  1.00  0.00    -0.550 OA
ATOM     11  O   UNL     1      20.925 -28.779   5.794  1.00  0.00    -0.550 OA
ENDBRANCH   8   9
ENDBRANCH   7   8
ENDBRANCH   6   7
ENDBRANCH   5   6
ENDBRANCH   4   5
ENDBRANCH   3   4
ENDBRANCH   2   3
ENDBRANCH   1   2
BRANCH   1  12
ATOM     12  C   UNL     1      22.744 -29.420   2.026  1.00  0.00     0.000 C 
BRANCH  12  13
ATOM     13  C   UNL     1      24.121 -29.003   1.469  1.00  0.00    -0.000 C 
BRANCH  13  14
ATOM     14  C   UNL     1      24.140 -28.604  -0.017  1.00  0.00    -0.000 C 
BRANCH  14  15
ATOM     15  C   UNL     1      23.486 -29.658  -0.926  1.00  0.00    -0.000 C 
BRANCH  15  16
ATOM     16  C   UNL     1      22.358 -29.080  -1.800  1.00  0.00    -0.000 C 
BRANCH  16  17
ATOM     17  C   UNL     1      20.938 -29.546  -1.434  1.00  0.00    -0.000 C 
BRANCH  17  18
ATOM     18  C   UNL     1      20.204 -28.567  -0.505  1.00  0.00    -0.000 C 
BRANCH  18  19
ATOM     19  C   UNL     1      20.753 -27.145  -0.663  1.00  0.00    -0.003 C 
ATOM     20  C   UNL     1      20.856 -26.440   0.686  1.00  0.00     0.004 C 
ENDBRANCH  18  19
ENDBRANCH  17  18
ENDBRANCH  16  17
ENDBRANCH  15  16
ENDBRANCH  14  15
ENDBRANCH  13  14
ENDBRANCH  12  13
ENDBRANCH   1  12
TORSDOF 16
ENDMDL
