MODEL 1
REMARK VINA RESULT:    57.872      0.000      0.000
REMARK INTER + INTRA:          81.003
REMARK INTER:                  78.171
REMARK INTRA:                   2.832
REMARK UNBOUND:                 2.832
REMARK SMILES CC[C@H](CC[C@@H](C)[C@@H]1CC[C@@H]2[C@@H]3CC(=O)C4=CC(=O)CC[C@]4(C)[C@@H]3CC[C@]21C)C(C)C
REMARK SMILES IDX 4 1 3 2 2 3 1 4 29 5 30 6 31 7 5 8 6 9 7 10 8 11 9 12 27 13
REMARK SMILES IDX 10 14 11 15 26 16 28 17 12 18 25 19 24 20 13 21 22 22 14 23
REMARK SMILES IDX 16 24 21 25 23 26 15 27 17 28 20 29 18 30 19 31
REMARK H PARENT
REMARK Flexibility Score: inf
ROOT
ATOM      1  C   UNL     1      26.997   3.453  20.862  1.00  0.00     0.004 C 
ENDROOT
BRANCH   1   2
ATOM      2  C   UNL     1      25.830   2.511  20.416  1.00  0.00    -0.009 C 
BRANCH   2   3
ATOM      3  C   UNL     1      26.370   1.432  19.430  1.00  0.00     0.000 C 
ATOM      4  C   UNL     1      26.331   1.876  17.964  1.00  0.00     0.004 C 
ENDBRANCH   2   3
BRANCH   2   5
ATOM      5  C   UNL     1      25.117   1.849  21.650  1.00  0.00    -0.014 C 
ATOM      6  C   UNL     1      25.767   0.511  22.062  1.00  0.00     0.007 C 
ATOM      7  C   UNL     1      23.619   1.595  21.393  1.00  0.00     0.007 C 
ENDBRANCH   2   5
ENDBRANCH   1   2
BRANCH   1   8
ATOM      8  C   UNL     1      26.590   4.938  20.987  1.00  0.00     0.004 C 
BRANCH   8   9
ATOM      9  C   UNL     1      25.828   5.483  19.737  1.00  0.00    -0.011 C 
ATOM     10  C   UNL     1      25.740   4.422  18.628  1.00  0.00     0.008 C 
BRANCH   9  11
ATOM     11  C   UNL     1      24.445   6.177  20.004  1.00  0.00    -0.002 C 
ATOM     12  C   UNL     1      24.309   6.790  21.427  1.00  0.00     0.005 C 
ATOM     13  C   UNL     1      23.084   5.442  19.749  1.00  0.00    -0.026 C 
ATOM     14  C   UNL     1      22.810   6.794  21.771  1.00  0.00     0.005 C 
ATOM     15  C   UNL     1      22.143   6.446  20.452  1.00  0.00    -0.001 C 
ATOM     16  C   UNL     1      22.625   5.358  18.272  1.00  0.00     0.007 C 
ATOM     17  C   UNL     1      23.112   4.014  20.365  1.00  0.00     0.012 C 
ATOM     18  C   UNL     1      20.621   6.173  20.406  1.00  0.00     0.004 C 
ATOM     19  C   UNL     1      21.114   5.018  18.143  1.00  0.00     0.005 C 
ATOM     20  C   UNL     1      20.183   6.007  18.912  1.00  0.00     0.003 C 
ATOM     21  C   UNL     1      20.131   5.056  21.349  1.00  0.00     0.085 C 
ATOM     22  C   UNL     1      18.625   5.751  18.753  1.00  0.00    -0.000 C 
ATOM     23  C   UNL     1      18.692   4.723  21.135  1.00  0.00     0.159 C 
ATOM     24  C   UNL     1      18.106   4.742  19.777  1.00  0.00     0.005 C 
ATOM     25  C   UNL     1      18.280   5.259  17.310  1.00  0.00     0.020 C 
ATOM     26  C   UNL     1      17.879   7.090  19.009  1.00  0.00     0.017 C 
ATOM     27  O   UNL     1      18.005   4.338  22.122  1.00  0.00    -0.295 OA
ATOM     28  C   UNL     1      17.009   3.997  19.525  1.00  0.00     0.055 C 
ATOM     29  C   UNL     1      16.795   4.929  17.122  1.00  0.00     0.081 C 
ATOM     30  C   UNL     1      16.313   4.040  18.227  1.00  0.00     0.156 C 
ATOM     31  O   UNL     1      15.276   3.346  18.059  1.00  0.00    -0.295 OA
ENDBRANCH   9  11
ENDBRANCH   8   9
ENDBRANCH   1   8
TORSDOF 6
ENDMDL
