MODEL 1
REMARK VINA RESULT:    -4.557      0.000      0.000
REMARK INTER + INTRA:         -11.390
REMARK INTER:                  -8.553
REMARK INTRA:                  -2.837
REMARK UNBOUND:                -2.837
REMARK SMILES CCCCCCCCC=CCCCCCCCC(=O)[O-]
REMARK SMILES IDX 10 1 9 2 11 3 12 4 13 5 14 6 15 7 16 8 17 9 18 10 19 11
REMARK SMILES IDX 20 12 8 13 7 14 6 15 5 16 4 17 3 18 2 19 1 20
REMARK H PARENT
REMARK Flexibility Score: inf
ROOT
ATOM      1  C   UNL     1     117.819 120.935 133.019  1.00  0.00    -0.031 C 
ATOM      2  C   UNL     1     116.947 120.807 134.039  1.00  0.00    -0.031 C 
ENDROOT
BRANCH   1   3
ATOM      3  C   UNL     1     117.700 120.243 131.683  1.00  0.00     0.027 C 
BRANCH   3   4
ATOM      4  C   UNL     1     117.916 121.243 130.543  1.00  0.00     0.004 C 
BRANCH   4   5
ATOM      5  C   UNL     1     117.461 122.651 130.956  1.00  0.00     0.000 C 
BRANCH   5   6
ATOM      6  C   UNL     1     117.164 123.556 129.750  1.00  0.00     0.000 C 
BRANCH   6   7
ATOM      7  C   UNL     1     117.303 122.819 128.410  1.00  0.00     0.000 C 
BRANCH   7   8
ATOM      8  C   UNL     1     116.721 123.658 127.260  1.00  0.00     0.006 C 
BRANCH   8   9
ATOM      9  C   UNL     1     117.815 124.330 126.420  1.00  0.00     0.053 C 
BRANCH   9  10
ATOM     10  C   UNL     1     118.039 125.752 126.838  1.00  0.00     0.041 C 
ATOM     11  O   UNL     1     119.206 126.223 126.883  1.00  0.00    -0.550 OA
ATOM     12  O   UNL     1     116.961 126.544 127.211  1.00  0.00    -0.550 OA
ENDBRANCH   9  10
ENDBRANCH   8   9
ENDBRANCH   7   8
ENDBRANCH   6   7
ENDBRANCH   5   6
ENDBRANCH   4   5
ENDBRANCH   3   4
ENDBRANCH   1   3
BRANCH   2  13
ATOM     13  C   UNL     1     115.707 119.949 134.009  1.00  0.00     0.027 C 
BRANCH  13  14
ATOM     14  C   UNL     1     114.469 120.769 133.615  1.00  0.00     0.004 C 
BRANCH  14  15
ATOM     15  C   UNL     1     114.019 120.512 132.166  1.00  0.00     0.000 C 
BRANCH  15  16
ATOM     16  C   UNL     1     113.981 121.763 131.270  1.00  0.00     0.000 C 
BRANCH  16  17
ATOM     17  C   UNL     1     114.077 121.431 129.773  1.00  0.00    -0.000 C 
BRANCH  17  18
ATOM     18  C   UNL     1     114.519 119.974 129.565  1.00  0.00    -0.000 C 
BRANCH  18  19
ATOM     19  C   UNL     1     114.893 119.674 128.106  1.00  0.00    -0.003 C 
ATOM     20  C   UNL     1     116.317 119.138 127.958  1.00  0.00     0.004 C 
ENDBRANCH  18  19
ENDBRANCH  17  18
ENDBRANCH  16  17
ENDBRANCH  15  16
ENDBRANCH  14  15
ENDBRANCH  13  14
ENDBRANCH   2  13
TORSDOF 15
ENDMDL
MODEL 2
REMARK VINA RESULT:    -4.553      0.915      1.627
REMARK INTER + INTRA:         -11.382
REMARK INTER:                  -8.787
REMARK INTRA:                  -2.594
REMARK UNBOUND:                -2.837
REMARK SMILES CCCCCCCCC=CCCCCCCCC(=O)[O-]
REMARK SMILES IDX 10 1 9 2 11 3 12 4 13 5 14 6 15 7 16 8 17 9 18 10 19 11
REMARK SMILES IDX 20 12 8 13 7 14 6 15 5 16 4 17 3 18 2 19 1 20
REMARK H PARENT
REMARK Flexibility Score: inf
ROOT
ATOM      1  C   UNL     1     117.730 121.168 133.153  1.00  0.00    -0.031 C 
ATOM      2  C   UNL     1     116.781 121.037 134.101  1.00  0.00    -0.031 C 
ENDROOT
BRANCH   1   3
ATOM      3  C   UNL     1     117.782 120.386 131.862  1.00  0.00     0.027 C 
BRANCH   3   4
ATOM      4  C   UNL     1     117.682 121.331 130.661  1.00  0.00     0.004 C 
BRANCH   4   5
ATOM      5  C   UNL     1     117.131 122.700 131.086  1.00  0.00     0.000 C 
BRANCH   5   6
ATOM      6  C   UNL     1     116.976 123.671 129.905  1.00  0.00     0.000 C 
BRANCH   6   7
ATOM      7  C   UNL     1     117.781 123.233 128.672  1.00  0.00     0.000 C 
BRANCH   7   8
ATOM      8  C   UNL     1     117.046 123.610 127.375  1.00  0.00     0.006 C 
BRANCH   8   9
ATOM      9  C   UNL     1     117.926 124.438 126.429  1.00  0.00     0.053 C 
BRANCH   9  10
ATOM     10  C   UNL     1     118.032 125.864 126.878  1.00  0.00     0.041 C 
ATOM     11  O   UNL     1     117.005 126.488 127.257  1.00  0.00    -0.550 OA
ATOM     12  O   UNL     1     119.259 126.513 126.844  1.00  0.00    -0.550 OA
ENDBRANCH   9  10
ENDBRANCH   8   9
ENDBRANCH   7   8
ENDBRANCH   6   7
ENDBRANCH   5   6
ENDBRANCH   4   5
ENDBRANCH   3   4
ENDBRANCH   1   3
BRANCH   2  13
ATOM     13  C   UNL     1     115.615 120.083 134.026  1.00  0.00     0.027 C 
BRANCH  13  14
ATOM     14  C   UNL     1     114.383 120.755 133.400  1.00  0.00     0.004 C 
BRANCH  14  15
ATOM     15  C   UNL     1     113.938 120.084 132.089  1.00  0.00     0.000 C 
BRANCH  15  16
ATOM     16  C   UNL     1     114.022 120.981 130.842  1.00  0.00     0.000 C 
BRANCH  16  17
ATOM     17  C   UNL     1     114.419 120.210 129.574  1.00  0.00    -0.000 C 
BRANCH  17  18
ATOM     18  C   UNL     1     114.359 121.123 128.340  1.00  0.00    -0.000 C 
BRANCH  18  19
ATOM     19  C   UNL     1     113.704 122.480 128.640  1.00  0.00    -0.003 C 
ATOM     20  C   UNL     1     113.320 123.245 127.373  1.00  0.00     0.004 C 
ENDBRANCH  18  19
ENDBRANCH  17  18
ENDBRANCH  16  17
ENDBRANCH  15  16
ENDBRANCH  14  15
ENDBRANCH  13  14
ENDBRANCH   2  13
TORSDOF 15
ENDMDL
MODEL 3
REMARK VINA RESULT:    -4.507      1.703      4.455
REMARK INTER + INTRA:         -11.295
REMARK INTER:                  -8.353
REMARK INTRA:                  -2.942
REMARK UNBOUND:                -2.837
REMARK SMILES CCCCCCCCC=CCCCCCCCC(=O)[O-]
REMARK SMILES IDX 10 1 9 2 11 3 12 4 13 5 14 6 15 7 16 8 17 9 18 10 19 11
REMARK SMILES IDX 20 12 8 13 7 14 6 15 5 16 4 17 3 18 2 19 1 20
REMARK H PARENT
REMARK Flexibility Score: inf
ROOT
ATOM      1  C   UNL     1     113.860 121.280 131.446  1.00  0.00    -0.031 C 
ATOM      2  C   UNL     1     114.086 121.089 130.131  1.00  0.00    -0.031 C 
ENDROOT
BRANCH   1   3
ATOM      3  C   UNL     1     113.975 120.216 132.511  1.00  0.00     0.027 C 
BRANCH   3   4
ATOM      4  C   UNL     1     114.792 120.735 133.698  1.00  0.00     0.004 C 
BRANCH   4   5
ATOM      5  C   UNL     1     116.208 120.140 133.690  1.00  0.00     0.000 C 
BRANCH   5   6
ATOM      6  C   UNL     1     117.213 121.010 132.921  1.00  0.00     0.000 C 
BRANCH   6   7
ATOM      7  C   UNL     1     117.618 120.393 131.574  1.00  0.00     0.000 C 
BRANCH   7   8
ATOM      8  C   UNL     1     117.674 121.467 130.474  1.00  0.00     0.006 C 
BRANCH   8   9
ATOM      9  C   UNL     1     117.192 122.835 130.974  1.00  0.00     0.053 C 
BRANCH   9  10
ATOM     10  C   UNL     1     118.155 123.926 130.616  1.00  0.00     0.041 C 
ATOM     11  O   UNL     1     117.730 125.029 130.178  1.00  0.00    -0.550 OA
ATOM     12  O   UNL     1     119.522 123.712 130.732  1.00  0.00    -0.550 OA
ENDBRANCH   9  10
ENDBRANCH   8   9
ENDBRANCH   7   8
ENDBRANCH   6   7
ENDBRANCH   5   6
ENDBRANCH   4   5
ENDBRANCH   3   4
ENDBRANCH   1   3
BRANCH   2  13
ATOM     13  C   UNL     1     114.491 119.776 129.510  1.00  0.00     0.027 C 
BRANCH  13  14
ATOM     14  C   UNL     1     115.025 119.974 128.083  1.00  0.00     0.004 C 
BRANCH  14  15
ATOM     15  C   UNL     1     113.971 120.560 127.127  1.00  0.00     0.000 C 
BRANCH  15  16
ATOM     16  C   UNL     1     114.373 121.885 126.456  1.00  0.00     0.000 C 
BRANCH  16  17
ATOM     17  C   UNL     1     113.991 123.118 127.288  1.00  0.00    -0.000 C 
BRANCH  17  18
ATOM     18  C   UNL     1     115.244 123.807 127.849  1.00  0.00    -0.000 C 
BRANCH  18  19
ATOM     19  C   UNL     1     116.546 123.207 127.296  1.00  0.00    -0.003 C 
ATOM     20  C   UNL     1     117.496 124.268 126.739  1.00  0.00     0.004 C 
ENDBRANCH  18  19
ENDBRANCH  17  18
ENDBRANCH  16  17
ENDBRANCH  15  16
ENDBRANCH  14  15
ENDBRANCH  13  14
ENDBRANCH   2  13
TORSDOF 15
ENDMDL
MODEL 4
REMARK VINA RESULT:    -4.482      1.830      4.317
REMARK INTER + INTRA:         -11.249
REMARK INTER:                  -9.051
REMARK INTRA:                  -2.198
REMARK UNBOUND:                -2.837
REMARK SMILES CCCCCCCCC=CCCCCCCCC(=O)[O-]
REMARK SMILES IDX 10 1 9 2 11 3 12 4 13 5 14 6 15 7 16 8 17 9 18 10 19 11
REMARK SMILES IDX 20 12 8 13 7 14 6 15 5 16 4 17 3 18 2 19 1 20
REMARK H PARENT
REMARK Flexibility Score: inf
ROOT
ATOM      1  C   UNL     1     114.787 119.263 128.523  1.00  0.00    -0.031 C 
ATOM      2  C   UNL     1     114.623 119.746 129.770  1.00  0.00    -0.031 C 
ENDROOT
BRANCH   1   3
ATOM      3  C   UNL     1     115.191 120.082 127.321  1.00  0.00     0.027 C 
BRANCH   3   4
ATOM      4  C   UNL     1     113.952 120.523 126.535  1.00  0.00     0.004 C 
BRANCH   4   5
ATOM      5  C   UNL     1     113.993 122.032 126.251  1.00  0.00     0.000 C 
BRANCH   5   6
ATOM      6  C   UNL     1     115.199 122.726 126.901  1.00  0.00     0.000 C 
BRANCH   6   7
ATOM      7  C   UNL     1     114.790 123.906 127.796  1.00  0.00     0.000 C 
BRANCH   7   8
ATOM      8  C   UNL     1     115.914 124.953 127.871  1.00  0.00     0.006 C 
BRANCH   8   9
ATOM      9  C   UNL     1     116.879 124.685 129.034  1.00  0.00     0.053 C 
BRANCH   9  10
ATOM     10  C   UNL     1     116.363 125.248 130.323  1.00  0.00     0.041 C 
ATOM     11  O   UNL     1     115.616 124.554 131.063  1.00  0.00    -0.550 OA
ATOM     12  O   UNL     1     116.677 126.550 130.688  1.00  0.00    -0.550 OA
ENDBRANCH   9  10
ENDBRANCH   8   9
ENDBRANCH   7   8
ENDBRANCH   6   7
ENDBRANCH   5   6
ENDBRANCH   4   5
ENDBRANCH   3   4
ENDBRANCH   1   3
BRANCH   2  13
ATOM     13  C   UNL     1     114.817 121.188 130.167  1.00  0.00     0.027 C 
BRANCH  13  14
ATOM     14  C   UNL     1     113.937 121.559 131.371  1.00  0.00     0.004 C 
BRANCH  14  15
ATOM     15  C   UNL     1     113.878 120.448 132.433  1.00  0.00     0.000 C 
BRANCH  15  16
ATOM     16  C   UNL     1     114.549 120.797 133.772  1.00  0.00     0.000 C 
BRANCH  16  17
ATOM     17  C   UNL     1     115.768 119.913 134.080  1.00  0.00    -0.000 C 
BRANCH  17  18
ATOM     18  C   UNL     1     117.074 120.693 133.867  1.00  0.00    -0.000 C 
BRANCH  18  19
ATOM     19  C   UNL     1     117.644 120.516 132.452  1.00  0.00    -0.003 C 
ATOM     20  C   UNL     1     118.007 121.845 131.789  1.00  0.00     0.004 C 
ENDBRANCH  18  19
ENDBRANCH  17  18
ENDBRANCH  16  17
ENDBRANCH  15  16
ENDBRANCH  14  15
ENDBRANCH  13  14
ENDBRANCH   2  13
TORSDOF 15
ENDMDL
MODEL 5
REMARK VINA RESULT:    -4.454      1.681      3.430
REMARK INTER + INTRA:         -11.196
REMARK INTER:                  -8.201
REMARK INTRA:                  -2.995
REMARK UNBOUND:                -2.837
REMARK SMILES CCCCCCCCC=CCCCCCCCC(=O)[O-]
REMARK SMILES IDX 10 1 9 2 11 3 12 4 13 5 14 6 15 7 16 8 17 9 18 10 19 11
REMARK SMILES IDX 20 12 8 13 7 14 6 15 5 16 4 17 3 18 2 19 1 20
REMARK H PARENT
REMARK Flexibility Score: inf
ROOT
ATOM      1  C   UNL     1     114.002 120.834 131.178  1.00  0.00    -0.031 C 
ATOM      2  C   UNL     1     114.193 120.208 132.356  1.00  0.00    -0.031 C 
ENDROOT
BRANCH   1   3
ATOM      3  C   UNL     1     113.927 122.331 130.992  1.00  0.00     0.027 C 
BRANCH   3   4
ATOM      4  C   UNL     1     113.431 122.669 129.583  1.00  0.00     0.004 C 
BRANCH   4   5
ATOM      5  C   UNL     1     114.046 121.720 128.544  1.00  0.00     0.000 C 
BRANCH   5   6
ATOM      6  C   UNL     1     115.178 122.375 127.737  1.00  0.00     0.000 C 
BRANCH   6   7
ATOM      7  C   UNL     1     115.106 123.909 127.759  1.00  0.00     0.000 C 
BRANCH   7   8
ATOM      8  C   UNL     1     116.424 124.512 128.273  1.00  0.00     0.006 C 
BRANCH   8   9
ATOM      9  C   UNL     1     116.346 124.898 129.756  1.00  0.00     0.053 C 
BRANCH   9  10
ATOM     10  C   UNL     1     116.746 126.325 129.979  1.00  0.00     0.041 C 
ATOM     11  O   UNL     1     116.319 127.230 129.214  1.00  0.00    -0.550 OA
ATOM     12  O   UNL     1     117.619 126.648 131.009  1.00  0.00    -0.550 OA
ENDBRANCH   9  10
ENDBRANCH   8   9
ENDBRANCH   7   8
ENDBRANCH   6   7
ENDBRANCH   5   6
ENDBRANCH   4   5
ENDBRANCH   3   4
ENDBRANCH   1   3
BRANCH   2  13
ATOM     13  C   UNL     1     114.360 120.904 133.684  1.00  0.00     0.027 C 
BRANCH  13  14
ATOM     14  C   UNL     1     115.818 121.334 133.910  1.00  0.00     0.004 C 
BRANCH  14  15
ATOM     15  C   UNL     1     116.822 120.196 133.656  1.00  0.00     0.000 C 
BRANCH  15  16
ATOM     16  C   UNL     1     117.897 120.505 132.600  1.00  0.00     0.000 C 
BRANCH  16  17
ATOM     17  C   UNL     1     117.555 121.730 131.737  1.00  0.00    -0.000 C 
BRANCH  17  18
ATOM     18  C   UNL     1     117.677 121.396 130.243  1.00  0.00    -0.000 C 
BRANCH  18  19
ATOM     19  C   UNL     1     117.326 119.932 129.935  1.00  0.00    -0.003 C 
ATOM     20  C   UNL     1     117.311 119.629 128.436  1.00  0.00     0.004 C 
ENDBRANCH  18  19
ENDBRANCH  17  18
ENDBRANCH  16  17
ENDBRANCH  15  16
ENDBRANCH  14  15
ENDBRANCH  13  14
ENDBRANCH   2  13
TORSDOF 15
ENDMDL
MODEL 6
REMARK VINA RESULT:    -4.451      1.419      3.577
REMARK INTER + INTRA:         -11.190
REMARK INTER:                  -8.686
REMARK INTRA:                  -2.505
REMARK UNBOUND:                -2.837
REMARK SMILES CCCCCCCCC=CCCCCCCCC(=O)[O-]
REMARK SMILES IDX 10 1 9 2 11 3 12 4 13 5 14 6 15 7 16 8 17 9 18 10 19 11
REMARK SMILES IDX 20 12 8 13 7 14 6 15 5 16 4 17 3 18 2 19 1 20
REMARK H PARENT
REMARK Flexibility Score: inf
ROOT
ATOM      1  C   UNL     1     114.007 120.902 130.836  1.00  0.00    -0.031 C 
ATOM      2  C   UNL     1     114.188 120.260 132.007  1.00  0.00    -0.031 C 
ENDROOT
BRANCH   1   3
ATOM      3  C   UNL     1     113.648 122.361 130.692  1.00  0.00     0.027 C 
BRANCH   3   4
ATOM      4  C   UNL     1     113.616 122.760 129.214  1.00  0.00     0.004 C 
BRANCH   4   5
ATOM      5  C   UNL     1     114.161 121.629 128.330  1.00  0.00     0.000 C 
BRANCH   5   6
ATOM      6  C   UNL     1     115.161 122.129 127.276  1.00  0.00     0.000 C 
BRANCH   6   7
ATOM      7  C   UNL     1     115.831 123.451 127.678  1.00  0.00     0.000 C 
BRANCH   7   8
ATOM      8  C   UNL     1     117.339 123.416 127.376  1.00  0.00     0.006 C 
BRANCH   8   9
ATOM      9  C   UNL     1     117.762 124.528 126.407  1.00  0.00     0.053 C 
BRANCH   9  10
ATOM     10  C   UNL     1     119.246 124.544 126.196  1.00  0.00     0.041 C 
ATOM     11  O   UNL     1     119.829 123.534 125.718  1.00  0.00    -0.550 OA
ATOM     12  O   UNL     1     119.988 125.659 126.560  1.00  0.00    -0.550 OA
ENDBRANCH   9  10
ENDBRANCH   8   9
ENDBRANCH   7   8
ENDBRANCH   6   7
ENDBRANCH   5   6
ENDBRANCH   4   5
ENDBRANCH   3   4
ENDBRANCH   1   3
BRANCH   2  13
ATOM     13  C   UNL     1     114.060 120.898 133.368  1.00  0.00     0.027 C 
BRANCH  13  14
ATOM     14  C   UNL     1     115.438 121.169 133.991  1.00  0.00     0.004 C 
BRANCH  14  15
ATOM     15  C   UNL     1     116.238 119.881 134.254  1.00  0.00     0.000 C 
BRANCH  15  16
ATOM     16  C   UNL     1     117.766 120.047 134.206  1.00  0.00     0.000 C 
BRANCH  16  17
ATOM     17  C   UNL     1     118.241 120.888 133.011  1.00  0.00    -0.000 C 
BRANCH  17  18
ATOM     18  C   UNL     1     117.971 120.156 131.688  1.00  0.00    -0.000 C 
BRANCH  18  19
ATOM     19  C   UNL     1     117.606 121.116 130.546  1.00  0.00    -0.003 C 
ATOM     20  C   UNL     1     117.335 122.540 131.033  1.00  0.00     0.004 C 
ENDBRANCH  18  19
ENDBRANCH  17  18
ENDBRANCH  16  17
ENDBRANCH  15  16
ENDBRANCH  14  15
ENDBRANCH  13  14
ENDBRANCH   2  13
TORSDOF 15
ENDMDL
MODEL 7
REMARK VINA RESULT:    -4.437      1.121      3.595
REMARK INTER + INTRA:         -11.165
REMARK INTER:                  -8.739
REMARK INTRA:                  -2.426
REMARK UNBOUND:                -2.837
REMARK SMILES CCCCCCCCC=CCCCCCCCC(=O)[O-]
REMARK SMILES IDX 10 1 9 2 11 3 12 4 13 5 14 6 15 7 16 8 17 9 18 10 19 11
REMARK SMILES IDX 20 12 8 13 7 14 6 15 5 16 4 17 3 18 2 19 1 20
REMARK H PARENT
REMARK Flexibility Score: inf
ROOT
ATOM      1  C   UNL     1     114.208 121.144 130.153  1.00  0.00    -0.031 C 
ATOM      2  C   UNL     1     113.951 121.291 131.467  1.00  0.00    -0.031 C 
ENDROOT
BRANCH   1   3
ATOM      3  C   UNL     1     114.692 119.872 129.499  1.00  0.00     0.027 C 
BRANCH   3   4
ATOM      4  C   UNL     1     114.779 120.051 127.981  1.00  0.00     0.004 C 
BRANCH   4   5
ATOM      5  C   UNL     1     113.898 121.220 127.516  1.00  0.00     0.000 C 
BRANCH   5   6
ATOM      6  C   UNL     1     114.669 122.243 126.667  1.00  0.00     0.000 C 
BRANCH   6   7
ATOM      7  C   UNL     1     115.946 122.742 127.359  1.00  0.00     0.000 C 
BRANCH   7   8
ATOM      8  C   UNL     1     115.757 124.172 127.892  1.00  0.00     0.006 C 
BRANCH   8   9
ATOM      9  C   UNL     1     117.057 124.986 127.844  1.00  0.00     0.053 C 
BRANCH   9  10
ATOM     10  C   UNL     1     116.790 126.459 127.898  1.00  0.00     0.041 C 
ATOM     11  O   UNL     1     115.660 126.912 127.572  1.00  0.00    -0.550 OA
ATOM     12  O   UNL     1     117.800 127.335 128.274  1.00  0.00    -0.550 OA
ENDBRANCH   9  10
ENDBRANCH   8   9
ENDBRANCH   7   8
ENDBRANCH   6   7
ENDBRANCH   5   6
ENDBRANCH   4   5
ENDBRANCH   3   4
ENDBRANCH   1   3
BRANCH   2  13
ATOM     13  C   UNL     1     114.107 120.204 132.502  1.00  0.00     0.027 C 
BRANCH  13  14
ATOM     14  C   UNL     1     114.817 120.727 133.759  1.00  0.00     0.004 C 
BRANCH  14  15
ATOM     15  C   UNL     1     115.891 119.758 134.285  1.00  0.00     0.000 C 
BRANCH  15  16
ATOM     16  C   UNL     1     117.299 120.364 134.419  1.00  0.00     0.000 C 
BRANCH  16  17
ATOM     17  C   UNL     1     117.691 121.240 133.220  1.00  0.00    -0.000 C 
BRANCH  17  18
ATOM     18  C   UNL     1     117.853 120.389 131.951  1.00  0.00    -0.000 C 
BRANCH  18  19
ATOM     19  C   UNL     1     117.894 121.237 130.672  1.00  0.00    -0.003 C 
ATOM     20  C   UNL     1     117.406 122.669 130.895  1.00  0.00     0.004 C 
ENDBRANCH  18  19
ENDBRANCH  17  18
ENDBRANCH  16  17
ENDBRANCH  15  16
ENDBRANCH  14  15
ENDBRANCH  13  14
ENDBRANCH   2  13
TORSDOF 15
ENDMDL
MODEL 8
REMARK VINA RESULT:    -4.410      1.336      4.084
REMARK INTER + INTRA:         -11.115
REMARK INTER:                  -8.408
REMARK INTRA:                  -2.707
REMARK UNBOUND:                -2.837
REMARK SMILES CCCCCCCCC=CCCCCCCCC(=O)[O-]
REMARK SMILES IDX 10 1 9 2 11 3 12 4 13 5 14 6 15 7 16 8 17 9 18 10 19 11
REMARK SMILES IDX 20 12 8 13 7 14 6 15 5 16 4 17 3 18 2 19 1 20
REMARK H PARENT
REMARK Flexibility Score: inf
ROOT
ATOM      1  C   UNL     1     114.383 119.754 128.724  1.00  0.00    -0.031 C 
ATOM      2  C   UNL     1     115.620 119.325 129.042  1.00  0.00    -0.031 C 
ENDROOT
BRANCH   1   3
ATOM      3  C   UNL     1     114.071 120.839 127.721  1.00  0.00     0.027 C 
BRANCH   3   4
ATOM      4  C   UNL     1     113.999 122.203 128.414  1.00  0.00     0.004 C 
BRANCH   4   5
ATOM      5  C   UNL     1     114.551 123.309 127.503  1.00  0.00     0.000 C 
BRANCH   5   6
ATOM      6  C   UNL     1     116.043 123.127 127.185  1.00  0.00     0.000 C 
BRANCH   6   7
ATOM      7  C   UNL     1     116.948 123.972 128.094  1.00  0.00     0.000 C 
BRANCH   7   8
ATOM      8  C   UNL     1     116.338 125.363 128.333  1.00  0.00     0.006 C 
BRANCH   8   9
ATOM      9  C   UNL     1     116.972 126.436 127.438  1.00  0.00     0.053 C 
BRANCH   9  10
ATOM     10  C   UNL     1     118.401 126.694 127.808  1.00  0.00     0.041 C 
ATOM     11  O   UNL     1     118.697 127.061 128.977  1.00  0.00    -0.550 OA
ATOM     12  O   UNL     1     119.400 126.565 126.853  1.00  0.00    -0.550 OA
ENDBRANCH   9  10
ENDBRANCH   8   9
ENDBRANCH   7   8
ENDBRANCH   6   7
ENDBRANCH   5   6
ENDBRANCH   4   5
ENDBRANCH   3   4
ENDBRANCH   1   3
BRANCH   2  13
ATOM     13  C   UNL     1     116.897 119.861 128.445  1.00  0.00     0.027 C 
BRANCH  13  14
ATOM     14  C   UNL     1     117.844 120.392 129.533  1.00  0.00     0.004 C 
BRANCH  14  15
ATOM     15  C   UNL     1     117.141 120.602 130.885  1.00  0.00     0.000 C 
BRANCH  15  16
ATOM     16  C   UNL     1     116.843 122.069 131.239  1.00  0.00     0.000 C 
BRANCH  16  17
ATOM     17  C   UNL     1     115.386 122.298 131.668  1.00  0.00    -0.000 C 
BRANCH  17  18
ATOM     18  C   UNL     1     114.768 121.003 132.216  1.00  0.00    -0.000 C 
BRANCH  18  19
ATOM     19  C   UNL     1     114.799 120.938 133.751  1.00  0.00    -0.003 C 
ATOM     20  C   UNL     1     115.767 119.879 134.280  1.00  0.00     0.004 C 
ENDBRANCH  18  19
ENDBRANCH  17  18
ENDBRANCH  16  17
ENDBRANCH  15  16
ENDBRANCH  14  15
ENDBRANCH  13  14
ENDBRANCH   2  13
TORSDOF 15
ENDMDL
MODEL 9
REMARK VINA RESULT:    -4.406      1.687      4.114
REMARK INTER + INTRA:         -11.107
REMARK INTER:                  -8.322
REMARK INTRA:                  -2.785
REMARK UNBOUND:                -2.837
REMARK SMILES CCCCCCCCC=CCCCCCCCC(=O)[O-]
REMARK SMILES IDX 10 1 9 2 11 3 12 4 13 5 14 6 15 7 16 8 17 9 18 10 19 11
REMARK SMILES IDX 20 12 8 13 7 14 6 15 5 16 4 17 3 18 2 19 1 20
REMARK H PARENT
REMARK Flexibility Score: inf
ROOT
ATOM      1  C   UNL     1     116.571 119.630 128.366  1.00  0.00    -0.031 C 
ATOM      2  C   UNL     1     117.358 120.272 129.252  1.00  0.00    -0.031 C 
ENDROOT
BRANCH   1   3
ATOM      3  C   UNL     1     115.201 119.072 128.666  1.00  0.00     0.027 C 
BRANCH   3   4
ATOM      4  C   UNL     1     114.116 120.074 128.259  1.00  0.00     0.004 C 
BRANCH   4   5
ATOM      5  C   UNL     1     114.483 120.775 126.943  1.00  0.00     0.000 C 
BRANCH   5   6
ATOM      6  C   UNL     1     114.286 122.297 127.006  1.00  0.00     0.000 C 
BRANCH   6   7
ATOM      7  C   UNL     1     115.590 123.049 127.306  1.00  0.00     0.000 C 
BRANCH   7   8
ATOM      8  C   UNL     1     115.337 124.225 128.265  1.00  0.00     0.006 C 
BRANCH   8   9
ATOM      9  C   UNL     1     116.478 125.252 128.238  1.00  0.00     0.053 C 
BRANCH   9  10
ATOM     10  C   UNL     1     116.511 126.075 129.489  1.00  0.00     0.041 C 
ATOM     11  O   UNL     1     116.882 127.278 129.447  1.00  0.00    -0.550 OA
ATOM     12  O   UNL     1     116.166 125.504 130.707  1.00  0.00    -0.550 OA
ENDBRANCH   9  10
ENDBRANCH   8   9
ENDBRANCH   7   8
ENDBRANCH   6   7
ENDBRANCH   5   6
ENDBRANCH   4   5
ENDBRANCH   3   4
ENDBRANCH   1   3
BRANCH   2  13
ATOM     13  C   UNL     1     116.996 120.536 130.692  1.00  0.00     0.027 C 
BRANCH  13  14
ATOM     14  C   UNL     1     116.551 121.992 130.899  1.00  0.00     0.004 C 
BRANCH  14  15
ATOM     15  C   UNL     1     115.062 122.114 131.268  1.00  0.00     0.000 C 
BRANCH  15  16
ATOM     16  C   UNL     1     114.464 120.879 131.964  1.00  0.00     0.000 C 
BRANCH  16  17
ATOM     17  C   UNL     1     114.467 120.994 133.496  1.00  0.00    -0.000 C 
BRANCH  17  18
ATOM     18  C   UNL     1     115.536 120.077 134.110  1.00  0.00    -0.000 C 
BRANCH  18  19
ATOM     19  C   UNL     1     116.835 120.827 134.445  1.00  0.00    -0.003 C 
ATOM     20  C   UNL     1     118.083 119.965 134.247  1.00  0.00     0.004 C 
ENDBRANCH  18  19
ENDBRANCH  17  18
ENDBRANCH  16  17
ENDBRANCH  15  16
ENDBRANCH  14  15
ENDBRANCH  13  14
ENDBRANCH   2  13
TORSDOF 15
ENDMDL
