MODEL 1
REMARK VINA RESULT:     4.076      0.000      0.000
REMARK INTER + INTRA:           8.254
REMARK INTER:                   5.029
REMARK INTRA:                   3.225
REMARK UNBOUND:                 3.225
REMARK SMILES C=C1CC[C@H]2[C@H]([C@H]3[C@@H]1CC[C@@H]3C)C2(C)C
REMARK SMILES IDX 3 1 2 2 1 3 8 4 12 5 11 6 10 7 7 8 9 9 4 11 5 12 6 13 13 14
REMARK SMILES IDX 14 16 15 17
REMARK H PARENT
REMARK Flexibility Score: 80.00
ROOT
ATOM      1  C   UNL     1       3.944   9.807  10.878  1.00  0.00     0.031 C 
ENDROOT
BRANCH   1   2
ATOM      2  C   UNL     1       3.195  10.233  12.138  1.00  0.00    -0.074 C 
ATOM      3  C   UNL     1       1.854  10.129  12.161  1.00  0.00     0.008 C 
BRANCH   2   4
ATOM      4  C   UNL     1       4.011  10.469  13.428  1.00  0.00     0.018 C 
ATOM      5  C   UNL     1       3.593   8.373  16.562  1.00  0.00     0.008 C 
ATOM      6  C   UNL     1       3.187   9.188  15.330  1.00  0.00    -0.010 C 
ATOM      7  C   UNL     1       2.962  10.666  15.653  1.00  0.00     0.004 C 
ATOM      8  C   UNL     1       4.260   9.170  14.238  1.00  0.00     0.003 CG0
ATOM      9  C   UNL     1       3.374  11.463  14.414  1.00  0.00     0.008 C 
ATOM     10  G   UNL     1       4.155   7.906  13.355  1.00  0.00     0.000 G0
ENDBRANCH   2   4
ENDBRANCH   1   2
BRANCH   1  11
ATOM     11  C   UNL     1       4.387   8.323  10.926  1.00  0.00     0.009 C 
BRANCH  11  12
ATOM     12  C   UNL     1       5.191   8.074  12.213  1.00  0.00    -0.001 C 
ATOM     13  C   UNL     1       4.173   7.886  13.369  1.00  0.00     0.002 CG0
ATOM     14  C   UNL     1       5.234   6.825  13.085  1.00  0.00    -0.029 C 
ATOM     15  G   UNL     1       4.265   9.150  14.254  1.00  0.00     0.000 G0
ATOM     16  C   UNL     1       6.385   6.720  14.093  1.00  0.00     0.011 C 
ATOM     17  C   UNL     1       4.741   5.518  12.452  1.00  0.00     0.011 C 
ENDBRANCH  11  12
ENDBRANCH   1  11
TORSDOF 0
ENDMDL
MODEL 2
REMARK VINA RESULT:     4.452      1.379      3.953
REMARK INTER + INTRA:           8.718
REMARK INTER:                   5.637
REMARK INTRA:                   3.081
REMARK UNBOUND:                 3.225
REMARK SMILES C=C1CC[C@H]2[C@H]([C@H]3[C@@H]1CC[C@@H]3C)C2(C)C
REMARK SMILES IDX 3 1 2 2 1 3 8 4 12 5 11 6 10 7 7 8 9 9 4 11 5 12 6 13 13 14
REMARK SMILES IDX 14 16 15 17
REMARK H PARENT
REMARK Flexibility Score: 80.00
ROOT
ATOM      1  C   UNL     1       4.170   7.166  10.875  1.00  0.00     0.031 C 
ENDROOT
BRANCH   1   2
ATOM      2  C   UNL     1       5.465   6.904  11.640  1.00  0.00    -0.074 C 
ATOM      3  C   UNL     1       6.638   7.168  11.036  1.00  0.00     0.008 C 
BRANCH   2   4
ATOM      4  C   UNL     1       5.377   6.646  13.159  1.00  0.00     0.018 C 
ATOM      5  C   UNL     1       6.914   8.952  15.750  1.00  0.00     0.008 C 
ATOM      6  C   UNL     1       6.808   8.123  14.466  1.00  0.00    -0.010 C 
ATOM      7  C   UNL     1       7.351   6.703  14.640  1.00  0.00     0.004 C 
ATOM      8  C   UNL     1       5.361   7.950  14.000  1.00  0.00     0.003 CG0
ATOM      9  C   UNL     1       6.522   5.793  13.730  1.00  0.00     0.008 C 
ATOM     10  G   UNL     1       4.877   9.165  13.175  1.00  0.00     0.000 G0
ENDBRANCH   2   4
ENDBRANCH   1   2
BRANCH   1  11
ATOM     11  C   UNL     1       3.634   8.603  11.094  1.00  0.00     0.009 C 
BRANCH  11  12
ATOM     12  C   UNL     1       3.474   8.863  12.600  1.00  0.00    -0.001 C 
ATOM     13  C   UNL     1       4.880   9.190  13.170  1.00  0.00     0.002 CG0
ATOM     14  C   UNL     1       3.711  10.151  13.379  1.00  0.00    -0.029 C 
ATOM     15  G   UNL     1       5.311   7.973  14.021  1.00  0.00     0.000 G0
ATOM     16  C   UNL     1       3.131  10.224  14.796  1.00  0.00     0.011 C 
ATOM     17  C   UNL     1       3.747  11.454  12.571  1.00  0.00     0.011 C 
ENDBRANCH  11  12
ENDBRANCH   1  11
TORSDOF 0
ENDMDL
MODEL 3
REMARK VINA RESULT:     4.699      1.363      4.811
REMARK INTER + INTRA:           9.023
REMARK INTER:                   5.834
REMARK INTRA:                   3.189
REMARK UNBOUND:                 3.225
REMARK SMILES C=C1CC[C@H]2[C@H]([C@H]3[C@@H]1CC[C@@H]3C)C2(C)C
REMARK SMILES IDX 3 1 2 2 1 3 8 4 12 5 11 6 10 7 7 8 9 9 4 11 5 12 6 13 13 14
REMARK SMILES IDX 14 16 15 17
REMARK H PARENT
REMARK Flexibility Score: 80.00
ROOT
ATOM      1  C   UNL     1       7.643   8.465  14.780  1.00  0.00     0.031 C 
ENDROOT
BRANCH   1   2
ATOM      2  C   UNL     1       7.261   7.070  14.290  1.00  0.00    -0.074 C 
ATOM      3  C   UNL     1       7.087   6.091  15.196  1.00  0.00     0.008 C 
BRANCH   2   4
ATOM      4  C   UNL     1       6.793   6.912  12.827  1.00  0.00     0.018 C 
ATOM      5  C   UNL     1       3.298   5.783  11.876  1.00  0.00     0.008 C 
ATOM      6  C   UNL     1       4.633   5.802  12.628  1.00  0.00    -0.010 C 
ATOM      7  C   UNL     1       5.674   4.875  11.996  1.00  0.00     0.004 C 
ATOM      8  C   UNL     1       5.278   7.190  12.639  1.00  0.00     0.003 CG0
ATOM      9  C   UNL     1       7.043   5.521  12.223  1.00  0.00     0.008 C 
ATOM     10  G   UNL     1       4.706   8.077  13.768  1.00  0.00     0.000 G0
ENDBRANCH   2   4
ENDBRANCH   1   2
BRANCH   1  11
ATOM     11  C   UNL     1       6.406   9.363  15.030  1.00  0.00     0.009 C 
BRANCH  11  12
ATOM     12  C   UNL     1       5.537   9.398  13.763  1.00  0.00    -0.001 C 
ATOM     13  C   UNL     1       4.685   8.101  13.744  1.00  0.00     0.002 CG0
ATOM     14  C   UNL     1       4.019   9.472  13.646  1.00  0.00    -0.029 C 
ATOM     15  G   UNL     1       5.257   7.207  12.620  1.00  0.00     0.000 G0
ATOM     16  C   UNL     1       3.445   9.857  12.277  1.00  0.00     0.011 C 
ATOM     17  C   UNL     1       3.250   9.948  14.884  1.00  0.00     0.011 C 
ENDBRANCH  11  12
ENDBRANCH   1  11
TORSDOF 0
ENDMDL
MODEL 4
REMARK VINA RESULT:     5.479      1.138      4.312
REMARK INTER + INTRA:           9.986
REMARK INTER:                   6.889
REMARK INTRA:                   3.097
REMARK UNBOUND:                 3.225
REMARK SMILES C=C1CC[C@H]2[C@H]([C@H]3[C@@H]1CC[C@@H]3C)C2(C)C
REMARK SMILES IDX 3 1 2 2 1 3 8 4 12 5 11 6 10 7 7 8 9 9 4 11 5 12 6 13 13 14
REMARK SMILES IDX 14 16 15 17
REMARK H PARENT
REMARK Flexibility Score: 80.00
ROOT
ATOM      1  C   UNL     1       3.273  10.227  15.804  1.00  0.00     0.031 C 
ENDROOT
BRANCH   1   2
ATOM      2  C   UNL     1       3.901   8.904  15.374  1.00  0.00    -0.074 C 
ATOM      3  C   UNL     1       3.243   7.759  15.634  1.00  0.00     0.008 C 
BRANCH   2   4
ATOM      4  C   UNL     1       5.096   8.946  14.397  1.00  0.00     0.018 C 
ATOM      5  C   UNL     1       4.962   7.506  10.889  1.00  0.00     0.008 C 
ATOM      6  C   UNL     1       4.753   7.584  12.405  1.00  0.00    -0.010 C 
ATOM      7  C   UNL     1       5.904   6.951  13.189  1.00  0.00     0.004 C 
ATOM      8  C   UNL     1       4.664   9.027  12.909  1.00  0.00     0.003 CG0
ATOM      9  C   UNL     1       6.044   7.739  14.493  1.00  0.00     0.008 C 
ATOM     10  G   UNL     1       3.238   9.601  12.749  1.00  0.00     0.000 G0
ENDBRANCH   2   4
ENDBRANCH   1   2
BRANCH   1  11
ATOM     11  C   UNL     1       2.379  10.845  14.700  1.00  0.00     0.009 C 
BRANCH  11  12
ATOM     12  C   UNL     1       3.196  10.994  13.407  1.00  0.00    -0.001 C 
ATOM     13  C   UNL     1       3.226   9.607  12.710  1.00  0.00     0.002 CG0
ATOM     14  C   UNL     1       2.735  10.845  11.962  1.00  0.00    -0.029 C 
ATOM     15  G   UNL     1       4.664   9.061  12.863  1.00  0.00     0.000 G0
ATOM     16  C   UNL     1       3.663  11.400  10.875  1.00  0.00     0.011 C 
ATOM     17  C   UNL     1       1.227  10.932  11.702  1.00  0.00     0.011 C 
ENDBRANCH  11  12
ENDBRANCH   1  11
TORSDOF 0
ENDMDL
MODEL 5
REMARK VINA RESULT:     5.543      1.666      4.276
REMARK INTER + INTRA:          10.064
REMARK INTER:                   6.839
REMARK INTRA:                   3.225
REMARK UNBOUND:                 3.225
REMARK SMILES C=C1CC[C@H]2[C@H]([C@H]3[C@@H]1CC[C@@H]3C)C2(C)C
REMARK SMILES IDX 3 1 2 2 1 3 8 4 12 5 11 6 10 7 7 8 9 9 4 11 5 12 6 13 13 14
REMARK SMILES IDX 14 16 15 17
REMARK H PARENT
REMARK Flexibility Score: 80.00
ROOT
ATOM      1  C   UNL     1       4.684   5.805  11.942  1.00  0.00     0.031 C 
ENDROOT
BRANCH   1   2
ATOM      2  C   UNL     1       6.124   6.242  12.202  1.00  0.00    -0.074 C 
ATOM      3  C   UNL     1       6.819   6.809  11.199  1.00  0.00     0.008 C 
BRANCH   2   4
ATOM      4  C   UNL     1       6.616   6.302  13.664  1.00  0.00     0.018 C 
ATOM      5  C   UNL     1       7.725   9.514  15.352  1.00  0.00     0.008 C 
ATOM      6  C   UNL     1       7.601   8.451  14.255  1.00  0.00    -0.010 C 
ATOM      7  C   UNL     1       8.722   7.411  14.319  1.00  0.00     0.004 C 
ATOM      8  C   UNL     1       6.300   7.653  14.359  1.00  0.00     0.003 CG0
ATOM      9  C   UNL     1       8.128   6.085  13.839  1.00  0.00     0.008 C 
ATOM     10  G   UNL     1       5.121   8.391  13.683  1.00  0.00     0.000 G0
ENDBRANCH   2   4
ENDBRANCH   1   2
BRANCH   1  11
ATOM     11  C   UNL     1       3.659   6.922  12.260  1.00  0.00     0.009 C 
BRANCH  11  12
ATOM     12  C   UNL     1       3.886   7.428  13.693  1.00  0.00    -0.001 C 
ATOM     13  C   UNL     1       5.111   8.381  13.664  1.00  0.00     0.002 CG0
ATOM     14  C   UNL     1       3.773   8.848  14.235  1.00  0.00    -0.029 C 
ATOM     15  G   UNL     1       6.270   7.639  14.368  1.00  0.00     0.000 G0
ATOM     16  C   UNL     1       3.697   9.008  15.758  1.00  0.00     0.011 C 
ATOM     17  C   UNL     1       2.984   9.854  13.388  1.00  0.00     0.011 C 
ENDBRANCH  11  12
ENDBRANCH   1  11
TORSDOF 0
ENDMDL
MODEL 6
REMARK VINA RESULT:     6.902      1.480      2.772
REMARK INTER + INTRA:          11.741
REMARK INTER:                   8.404
REMARK INTRA:                   3.336
REMARK UNBOUND:                 3.225
REMARK SMILES C=C1CC[C@H]2[C@H]([C@H]3[C@@H]1CC[C@@H]3C)C2(C)C
REMARK SMILES IDX 3 1 2 2 1 3 8 4 12 5 11 6 10 7 7 8 9 9 4 11 5 12 6 13 13 14
REMARK SMILES IDX 14 16 15 17
REMARK H PARENT
REMARK Flexibility Score: 80.00
ROOT
ATOM      1  C   UNL     1       3.640   5.487  11.817  1.00  0.00     0.031 C 
ENDROOT
BRANCH   1   2
ATOM      2  C   UNL     1       3.170   6.671  12.658  1.00  0.00    -0.074 C 
ATOM      3  C   UNL     1       2.316   6.447  13.673  1.00  0.00     0.008 C 
BRANCH   2   4
ATOM      4  C   UNL     1       3.920   8.013  12.513  1.00  0.00     0.018 C 
ATOM      5  C   UNL     1       5.896   9.604  15.334  1.00  0.00     0.008 C 
ATOM      6  C   UNL     1       4.734   8.890  14.636  1.00  0.00    -0.010 C 
ATOM      7  C   UNL     1       3.669   9.864  14.127  1.00  0.00     0.004 C 
ATOM      8  C   UNL     1       5.187   8.103  13.403  1.00  0.00     0.003 CG0
ATOM      9  C   UNL     1       3.079   9.255  12.853  1.00  0.00     0.008 C 
ATOM     10  G   UNL     1       5.728   6.707  13.784  1.00  0.00     0.000 G0
ENDBRANCH   2   4
ENDBRANCH   1   2
BRANCH   1  11
ATOM     11  C   UNL     1       4.963   4.876  12.342  1.00  0.00     0.009 C 
BRANCH  11  12
ATOM     12  C   UNL     1       6.021   5.984  12.465  1.00  0.00    -0.001 C 
ATOM     13  C   UNL     1       5.753   6.741  13.793  1.00  0.00     0.002 CG0
ATOM     14  C   UNL     1       7.126   6.139  13.503  1.00  0.00    -0.029 C 
ATOM     15  G   UNL     1       5.191   8.129  13.410  1.00  0.00     0.000 G0
ATOM     16  C   UNL     1       8.252   7.128  13.178  1.00  0.00     0.011 C 
ATOM     17  C   UNL     1       7.507   4.888  14.304  1.00  0.00     0.011 C 
ENDBRANCH  11  12
ENDBRANCH   1  11
TORSDOF 0
ENDMDL
