MODEL 1
REMARK VINA RESULT:    27.215      0.000      0.000
REMARK INTER + INTRA:          33.438
REMARK INTER:                  33.579
REMARK INTRA:                  -0.141
REMARK UNBOUND:                -0.141
REMARK SMILES O=c1c(O)c(-c2cc(O)c(O)c(O)c2)oc2cc(O)cc(O)c12
REMARK SMILES IDX 5 1 3 2 2 3 1 4 23 5 21 6 20 7 18 8 17 9 16 10 15 11 6 12
REMARK SMILES IDX 7 13 8 14 14 15 10 16 12 17 9 18 11 20 13 22 4 24 22 26
REMARK SMILES IDX 19 28
REMARK H PARENT 9 19 11 21 13 23 4 25 22 27 19 29
REMARK Flexibility Score: inf
ROOT
ATOM      1  C   UNL     1      -4.126   2.691  14.151  1.00  0.00     0.180 A 
ATOM      2  C   UNL     1      -4.150   2.382  15.521  1.00  0.00     0.208 A 
ATOM      3  C   UNL     1      -5.192   2.889  16.315  1.00  0.00     0.238 A 
ATOM      4  O   UNL     1      -5.237   2.564  17.531  1.00  0.00    -0.285 OA
ATOM      5  C   UNL     1      -6.186   3.710  15.732  1.00  0.00     0.111 A 
ATOM      6  C   UNL     1      -7.263   4.311  16.450  1.00  0.00     0.134 A 
ATOM      7  C   UNL     1      -8.262   4.998  15.749  1.00  0.00     0.093 A 
ATOM      8  C   UNL     1      -8.188   5.163  14.366  1.00  0.00     0.123 A 
ATOM      9  C   UNL     1      -7.107   4.631  13.661  1.00  0.00     0.094 A 
ATOM     10  C   UNL     1      -6.115   3.909  14.329  1.00  0.00     0.146 A 
ATOM     11  O   UNL     1      -5.109   3.411  13.620  1.00  0.00    -0.452 OA
ENDROOT
BRANCH   1  12
ATOM     12  C   UNL     1      -3.047   2.215  13.254  1.00  0.00     0.029 A 
ATOM     13  C   UNL     1      -2.209   3.148  12.624  1.00  0.00     0.062 A 
ATOM     14  C   UNL     1      -1.168   2.722  11.788  1.00  0.00     0.162 A 
ATOM     15  C   UNL     1      -2.807   0.843  13.066  1.00  0.00     0.062 A 
ATOM     16  C   UNL     1      -0.948   1.350  11.588  1.00  0.00     0.200 A 
ATOM     17  C   UNL     1      -1.766   0.411  12.232  1.00  0.00     0.162 A 
BRANCH  14  18
ATOM     18  O   UNL     1      -0.352   3.660  11.156  1.00  0.00    -0.504 OA
ATOM     19  H   UNL     1       0.644   3.509  11.046  1.00  0.00     0.293 HD
ENDBRANCH  14  18
BRANCH  16  20
ATOM     20  O   UNL     1       0.080   0.901  10.758  1.00  0.00    -0.502 OA
ATOM     21  H   UNL     1       0.084  -0.031  10.361  1.00  0.00     0.293 HD
ENDBRANCH  16  20
BRANCH  17  22
ATOM     22  O   UNL     1      -1.535  -0.949  12.041  1.00  0.00    -0.504 OA
ATOM     23  H   UNL     1      -1.680  -1.391  11.140  1.00  0.00     0.293 HD
ENDBRANCH  17  22
ENDBRANCH   1  12
BRANCH   2  24
ATOM     24  O   UNL     1      -3.171   1.551  16.072  1.00  0.00    -0.502 OA
ATOM     25  H   UNL     1      -2.193   1.811  16.105  1.00  0.00     0.293 HD
ENDBRANCH   2  24
BRANCH   6  26
ATOM     26  O   UNL     1      -7.384   4.285  17.843  1.00  0.00    -0.507 OA
ATOM     27  H   UNL     1      -7.383   5.101  18.434  1.00  0.00     0.293 HD
ENDBRANCH   6  26
BRANCH   8  28
ATOM     28  O   UNL     1      -9.192   5.866  13.703  1.00  0.00    -0.508 OA
ATOM     29  H   UNL     1     -10.007   5.396  13.326  1.00  0.00     0.293 HD
ENDBRANCH   8  28
TORSDOF 7
ENDMDL
MODEL 2
REMARK VINA RESULT:    28.589      2.246      3.996
REMARK INTER + INTRA:          35.134
REMARK INTER:                  35.367
REMARK INTRA:                  -0.234
REMARK UNBOUND:                -0.141
REMARK SMILES O=c1c(O)c(-c2cc(O)c(O)c(O)c2)oc2cc(O)cc(O)c12
REMARK SMILES IDX 5 1 3 2 2 3 1 4 23 5 21 6 20 7 18 8 17 9 16 10 15 11 6 12
REMARK SMILES IDX 7 13 8 14 14 15 10 16 12 17 9 18 11 20 13 22 4 24 22 26
REMARK SMILES IDX 19 28
REMARK H PARENT 9 19 11 21 13 23 4 25 22 27 19 29
REMARK Flexibility Score: inf
ROOT
ATOM      1  C   UNL     1      -5.586   3.804  14.829  1.00  0.00     0.180 A 
ATOM      2  C   UNL     1      -6.755   3.618  14.072  1.00  0.00     0.208 A 
ATOM      3  C   UNL     1      -7.658   4.686  13.942  1.00  0.00     0.238 A 
ATOM      4  O   UNL     1      -8.676   4.531  13.218  1.00  0.00    -0.285 OA
ATOM      5  C   UNL     1      -7.389   5.919  14.584  1.00  0.00     0.111 A 
ATOM      6  C   UNL     1      -8.254   7.054  14.554  1.00  0.00     0.134 A 
ATOM      7  C   UNL     1      -7.826   8.263  15.115  1.00  0.00     0.093 A 
ATOM      8  C   UNL     1      -6.595   8.361  15.763  1.00  0.00     0.123 A 
ATOM      9  C   UNL     1      -5.767   7.241  15.851  1.00  0.00     0.094 A 
ATOM     10  C   UNL     1      -6.150   6.031  15.268  1.00  0.00     0.146 A 
ATOM     11  O   UNL     1      -5.329   4.992  15.365  1.00  0.00    -0.452 OA
ENDROOT
BRANCH   1  12
ATOM     12  C   UNL     1      -4.598   2.718  15.032  1.00  0.00     0.029 A 
ATOM     13  C   UNL     1      -3.802   2.298  13.956  1.00  0.00     0.062 A 
ATOM     14  C   UNL     1      -2.846   1.287  14.126  1.00  0.00     0.162 A 
ATOM     15  C   UNL     1      -4.400   2.139  16.297  1.00  0.00     0.062 A 
ATOM     16  C   UNL     1      -2.669   0.698  15.389  1.00  0.00     0.200 A 
ATOM     17  C   UNL     1      -3.444   1.129  16.474  1.00  0.00     0.162 A 
BRANCH  14  18
ATOM     18  O   UNL     1      -2.071   0.869  13.045  1.00  0.00    -0.504 OA
ATOM     19  H   UNL     1      -1.756  -0.090  12.958  1.00  0.00     0.293 HD
ENDBRANCH  14  18
BRANCH  16  20
ATOM     20  O   UNL     1      -1.725  -0.311  15.584  1.00  0.00    -0.502 OA
ATOM     21  H   UNL     1      -0.896  -0.171  16.149  1.00  0.00     0.293 HD
ENDBRANCH  16  20
BRANCH  17  22
ATOM     22  O   UNL     1      -3.255   0.551  17.728  1.00  0.00    -0.504 OA
ATOM     23  H   UNL     1      -2.415   0.029  17.951  1.00  0.00     0.293 HD
ENDBRANCH  17  22
ENDBRANCH   1  12
BRANCH   2  24
ATOM     24  O   UNL     1      -6.990   2.401  13.428  1.00  0.00    -0.502 OA
ATOM     25  H   UNL     1      -6.722   1.512  13.832  1.00  0.00     0.293 HD
ENDBRANCH   2  24
BRANCH   6  26
ATOM     26  O   UNL     1      -9.543   7.038  14.012  1.00  0.00    -0.507 OA
ATOM     27  H   UNL     1     -10.153   6.236  14.005  1.00  0.00     0.293 HD
ENDBRANCH   6  26
BRANCH   8  28
ATOM     28  O   UNL     1      -6.208   9.576  16.324  1.00  0.00    -0.508 OA
ATOM     29  H   UNL     1      -6.890  10.284  16.577  1.00  0.00     0.293 HD
ENDBRANCH   8  28
TORSDOF 7
ENDMDL
MODEL 3
REMARK VINA RESULT:    29.047      2.512      7.133
REMARK INTER + INTRA:          35.699
REMARK INTER:                  35.895
REMARK INTRA:                  -0.196
REMARK UNBOUND:                -0.141
REMARK SMILES O=c1c(O)c(-c2cc(O)c(O)c(O)c2)oc2cc(O)cc(O)c12
REMARK SMILES IDX 5 1 3 2 2 3 1 4 23 5 21 6 20 7 18 8 17 9 16 10 15 11 6 12
REMARK SMILES IDX 7 13 8 14 14 15 10 16 12 17 9 18 11 20 13 22 4 24 22 26
REMARK SMILES IDX 19 28
REMARK H PARENT 9 19 11 21 13 23 4 25 22 27 19 29
REMARK Flexibility Score: inf
ROOT
ATOM      1  C   UNL     1      -6.356   5.436  15.473  1.00  0.00     0.180 A 
ATOM      2  C   UNL     1      -6.522   4.793  16.712  1.00  0.00     0.208 A 
ATOM      3  C   UNL     1      -5.860   3.577  16.941  1.00  0.00     0.238 A 
ATOM      4  O   UNL     1      -5.969   3.034  18.072  1.00  0.00    -0.285 OA
ATOM      5  C   UNL     1      -5.055   3.010  15.924  1.00  0.00     0.111 A 
ATOM      6  C   UNL     1      -4.372   1.761  16.033  1.00  0.00     0.134 A 
ATOM      7  C   UNL     1      -3.499   1.360  15.014  1.00  0.00     0.093 A 
ATOM      8  C   UNL     1      -3.336   2.129  13.861  1.00  0.00     0.123 A 
ATOM      9  C   UNL     1      -4.045   3.322  13.718  1.00  0.00     0.094 A 
ATOM     10  C   UNL     1      -4.895   3.766  14.734  1.00  0.00     0.146 A 
ATOM     11  O   UNL     1      -5.543   4.912  14.563  1.00  0.00    -0.452 OA
ENDROOT
BRANCH   1  12
ATOM     12  C   UNL     1      -7.041   6.709  15.148  1.00  0.00     0.029 A 
ATOM     13  C   UNL     1      -6.691   7.878  15.842  1.00  0.00     0.062 A 
ATOM     14  C   UNL     1      -7.308   9.100  15.539  1.00  0.00     0.162 A 
ATOM     15  C   UNL     1      -7.993   6.784  14.118  1.00  0.00     0.062 A 
ATOM     16  C   UNL     1      -8.275   9.161  14.522  1.00  0.00     0.200 A 
ATOM     17  C   UNL     1      -8.613   8.003  13.810  1.00  0.00     0.162 A 
BRANCH  14  18
ATOM     18  O   UNL     1      -6.963  10.251  16.245  1.00  0.00    -0.504 OA
ATOM     19  H   UNL     1      -6.065  10.702  16.118  1.00  0.00     0.293 HD
ENDBRANCH  14  18
BRANCH  16  20
ATOM     20  O   UNL     1      -8.906  10.365  14.204  1.00  0.00    -0.502 OA
ATOM     21  H   UNL     1      -9.143  11.052  14.909  1.00  0.00     0.293 HD
ENDBRANCH  16  20
BRANCH  17  22
ATOM     22  O   UNL     1      -9.563   8.072  12.793  1.00  0.00    -0.504 OA
ATOM     23  H   UNL     1      -9.821   8.954  12.367  1.00  0.00     0.293 HD
ENDBRANCH  17  22
ENDBRANCH   1  12
BRANCH   2  24
ATOM     24  O   UNL     1      -7.303   5.382  17.710  1.00  0.00    -0.502 OA
ATOM     25  H   UNL     1      -8.052   4.886  18.178  1.00  0.00     0.293 HD
ENDBRANCH   2  24
BRANCH   6  26
ATOM     26  O   UNL     1      -4.535   0.873  17.100  1.00  0.00    -0.507 OA
ATOM     27  H   UNL     1      -4.477   1.128  18.074  1.00  0.00     0.293 HD
ENDBRANCH   6  26
BRANCH   8  28
ATOM     28  O   UNL     1      -2.471   1.691  12.860  1.00  0.00    -0.508 OA
ATOM     29  H   UNL     1      -1.944   2.345  12.293  1.00  0.00     0.293 HD
ENDBRANCH   8  28
TORSDOF 7
ENDMDL
MODEL 4
REMARK VINA RESULT:    30.151      1.560      6.785
REMARK INTER + INTRA:          37.061
REMARK INTER:                  37.370
REMARK INTRA:                  -0.309
REMARK UNBOUND:                -0.141
REMARK SMILES O=c1c(O)c(-c2cc(O)c(O)c(O)c2)oc2cc(O)cc(O)c12
REMARK SMILES IDX 5 1 3 2 2 3 1 4 23 5 21 6 20 7 18 8 17 9 16 10 15 11 6 12
REMARK SMILES IDX 7 13 8 14 14 15 10 16 12 17 9 18 11 20 13 22 4 24 22 26
REMARK SMILES IDX 19 28
REMARK H PARENT 9 19 11 21 13 23 4 25 22 27 19 29
REMARK Flexibility Score: inf
ROOT
ATOM      1  C   UNL     1      -5.123   3.108  14.931  1.00  0.00     0.180 A 
ATOM      2  C   UNL     1      -4.843   2.588  16.206  1.00  0.00     0.208 A 
ATOM      3  C   UNL     1      -3.875   1.578  16.331  1.00  0.00     0.238 A 
ATOM      4  O   UNL     1      -3.590   1.155  17.483  1.00  0.00    -0.285 OA
ATOM      5  C   UNL     1      -3.213   1.090  15.180  1.00  0.00     0.111 A 
ATOM      6  C   UNL     1      -2.246   0.040  15.185  1.00  0.00     0.134 A 
ATOM      7  C   UNL     1      -1.560  -0.272  14.005  1.00  0.00     0.093 A 
ATOM      8  C   UNL     1      -1.852   0.379  12.807  1.00  0.00     0.123 A 
ATOM      9  C   UNL     1      -2.839   1.366  12.778  1.00  0.00     0.094 A 
ATOM     10  C   UNL     1      -3.514   1.725  13.947  1.00  0.00     0.146 A 
ATOM     11  O   UNL     1      -4.439   2.675  13.878  1.00  0.00    -0.452 OA
ENDROOT
BRANCH   1  12
ATOM     12  C   UNL     1      -6.147   4.157  14.716  1.00  0.00     0.029 A 
ATOM     13  C   UNL     1      -7.415   3.795  14.236  1.00  0.00     0.062 A 
ATOM     14  C   UNL     1      -8.409   4.766  14.043  1.00  0.00     0.162 A 
ATOM     15  C   UNL     1      -5.895   5.501  15.037  1.00  0.00     0.062 A 
ATOM     16  C   UNL     1      -8.141   6.110  14.347  1.00  0.00     0.200 A 
ATOM     17  C   UNL     1      -6.884   6.476  14.848  1.00  0.00     0.162 A 
BRANCH  14  18
ATOM     18  O   UNL     1      -9.660   4.396  13.552  1.00  0.00    -0.504 OA
ATOM     19  H   UNL     1      -9.785   3.565  12.988  1.00  0.00     0.293 HD
ENDBRANCH  14  18
BRANCH  16  20
ATOM     20  O   UNL     1      -9.112   7.095  14.161  1.00  0.00    -0.502 OA
ATOM     21  H   UNL     1      -9.534   7.589  14.939  1.00  0.00     0.293 HD
ENDBRANCH  16  20
BRANCH  17  22
ATOM     22  O   UNL     1      -6.628   7.809  15.161  1.00  0.00    -0.504 OA
ATOM     23  H   UNL     1      -7.293   8.368  15.683  1.00  0.00     0.293 HD
ENDBRANCH  17  22
ENDBRANCH   1  12
BRANCH   2  24
ATOM     24  O   UNL     1      -5.492   3.100  17.333  1.00  0.00    -0.502 OA
ATOM     25  H   UNL     1      -5.230   3.981  17.757  1.00  0.00     0.293 HD
ENDBRANCH   2  24
BRANCH   6  26
ATOM     26  O   UNL     1      -1.943  -0.737  16.307  1.00  0.00    -0.507 OA
ATOM     27  H   UNL     1      -1.365  -1.563  16.295  1.00  0.00     0.293 HD
ENDBRANCH   6  26
BRANCH   8  28
ATOM     28  O   UNL     1      -1.161   0.031  11.649  1.00  0.00    -0.508 OA
ATOM     29  H   UNL     1      -1.625  -0.428  10.873  1.00  0.00     0.293 HD
ENDBRANCH   8  28
TORSDOF 7
ENDMDL
