MODEL 1
REMARK VINA RESULT:    -4.276      0.000      0.000
REMARK INTER + INTRA:         -10.052
REMARK INTER:                  -7.525
REMARK INTRA:                  -2.526
REMARK UNBOUND:                -2.526
REMARK SMILES CCCCCCC=CCCCCCCCC(=O)[O-]
REMARK SMILES IDX 10 1 11 2 12 3 13 4 14 5 15 6 16 7 17 8 18 9 9 10 8 11 7 12
REMARK SMILES IDX 6 13 5 14 4 15 3 16 2 17 1 18
REMARK H PARENT
REMARK Flexibility Score: inf
ROOT
ATOM      1  C   UNL     1       0.421  18.549   7.781  1.00  0.00     0.004 C 
ENDROOT
BRANCH   1   2
ATOM      2  C   UNL     1       1.884  18.664   8.241  1.00  0.00     0.000 C 
BRANCH   2   3
ATOM      3  C   UNL     1       2.061  19.643   9.411  1.00  0.00     0.000 C 
BRANCH   3   4
ATOM      4  C   UNL     1       2.280  18.890  10.729  1.00  0.00     0.000 C 
BRANCH   4   5
ATOM      5  C   UNL     1       0.980  18.818  11.545  1.00  0.00     0.006 C 
BRANCH   5   6
ATOM      6  C   UNL     1       0.016  19.961  11.203  1.00  0.00     0.053 C 
BRANCH   6   7
ATOM      7  C   UNL     1      -1.382  19.464  10.994  1.00  0.00     0.041 C 
ATOM      8  O   UNL     1      -1.923  18.714  11.849  1.00  0.00    -0.550 OA
ATOM      9  O   UNL     1      -2.098  19.855   9.870  1.00  0.00    -0.550 OA
ENDBRANCH   6   7
ENDBRANCH   5   6
ENDBRANCH   4   5
ENDBRANCH   3   4
ENDBRANCH   2   3
ENDBRANCH   1   2
BRANCH   1  10
ATOM     10  C   UNL     1      -0.192  17.176   8.099  1.00  0.00     0.027 C 
BRANCH  10  11
ATOM     11  C   UNL     1       0.847  16.231   8.636  1.00  0.00    -0.031 C 
ATOM     12  C   UNL     1       0.610  15.464   9.711  1.00  0.00    -0.031 C 
BRANCH  12  13
ATOM     13  C   UNL     1       1.658  14.536  10.260  1.00  0.00     0.027 C 
BRANCH  13  14
ATOM     14  C   UNL     1       2.560  15.259  11.272  1.00  0.00     0.004 C 
BRANCH  14  15
ATOM     15  C   UNL     1       3.934  15.625  10.672  1.00  0.00     0.000 C 
BRANCH  15  16
ATOM     16  C   UNL     1       4.214  14.954   9.314  1.00  0.00    -0.000 C 
BRANCH  16  17
ATOM     17  C   UNL     1       5.064  15.793   8.345  1.00  0.00    -0.003 C 
ATOM     18  C   UNL     1       5.147  17.264   8.752  1.00  0.00     0.004 C 
ENDBRANCH  16  17
ENDBRANCH  15  16
ENDBRANCH  14  15
ENDBRANCH  13  14
ENDBRANCH  12  13
ENDBRANCH  10  11
ENDBRANCH   1  10
TORSDOF 13
ENDMDL
MODEL 2
REMARK VINA RESULT:    -4.258      1.360      2.821
REMARK INTER + INTRA:         -10.020
REMARK INTER:                  -7.356
REMARK INTRA:                  -2.664
REMARK UNBOUND:                -2.526
REMARK SMILES CCCCCCC=CCCCCCCCC(=O)[O-]
REMARK SMILES IDX 10 1 11 2 12 3 13 4 14 5 15 6 16 7 17 8 18 9 9 10 8 11 7 12
REMARK SMILES IDX 6 13 5 14 4 15 3 16 2 17 1 18
REMARK H PARENT
REMARK Flexibility Score: inf
ROOT
ATOM      1  C   UNL     1       0.853  16.050   8.454  1.00  0.00     0.004 C 
ENDROOT
BRANCH   1   2
ATOM      2  C   UNL     1      -0.089  17.256   8.305  1.00  0.00     0.000 C 
BRANCH   2   3
ATOM      3  C   UNL     1       0.642  18.526   7.845  1.00  0.00     0.000 C 
BRANCH   3   4
ATOM      4  C   UNL     1       2.078  18.557   8.381  1.00  0.00     0.000 C 
BRANCH   4   5
ATOM      5  C   UNL     1       2.183  19.455   9.623  1.00  0.00     0.006 C 
BRANCH   5   6
ATOM      6  C   UNL     1       2.306  18.643  10.918  1.00  0.00     0.053 C 
BRANCH   6   7
ATOM      7  C   UNL     1       0.992  18.529  11.628  1.00  0.00     0.041 C 
ATOM      8  O   UNL     1       0.071  19.357  11.395  1.00  0.00    -0.550 OA
ATOM      9  O   UNL     1       0.772  17.490  12.523  1.00  0.00    -0.550 OA
ENDBRANCH   6   7
ENDBRANCH   5   6
ENDBRANCH   4   5
ENDBRANCH   3   4
ENDBRANCH   2   3
ENDBRANCH   1   2
BRANCH   1  10
ATOM     10  C   UNL     1       0.603  15.261   9.748  1.00  0.00     0.027 C 
BRANCH  10  11
ATOM     11  C   UNL     1       1.899  14.856  10.394  1.00  0.00    -0.031 C 
ATOM     12  C   UNL     1       3.084  15.158   9.840  1.00  0.00    -0.031 C 
BRANCH  12  13
ATOM     13  C   UNL     1       4.378  14.733  10.476  1.00  0.00     0.027 C 
BRANCH  13  14
ATOM     14  C   UNL     1       5.582  15.343   9.741  1.00  0.00     0.004 C 
BRANCH  14  15
ATOM     15  C   UNL     1       5.151  16.319   8.626  1.00  0.00     0.000 C 
BRANCH  15  16
ATOM     16  C   UNL     1       5.724  17.740   8.792  1.00  0.00    -0.000 C 
BRANCH  16  17
ATOM     17  C   UNL     1       5.907  18.192  10.250  1.00  0.00    -0.003 C 
ATOM     18  C   UNL     1       5.880  19.712  10.406  1.00  0.00     0.004 C 
ENDBRANCH  16  17
ENDBRANCH  15  16
ENDBRANCH  14  15
ENDBRANCH  13  14
ENDBRANCH  12  13
ENDBRANCH  10  11
ENDBRANCH   1  10
TORSDOF 13
ENDMDL
MODEL 3
REMARK VINA RESULT:    -4.212      1.358      2.561
REMARK INTER + INTRA:          -9.940
REMARK INTER:                  -7.495
REMARK INTRA:                  -2.445
REMARK UNBOUND:                -2.526
REMARK SMILES CCCCCCC=CCCCCCCCC(=O)[O-]
REMARK SMILES IDX 10 1 11 2 12 3 13 4 14 5 15 6 16 7 17 8 18 9 9 10 8 11 7 12
REMARK SMILES IDX 6 13 5 14 4 15 3 16 2 17 1 18
REMARK H PARENT
REMARK Flexibility Score: inf
ROOT
ATOM      1  C   UNL     1       1.039  16.110   8.551  1.00  0.00     0.004 C 
ENDROOT
BRANCH   1   2
ATOM      2  C   UNL     1      -0.102  17.041   8.109  1.00  0.00     0.000 C 
BRANCH   2   3
ATOM      3  C   UNL     1       0.346  18.504   7.973  1.00  0.00     0.000 C 
BRANCH   3   4
ATOM      4  C   UNL     1       1.821  18.664   8.359  1.00  0.00     0.000 C 
BRANCH   4   5
ATOM      5  C   UNL     1       1.983  19.656   9.521  1.00  0.00     0.006 C 
BRANCH   5   6
ATOM      6  C   UNL     1       0.730  19.728  10.402  1.00  0.00     0.053 C 
BRANCH   6   7
ATOM      7  C   UNL     1       0.971  19.137  11.758  1.00  0.00     0.041 C 
ATOM      8  O   UNL     1       0.195  18.257  12.213  1.00  0.00    -0.550 OA
ATOM      9  O   UNL     1       2.073  19.536  12.504  1.00  0.00    -0.550 OA
ENDBRANCH   6   7
ENDBRANCH   5   6
ENDBRANCH   4   5
ENDBRANCH   3   4
ENDBRANCH   2   3
ENDBRANCH   1   2
BRANCH   1  10
ATOM     10  C   UNL     1       0.620  15.156   9.680  1.00  0.00     0.027 C 
BRANCH  10  11
ATOM     11  C   UNL     1       1.790  14.810  10.557  1.00  0.00    -0.031 C 
ATOM     12  C   UNL     1       2.413  15.740  11.297  1.00  0.00    -0.031 C 
BRANCH  12  13
ATOM     13  C   UNL     1       3.597  15.396  12.157  1.00  0.00     0.027 C 
BRANCH  13  14
ATOM     14  C   UNL     1       4.828  16.226  11.759  1.00  0.00     0.004 C 
BRANCH  14  15
ATOM     15  C   UNL     1       4.489  17.310  10.715  1.00  0.00     0.000 C 
BRANCH  15  16
ATOM     16  C   UNL     1       5.354  17.235   9.442  1.00  0.00    -0.000 C 
BRANCH  16  17
ATOM     17  C   UNL     1       4.689  16.518   8.255  1.00  0.00    -0.003 C 
ATOM     18  C   UNL     1       4.831  14.998   8.328  1.00  0.00     0.004 C 
ENDBRANCH  16  17
ENDBRANCH  15  16
ENDBRANCH  14  15
ENDBRANCH  13  14
ENDBRANCH  12  13
ENDBRANCH  10  11
ENDBRANCH   1  10
TORSDOF 13
ENDMDL
MODEL 4
REMARK VINA RESULT:    -4.193      1.383      1.893
REMARK INTER + INTRA:          -9.905
REMARK INTER:                  -7.562
REMARK INTRA:                  -2.343
REMARK UNBOUND:                -2.526
REMARK SMILES CCCCCCC=CCCCCCCCC(=O)[O-]
REMARK SMILES IDX 10 1 11 2 12 3 13 4 14 5 15 6 16 7 17 8 18 9 9 10 8 11 7 12
REMARK SMILES IDX 6 13 5 14 4 15 3 16 2 17 1 18
REMARK H PARENT
REMARK Flexibility Score: inf
ROOT
ATOM      1  C   UNL     1      -0.045  18.535   8.376  1.00  0.00     0.004 C 
ENDROOT
BRANCH   1   2
ATOM      2  C   UNL     1       1.234  18.883   7.597  1.00  0.00     0.000 C 
BRANCH   2   3
ATOM      3  C   UNL     1       2.486  18.891   8.486  1.00  0.00     0.000 C 
BRANCH   3   4
ATOM      4  C   UNL     1       2.218  19.630   9.803  1.00  0.00     0.000 C 
BRANCH   4   5
ATOM      5  C   UNL     1       2.698  18.803  11.006  1.00  0.00     0.006 C 
BRANCH   5   6
ATOM      6  C   UNL     1       1.920  19.134  12.285  1.00  0.00     0.053 C 
BRANCH   6   7
ATOM      7  C   UNL     1       0.754  18.213  12.480  1.00  0.00     0.041 C 
ATOM      8  O   UNL     1       0.930  17.059  12.951  1.00  0.00    -0.550 OA
ATOM      9  O   UNL     1      -0.530  18.643  12.171  1.00  0.00    -0.550 OA
ENDBRANCH   6   7
ENDBRANCH   5   6
ENDBRANCH   4   5
ENDBRANCH   3   4
ENDBRANCH   2   3
ENDBRANCH   1   2
BRANCH   1  10
ATOM     10  C   UNL     1      -0.371  17.034   8.337  1.00  0.00     0.027 C 
BRANCH  10  11
ATOM     11  C   UNL     1       0.375  16.291   9.411  1.00  0.00    -0.031 C 
ATOM     12  C   UNL     1       1.481  15.582   9.136  1.00  0.00    -0.031 C 
BRANCH  12  13
ATOM     13  C   UNL     1       2.212  14.822  10.207  1.00  0.00     0.027 C 
BRANCH  13  14
ATOM     14  C   UNL     1       3.733  14.982  10.057  1.00  0.00     0.004 C 
BRANCH  14  15
ATOM     15  C   UNL     1       4.126  15.580   8.690  1.00  0.00     0.000 C 
BRANCH  15  16
ATOM     16  C   UNL     1       5.484  16.308   8.701  1.00  0.00    -0.000 C 
BRANCH  16  17
ATOM     17  C   UNL     1       5.738  17.177   9.943  1.00  0.00    -0.003 C 
ATOM     18  C   UNL     1       6.215  18.586   9.593  1.00  0.00     0.004 C 
ENDBRANCH  16  17
ENDBRANCH  15  16
ENDBRANCH  14  15
ENDBRANCH  13  14
ENDBRANCH  12  13
ENDBRANCH  10  11
ENDBRANCH   1  10
TORSDOF 13
ENDMDL
MODEL 5
REMARK VINA RESULT:    -4.174      2.096      4.201
REMARK INTER + INTRA:          -9.873
REMARK INTER:                  -7.676
REMARK INTRA:                  -2.197
REMARK UNBOUND:                -2.526
REMARK SMILES CCCCCCC=CCCCCCCCC(=O)[O-]
REMARK SMILES IDX 10 1 11 2 12 3 13 4 14 5 15 6 16 7 17 8 18 9 9 10 8 11 7 12
REMARK SMILES IDX 6 13 5 14 4 15 3 16 2 17 1 18
REMARK H PARENT
REMARK Flexibility Score: inf
ROOT
ATOM      1  C   UNL     1       2.355  14.835  10.299  1.00  0.00     0.004 C 
ENDROOT
BRANCH   1   2
ATOM      2  C   UNL     1       0.918  15.105   9.825  1.00  0.00     0.000 C 
BRANCH   2   3
ATOM      3  C   UNL     1       0.863  15.994   8.574  1.00  0.00     0.000 C 
BRANCH   3   4
ATOM      4  C   UNL     1       0.012  17.245   8.827  1.00  0.00     0.000 C 
BRANCH   4   5
ATOM      5  C   UNL     1       0.530  18.438   8.009  1.00  0.00     0.006 C 
BRANCH   5   6
ATOM      6  C   UNL     1       2.008  18.736   8.289  1.00  0.00     0.053 C 
BRANCH   6   7
ATOM      7  C   UNL     1       2.182  19.554   9.533  1.00  0.00     0.041 C 
ATOM      8  O   UNL     1       3.300  19.597  10.112  1.00  0.00    -0.550 OA
ATOM      9  O   UNL     1       1.119  20.294  10.033  1.00  0.00    -0.550 OA
ENDBRANCH   6   7
ENDBRANCH   5   6
ENDBRANCH   4   5
ENDBRANCH   3   4
ENDBRANCH   2   3
ENDBRANCH   1   2
BRANCH   1  10
ATOM     10  C   UNL     1       3.042  16.093  10.852  1.00  0.00     0.027 C 
BRANCH  10  11
ATOM     11  C   UNL     1       4.370  16.321  10.186  1.00  0.00    -0.031 C 
ATOM     12  C   UNL     1       4.565  16.037   8.889  1.00  0.00    -0.031 C 
BRANCH  12  13
ATOM     13  C   UNL     1       5.900  16.245   8.231  1.00  0.00     0.027 C 
BRANCH  13  14
ATOM     14  C   UNL     1       6.580  14.901   7.925  1.00  0.00     0.004 C 
BRANCH  14  15
ATOM     15  C   UNL     1       5.560  13.756   7.754  1.00  0.00     0.000 C 
BRANCH  15  16
ATOM     16  C   UNL     1       5.832  12.544   8.666  1.00  0.00    -0.000 C 
BRANCH  16  17
ATOM     17  C   UNL     1       4.821  12.360   9.809  1.00  0.00    -0.003 C 
ATOM     18  C   UNL     1       5.408  12.700  11.179  1.00  0.00     0.004 C 
ENDBRANCH  16  17
ENDBRANCH  15  16
ENDBRANCH  14  15
ENDBRANCH  13  14
ENDBRANCH  12  13
ENDBRANCH  10  11
ENDBRANCH   1  10
TORSDOF 13
ENDMDL
MODEL 6
REMARK VINA RESULT:    -4.119      4.489      6.997
REMARK INTER + INTRA:          -9.775
REMARK INTER:                  -7.901
REMARK INTRA:                  -1.874
REMARK UNBOUND:                -2.526
REMARK SMILES CCCCCCC=CCCCCCCCC(=O)[O-]
REMARK SMILES IDX 10 1 11 2 12 3 13 4 14 5 15 6 16 7 17 8 18 9 9 10 8 11 7 12
REMARK SMILES IDX 6 13 5 14 4 15 3 16 2 17 1 18
REMARK H PARENT
REMARK Flexibility Score: inf
ROOT
ATOM      1  C   UNL     1       5.016  18.500   9.615  1.00  0.00     0.004 C 
ENDROOT
BRANCH   1   2
ATOM      2  C   UNL     1       4.461  17.344   8.766  1.00  0.00     0.000 C 
BRANCH   2   3
ATOM      3  C   UNL     1       5.053  15.982   9.161  1.00  0.00     0.000 C 
BRANCH   3   4
ATOM      4  C   UNL     1       4.790  14.934   8.073  1.00  0.00     0.000 C 
BRANCH   4   5
ATOM      5  C   UNL     1       5.884  13.856   8.071  1.00  0.00     0.006 C 
BRANCH   5   6
ATOM      6  C   UNL     1       5.656  12.800   6.982  1.00  0.00     0.053 C 
BRANCH   6   7
ATOM      7  C   UNL     1       6.752  12.811   5.961  1.00  0.00     0.041 C 
ATOM      8  O   UNL     1       7.052  13.879   5.364  1.00  0.00    -0.550 OA
ATOM      9  O   UNL     1       7.463  11.649   5.691  1.00  0.00    -0.550 OA
ENDBRANCH   6   7
ENDBRANCH   5   6
ENDBRANCH   4   5
ENDBRANCH   3   4
ENDBRANCH   2   3
ENDBRANCH   1   2
BRANCH   1  10
ATOM     10  C   UNL     1       3.911  19.291  10.330  1.00  0.00     0.027 C 
BRANCH  10  11
ATOM     11  C   UNL     1       2.606  19.188   9.591  1.00  0.00    -0.031 C 
ATOM     12  C   UNL     1       1.430  19.347  10.216  1.00  0.00    -0.031 C 
BRANCH  12  13
ATOM     13  C   UNL     1       0.126  19.221   9.479  1.00  0.00     0.027 C 
BRANCH  13  14
ATOM     14  C   UNL     1       0.301  18.420   8.179  1.00  0.00     0.004 C 
BRANCH  14  15
ATOM     15  C   UNL     1      -0.109  16.942   8.344  1.00  0.00     0.000 C 
BRANCH  15  16
ATOM     16  C   UNL     1       1.083  15.989   8.557  1.00  0.00    -0.000 C 
BRANCH  16  17
ATOM     17  C   UNL     1       1.007  15.140   9.836  1.00  0.00    -0.003 C 
ATOM     18  C   UNL     1       1.808  15.737  10.992  1.00  0.00     0.004 C 
ENDBRANCH  16  17
ENDBRANCH  15  16
ENDBRANCH  14  15
ENDBRANCH  13  14
ENDBRANCH  12  13
ENDBRANCH  10  11
ENDBRANCH   1  10
TORSDOF 13
ENDMDL
MODEL 7
REMARK VINA RESULT:    -4.117     16.937     18.472
REMARK INTER + INTRA:          -9.773
REMARK INTER:                  -7.789
REMARK INTRA:                  -1.984
REMARK UNBOUND:                -2.526
REMARK SMILES CCCCCCC=CCCCCCCCC(=O)[O-]
REMARK SMILES IDX 10 1 11 2 12 3 13 4 14 5 15 6 16 7 17 8 18 9 9 10 8 11 7 12
REMARK SMILES IDX 6 13 5 14 4 15 3 16 2 17 1 18
REMARK H PARENT
REMARK Flexibility Score: inf
ROOT
ATOM      1  C   UNL     1       2.231   6.921  -4.313  1.00  0.00     0.004 C 
ENDROOT
BRANCH   1   2
ATOM      2  C   UNL     1       2.746   5.501  -4.599  1.00  0.00     0.000 C 
BRANCH   2   3
ATOM      3  C   UNL     1       3.125   4.739  -3.320  1.00  0.00     0.000 C 
BRANCH   3   4
ATOM      4  C   UNL     1       3.155   5.680  -2.110  1.00  0.00     0.000 C 
BRANCH   4   5
ATOM      5  C   UNL     1       4.563   5.745  -1.498  1.00  0.00     0.006 C 
BRANCH   5   6
ATOM      6  C   UNL     1       5.460   4.599  -1.982  1.00  0.00     0.053 C 
BRANCH   6   7
ATOM      7  C   UNL     1       5.888   3.714  -0.851  1.00  0.00     0.041 C 
ATOM      8  O   UNL     1       6.508   4.197   0.133  1.00  0.00    -0.550 OA
ATOM      9  O   UNL     1       5.573   2.362  -0.869  1.00  0.00    -0.550 OA
ENDBRANCH   6   7
ENDBRANCH   5   6
ENDBRANCH   4   5
ENDBRANCH   3   4
ENDBRANCH   2   3
ENDBRANCH   1   2
BRANCH   1  10
ATOM     10  C   UNL     1       1.302   7.447  -5.418  1.00  0.00     0.027 C 
BRANCH  10  11
ATOM     11  C   UNL     1      -0.112   6.982  -5.203  1.00  0.00    -0.031 C 
ATOM     12  C   UNL     1      -0.784   7.274  -4.078  1.00  0.00    -0.031 C 
BRANCH  12  13
ATOM     13  C   UNL     1      -2.189   6.790  -3.856  1.00  0.00     0.027 C 
BRANCH  13  14
ATOM     14  C   UNL     1      -2.282   5.929  -2.586  1.00  0.00     0.004 C 
BRANCH  14  15
ATOM     15  C   UNL     1      -0.897   5.655  -1.964  1.00  0.00     0.000 C 
BRANCH  15  16
ATOM     16  C   UNL     1      -0.495   4.167  -1.981  1.00  0.00    -0.000 C 
BRANCH  16  17
ATOM     17  C   UNL     1      -0.500   3.517  -3.374  1.00  0.00    -0.003 C 
ATOM     18  C   UNL     1       0.299   2.215  -3.422  1.00  0.00     0.004 C 
ENDBRANCH  16  17
ENDBRANCH  15  16
ENDBRANCH  14  15
ENDBRANCH  13  14
ENDBRANCH  12  13
ENDBRANCH  10  11
ENDBRANCH   1  10
TORSDOF 13
ENDMDL
MODEL 8
REMARK VINA RESULT:    -4.066      3.003      5.470
REMARK INTER + INTRA:          -9.682
REMARK INTER:                  -7.405
REMARK INTRA:                  -2.277
REMARK UNBOUND:                -2.526
REMARK SMILES CCCCCCC=CCCCCCCCC(=O)[O-]
REMARK SMILES IDX 10 1 11 2 12 3 13 4 14 5 15 6 16 7 17 8 18 9 9 10 8 11 7 12
REMARK SMILES IDX 6 13 5 14 4 15 3 16 2 17 1 18
REMARK H PARENT
REMARK Flexibility Score: inf
ROOT
ATOM      1  C   UNL     1       3.263  14.992   9.766  1.00  0.00     0.004 C 
ENDROOT
BRANCH   1   2
ATOM      2  C   UNL     1       4.425  14.894  10.768  1.00  0.00     0.000 C 
BRANCH   2   3
ATOM      3  C   UNL     1       5.642  15.731  10.347  1.00  0.00     0.000 C 
BRANCH   3   4
ATOM      4  C   UNL     1       5.497  16.220   8.901  1.00  0.00     0.000 C 
BRANCH   4   5
ATOM      5  C   UNL     1       5.383  17.751   8.846  1.00  0.00     0.006 C 
BRANCH   5   6
ATOM      6  C   UNL     1       6.675  18.446   9.294  1.00  0.00     0.053 C 
BRANCH   6   7
ATOM      7  C   UNL     1       6.432  19.387  10.435  1.00  0.00     0.041 C 
ATOM      8  O   UNL     1       5.582  20.309  10.326  1.00  0.00    -0.550 OA
ATOM      9  O   UNL     1       7.121  19.224  11.629  1.00  0.00    -0.550 OA
ENDBRANCH   6   7
ENDBRANCH   5   6
ENDBRANCH   4   5
ENDBRANCH   3   4
ENDBRANCH   2   3
ENDBRANCH   1   2
BRANCH   1  10
ATOM     10  C   UNL     1       1.911  14.612  10.390  1.00  0.00     0.027 C 
BRANCH  10  11
ATOM     11  C   UNL     1       0.793  15.418   9.790  1.00  0.00    -0.031 C 
ATOM     12  C   UNL     1       0.977  16.167   8.691  1.00  0.00    -0.031 C 
BRANCH  12  13
ATOM     13  C   UNL     1      -0.136  16.989   8.106  1.00  0.00     0.027 C 
BRANCH  13  14
ATOM     14  C   UNL     1       0.237  18.480   8.072  1.00  0.00     0.004 C 
BRANCH  14  15
ATOM     15  C   UNL     1       1.759  18.704   8.194  1.00  0.00     0.000 C 
BRANCH  15  16
ATOM     16  C   UNL     1       2.158  19.612   9.373  1.00  0.00    -0.000 C 
BRANCH  16  17
ATOM     17  C   UNL     1       1.710  19.105  10.754  1.00  0.00    -0.003 C 
ATOM     18  C   UNL     1       2.762  18.230  11.434  1.00  0.00     0.004 C 
ENDBRANCH  16  17
ENDBRANCH  15  16
ENDBRANCH  14  15
ENDBRANCH  13  14
ENDBRANCH  12  13
ENDBRANCH  10  11
ENDBRANCH   1  10
TORSDOF 13
ENDMDL
MODEL 9
REMARK VINA RESULT:    -4.001      2.163      4.251
REMARK INTER + INTRA:          -9.567
REMARK INTER:                  -7.442
REMARK INTRA:                  -2.126
REMARK UNBOUND:                -2.526
REMARK SMILES CCCCCCC=CCCCCCCCC(=O)[O-]
REMARK SMILES IDX 10 1 11 2 12 3 13 4 14 5 15 6 16 7 17 8 18 9 9 10 8 11 7 12
REMARK SMILES IDX 6 13 5 14 4 15 3 16 2 17 1 18
REMARK H PARENT
REMARK Flexibility Score: inf
ROOT
ATOM      1  C   UNL     1       0.616  18.445   9.819  1.00  0.00     0.004 C 
ENDROOT
BRANCH   1   2
ATOM      2  C   UNL     1      -0.152  17.756   8.679  1.00  0.00     0.000 C 
BRANCH   2   3
ATOM      3  C   UNL     1       0.266  16.290   8.485  1.00  0.00     0.000 C 
BRANCH   3   4
ATOM      4  C   UNL     1       1.679  16.046   9.027  1.00  0.00     0.000 C 
BRANCH   4   5
ATOM      5  C   UNL     1       1.668  14.986  10.138  1.00  0.00     0.006 C 
BRANCH   5   6
ATOM      6  C   UNL     1       2.718  15.267  11.220  1.00  0.00     0.053 C 
BRANCH   6   7
ATOM      7  C   UNL     1       2.083  15.565  12.544  1.00  0.00     0.041 C 
ATOM      8  O   UNL     1       1.304  16.547  12.668  1.00  0.00    -0.550 OA
ATOM      9  O   UNL     1       2.327  14.739  13.634  1.00  0.00    -0.550 OA
ENDBRANCH   6   7
ENDBRANCH   5   6
ENDBRANCH   4   5
ENDBRANCH   3   4
ENDBRANCH   2   3
ENDBRANCH   1   2
BRANCH   1  10
ATOM     10  C   UNL     1       1.451  19.638   9.331  1.00  0.00     0.027 C 
BRANCH  10  11
ATOM     11  C   UNL     1       2.895  19.482   9.722  1.00  0.00    -0.031 C 
ATOM     12  C   UNL     1       3.251  18.961  10.906  1.00  0.00    -0.031 C 
BRANCH  12  13
ATOM     13  C   UNL     1       4.694  18.827  11.303  1.00  0.00     0.027 C 
BRANCH  13  14
ATOM     14  C   UNL     1       5.599  19.666  10.386  1.00  0.00     0.004 C 
BRANCH  14  15
ATOM     15  C   UNL     1       6.528  18.788   9.522  1.00  0.00     0.000 C 
BRANCH  15  16
ATOM     16  C   UNL     1       6.140  17.297   9.515  1.00  0.00    -0.000 C 
BRANCH  16  17
ATOM     17  C   UNL     1       5.358  16.842   8.272  1.00  0.00    -0.003 C 
ATOM     18  C   UNL     1       5.110  15.335   8.247  1.00  0.00     0.004 C 
ENDBRANCH  16  17
ENDBRANCH  15  16
ENDBRANCH  14  15
ENDBRANCH  13  14
ENDBRANCH  12  13
ENDBRANCH  10  11
ENDBRANCH   1  10
TORSDOF 13
ENDMDL
