MODEL 1
REMARK VINA RESULT:    -5.896      0.000      0.000
REMARK INTER + INTRA:          -7.244
REMARK INTER:                  -6.930
REMARK INTRA:                  -0.314
REMARK UNBOUND:                -0.314
REMARK SMILES O=c1cc(-c2ccc(O)c(O)c2)oc2cc(O)cc(O)c12
REMARK SMILES IDX 4 1 3 2 2 3 1 4 21 5 19 6 18 7 16 8 15 9 14 10 13 11 5 12
REMARK SMILES IDX 6 13 7 14 8 15 12 16 10 17 9 18 11 20 20 22 17 24
REMARK H PARENT 9 19 11 21 20 23 17 25
REMARK Flexibility Score: inf
ROOT
ATOM      1  C   UNL     1      45.430  16.321  -3.359  1.00  0.00     0.138 A 
ATOM      2  C   UNL     1      46.195  16.954  -4.348  1.00  0.00     0.100 A 
ATOM      3  C   UNL     1      47.418  16.404  -4.733  1.00  0.00     0.197 A 
ATOM      4  O   UNL     1      48.110  17.028  -5.578  1.00  0.00    -0.289 OA
ATOM      5  C   UNL     1      47.861  15.194  -4.146  1.00  0.00     0.107 A 
ATOM      6  C   UNL     1      49.071  14.519  -4.490  1.00  0.00     0.134 A 
ATOM      7  C   UNL     1      49.463  13.391  -3.758  1.00  0.00     0.093 A 
ATOM      8  C   UNL     1      48.662  12.878  -2.739  1.00  0.00     0.123 A 
ATOM      9  C   UNL     1      47.450  13.498  -2.431  1.00  0.00     0.094 A 
ATOM     10  C   UNL     1      47.048  14.647  -3.117  1.00  0.00     0.146 A 
ATOM     11  O   UNL     1      45.895  15.217  -2.784  1.00  0.00    -0.456 OA
ENDROOT
BRANCH   1  12
ATOM     12  C   UNL     1      44.122  16.863  -2.912  1.00  0.00     0.021 A 
ATOM     13  C   UNL     1      43.730  18.184  -3.205  1.00  0.00     0.016 A 
ATOM     14  C   UNL     1      42.487  18.664  -2.781  1.00  0.00     0.051 A 
ATOM     15  C   UNL     1      41.615  17.835  -2.066  1.00  0.00     0.157 A 
ATOM     16  C   UNL     1      43.233  16.033  -2.205  1.00  0.00     0.062 A 
ATOM     17  C   UNL     1      41.987  16.516  -1.779  1.00  0.00     0.158 A 
BRANCH  15  18
ATOM     18  O   UNL     1      40.377  18.312  -1.640  1.00  0.00    -0.504 OA
ATOM     19  H   UNL     1      39.729  18.753  -2.283  1.00  0.00     0.293 HD
ENDBRANCH  15  18
BRANCH  17  20
ATOM     20  O   UNL     1      41.116  15.692  -1.070  1.00  0.00    -0.504 OA
ATOM     21  H   UNL     1      40.900  14.754  -1.385  1.00  0.00     0.293 HD
ENDBRANCH  17  20
ENDBRANCH   1  12
BRANCH   6  22
ATOM     22  O   UNL     1      49.904  14.898  -5.547  1.00  0.00    -0.507 OA
ATOM     23  H   UNL     1      49.626  14.931  -6.516  1.00  0.00     0.293 HD
ENDBRANCH   6  22
BRANCH   8  24
ATOM     24  O   UNL     1      49.076  11.745  -2.044  1.00  0.00    -0.508 OA
ATOM     25  H   UNL     1      48.634  10.844  -2.187  1.00  0.00     0.293 HD
ENDBRANCH   8  24
TORSDOF 5
ENDMDL
MODEL 2
REMARK VINA RESULT:    -5.885      1.657      6.815
REMARK INTER + INTRA:          -7.231
REMARK INTER:                  -6.917
REMARK INTRA:                  -0.315
REMARK UNBOUND:                -0.314
REMARK SMILES O=c1cc(-c2ccc(O)c(O)c2)oc2cc(O)cc(O)c12
REMARK SMILES IDX 4 1 3 2 2 3 1 4 21 5 19 6 18 7 16 8 15 9 14 10 13 11 5 12
REMARK SMILES IDX 6 13 7 14 8 15 12 16 10 17 9 18 11 20 20 22 17 24
REMARK H PARENT 9 19 11 21 20 23 17 25
REMARK Flexibility Score: inf
ROOT
ATOM      1  C   UNL     1      46.623  16.531  -4.354  1.00  0.00     0.138 A 
ATOM      2  C   UNL     1      46.260  17.543  -5.253  1.00  0.00     0.100 A 
ATOM      3  C   UNL     1      45.004  18.143  -5.146  1.00  0.00     0.197 A 
ATOM      4  O   UNL     1      44.683  19.005  -6.005  1.00  0.00    -0.289 OA
ATOM      5  C   UNL     1      44.122  17.748  -4.113  1.00  0.00     0.107 A 
ATOM      6  C   UNL     1      42.834  18.319  -3.882  1.00  0.00     0.134 A 
ATOM      7  C   UNL     1      42.000  17.767  -2.901  1.00  0.00     0.093 A 
ATOM      8  C   UNL     1      42.430  16.707  -2.103  1.00  0.00     0.123 A 
ATOM      9  C   UNL     1      43.708  16.177  -2.283  1.00  0.00     0.094 A 
ATOM     10  C   UNL     1      44.550  16.682  -3.277  1.00  0.00     0.146 A 
ATOM     11  O   UNL     1      45.754  16.140  -3.428  1.00  0.00    -0.456 OA
ENDROOT
BRANCH   1  12
ATOM     12  C   UNL     1      47.945  15.859  -4.422  1.00  0.00     0.021 A 
ATOM     13  C   UNL     1      49.025  16.422  -5.130  1.00  0.00     0.016 A 
ATOM     14  C   UNL     1      50.262  15.772  -5.168  1.00  0.00     0.051 A 
ATOM     15  C   UNL     1      50.444  14.558  -4.496  1.00  0.00     0.157 A 
ATOM     16  C   UNL     1      48.142  14.646  -3.739  1.00  0.00     0.062 A 
ATOM     17  C   UNL     1      49.383  13.993  -3.779  1.00  0.00     0.158 A 
BRANCH  15  18
ATOM     18  O   UNL     1      51.677  13.908  -4.534  1.00  0.00    -0.504 OA
ATOM     19  H   UNL     1      51.779  12.991  -4.955  1.00  0.00     0.293 HD
ENDBRANCH  15  18
BRANCH  17  20
ATOM     20  O   UNL     1      49.568  12.787  -3.108  1.00  0.00    -0.504 OA
ATOM     21  H   UNL     1      48.789  12.273  -2.715  1.00  0.00     0.293 HD
ENDBRANCH  17  20
ENDBRANCH   1  12
BRANCH   6  22
ATOM     22  O   UNL     1      42.339  19.434  -4.566  1.00  0.00    -0.507 OA
ATOM     23  H   UNL     1      42.006  20.278  -4.126  1.00  0.00     0.293 HD
ENDBRANCH   6  22
BRANCH   8  24
ATOM     24  O   UNL     1      41.579  16.194  -1.127  1.00  0.00    -0.508 OA
ATOM     25  H   UNL     1      41.009  15.374  -1.298  1.00  0.00     0.293 HD
ENDBRANCH   8  24
TORSDOF 5
ENDMDL
MODEL 3
REMARK VINA RESULT:    -5.769      1.325      2.729
REMARK INTER + INTRA:          -7.095
REMARK INTER:                  -6.802
REMARK INTRA:                  -0.293
REMARK UNBOUND:                -0.314
REMARK SMILES O=c1cc(-c2ccc(O)c(O)c2)oc2cc(O)cc(O)c12
REMARK SMILES IDX 4 1 3 2 2 3 1 4 21 5 19 6 18 7 16 8 15 9 14 10 13 11 5 12
REMARK SMILES IDX 6 13 7 14 8 15 12 16 10 17 9 18 11 20 20 22 17 24
REMARK H PARENT 9 19 11 21 20 23 17 25
REMARK Flexibility Score: inf
ROOT
ATOM      1  C   UNL     1      45.816  15.870  -3.423  1.00  0.00     0.138 A 
ATOM      2  C   UNL     1      46.054  14.585  -2.918  1.00  0.00     0.100 A 
ATOM      3  C   UNL     1      47.296  13.981  -3.121  1.00  0.00     0.197 A 
ATOM      4  O   UNL     1      47.458  12.804  -2.710  1.00  0.00    -0.289 OA
ATOM      5  C   UNL     1      48.314  14.684  -3.808  1.00  0.00     0.107 A 
ATOM      6  C   UNL     1      49.632  14.185  -4.038  1.00  0.00     0.134 A 
ATOM      7  C   UNL     1      50.519  14.921  -4.832  1.00  0.00     0.093 A 
ATOM      8  C   UNL     1      50.161  16.164  -5.352  1.00  0.00     0.123 A 
ATOM      9  C   UNL     1      48.894  16.687  -5.088  1.00  0.00     0.094 A 
ATOM     10  C   UNL     1      47.973  15.960  -4.330  1.00  0.00     0.146 A 
ATOM     11  O   UNL     1      46.772  16.485  -4.112  1.00  0.00    -0.456 OA
ENDROOT
BRANCH   1  12
ATOM     12  C   UNL     1      44.515  16.559  -3.235  1.00  0.00     0.021 A 
ATOM     13  C   UNL     1      44.179  17.718  -3.961  1.00  0.00     0.016 A 
ATOM     14  C   UNL     1      42.941  18.339  -3.771  1.00  0.00     0.051 A 
ATOM     15  C   UNL     1      42.018  17.812  -2.861  1.00  0.00     0.157 A 
ATOM     16  C   UNL     1      43.575  16.028  -2.333  1.00  0.00     0.062 A 
ATOM     17  C   UNL     1      42.334  16.653  -2.141  1.00  0.00     0.158 A 
BRANCH  15  18
ATOM     18  O   UNL     1      40.784  18.431  -2.668  1.00  0.00    -0.504 OA
ATOM     19  H   UNL     1      40.158  18.145  -1.923  1.00  0.00     0.293 HD
ENDBRANCH  15  18
BRANCH  17  20
ATOM     20  O   UNL     1      41.411  16.128  -1.239  1.00  0.00    -0.504 OA
ATOM     21  H   UNL     1      41.703  15.710  -0.364  1.00  0.00     0.293 HD
ENDBRANCH  17  20
ENDBRANCH   1  12
BRANCH   6  22
ATOM     22  O   UNL     1      50.122  12.993  -3.496  1.00  0.00    -0.507 OA
ATOM     23  H   UNL     1      51.070  12.661  -3.596  1.00  0.00     0.293 HD
ENDBRANCH   6  22
BRANCH   8  24
ATOM     24  O   UNL     1      51.075  16.876  -6.124  1.00  0.00    -0.508 OA
ATOM     25  H   UNL     1      51.251  17.862  -5.964  1.00  0.00     0.293 HD
ENDBRANCH   8  24
TORSDOF 5
ENDMDL
MODEL 4
REMARK VINA RESULT:    -5.293      1.545      6.799
REMARK INTER + INTRA:          -6.536
REMARK INTER:                  -6.246
REMARK INTRA:                  -0.290
REMARK UNBOUND:                -0.314
REMARK SMILES O=c1cc(-c2ccc(O)c(O)c2)oc2cc(O)cc(O)c12
REMARK SMILES IDX 4 1 3 2 2 3 1 4 21 5 19 6 18 7 16 8 15 9 14 10 13 11 5 12
REMARK SMILES IDX 6 13 7 14 8 15 12 16 10 17 9 18 11 20 20 22 17 24
REMARK H PARENT 9 19 11 21 20 23 17 25
REMARK Flexibility Score: inf
ROOT
ATOM      1  C   UNL     1      45.929  15.704  -3.477  1.00  0.00     0.138 A 
ATOM      2  C   UNL     1      46.193  16.560  -4.555  1.00  0.00     0.100 A 
ATOM      3  C   UNL     1      45.316  17.609  -4.834  1.00  0.00     0.197 A 
ATOM      4  O   UNL     1      45.546  18.322  -5.845  1.00  0.00    -0.289 OA
ATOM      5  C   UNL     1      44.186  17.820  -4.009  1.00  0.00     0.107 A 
ATOM      6  C   UNL     1      43.246  18.882  -4.173  1.00  0.00     0.134 A 
ATOM      7  C   UNL     1      42.102  18.921  -3.367  1.00  0.00     0.093 A 
ATOM      8  C   UNL     1      41.894  17.976  -2.363  1.00  0.00     0.123 A 
ATOM      9  C   UNL     1      42.834  16.965  -2.157  1.00  0.00     0.094 A 
ATOM     10  C   UNL     1      43.968  16.877  -2.968  1.00  0.00     0.146 A 
ATOM     11  O   UNL     1      44.832  15.891  -2.751  1.00  0.00    -0.456 OA
ENDROOT
BRANCH   1  12
ATOM     12  C   UNL     1      46.829  14.574  -3.134  1.00  0.00     0.021 A 
ATOM     13  C   UNL     1      46.374  13.465  -2.394  1.00  0.00     0.016 A 
ATOM     14  C   UNL     1      47.241  12.410  -2.095  1.00  0.00     0.051 A 
ATOM     15  C   UNL     1      48.569  12.439  -2.536  1.00  0.00     0.157 A 
ATOM     16  C   UNL     1      48.161  14.588  -3.584  1.00  0.00     0.062 A 
ATOM     17  C   UNL     1      49.031  13.530  -3.283  1.00  0.00     0.158 A 
BRANCH  15  18
ATOM     18  O   UNL     1      49.436  11.389  -2.238  1.00  0.00    -0.504 OA
ATOM     19  H   UNL     1      49.701  10.705  -2.938  1.00  0.00     0.293 HD
ENDBRANCH  15  18
BRANCH  17  20
ATOM     20  O   UNL     1      50.352  13.554  -3.723  1.00  0.00    -0.504 OA
ATOM     21  H   UNL     1      50.894  14.410  -3.726  1.00  0.00     0.293 HD
ENDBRANCH  17  20
ENDBRANCH   1  12
BRANCH   6  22
ATOM     22  O   UNL     1      43.400  19.926  -5.090  1.00  0.00    -0.507 OA
ATOM     23  H   UNL     1      44.112  19.966  -5.803  1.00  0.00     0.293 HD
ENDBRANCH   6  22
BRANCH   8  24
ATOM     24  O   UNL     1      40.753  18.056  -1.569  1.00  0.00    -0.508 OA
ATOM     25  H   UNL     1      39.846  17.758  -1.912  1.00  0.00     0.293 HD
ENDBRANCH   8  24
TORSDOF 5
ENDMDL
MODEL 5
REMARK VINA RESULT:    -5.239      1.877      3.345
REMARK INTER + INTRA:          -6.471
REMARK INTER:                  -6.169
REMARK INTRA:                  -0.303
REMARK UNBOUND:                -0.314
REMARK SMILES O=c1cc(-c2ccc(O)c(O)c2)oc2cc(O)cc(O)c12
REMARK SMILES IDX 4 1 3 2 2 3 1 4 21 5 19 6 18 7 16 8 15 9 14 10 13 11 5 12
REMARK SMILES IDX 6 13 7 14 8 15 12 16 10 17 9 18 11 20 20 22 17 24
REMARK H PARENT 9 19 11 21 20 23 17 25
REMARK Flexibility Score: inf
ROOT
ATOM      1  C   UNL     1      46.037  16.108  -3.699  1.00  0.00     0.138 A 
ATOM      2  C   UNL     1      45.881  14.833  -3.138  1.00  0.00     0.100 A 
ATOM      3  C   UNL     1      46.965  13.955  -3.105  1.00  0.00     0.197 A 
ATOM      4  O   UNL     1      46.777  12.797  -2.652  1.00  0.00    -0.289 OA
ATOM      5  C   UNL     1      48.221  14.370  -3.609  1.00  0.00     0.107 A 
ATOM      6  C   UNL     1      49.407  13.576  -3.591  1.00  0.00     0.134 A 
ATOM      7  C   UNL     1      50.563  14.048  -4.224  1.00  0.00     0.093 A 
ATOM      8  C   UNL     1      50.596  15.308  -4.820  1.00  0.00     0.123 A 
ATOM      9  C   UNL     1      49.458  16.116  -4.796  1.00  0.00     0.094 A 
ATOM     10  C   UNL     1      48.278  15.659  -4.204  1.00  0.00     0.146 A 
ATOM     11  O   UNL     1      47.212  16.453  -4.215  1.00  0.00    -0.456 OA
ENDROOT
BRANCH   1  12
ATOM     12  C   UNL     1      44.917  17.081  -3.758  1.00  0.00     0.021 A 
ATOM     13  C   UNL     1      43.966  17.178  -2.724  1.00  0.00     0.016 A 
ATOM     14  C   UNL     1      42.928  18.112  -2.802  1.00  0.00     0.051 A 
ATOM     15  C   UNL     1      42.827  18.966  -3.906  1.00  0.00     0.157 A 
ATOM     16  C   UNL     1      44.815  17.953  -4.857  1.00  0.00     0.062 A 
ATOM     17  C   UNL     1      43.773  18.889  -4.936  1.00  0.00     0.158 A 
BRANCH  15  18
ATOM     18  O   UNL     1      41.792  19.896  -3.987  1.00  0.00    -0.504 OA
ATOM     19  H   UNL     1      40.827  19.606  -4.100  1.00  0.00     0.293 HD
ENDBRANCH  15  18
BRANCH  17  20
ATOM     20  O   UNL     1      43.672  19.743  -6.031  1.00  0.00    -0.504 OA
ATOM     21  H   UNL     1      44.057  20.680  -6.010  1.00  0.00     0.293 HD
ENDBRANCH  17  20
ENDBRANCH   1  12
BRANCH   6  22
ATOM     22  O   UNL     1      49.507  12.337  -2.950  1.00  0.00    -0.507 OA
ATOM     23  H   UNL     1      50.006  11.539  -3.314  1.00  0.00     0.293 HD
ENDBRANCH   6  22
BRANCH   8  24
ATOM     24  O   UNL     1      51.769  15.750  -5.426  1.00  0.00    -0.508 OA
ATOM     25  H   UNL     1      52.670  15.350  -5.193  1.00  0.00     0.293 HD
ENDBRANCH   8  24
TORSDOF 5
ENDMDL
MODEL 6
REMARK VINA RESULT:    -5.216      1.714      7.129
REMARK INTER + INTRA:          -6.445
REMARK INTER:                  -6.167
REMARK INTRA:                  -0.278
REMARK UNBOUND:                -0.314
REMARK SMILES O=c1cc(-c2ccc(O)c(O)c2)oc2cc(O)cc(O)c12
REMARK SMILES IDX 4 1 3 2 2 3 1 4 21 5 19 6 18 7 16 8 15 9 14 10 13 11 5 12
REMARK SMILES IDX 6 13 7 14 8 15 12 16 10 17 9 18 11 20 20 22 17 24
REMARK H PARENT 9 19 11 21 20 23 17 25
REMARK Flexibility Score: inf
ROOT
ATOM      1  C   UNL     1      46.290  15.773  -3.853  1.00  0.00     0.138 A 
ATOM      2  C   UNL     1      45.660  14.535  -3.664  1.00  0.00     0.100 A 
ATOM      3  C   UNL     1      44.354  14.492  -3.176  1.00  0.00     0.197 A 
ATOM      4  O   UNL     1      43.838  13.366  -2.958  1.00  0.00    -0.289 OA
ATOM      5  C   UNL     1      43.664  15.699  -2.906  1.00  0.00     0.107 A 
ATOM      6  C   UNL     1      42.315  15.778  -2.444  1.00  0.00     0.134 A 
ATOM      7  C   UNL     1      41.777  17.023  -2.099  1.00  0.00     0.093 A 
ATOM      8  C   UNL     1      42.514  18.196  -2.257  1.00  0.00     0.123 A 
ATOM      9  C   UNL     1      43.814  18.136  -2.759  1.00  0.00     0.094 A 
ATOM     10  C   UNL     1      44.393  16.906  -3.078  1.00  0.00     0.146 A 
ATOM     11  O   UNL     1      45.639  16.889  -3.539  1.00  0.00    -0.456 OA
ENDROOT
BRANCH   1  12
ATOM     12  C   UNL     1      47.678  15.876  -4.370  1.00  0.00     0.021 A 
ATOM     13  C   UNL     1      48.051  16.873  -5.292  1.00  0.00     0.016 A 
ATOM     14  C   UNL     1      49.368  16.953  -5.755  1.00  0.00     0.051 A 
ATOM     15  C   UNL     1      50.333  16.047  -5.299  1.00  0.00     0.157 A 
ATOM     16  C   UNL     1      48.658  14.979  -3.908  1.00  0.00     0.062 A 
ATOM     17  C   UNL     1      49.978  15.059  -4.373  1.00  0.00     0.158 A 
BRANCH  15  18
ATOM     18  O   UNL     1      51.646  16.123  -5.760  1.00  0.00    -0.504 OA
ATOM     19  H   UNL     1      52.182  15.290  -5.973  1.00  0.00     0.293 HD
ENDBRANCH  15  18
BRANCH  17  20
ATOM     20  O   UNL     1      50.942  14.161  -3.919  1.00  0.00    -0.504 OA
ATOM     21  H   UNL     1      51.932  14.350  -4.021  1.00  0.00     0.293 HD
ENDBRANCH  17  20
ENDBRANCH   1  12
BRANCH   6  22
ATOM     22  O   UNL     1      41.463  14.676  -2.330  1.00  0.00    -0.507 OA
ATOM     23  H   UNL     1      40.458  14.730  -2.256  1.00  0.00     0.293 HD
ENDBRANCH   6  22
BRANCH   8  24
ATOM     24  O   UNL     1      41.939  19.419  -1.918  1.00  0.00    -0.508 OA
ATOM     25  H   UNL     1      41.559  20.040  -2.624  1.00  0.00     0.293 HD
ENDBRANCH   8  24
TORSDOF 5
ENDMDL
MODEL 7
REMARK VINA RESULT:    -5.128      1.797      2.412
REMARK INTER + INTRA:          -6.341
REMARK INTER:                  -6.033
REMARK INTRA:                  -0.308
REMARK UNBOUND:                -0.314
REMARK SMILES O=c1cc(-c2ccc(O)c(O)c2)oc2cc(O)cc(O)c12
REMARK SMILES IDX 4 1 3 2 2 3 1 4 21 5 19 6 18 7 16 8 15 9 14 10 13 11 5 12
REMARK SMILES IDX 6 13 7 14 8 15 12 16 10 17 9 18 11 20 20 22 17 24
REMARK H PARENT 9 19 11 21 20 23 17 25
REMARK Flexibility Score: inf
ROOT
ATOM      1  C   UNL     1      46.125  16.464  -4.092  1.00  0.00     0.138 A 
ATOM      2  C   UNL     1      47.469  16.645  -4.445  1.00  0.00     0.100 A 
ATOM      3  C   UNL     1      48.406  15.661  -4.124  1.00  0.00     0.197 A 
ATOM      4  O   UNL     1      49.614  15.879  -4.399  1.00  0.00    -0.289 OA
ATOM      5  C   UNL     1      47.986  14.476  -3.474  1.00  0.00     0.107 A 
ATOM      6  C   UNL     1      48.845  13.388  -3.134  1.00  0.00     0.134 A 
ATOM      7  C   UNL     1      48.339  12.317  -2.387  1.00  0.00     0.093 A 
ATOM      8  C   UNL     1      46.995  12.265  -2.020  1.00  0.00     0.123 A 
ATOM      9  C   UNL     1      46.134  13.298  -2.394  1.00  0.00     0.094 A 
ATOM     10  C   UNL     1      46.615  14.397  -3.108  1.00  0.00     0.146 A 
ATOM     11  O   UNL     1      45.767  15.367  -3.433  1.00  0.00    -0.456 OA
ENDROOT
BRANCH   1  12
ATOM     12  C   UNL     1      45.088  17.477  -4.410  1.00  0.00     0.021 A 
ATOM     13  C   UNL     1      45.204  18.330  -5.525  1.00  0.00     0.016 A 
ATOM     14  C   UNL     1      44.206  19.268  -5.806  1.00  0.00     0.051 A 
ATOM     15  C   UNL     1      43.076  19.365  -4.986  1.00  0.00     0.157 A 
ATOM     16  C   UNL     1      43.942  17.573  -3.600  1.00  0.00     0.062 A 
ATOM     17  C   UNL     1      42.942  18.516  -3.881  1.00  0.00     0.158 A 
BRANCH  15  18
ATOM     18  O   UNL     1      42.081  20.301  -5.263  1.00  0.00    -0.504 OA
ATOM     19  H   UNL     1      41.117  20.023  -5.409  1.00  0.00     0.293 HD
ENDBRANCH  15  18
BRANCH  17  20
ATOM     20  O   UNL     1      41.814  18.612  -3.069  1.00  0.00    -0.504 OA
ATOM     21  H   UNL     1      41.865  18.998  -2.134  1.00  0.00     0.293 HD
ENDBRANCH  17  20
ENDBRANCH   1  12
BRANCH   6  22
ATOM     22  O   UNL     1      50.185  13.299  -3.523  1.00  0.00    -0.507 OA
ATOM     23  H   UNL     1      50.783  14.089  -3.715  1.00  0.00     0.293 HD
ENDBRANCH   6  22
BRANCH   8  24
ATOM     24  O   UNL     1      46.524  11.176  -1.290  1.00  0.00    -0.508 OA
ATOM     25  H   UNL     1      46.379  11.232  -0.288  1.00  0.00     0.293 HD
ENDBRANCH   8  24
TORSDOF 5
ENDMDL
MODEL 8
REMARK VINA RESULT:    -5.083      2.020      7.292
REMARK INTER + INTRA:          -6.289
REMARK INTER:                  -5.995
REMARK INTRA:                  -0.294
REMARK UNBOUND:                -0.314
REMARK SMILES O=c1cc(-c2ccc(O)c(O)c2)oc2cc(O)cc(O)c12
REMARK SMILES IDX 4 1 3 2 2 3 1 4 21 5 19 6 18 7 16 8 15 9 14 10 13 11 5 12
REMARK SMILES IDX 6 13 7 14 8 15 12 16 10 17 9 18 11 20 20 22 17 24
REMARK H PARENT 9 19 11 21 20 23 17 25
REMARK Flexibility Score: inf
ROOT
ATOM      1  C   UNL     1      46.151  16.316  -3.860  1.00  0.00     0.138 A 
ATOM      2  C   UNL     1      45.160  15.826  -2.999  1.00  0.00     0.100 A 
ATOM      3  C   UNL     1      43.924  16.471  -2.929  1.00  0.00     0.197 A 
ATOM      4  O   UNL     1      43.078  16.046  -2.102  1.00  0.00    -0.289 OA
ATOM      5  C   UNL     1      43.672  17.595  -3.752  1.00  0.00     0.107 A 
ATOM      6  C   UNL     1      42.435  18.308  -3.796  1.00  0.00     0.134 A 
ATOM      7  C   UNL     1      42.340  19.476  -4.562  1.00  0.00     0.093 A 
ATOM      8  C   UNL     1      43.412  19.922  -5.333  1.00  0.00     0.123 A 
ATOM      9  C   UNL     1      44.608  19.203  -5.340  1.00  0.00     0.094 A 
ATOM     10  C   UNL     1      44.748  18.054  -4.558  1.00  0.00     0.146 A 
ATOM     11  O   UNL     1      45.907  17.405  -4.580  1.00  0.00    -0.456 OA
ENDROOT
BRANCH   1  12
ATOM     12  C   UNL     1      47.482  15.667  -3.973  1.00  0.00     0.021 A 
ATOM     13  C   UNL     1      48.545  16.276  -4.669  1.00  0.00     0.016 A 
ATOM     14  C   UNL     1      49.790  15.647  -4.750  1.00  0.00     0.051 A 
ATOM     15  C   UNL     1      49.998  14.408  -4.134  1.00  0.00     0.157 A 
ATOM     16  C   UNL     1      47.704  14.428  -3.346  1.00  0.00     0.062 A 
ATOM     17  C   UNL     1      48.954  13.797  -3.429  1.00  0.00     0.158 A 
BRANCH  15  18
ATOM     18  O   UNL     1      51.239  13.778  -4.216  1.00  0.00    -0.504 OA
ATOM     19  H   UNL     1      51.624  13.480  -5.105  1.00  0.00     0.293 HD
ENDBRANCH  15  18
BRANCH  17  20
ATOM     20  O   UNL     1      49.165  12.565  -2.814  1.00  0.00    -0.504 OA
ATOM     21  H   UNL     1      49.856  11.911  -3.161  1.00  0.00     0.293 HD
ENDBRANCH  17  20
ENDBRANCH   1  12
BRANCH   6  22
ATOM     22  O   UNL     1      41.275  17.901  -3.131  1.00  0.00    -0.507 OA
ATOM     23  H   UNL     1      40.341  17.972  -3.506  1.00  0.00     0.293 HD
ENDBRANCH   6  22
BRANCH   8  24
ATOM     24  O   UNL     1      43.276  21.080  -6.096  1.00  0.00    -0.508 OA
ATOM     25  H   UNL     1      44.062  21.485  -6.591  1.00  0.00     0.293 HD
ENDBRANCH   8  24
TORSDOF 5
ENDMDL
MODEL 9
REMARK VINA RESULT:    -5.050      1.626      7.723
REMARK INTER + INTRA:          -6.250
REMARK INTER:                  -5.954
REMARK INTRA:                  -0.296
REMARK UNBOUND:                -0.314
REMARK SMILES O=c1cc(-c2ccc(O)c(O)c2)oc2cc(O)cc(O)c12
REMARK SMILES IDX 4 1 3 2 2 3 1 4 21 5 19 6 18 7 16 8 15 9 14 10 13 11 5 12
REMARK SMILES IDX 6 13 7 14 8 15 12 16 10 17 9 18 11 20 20 22 17 24
REMARK H PARENT 9 19 11 21 20 23 17 25
REMARK Flexibility Score: inf
ROOT
ATOM      1  C   UNL     1      43.858  16.613  -2.819  1.00  0.00     0.138 A 
ATOM      2  C   UNL     1      42.721  15.796  -2.868  1.00  0.00     0.100 A 
ATOM      3  C   UNL     1      41.473  16.327  -2.538  1.00  0.00     0.197 A 
ATOM      4  O   UNL     1      40.481  15.554  -2.532  1.00  0.00    -0.289 OA
ATOM      5  C   UNL     1      41.362  17.694  -2.187  1.00  0.00     0.107 A 
ATOM      6  C   UNL     1      40.137  18.355  -1.872  1.00  0.00     0.134 A 
ATOM      7  C   UNL     1      40.164  19.682  -1.426  1.00  0.00     0.093 A 
ATOM      8  C   UNL     1      41.362  20.390  -1.342  1.00  0.00     0.123 A 
ATOM      9  C   UNL     1      42.560  19.771  -1.700  1.00  0.00     0.094 A 
ATOM     10  C   UNL     1      42.571  18.437  -2.115  1.00  0.00     0.146 A 
ATOM     11  O   UNL     1      43.734  17.879  -2.433  1.00  0.00    -0.456 OA
ENDROOT
BRANCH   1  12
ATOM     12  C   UNL     1      45.208  16.099  -3.160  1.00  0.00     0.021 A 
ATOM     13  C   UNL     1      45.637  14.819  -2.757  1.00  0.00     0.016 A 
ATOM     14  C   UNL     1      46.910  14.357  -3.102  1.00  0.00     0.051 A 
ATOM     15  C   UNL     1      47.772  15.159  -3.859  1.00  0.00     0.157 A 
ATOM     16  C   UNL     1      46.076  16.892  -3.932  1.00  0.00     0.062 A 
ATOM     17  C   UNL     1      47.355  16.429  -4.277  1.00  0.00     0.158 A 
BRANCH  15  18
ATOM     18  O   UNL     1      49.043  14.701  -4.203  1.00  0.00    -0.504 OA
ATOM     19  H   UNL     1      49.221  13.721  -4.388  1.00  0.00     0.293 HD
ENDBRANCH  15  18
BRANCH  17  20
ATOM     20  O   UNL     1      48.214  17.223  -5.033  1.00  0.00    -0.504 OA
ATOM     21  H   UNL     1      48.014  18.200  -5.211  1.00  0.00     0.293 HD
ENDBRANCH  17  20
ENDBRANCH   1  12
BRANCH   6  22
ATOM     22  O   UNL     1      38.875  17.766  -2.002  1.00  0.00    -0.507 OA
ATOM     23  H   UNL     1      38.682  16.784  -1.873  1.00  0.00     0.293 HD
ENDBRANCH   6  22
BRANCH   8  24
ATOM     24  O   UNL     1      41.348  21.714  -0.909  1.00  0.00    -0.508 OA
ATOM     25  H   UNL     1      41.784  21.991  -0.036  1.00  0.00     0.293 HD
ENDBRANCH   8  24
TORSDOF 5
ENDMDL
