MODEL 1
REMARK VINA RESULT:    -3.199      0.000      0.000
REMARK INTER + INTRA:          -3.950
REMARK INTER:                  -3.853
REMARK INTRA:                  -0.096
REMARK UNBOUND:                -0.096
REMARK SMILES CC[C@H](C)[C@H]([NH3+])C(=O)[O-]
REMARK SMILES IDX 3 1 4 2 5 3 6 4 7 8 8 9 9 10 2 11 1 12
REMARK H PARENT 6 5 6 6 6 7
REMARK Flexibility Score: inf
ROOT
ATOM      1  C   UNL     1      45.742  18.584  76.885  1.00  0.00     0.050 C 
ATOM      2  C   UNL     1      46.097  18.975  75.440  1.00  0.00     0.014 C 
ENDROOT
BRANCH   1   3
ATOM      3  C   UNL     1      46.554  19.452  77.906  1.00  0.00     0.230 C 
BRANCH   3   4
ATOM      4  N   UNL     1      47.373  18.640  78.820  1.00  0.00    -0.350 N 
ATOM      5  H   UNL     1      47.063  18.755  79.812  1.00  0.00     0.345 HD
ATOM      6  H   UNL     1      47.324  17.632  78.557  1.00  0.00     0.345 HD
ATOM      7  H   UNL     1      48.373  18.939  78.749  1.00  0.00     0.345 HD
ENDBRANCH   3   4
BRANCH   3   8
ATOM      8  C   UNL     1      45.664  20.407  78.669  1.00  0.00     0.099 C 
ATOM      9  O   UNL     1      44.414  20.350  78.527  1.00  0.00    -0.544 OA
ATOM     10  O   UNL     1      46.206  21.375  79.508  1.00  0.00    -0.544 OA
ENDBRANCH   3   8
ENDBRANCH   1   3
BRANCH   1  11
ATOM     11  C   UNL     1      45.892  17.050  77.054  1.00  0.00     0.006 C 
ATOM     12  C   UNL     1      46.151  16.310  75.743  1.00  0.00     0.004 C 
ENDBRANCH   1  11
TORSDOF 4
ENDMDL
MODEL 2
REMARK VINA RESULT:    -3.150      2.309      3.629
REMARK INTER + INTRA:          -3.890
REMARK INTER:                  -3.758
REMARK INTRA:                  -0.133
REMARK UNBOUND:                -0.096
REMARK SMILES CC[C@H](C)[C@H]([NH3+])C(=O)[O-]
REMARK SMILES IDX 3 1 4 2 5 3 6 4 7 8 8 9 9 10 2 11 1 12
REMARK H PARENT 6 5 6 6 6 7
REMARK Flexibility Score: inf
ROOT
ATOM      1  C   UNL     1      46.619  20.213  77.755  1.00  0.00     0.050 C 
ATOM      2  C   UNL     1      46.016  21.114  78.846  1.00  0.00     0.014 C 
ENDROOT
BRANCH   1   3
ATOM      3  C   UNL     1      46.289  18.708  78.037  1.00  0.00     0.230 C 
BRANCH   3   4
ATOM      4  N   UNL     1      47.344  18.026  78.804  1.00  0.00    -0.350 N 
ATOM      5  H   UNL     1      48.011  18.712  79.225  1.00  0.00     0.345 HD
ATOM      6  H   UNL     1      46.927  17.440  79.560  1.00  0.00     0.345 HD
ATOM      7  H   UNL     1      47.880  17.391  78.169  1.00  0.00     0.345 HD
ENDBRANCH   3   4
BRANCH   3   8
ATOM      8  C   UNL     1      45.959  17.954  76.769  1.00  0.00     0.099 C 
ATOM      9  O   UNL     1      45.703  16.722  76.819  1.00  0.00    -0.544 OA
ATOM     10  O   UNL     1      45.966  18.594  75.534  1.00  0.00    -0.544 OA
ENDBRANCH   3   8
ENDBRANCH   1   3
BRANCH   1  11
ATOM     11  C   UNL     1      48.126  20.541  77.594  1.00  0.00     0.006 C 
ATOM     12  C   UNL     1      48.490  21.099  76.218  1.00  0.00     0.004 C 
ENDBRANCH   1  11
TORSDOF 4
ENDMDL
MODEL 3
REMARK VINA RESULT:    -3.055      2.216      3.981
REMARK INTER + INTRA:          -3.776
REMARK INTER:                  -3.680
REMARK INTRA:                  -0.097
REMARK UNBOUND:                -0.096
REMARK SMILES CC[C@H](C)[C@H]([NH3+])C(=O)[O-]
REMARK SMILES IDX 3 1 4 2 5 3 6 4 7 8 8 9 9 10 2 11 1 12
REMARK H PARENT 6 5 6 6 6 7
REMARK Flexibility Score: inf
ROOT
ATOM      1  C   UNL     1      45.586  20.173  78.034  1.00  0.00     0.050 C 
ATOM      2  C   UNL     1      44.115  20.358  78.446  1.00  0.00     0.014 C 
ENDROOT
BRANCH   1   3
ATOM      3  C   UNL     1      45.987  18.660  78.087  1.00  0.00     0.230 C 
BRANCH   3   4
ATOM      4  N   UNL     1      47.314  18.442  78.686  1.00  0.00    -0.350 N 
ATOM      5  H   UNL     1      47.243  18.276  79.715  1.00  0.00     0.345 HD
ATOM      6  H   UNL     1      47.790  17.630  78.235  1.00  0.00     0.345 HD
ATOM      7  H   UNL     1      47.910  19.287  78.526  1.00  0.00     0.345 HD
ENDBRANCH   3   4
BRANCH   3   8
ATOM      8  C   UNL     1      45.884  18.001  76.730  1.00  0.00     0.099 C 
ATOM      9  O   UNL     1      45.878  18.707  75.687  1.00  0.00    -0.544 OA
ATOM     10  O   UNL     1      45.762  16.620  76.613  1.00  0.00    -0.544 OA
ENDBRANCH   3   8
ENDBRANCH   1   3
BRANCH   1  11
ATOM     11  C   UNL     1      46.477  21.124  78.874  1.00  0.00     0.006 C 
ATOM     12  C   UNL     1      45.723  21.848  79.989  1.00  0.00     0.004 C 
ENDBRANCH   1  11
TORSDOF 4
ENDMDL
MODEL 4
REMARK VINA RESULT:    -3.006      2.717      3.859
REMARK INTER + INTRA:          -3.718
REMARK INTER:                  -3.590
REMARK INTRA:                  -0.128
REMARK UNBOUND:                -0.096
REMARK SMILES CC[C@H](C)[C@H]([NH3+])C(=O)[O-]
REMARK SMILES IDX 3 1 4 2 5 3 6 4 7 8 8 9 9 10 2 11 1 12
REMARK H PARENT 6 5 6 6 6 7
REMARK Flexibility Score: inf
ROOT
ATOM      1  C   UNL     1      46.008  19.635  77.438  1.00  0.00     0.050 C 
ATOM      2  C   UNL     1      44.653  19.814  78.145  1.00  0.00     0.014 C 
ENDROOT
BRANCH   1   3
ATOM      3  C   UNL     1      45.827  18.863  76.087  1.00  0.00     0.230 C 
BRANCH   3   4
ATOM      4  N   UNL     1      46.196  17.442  76.188  1.00  0.00    -0.350 N 
ATOM      5  H   UNL     1      45.873  16.905  75.351  1.00  0.00     0.345 HD
ATOM      6  H   UNL     1      47.230  17.339  76.287  1.00  0.00     0.345 HD
ATOM      7  H   UNL     1      45.753  17.027  77.040  1.00  0.00     0.345 HD
ENDBRANCH   3   4
BRANCH   3   8
ATOM      8  C   UNL     1      46.557  19.539  74.948  1.00  0.00     0.099 C 
ATOM      9  O   UNL     1      47.468  20.373  75.194  1.00  0.00    -0.544 OA
ATOM     10  O   UNL     1      46.216  19.279  73.625  1.00  0.00    -0.544 OA
ENDBRANCH   3   8
ENDBRANCH   1   3
BRANCH   1  11
ATOM     11  C   UNL     1      47.024  19.008  78.427  1.00  0.00     0.006 C 
ATOM     12  C   UNL     1      48.175  19.942  78.801  1.00  0.00     0.004 C 
ENDBRANCH   1  11
TORSDOF 4
ENDMDL
MODEL 5
REMARK VINA RESULT:    -3.002      2.223      2.796
REMARK INTER + INTRA:          -3.712
REMARK INTER:                  -3.637
REMARK INTRA:                  -0.076
REMARK UNBOUND:                -0.096
REMARK SMILES CC[C@H](C)[C@H]([NH3+])C(=O)[O-]
REMARK SMILES IDX 3 1 4 2 5 3 6 4 7 8 8 9 9 10 2 11 1 12
REMARK H PARENT 6 5 6 6 6 7
REMARK Flexibility Score: inf
ROOT
ATOM      1  C   UNL     1      46.253  19.140  77.459  1.00  0.00     0.050 C 
ATOM      2  C   UNL     1      44.934  19.621  78.090  1.00  0.00     0.014 C 
ENDROOT
BRANCH   1   3
ATOM      3  C   UNL     1      47.171  20.359  77.107  1.00  0.00     0.230 C 
BRANCH   3   4
ATOM      4  N   UNL     1      47.498  20.431  75.673  1.00  0.00    -0.350 N 
ATOM      5  H   UNL     1      47.581  21.422  75.352  1.00  0.00     0.345 HD
ATOM      6  H   UNL     1      48.391  19.927  75.476  1.00  0.00     0.345 HD
ATOM      7  H   UNL     1      46.742  19.965  75.121  1.00  0.00     0.345 HD
ENDBRANCH   3   4
BRANCH   3   8
ATOM      8  C   UNL     1      48.421  20.389  77.956  1.00  0.00     0.099 C 
ATOM      9  O   UNL     1      49.458  20.963  77.528  1.00  0.00    -0.544 OA
ATOM     10  O   UNL     1      48.459  19.762  79.197  1.00  0.00    -0.544 OA
ENDBRANCH   3   8
ENDBRANCH   1   3
BRANCH   1  11
ATOM     11  C   UNL     1      45.939  18.184  76.280  1.00  0.00     0.006 C 
ATOM     12  C   UNL     1      45.880  16.711  76.681  1.00  0.00     0.004 C 
ENDBRANCH   1  11
TORSDOF 4
ENDMDL
MODEL 6
REMARK VINA RESULT:    -2.971     17.551     18.214
REMARK INTER + INTRA:          -3.675
REMARK INTER:                  -3.682
REMARK INTRA:                   0.006
REMARK UNBOUND:                -0.096
REMARK SMILES CC[C@H](C)[C@H]([NH3+])C(=O)[O-]
REMARK SMILES IDX 3 1 4 2 5 3 6 4 7 8 8 9 9 10 2 11 1 12
REMARK H PARENT 6 5 6 6 6 7
REMARK Flexibility Score: inf
ROOT
ATOM      1  C   UNL     1      50.304  34.125  84.798  1.00  0.00     0.050 C 
ATOM      2  C   UNL     1      50.560  34.562  83.345  1.00  0.00     0.014 C 
ENDROOT
BRANCH   1   3
ATOM      3  C   UNL     1      48.853  34.514  85.243  1.00  0.00     0.230 C 
BRANCH   3   4
ATOM      4  N   UNL     1      48.293  35.623  84.454  1.00  0.00    -0.350 N 
ATOM      5  H   UNL     1      47.251  35.657  84.532  1.00  0.00     0.345 HD
ATOM      6  H   UNL     1      48.693  36.535  84.768  1.00  0.00     0.345 HD
ATOM      7  H   UNL     1      48.545  35.496  83.447  1.00  0.00     0.345 HD
ENDBRANCH   3   4
BRANCH   3   8
ATOM      8  C   UNL     1      48.775  34.802  86.725  1.00  0.00     0.099 C 
ATOM      9  O   UNL     1      48.573  33.861  87.537  1.00  0.00    -0.544 OA
ATOM     10  O   UNL     1      48.891  36.101  87.209  1.00  0.00    -0.544 OA
ENDBRANCH   3   8
ENDBRANCH   1   3
BRANCH   1  11
ATOM     11  C   UNL     1      51.441  34.664  85.703  1.00  0.00     0.006 C 
ATOM     12  C   UNL     1      52.822  34.618  85.050  1.00  0.00     0.004 C 
ENDBRANCH   1  11
TORSDOF 4
ENDMDL
MODEL 7
REMARK VINA RESULT:    -2.958      6.962      7.982
REMARK INTER + INTRA:          -3.659
REMARK INTER:                  -3.546
REMARK INTRA:                  -0.114
REMARK UNBOUND:                -0.096
REMARK SMILES CC[C@H](C)[C@H]([NH3+])C(=O)[O-]
REMARK SMILES IDX 3 1 4 2 5 3 6 4 7 8 8 9 9 10 2 11 1 12
REMARK H PARENT 6 5 6 6 6 7
REMARK Flexibility Score: inf
ROOT
ATOM      1  C   UNL     1      39.491  20.789  79.551  1.00  0.00     0.050 C 
ATOM      2  C   UNL     1      39.953  21.949  80.450  1.00  0.00     0.014 C 
ENDROOT
BRANCH   1   3
ATOM      3  C   UNL     1      38.953  19.600  80.418  1.00  0.00     0.230 C 
BRANCH   3   4
ATOM      4  N   UNL     1      38.892  18.332  79.672  1.00  0.00    -0.350 N 
ATOM      5  H   UNL     1      39.694  18.244  79.008  1.00  0.00     0.345 HD
ATOM      6  H   UNL     1      38.895  17.521  80.329  1.00  0.00     0.345 HD
ATOM      7  H   UNL     1      38.002  18.294  79.124  1.00  0.00     0.345 HD
ENDBRANCH   3   4
BRANCH   3   8
ATOM      8  C   UNL     1      37.622  19.924  81.057  1.00  0.00     0.099 C 
ATOM      9  O   UNL     1      37.396  19.580  82.247  1.00  0.00    -0.544 OA
ATOM     10  O   UNL     1      36.623  20.574  80.339  1.00  0.00    -0.544 OA
ENDBRANCH   3   8
ENDBRANCH   1   3
BRANCH   1  11
ATOM     11  C   UNL     1      40.627  20.425  78.560  1.00  0.00     0.006 C 
ATOM     12  C   UNL     1      41.994  20.265  79.223  1.00  0.00     0.004 C 
ENDBRANCH   1  11
TORSDOF 4
ENDMDL
MODEL 8
REMARK VINA RESULT:    -2.926     18.557     19.280
REMARK INTER + INTRA:          -3.621
REMARK INTER:                  -3.519
REMARK INTRA:                  -0.101
REMARK UNBOUND:                -0.096
REMARK SMILES CC[C@H](C)[C@H]([NH3+])C(=O)[O-]
REMARK SMILES IDX 3 1 4 2 5 3 6 4 7 8 8 9 9 10 2 11 1 12
REMARK H PARENT 6 5 6 6 6 7
REMARK Flexibility Score: inf
ROOT
ATOM      1  C   UNL     1      51.224  34.454  87.045  1.00  0.00     0.050 C 
ATOM      2  C   UNL     1      51.356  33.476  88.226  1.00  0.00     0.014 C 
ENDROOT
BRANCH   1   3
ATOM      3  C   UNL     1      52.609  34.663  86.344  1.00  0.00     0.230 C 
BRANCH   3   4
ATOM      4  N   UNL     1      53.276  35.908  86.760  1.00  0.00    -0.350 N 
ATOM      5  H   UNL     1      54.198  35.712  87.211  1.00  0.00     0.345 HD
ATOM      6  H   UNL     1      53.418  36.538  85.940  1.00  0.00     0.345 HD
ATOM      7  H   UNL     1      52.671  36.413  87.448  1.00  0.00     0.345 HD
ENDBRANCH   3   4
BRANCH   3   8
ATOM      8  C   UNL     1      52.500  34.576  84.839  1.00  0.00     0.099 C 
ATOM      9  O   UNL     1      53.542  34.594  84.132  1.00  0.00    -0.544 OA
ATOM     10  O   UNL     1      51.259  34.509  84.215  1.00  0.00    -0.544 OA
ENDBRANCH   3   8
ENDBRANCH   1   3
BRANCH   1  11
ATOM     11  C   UNL     1      50.524  35.750  87.528  1.00  0.00     0.006 C 
ATOM     12  C   UNL     1      49.030  35.799  87.207  1.00  0.00     0.004 C 
ENDBRANCH   1  11
TORSDOF 4
ENDMDL
MODEL 9
REMARK VINA RESULT:    -2.603     17.034     18.142
REMARK INTER + INTRA:          -3.232
REMARK INTER:                  -3.120
REMARK INTRA:                  -0.112
REMARK UNBOUND:                -0.096
REMARK SMILES CC[C@H](C)[C@H]([NH3+])C(=O)[O-]
REMARK SMILES IDX 3 1 4 2 5 3 6 4 7 8 8 9 9 10 2 11 1 12
REMARK H PARENT 6 5 6 6 6 7
REMARK Flexibility Score: inf
ROOT
ATOM      1  C   UNL     1      46.159  30.367  90.885  1.00  0.00     0.050 C 
ATOM      2  C   UNL     1      45.838  29.365  89.762  1.00  0.00     0.014 C 
ENDROOT
BRANCH   1   3
ATOM      3  C   UNL     1      44.856  31.092  91.366  1.00  0.00     0.230 C 
BRANCH   3   4
ATOM      4  N   UNL     1      45.132  32.368  92.046  1.00  0.00    -0.350 N 
ATOM      5  H   UNL     1      46.154  32.489  92.226  1.00  0.00     0.345 HD
ATOM      6  H   UNL     1      44.783  33.169  91.475  1.00  0.00     0.345 HD
ATOM      7  H   UNL     1      44.629  32.389  92.963  1.00  0.00     0.345 HD
ENDBRANCH   3   4
BRANCH   3   8
ATOM      8  C   UNL     1      43.992  30.192  92.219  1.00  0.00     0.099 C 
ATOM      9  O   UNL     1      44.516  29.492  93.125  1.00  0.00    -0.544 OA
ATOM     10  O   UNL     1      42.621  30.099  92.000  1.00  0.00    -0.544 OA
ENDBRANCH   3   8
ENDBRANCH   1   3
BRANCH   1  11
ATOM     11  C   UNL     1      47.306  31.303  90.424  1.00  0.00     0.006 C 
ATOM     12  C   UNL     1      47.124  31.847  89.008  1.00  0.00     0.004 C 
ENDBRANCH   1  11
TORSDOF 4
ENDMDL
