MODEL 1
REMARK VINA RESULT:    -3.869      0.000      0.000
REMARK INTER + INTRA:          -3.983
REMARK INTER:                  -3.983
REMARK INTRA:                   0.000
REMARK UNBOUND:                 0.000
REMARK SMILES Cc1cccc(O)c1C
REMARK SMILES IDX 1 1 2 2 8 3 6 4 5 5 4 6 3 7 9 8 7 9
REMARK H PARENT 7 10
REMARK Flexibility Score: inf
ROOT
ATOM      1  C   UNL     1      -6.080  83.329  -6.636  1.00  0.00     0.045 C 
ATOM      2  C   UNL     1      -4.924  82.718  -7.387  1.00  0.00    -0.045 A 
ATOM      3  C   UNL     1      -4.806  82.817  -8.802  1.00  0.00    -0.006 A 
ATOM      4  C   UNL     1      -3.692  82.218  -9.442  1.00  0.00     0.118 A 
ATOM      5  C   UNL     1      -2.729  81.542  -8.687  1.00  0.00     0.046 A 
ATOM      6  C   UNL     1      -2.852  81.449  -7.304  1.00  0.00     0.004 A 
ATOM      7  C   UNL     1      -3.939  82.032  -6.658  1.00  0.00     0.004 A 
ATOM      8  C   UNL     1      -5.834  83.544  -9.638  1.00  0.00     0.048 C 
ENDROOT
BRANCH   4   9
ATOM      9  O   UNL     1      -3.509  82.275 -10.826  1.00  0.00    -0.508 OA
ATOM     10  H   UNL     1      -4.266  82.416 -11.484  1.00  0.00     0.293 HD
ENDBRANCH   4   9
TORSDOF 1
ENDMDL
MODEL 2
REMARK VINA RESULT:    -3.851      2.251      3.270
REMARK INTER + INTRA:          -3.964
REMARK INTER:                  -3.964
REMARK INTRA:                   0.000
REMARK UNBOUND:                 0.000
REMARK SMILES Cc1cccc(O)c1C
REMARK SMILES IDX 1 1 2 2 8 3 6 4 5 5 4 6 3 7 9 8 7 9
REMARK H PARENT 7 10
REMARK Flexibility Score: inf
ROOT
ATOM      1  C   UNL     1      -5.486  86.463  -9.338  1.00  0.00     0.045 C 
ATOM      2  C   UNL     1      -4.920  85.066  -9.296  1.00  0.00    -0.045 A 
ATOM      3  C   UNL     1      -3.729  84.755  -8.583  1.00  0.00    -0.006 A 
ATOM      4  C   UNL     1      -3.254  83.419  -8.587  1.00  0.00     0.118 A 
ATOM      5  C   UNL     1      -3.954  82.429  -9.283  1.00  0.00     0.046 A 
ATOM      6  C   UNL     1      -5.118  82.741  -9.978  1.00  0.00     0.004 A 
ATOM      7  C   UNL     1      -5.599  84.048  -9.986  1.00  0.00     0.004 A 
ATOM      8  C   UNL     1      -2.957  85.810  -7.823  1.00  0.00     0.048 C 
ENDROOT
BRANCH   4   9
ATOM      9  O   UNL     1      -2.093  83.040  -7.909  1.00  0.00    -0.508 OA
ATOM     10  H   UNL     1      -1.390  83.697  -7.596  1.00  0.00     0.293 HD
ENDBRANCH   4   9
TORSDOF 1
ENDMDL
MODEL 3
REMARK VINA RESULT:    -3.719      2.033      3.365
REMARK INTER + INTRA:          -3.827
REMARK INTER:                  -3.827
REMARK INTRA:                   0.000
REMARK UNBOUND:                 0.000
REMARK SMILES Cc1cccc(O)c1C
REMARK SMILES IDX 1 1 2 2 8 3 6 4 5 5 4 6 3 7 9 8 7 9
REMARK H PARENT 7 10
REMARK Flexibility Score: inf
ROOT
ATOM      1  C   UNL     1      -2.334  84.530  -6.916  1.00  0.00     0.045 C 
ATOM      2  C   UNL     1      -3.379  84.524  -8.003  1.00  0.00    -0.045 A 
ATOM      3  C   UNL     1      -3.750  83.333  -8.687  1.00  0.00    -0.006 A 
ATOM      4  C   UNL     1      -4.741  83.403  -9.699  1.00  0.00     0.118 A 
ATOM      5  C   UNL     1      -5.338  84.627 -10.013  1.00  0.00     0.046 A 
ATOM      6  C   UNL     1      -4.969  85.787  -9.340  1.00  0.00     0.004 A 
ATOM      7  C   UNL     1      -3.998  85.739  -8.342  1.00  0.00     0.004 A 
ATOM      8  C   UNL     1      -3.118  81.998  -8.364  1.00  0.00     0.048 C 
ENDROOT
BRANCH   4   9
ATOM      9  O   UNL     1      -5.156  82.275 -10.413  1.00  0.00    -0.508 OA
ATOM     10  H   UNL     1      -5.419  81.402  -9.973  1.00  0.00     0.293 HD
ENDBRANCH   4   9
TORSDOF 1
ENDMDL
MODEL 4
REMARK VINA RESULT:    -3.698      2.071      2.170
REMARK INTER + INTRA:          -3.806
REMARK INTER:                  -3.806
REMARK INTRA:                   0.000
REMARK UNBOUND:                 0.000
REMARK SMILES Cc1cccc(O)c1C
REMARK SMILES IDX 1 1 2 2 8 3 6 4 5 5 4 6 3 7 9 8 7 9
REMARK H PARENT 7 10
REMARK Flexibility Score: inf
ROOT
ATOM      1  C   UNL     1      -3.429  86.293  -7.751  1.00  0.00     0.045 C 
ATOM      2  C   UNL     1      -3.528  84.830  -8.104  1.00  0.00    -0.045 A 
ATOM      3  C   UNL     1      -4.377  84.361  -9.145  1.00  0.00    -0.006 A 
ATOM      4  C   UNL     1      -4.420  82.971  -9.423  1.00  0.00     0.118 A 
ATOM      5  C   UNL     1      -3.636  82.083  -8.680  1.00  0.00     0.046 A 
ATOM      6  C   UNL     1      -2.809  82.550  -7.663  1.00  0.00     0.004 A 
ATOM      7  C   UNL     1      -2.754  83.912  -7.376  1.00  0.00     0.004 A 
ATOM      8  C   UNL     1      -5.232  85.303  -9.962  1.00  0.00     0.048 C 
ENDROOT
BRANCH   4   9
ATOM      9  O   UNL     1      -5.229  82.438 -10.430  1.00  0.00    -0.508 OA
ATOM     10  H   UNL     1      -5.156  82.704 -11.404  1.00  0.00     0.293 HD
ENDBRANCH   4   9
TORSDOF 1
ENDMDL
MODEL 5
REMARK VINA RESULT:    -3.675      2.288      2.906
REMARK INTER + INTRA:          -3.782
REMARK INTER:                  -3.782
REMARK INTRA:                   0.000
REMARK UNBOUND:                 0.000
REMARK SMILES Cc1cccc(O)c1C
REMARK SMILES IDX 1 1 2 2 8 3 6 4 5 5 4 6 3 7 9 8 7 9
REMARK H PARENT 7 10
REMARK Flexibility Score: inf
ROOT
ATOM      1  C   UNL     1      -2.888  81.282  -7.428  1.00  0.00     0.045 C 
ATOM      2  C   UNL     1      -3.004  82.769  -7.647  1.00  0.00    -0.045 A 
ATOM      3  C   UNL     1      -3.744  83.318  -8.731  1.00  0.00    -0.006 A 
ATOM      4  C   UNL     1      -3.809  84.727  -8.876  1.00  0.00     0.118 A 
ATOM      5  C   UNL     1      -3.153  85.556  -7.962  1.00  0.00     0.046 A 
ATOM      6  C   UNL     1      -2.430  85.012  -6.905  1.00  0.00     0.004 A 
ATOM      7  C   UNL     1      -2.355  83.631  -6.747  1.00  0.00     0.004 A 
ATOM      8  C   UNL     1      -4.463  82.440  -9.730  1.00  0.00     0.048 C 
ENDROOT
BRANCH   4   9
ATOM      9  O   UNL     1      -4.518  85.336  -9.914  1.00  0.00    -0.508 OA
ATOM     10  H   UNL     1      -4.771  84.861 -10.771  1.00  0.00     0.293 HD
ENDBRANCH   4   9
TORSDOF 1
ENDMDL
MODEL 6
REMARK VINA RESULT:    -3.524      9.000     10.385
REMARK INTER + INTRA:          -3.627
REMARK INTER:                  -3.627
REMARK INTRA:                   0.000
REMARK UNBOUND:                 0.000
REMARK SMILES Cc1cccc(O)c1C
REMARK SMILES IDX 1 1 2 2 8 3 6 4 5 5 4 6 3 7 9 8 7 9
REMARK H PARENT 7 10
REMARK Flexibility Score: inf
ROOT
ATOM      1  C   UNL     1      -4.106  92.715 -12.663  1.00  0.00     0.045 C 
ATOM      2  C   UNL     1      -4.664  91.489 -13.341  1.00  0.00    -0.045 A 
ATOM      3  C   UNL     1      -4.503  91.258 -14.735  1.00  0.00    -0.006 A 
ATOM      4  C   UNL     1      -5.054  90.083 -15.306  1.00  0.00     0.118 A 
ATOM      5  C   UNL     1      -5.743  89.170 -14.502  1.00  0.00     0.046 A 
ATOM      6  C   UNL     1      -5.897  89.403 -13.139  1.00  0.00     0.004 A 
ATOM      7  C   UNL     1      -5.362  90.552 -12.561  1.00  0.00     0.004 A 
ATOM      8  C   UNL     1      -3.761  92.231 -15.623  1.00  0.00     0.048 C 
ENDROOT
BRANCH   4   9
ATOM      9  O   UNL     1      -4.935  89.790 -16.667  1.00  0.00    -0.508 OA
ATOM     10  H   UNL     1      -5.707  89.846 -17.320  1.00  0.00     0.293 HD
ENDBRANCH   4   9
TORSDOF 1
ENDMDL
MODEL 7
REMARK VINA RESULT:    -3.496      2.477      3.394
REMARK INTER + INTRA:          -3.598
REMARK INTER:                  -3.598
REMARK INTRA:                   0.000
REMARK UNBOUND:                 0.000
REMARK SMILES Cc1cccc(O)c1C
REMARK SMILES IDX 1 1 2 2 8 3 6 4 5 5 4 6 3 7 9 8 7 9
REMARK H PARENT 7 10
REMARK Flexibility Score: inf
ROOT
ATOM      1  C   UNL     1      -6.773  85.459  -9.972  1.00  0.00     0.045 C 
ATOM      2  C   UNL     1      -5.441  85.331  -9.278  1.00  0.00    -0.045 A 
ATOM      3  C   UNL     1      -4.688  84.124  -9.304  1.00  0.00    -0.006 A 
ATOM      4  C   UNL     1      -3.442  84.076  -8.629  1.00  0.00     0.118 A 
ATOM      5  C   UNL     1      -2.968  85.203  -7.951  1.00  0.00     0.046 A 
ATOM      6  C   UNL     1      -3.710  86.380  -7.929  1.00  0.00     0.004 A 
ATOM      7  C   UNL     1      -4.937  86.446  -8.587  1.00  0.00     0.004 A 
ATOM      8  C   UNL     1      -5.181  82.894 -10.032  1.00  0.00     0.048 C 
ENDROOT
BRANCH   4   9
ATOM      9  O   UNL     1      -2.649  82.926  -8.612  1.00  0.00    -0.508 OA
ATOM     10  H   UNL     1      -2.073  82.656  -7.825  1.00  0.00     0.293 HD
ENDBRANCH   4   9
TORSDOF 1
ENDMDL
MODEL 8
REMARK VINA RESULT:    -3.482      2.317      3.641
REMARK INTER + INTRA:          -3.584
REMARK INTER:                  -3.584
REMARK INTRA:                   0.000
REMARK UNBOUND:                 0.000
REMARK SMILES Cc1cccc(O)c1C
REMARK SMILES IDX 1 1 2 2 8 3 6 4 5 5 4 6 3 7 9 8 7 9
REMARK H PARENT 7 10
REMARK Flexibility Score: inf
ROOT
ATOM      1  C   UNL     1      -2.672  81.716  -7.833  1.00  0.00     0.045 C 
ATOM      2  C   UNL     1      -3.518  82.805  -8.445  1.00  0.00    -0.045 A 
ATOM      3  C   UNL     1      -3.421  84.161  -8.028  1.00  0.00    -0.006 A 
ATOM      4  C   UNL     1      -4.248  85.132  -8.648  1.00  0.00     0.118 A 
ATOM      5  C   UNL     1      -5.142  84.752  -9.654  1.00  0.00     0.046 A 
ATOM      6  C   UNL     1      -5.231  83.423 -10.056  1.00  0.00     0.004 A 
ATOM      7  C   UNL     1      -4.426  82.456  -9.458  1.00  0.00     0.004 A 
ATOM      8  C   UNL     1      -2.461  84.595  -6.943  1.00  0.00     0.048 C 
ENDROOT
BRANCH   4   9
ATOM      9  O   UNL     1      -4.207  86.482  -8.291  1.00  0.00    -0.508 OA
ATOM     10  H   UNL     1      -3.599  87.159  -8.734  1.00  0.00     0.293 HD
ENDBRANCH   4   9
TORSDOF 1
ENDMDL
MODEL 9
REMARK VINA RESULT:    -3.474      2.470      2.934
REMARK INTER + INTRA:          -3.575
REMARK INTER:                  -3.575
REMARK INTRA:                   0.000
REMARK UNBOUND:                 0.000
REMARK SMILES Cc1cccc(O)c1C
REMARK SMILES IDX 1 1 2 2 8 3 6 4 5 5 4 6 3 7 9 8 7 9
REMARK H PARENT 7 10
REMARK Flexibility Score: inf
ROOT
ATOM      1  C   UNL     1      -4.873  82.756 -10.011  1.00  0.00     0.045 C 
ATOM      2  C   UNL     1      -3.911  82.972  -8.870  1.00  0.00    -0.045 A 
ATOM      3  C   UNL     1      -3.617  84.269  -8.365  1.00  0.00    -0.006 A 
ATOM      4  C   UNL     1      -2.702  84.396  -7.290  1.00  0.00     0.118 A 
ATOM      5  C   UNL     1      -2.104  83.259  -6.739  1.00  0.00     0.046 A 
ATOM      6  C   UNL     1      -2.397  81.994  -7.239  1.00  0.00     0.004 A 
ATOM      7  C   UNL     1      -3.293  81.849  -8.295  1.00  0.00     0.004 A 
ATOM      8  C   UNL     1      -4.252  85.512  -8.944  1.00  0.00     0.048 C 
ENDROOT
BRANCH   4   9
ATOM      9  O   UNL     1      -2.365  85.637  -6.742  1.00  0.00    -0.508 OA
ATOM     10  H   UNL     1      -2.289  85.806  -5.747  1.00  0.00     0.293 HD
ENDBRANCH   4   9
TORSDOF 1
ENDMDL
