MODEL 1
REMARK VINA RESULT:    -4.637      0.000      0.000
REMARK INTER + INTRA:          -6.332
REMARK INTER:                  -6.535
REMARK INTRA:                   0.203
REMARK UNBOUND:                 0.203
REMARK SMILES CC1=CCC(=C(C)C)C(=O)CC(C)=CCC1
REMARK SMILES IDX 12 1 14 2 13 3 15 4 16 5 2 6 1 7 3 8 11 10 9 11 10 12 5 13
REMARK SMILES IDX 6 14 7 15 8 16 4 17
REMARK H PARENT
REMARK Flexibility Score: 60.00
ROOT
ATOM      1  C   UNL     1      18.704  28.076 -14.230  1.00  0.00    -0.070 C 
ATOM      2  C   UNL     1      18.884  28.383 -12.920  1.00  0.00    -0.027 C 
ATOM      3  C   UNL     1      17.625  27.074 -14.563  1.00  0.00     0.039 C 
ENDROOT
BRANCH   2   4
ATOM      4  C   UNL     1      19.964  29.275 -12.354  1.00  0.00     0.032 C 
BRANCH   4   5
ATOM      5  C   UNL     1      21.360  28.640 -12.398  1.00  0.00     0.034 C 
BRANCH   5   6
ATOM      6  C   UNL     1      22.368  29.628 -12.954  1.00  0.00    -0.077 C 
ATOM      7  C   UNL     1      22.616  30.903 -12.188  1.00  0.00     0.039 C 
ATOM      8  C   UNL     1      23.113  29.390 -14.059  1.00  0.00    -0.023 CG0
ATOM      9  G   UNL     1      22.995  28.183 -14.959  1.00  0.00     0.000 G0
ENDBRANCH   5   6
ENDBRANCH   4   5
ENDBRANCH   2   4
BRANCH   1  10
ATOM     10  C   UNL     1      19.460  28.731 -15.382  1.00  0.00     0.111 C 
BRANCH  10  11
ATOM     11  C   UNL     1      20.586  27.892 -15.932  1.00  0.00     0.163 C 
ATOM     12  O   UNL     1      20.310  26.723 -16.317  1.00  0.00    -0.294 OA
BRANCH  11  13
ATOM     13  C   UNL     1      21.984  28.414 -16.088  1.00  0.00    -0.002 C 
ATOM     14  C   UNL     1      22.372  29.042 -17.243  1.00  0.00    -0.069 C 
ATOM     15  C   UNL     1      21.384  29.369 -18.341  1.00  0.00     0.039 C 
ATOM     16  C   UNL     1      23.800  29.489 -17.464  1.00  0.00     0.039 C 
BRANCH  13  17
ATOM     17  C   UNL     1      22.986  28.181 -14.958  1.00  0.00     0.066 CG0
ATOM     18  G   UNL     1      23.121  29.387 -14.059  1.00  0.00     0.000 G0
ENDBRANCH  13  17
ENDBRANCH  11  13
ENDBRANCH  10  11
ENDBRANCH   1  10
TORSDOF 0
ENDMDL
MODEL 2
REMARK VINA RESULT:    -4.470      1.477      3.654
REMARK INTER + INTRA:          -6.096
REMARK INTER:                  -6.368
REMARK INTRA:                   0.273
REMARK UNBOUND:                 0.203
REMARK SMILES CC1=CCC(=C(C)C)C(=O)CC(C)=CCC1
REMARK SMILES IDX 12 1 14 2 13 3 15 4 16 5 2 6 1 7 3 8 11 10 9 11 10 12 5 13
REMARK SMILES IDX 6 14 7 15 8 16 4 17
REMARK H PARENT
REMARK Flexibility Score: 60.00
ROOT
ATOM      1  C   UNL     1      18.678  28.024 -13.721  1.00  0.00    -0.070 C 
ATOM      2  C   UNL     1      18.836  27.499 -14.963  1.00  0.00    -0.027 C 
ATOM      3  C   UNL     1      17.716  27.324 -12.792  1.00  0.00     0.039 C 
ENDROOT
BRANCH   2   4
ATOM      4  C   UNL     1      19.663  28.089 -16.081  1.00  0.00     0.032 C 
BRANCH   4   5
ATOM      5  C   UNL     1      21.049  27.445 -16.215  1.00  0.00     0.034 C 
BRANCH   5   6
ATOM      6  C   UNL     1      22.107  28.515 -16.404  1.00  0.00    -0.077 C 
ATOM      7  C   UNL     1      22.249  29.148 -17.765  1.00  0.00     0.039 C 
ATOM      8  C   UNL     1      22.879  28.987 -15.396  1.00  0.00    -0.023 CG0
ATOM      9  G   UNL     1      22.889  28.469 -13.977  1.00  0.00     0.000 G0
ENDBRANCH   5   6
ENDBRANCH   4   5
ENDBRANCH   2   4
BRANCH   1  10
ATOM     10  C   UNL     1      19.463  29.216 -13.182  1.00  0.00     0.111 C 
BRANCH  10  11
ATOM     11  C   UNL     1      20.765  28.843 -12.518  1.00  0.00     0.163 C 
ATOM     12  O   UNL     1      20.716  28.039 -11.546  1.00  0.00    -0.294 OA
BRANCH  11  13
ATOM     13  C   UNL     1      22.094  29.339 -13.005  1.00  0.00    -0.002 C 
ATOM     14  C   UNL     1      22.555  30.577 -12.641  1.00  0.00    -0.069 C 
ATOM     15  C   UNL     1      21.828  31.431 -11.626  1.00  0.00     0.039 C 
ATOM     16  C   UNL     1      23.846  31.140 -13.195  1.00  0.00     0.039 C 
BRANCH  13  17
ATOM     17  C   UNL     1      22.901  28.462 -13.961  1.00  0.00     0.066 CG0
ATOM     18  G   UNL     1      22.878  28.991 -15.376  1.00  0.00     0.000 G0
ENDBRANCH  13  17
ENDBRANCH  11  13
ENDBRANCH  10  11
ENDBRANCH   1  10
TORSDOF 0
ENDMDL
MODEL 3
REMARK VINA RESULT:    -4.415      1.819      4.365
REMARK INTER + INTRA:          -6.018
REMARK INTER:                  -6.356
REMARK INTRA:                   0.338
REMARK UNBOUND:                 0.203
REMARK SMILES CC1=CCC(=C(C)C)C(=O)CC(C)=CCC1
REMARK SMILES IDX 12 1 14 2 13 3 15 4 16 5 2 6 1 7 3 8 11 10 9 11 10 12 5 13
REMARK SMILES IDX 6 14 7 15 8 16 4 17
REMARK H PARENT
REMARK Flexibility Score: 60.00
ROOT
ATOM      1  C   UNL     1      22.096  28.835 -15.524  1.00  0.00    -0.070 C 
ATOM      2  C   UNL     1      22.961  29.084 -14.508  1.00  0.00    -0.027 C 
ATOM      3  C   UNL     1      22.290  29.616 -16.802  1.00  0.00     0.039 C 
ENDROOT
BRANCH   2   4
ATOM      4  C   UNL     1      22.893  28.498 -13.117  1.00  0.00     0.032 C 
BRANCH   4   5
ATOM      5  C   UNL     1      22.139  29.387 -12.120  1.00  0.00     0.034 C 
BRANCH   5   6
ATOM      6  C   UNL     1      21.119  28.568 -11.354  1.00  0.00    -0.077 C 
ATOM      7  C   UNL     1      21.574  27.834 -10.118  1.00  0.00     0.039 C 
ATOM      8  C   UNL     1      19.804  28.524 -11.676  1.00  0.00    -0.023 CG0
ATOM      9  G   UNL     1      19.169  29.179 -12.880  1.00  0.00     0.000 G0
ENDBRANCH   5   6
ENDBRANCH   4   5
ENDBRANCH   2   4
BRANCH   1  10
ATOM     10  C   UNL     1      21.003  27.771 -15.487  1.00  0.00     0.111 C 
BRANCH  10  11
ATOM     11  C   UNL     1      19.614  28.327 -15.299  1.00  0.00     0.163 C 
ATOM     12  O   UNL     1      19.061  28.870 -16.296  1.00  0.00    -0.294 OA
BRANCH  11  13
ATOM     13  C   UNL     1      18.859  28.203 -14.009  1.00  0.00    -0.002 C 
ATOM     14  C   UNL     1      17.876  27.261 -13.861  1.00  0.00    -0.069 C 
ATOM     15  C   UNL     1      17.608  26.215 -14.922  1.00  0.00     0.039 C 
ATOM     16  C   UNL     1      17.034  27.179 -12.606  1.00  0.00     0.039 C 
BRANCH  13  17
ATOM     17  C   UNL     1      19.167  29.185 -12.880  1.00  0.00     0.066 CG0
ATOM     18  G   UNL     1      19.793  28.503 -11.686  1.00  0.00     0.000 G0
ENDBRANCH  13  17
ENDBRANCH  11  13
ENDBRANCH  10  11
ENDBRANCH   1  10
TORSDOF 0
ENDMDL
MODEL 4
REMARK VINA RESULT:    -4.154     10.467     12.778
REMARK INTER + INTRA:          -5.651
REMARK INTER:                  -5.937
REMARK INTRA:                   0.286
REMARK UNBOUND:                 0.203
REMARK SMILES CC1=CCC(=C(C)C)C(=O)CC(C)=CCC1
REMARK SMILES IDX 12 1 14 2 13 3 15 4 16 5 2 6 1 7 3 8 11 10 9 11 10 12 5 13
REMARK SMILES IDX 6 14 7 15 8 16 4 17
REMARK H PARENT
REMARK Flexibility Score: 60.00
ROOT
ATOM      1  C   UNL     1      33.489  31.654  -8.556  1.00  0.00    -0.070 C 
ATOM      2  C   UNL     1      34.309  31.645  -9.637  1.00  0.00    -0.027 C 
ATOM      3  C   UNL     1      33.254  32.982  -7.877  1.00  0.00     0.039 C 
ENDROOT
BRANCH   2   4
ATOM      4  C   UNL     1      34.762  30.424 -10.403  1.00  0.00     0.032 C 
BRANCH   4   5
ATOM      5  C   UNL     1      34.226  30.377 -11.840  1.00  0.00     0.034 C 
BRANCH   5   6
ATOM      6  C   UNL     1      33.109  29.357 -11.949  1.00  0.00    -0.077 C 
ATOM      7  C   UNL     1      33.464  27.946 -12.343  1.00  0.00     0.039 C 
ATOM      8  C   UNL     1      31.819  29.628 -11.637  1.00  0.00    -0.023 CG0
ATOM      9  G   UNL     1      31.273  30.980 -11.240  1.00  0.00     0.000 G0
ENDBRANCH   5   6
ENDBRANCH   4   5
ENDBRANCH   2   4
BRANCH   1  10
ATOM     10  C   UNL     1      32.732  30.435  -8.037  1.00  0.00     0.111 C 
BRANCH  10  11
ATOM     11  C   UNL     1      31.469  30.127  -8.802  1.00  0.00     0.163 C 
ATOM     12  O   UNL     1      30.887  29.035  -8.555  1.00  0.00    -0.294 OA
BRANCH  11  13
ATOM     13  C   UNL     1      30.861  31.086  -9.784  1.00  0.00    -0.002 C 
ATOM     14  C   UNL     1      29.917  31.993  -9.383  1.00  0.00    -0.069 C 
ATOM     15  C   UNL     1      29.553  32.173  -7.925  1.00  0.00     0.039 C 
ATOM     16  C   UNL     1      29.219  32.904 -10.370  1.00  0.00     0.039 C 
BRANCH  13  17
ATOM     17  C   UNL     1      31.274  30.994 -11.252  1.00  0.00     0.066 CG0
ATOM     18  G   UNL     1      31.816  29.629 -11.607  1.00  0.00     0.000 G0
ENDBRANCH  13  17
ENDBRANCH  11  13
ENDBRANCH  10  11
ENDBRANCH   1  10
TORSDOF 0
ENDMDL
MODEL 5
REMARK VINA RESULT:    -4.090      1.592      3.566
REMARK INTER + INTRA:          -5.561
REMARK INTER:                  -5.819
REMARK INTRA:                   0.258
REMARK UNBOUND:                 0.203
REMARK SMILES CC1=CCC(=C(C)C)C(=O)CC(C)=CCC1
REMARK SMILES IDX 12 1 14 2 13 3 15 4 16 5 2 6 1 7 3 8 11 10 9 11 10 12 5 13
REMARK SMILES IDX 6 14 7 15 8 16 4 17
REMARK H PARENT
REMARK Flexibility Score: 60.00
ROOT
ATOM      1  C   UNL     1      22.335  29.643 -12.247  1.00  0.00    -0.070 C 
ATOM      2  C   UNL     1      21.220  29.202 -11.609  1.00  0.00    -0.027 C 
ATOM      3  C   UNL     1      23.582  29.818 -11.414  1.00  0.00     0.039 C 
ENDROOT
BRANCH   2   4
ATOM      4  C   UNL     1      19.846  29.052 -12.219  1.00  0.00     0.032 C 
BRANCH   4   5
ATOM      5  C   UNL     1      19.706  27.805 -13.101  1.00  0.00     0.034 C 
BRANCH   5   6
ATOM      6  C   UNL     1      18.990  28.154 -14.392  1.00  0.00    -0.077 C 
ATOM      7  C   UNL     1      17.630  28.799 -14.303  1.00  0.00     0.039 C 
ATOM      8  C   UNL     1      19.540  27.989 -15.618  1.00  0.00    -0.023 CG0
ATOM      9  G   UNL     1      20.878  27.349 -15.905  1.00  0.00     0.000 G0
ENDBRANCH   5   6
ENDBRANCH   4   5
ENDBRANCH   2   4
BRANCH   1  10
ATOM     10  C   UNL     1      22.429  29.892 -13.749  1.00  0.00     0.111 C 
BRANCH  10  11
ATOM     11  C   UNL     1      22.701  28.650 -14.560  1.00  0.00     0.163 C 
ATOM     12  O   UNL     1      23.492  27.796 -14.073  1.00  0.00    -0.294 OA
BRANCH  11  13
ATOM     13  C   UNL     1      22.028  28.375 -15.872  1.00  0.00    -0.002 C 
ATOM     14  C   UNL     1      22.392  29.058 -17.002  1.00  0.00    -0.069 C 
ATOM     15  C   UNL     1      23.575  30.002 -17.016  1.00  0.00     0.039 C 
ATOM     16  C   UNL     1      21.664  28.870 -18.315  1.00  0.00     0.039 C 
BRANCH  13  17
ATOM     17  C   UNL     1      20.887  27.359 -15.915  1.00  0.00     0.066 CG0
ATOM     18  G   UNL     1      19.549  27.991 -15.610  1.00  0.00     0.000 G0
ENDBRANCH  13  17
ENDBRANCH  11  13
ENDBRANCH  10  11
ENDBRANCH   1  10
TORSDOF 0
ENDMDL
MODEL 6
REMARK VINA RESULT:    -4.079      3.083      4.872
REMARK INTER + INTRA:          -5.545
REMARK INTER:                  -6.010
REMARK INTRA:                   0.465
REMARK UNBOUND:                 0.203
REMARK SMILES CC1=CCC(=C(C)C)C(=O)CC(C)=CCC1
REMARK SMILES IDX 12 1 14 2 13 3 15 4 16 5 2 6 1 7 3 8 11 10 9 11 10 12 5 13
REMARK SMILES IDX 6 14 7 15 8 16 4 17
REMARK H PARENT
REMARK Flexibility Score: 60.00
ROOT
ATOM      1  C   UNL     1      21.714  27.769  -9.466  1.00  0.00    -0.070 C 
ATOM      2  C   UNL     1      22.870  28.105 -10.092  1.00  0.00    -0.027 C 
ATOM      3  C   UNL     1      21.610  28.084  -7.993  1.00  0.00     0.039 C 
ENDROOT
BRANCH   2   4
ATOM      4  C   UNL     1      23.229  27.795 -11.527  1.00  0.00     0.032 C 
BRANCH   4   5
ATOM      5  C   UNL     1      23.571  29.043 -12.350  1.00  0.00     0.034 C 
BRANCH   5   6
ATOM      6  C   UNL     1      22.535  30.125 -12.117  1.00  0.00    -0.077 C 
ATOM      7  C   UNL     1      22.974  31.405 -11.452  1.00  0.00     0.039 C 
ATOM      8  C   UNL     1      21.253  30.035 -12.546  1.00  0.00    -0.023 CG0
ATOM      9  G   UNL     1      20.630  28.832 -13.215  1.00  0.00     0.000 G0
ENDBRANCH   5   6
ENDBRANCH   4   5
ENDBRANCH   2   4
BRANCH   1  10
ATOM     10  C   UNL     1      20.494  27.175 -10.164  1.00  0.00     0.111 C 
BRANCH  10  11
ATOM     11  C   UNL     1      19.648  28.191 -10.889  1.00  0.00     0.163 C 
ATOM     12  O   UNL     1      19.088  29.085 -10.198  1.00  0.00    -0.294 OA
BRANCH  11  13
ATOM     13  C   UNL     1      19.503  28.208 -12.382  1.00  0.00    -0.002 C 
ATOM     14  C   UNL     1      18.422  27.623 -12.987  1.00  0.00    -0.069 C 
ATOM     15  C   UNL     1      17.263  27.071 -12.186  1.00  0.00     0.039 C 
ATOM     16  C   UNL     1      18.300  27.541 -14.493  1.00  0.00     0.039 C 
BRANCH  13  17
ATOM     17  C   UNL     1      20.613  28.840 -13.222  1.00  0.00     0.066 CG0
ATOM     18  G   UNL     1      21.244  30.026 -12.531  1.00  0.00     0.000 G0
ENDBRANCH  13  17
ENDBRANCH  11  13
ENDBRANCH  10  11
ENDBRANCH   1  10
TORSDOF 0
ENDMDL
MODEL 7
REMARK VINA RESULT:    -4.073     15.084     16.563
REMARK INTER + INTRA:          -5.536
REMARK INTER:                  -5.707
REMARK INTRA:                   0.171
REMARK UNBOUND:                 0.203
REMARK SMILES CC1=CCC(=C(C)C)C(=O)CC(C)=CCC1
REMARK SMILES IDX 12 1 14 2 13 3 15 4 16 5 2 6 1 7 3 8 11 10 9 11 10 12 5 13
REMARK SMILES IDX 6 14 7 15 8 16 4 17
REMARK H PARENT
REMARK Flexibility Score: 60.00
ROOT
ATOM      1  C   UNL     1      30.762  38.025 -22.141  1.00  0.00    -0.070 C 
ATOM      2  C   UNL     1      31.026  36.951 -21.353  1.00  0.00    -0.027 C 
ATOM      3  C   UNL     1      29.314  38.306 -22.462  1.00  0.00     0.039 C 
ENDROOT
BRANCH   2   4
ATOM      4  C   UNL     1      32.396  36.428 -20.990  1.00  0.00     0.032 C 
BRANCH   4   5
ATOM      5  C   UNL     1      32.801  35.183 -21.790  1.00  0.00     0.034 C 
BRANCH   5   6
ATOM      6  C   UNL     1      33.833  35.547 -22.840  1.00  0.00    -0.077 C 
ATOM      7  C   UNL     1      35.292  35.406 -22.487  1.00  0.00     0.039 C 
ATOM      8  C   UNL     1      33.514  35.916 -24.103  1.00  0.00    -0.023 CG0
ATOM      9  G   UNL     1      32.115  36.126 -24.633  1.00  0.00     0.000 G0
ENDBRANCH   5   6
ENDBRANCH   4   5
ENDBRANCH   2   4
BRANCH   1  10
ATOM     10  C   UNL     1      31.817  39.002 -22.651  1.00  0.00     0.111 C 
BRANCH  10  11
ATOM     11  C   UNL     1      32.387  38.639 -23.999  1.00  0.00     0.163 C 
ATOM     12  O   UNL     1      33.456  39.208 -24.354  1.00  0.00    -0.294 OA
BRANCH  11  13
ATOM     13  C   UNL     1      31.769  37.601 -24.888  1.00  0.00    -0.002 C 
ATOM     14  C   UNL     1      30.885  37.958 -25.871  1.00  0.00    -0.069 C 
ATOM     15  C   UNL     1      30.605  39.407 -26.204  1.00  0.00     0.039 C 
ATOM     16  C   UNL     1      30.175  36.923 -26.716  1.00  0.00     0.039 C 
BRANCH  13  17
ATOM     17  C   UNL     1      32.101  36.130 -24.640  1.00  0.00     0.066 CG0
ATOM     18  G   UNL     1      33.500  35.944 -24.103  1.00  0.00     0.000 G0
ENDBRANCH  13  17
ENDBRANCH  11  13
ENDBRANCH  10  11
ENDBRANCH   1  10
TORSDOF 0
ENDMDL
MODEL 8
REMARK VINA RESULT:    -4.025     14.153     16.984
REMARK INTER + INTRA:          -5.469
REMARK INTER:                  -5.623
REMARK INTRA:                   0.154
REMARK UNBOUND:                 0.203
REMARK SMILES CC1=CCC(=C(C)C)C(=O)CC(C)=CCC1
REMARK SMILES IDX 12 1 14 2 13 3 15 4 16 5 2 6 1 7 3 8 11 10 9 11 10 12 5 13
REMARK SMILES IDX 6 14 7 15 8 16 4 17
REMARK H PARENT
REMARK Flexibility Score: 60.00
ROOT
ATOM      1  C   UNL     1      35.066  36.682 -24.269  1.00  0.00    -0.070 C 
ATOM      2  C   UNL     1      35.360  35.761 -23.315  1.00  0.00    -0.027 C 
ATOM      3  C   UNL     1      36.224  37.423 -24.893  1.00  0.00     0.039 C 
ENDROOT
BRANCH   2   4
ATOM      4  C   UNL     1      34.361  34.981 -22.492  1.00  0.00     0.032 C 
BRANCH   4   5
ATOM      5  C   UNL     1      33.615  35.844 -21.467  1.00  0.00     0.034 C 
BRANCH   5   6
ATOM      6  C   UNL     1      32.119  35.621 -21.584  1.00  0.00    -0.077 C 
ATOM      7  C   UNL     1      31.579  34.239 -21.315  1.00  0.00     0.039 C 
ATOM      8  C   UNL     1      31.235  36.614 -21.839  1.00  0.00    -0.023 CG0
ATOM      9  G   UNL     1      31.587  38.051 -22.147  1.00  0.00     0.000 G0
ENDBRANCH   5   6
ENDBRANCH   4   5
ENDBRANCH   2   4
BRANCH   1  10
ATOM     10  C   UNL     1      33.663  36.954 -24.803  1.00  0.00     0.111 C 
BRANCH  10  11
ATOM     11  C   UNL     1      33.058  38.243 -24.306  1.00  0.00     0.163 C 
ATOM     12  O   UNL     1      33.715  39.305 -24.487  1.00  0.00    -0.294 OA
BRANCH  11  13
ATOM     13  C   UNL     1      31.701  38.310 -23.670  1.00  0.00    -0.002 C 
ATOM     14  C   UNL     1      30.596  38.635 -24.411  1.00  0.00    -0.069 C 
ATOM     15  C   UNL     1      30.664  38.794 -25.914  1.00  0.00     0.039 C 
ATOM     16  C   UNL     1      29.233  38.804 -23.775  1.00  0.00     0.039 C 
BRANCH  13  17
ATOM     17  C   UNL     1      31.581  38.064 -22.166  1.00  0.00     0.066 CG0
ATOM     18  G   UNL     1      31.234  36.628 -21.850  1.00  0.00     0.000 G0
ENDBRANCH  13  17
ENDBRANCH  11  13
ENDBRANCH  10  11
ENDBRANCH   1  10
TORSDOF 0
ENDMDL
MODEL 9
REMARK VINA RESULT:    -3.930     14.812     16.698
REMARK INTER + INTRA:          -5.335
REMARK INTER:                  -5.903
REMARK INTRA:                   0.567
REMARK UNBOUND:                 0.203
REMARK SMILES CC1=CCC(=C(C)C)C(=O)CC(C)=CCC1
REMARK SMILES IDX 12 1 14 2 13 3 15 4 16 5 2 6 1 7 3 8 11 10 9 11 10 12 5 13
REMARK SMILES IDX 6 14 7 15 8 16 4 17
REMARK H PARENT
REMARK Flexibility Score: 60.00
ROOT
ATOM      1  C   UNL     1      32.680  35.194 -22.054  1.00  0.00    -0.070 C 
ATOM      2  C   UNL     1      33.298  34.950 -23.238  1.00  0.00    -0.027 C 
ATOM      3  C   UNL     1      33.412  34.792 -20.797  1.00  0.00     0.039 C 
ENDROOT
BRANCH   2   4
ATOM      4  C   UNL     1      32.713  35.175 -24.612  1.00  0.00     0.032 C 
BRANCH   4   5
ATOM      5  C   UNL     1      33.572  36.088 -25.496  1.00  0.00     0.034 C 
BRANCH   5   6
ATOM      6  C   UNL     1      33.917  37.364 -24.752  1.00  0.00    -0.077 C 
ATOM      7  C   UNL     1      35.367  37.644 -24.446  1.00  0.00     0.039 C 
ATOM      8  C   UNL     1      33.000  38.303 -24.417  1.00  0.00    -0.023 CG0
ATOM      9  G   UNL     1      31.508  38.192 -24.626  1.00  0.00     0.000 G0
ENDBRANCH   5   6
ENDBRANCH   4   5
ENDBRANCH   2   4
BRANCH   1  10
ATOM     10  C   UNL     1      31.343  35.916 -21.911  1.00  0.00     0.111 C 
BRANCH  10  11
ATOM     11  C   UNL     1      31.425  37.405 -22.131  1.00  0.00     0.163 C 
ATOM     12  O   UNL     1      32.131  38.077 -21.329  1.00  0.00    -0.294 OA
BRANCH  11  13
ATOM     13  C   UNL     1      30.756  38.093 -23.284  1.00  0.00    -0.002 C 
ATOM     14  C   UNL     1      29.478  38.573 -23.167  1.00  0.00    -0.069 C 
ATOM     15  C   UNL     1      28.743  38.567 -21.844  1.00  0.00     0.039 C 
ATOM     16  C   UNL     1      28.746  39.183 -24.343  1.00  0.00     0.039 C 
BRANCH  13  17
ATOM     17  C   UNL     1      31.505  38.199 -24.612  1.00  0.00     0.066 CG0
ATOM     18  G   UNL     1      32.999  38.308 -24.416  1.00  0.00     0.000 G0
ENDBRANCH  13  17
ENDBRANCH  11  13
ENDBRANCH  10  11
ENDBRANCH   1  10
TORSDOF 0
ENDMDL
