MODEL 1
REMARK VINA RESULT:    -3.613      0.000      0.000
REMARK INTER + INTRA:          -8.994
REMARK INTER:                  -6.570
REMARK INTRA:                  -2.425
REMARK UNBOUND:                -2.425
REMARK SMILES CCCCCCCCCCCCCCCC(=O)[O-]
REMARK SMILES IDX 9 1 10 2 11 3 12 4 13 5 14 6 15 7 16 8 17 9 18 10 8 11 7 12
REMARK SMILES IDX 6 13 5 14 4 15 3 16 2 17 1 18
REMARK H PARENT
REMARK Flexibility Score: inf
ROOT
ATOM      1  C   UNL     1       9.378 -23.580 -38.521  1.00  0.00     0.000 C 
ENDROOT
BRANCH   1   2
ATOM      2  C   UNL     1      10.535 -22.568 -38.578  1.00  0.00     0.000 C 
BRANCH   2   3
ATOM      3  C   UNL     1      10.058 -21.145 -38.913  1.00  0.00     0.000 C 
BRANCH   3   4
ATOM      4  C   UNL     1      10.783 -20.066 -38.093  1.00  0.00     0.000 C 
BRANCH   4   5
ATOM      5  C   UNL     1      11.782 -20.701 -37.113  1.00  0.00     0.000 C 
BRANCH   5   6
ATOM      6  C   UNL     1      13.214 -20.179 -37.304  1.00  0.00     0.006 C 
BRANCH   6   7
ATOM      7  C   UNL     1      13.980 -20.937 -38.395  1.00  0.00     0.053 C 
BRANCH   7   8
ATOM      8  C   UNL     1      14.680 -22.125 -37.814  1.00  0.00     0.041 C 
ATOM      9  O   UNL     1      15.396 -21.998 -36.786  1.00  0.00    -0.550 OA
ATOM     10  O   UNL     1      14.582 -23.363 -38.437  1.00  0.00    -0.550 OA
ENDBRANCH   7   8
ENDBRANCH   6   7
ENDBRANCH   5   6
ENDBRANCH   4   5
ENDBRANCH   3   4
ENDBRANCH   2   3
ENDBRANCH   1   2
BRANCH   1  11
ATOM     11  C   UNL     1       9.246 -24.265 -37.147  1.00  0.00     0.000 C 
BRANCH  11  12
ATOM     12  C   UNL     1      10.289 -23.841 -36.094  1.00  0.00    -0.000 C 
BRANCH  12  13
ATOM     13  C   UNL     1       9.663 -23.146 -34.874  1.00  0.00    -0.000 C 
BRANCH  13  14
ATOM     14  C   UNL     1       8.300 -22.498 -35.182  1.00  0.00    -0.000 C 
BRANCH  14  15
ATOM     15  C   UNL     1       8.337 -20.988 -35.485  1.00  0.00    -0.000 C 
BRANCH  15  16
ATOM     16  C   UNL     1       7.266 -20.550 -36.499  1.00  0.00    -0.000 C 
BRANCH  16  17
ATOM     17  C   UNL     1       6.590 -21.743 -37.192  1.00  0.00    -0.003 C 
ATOM     18  C   UNL     1       5.099 -21.517 -37.438  1.00  0.00     0.004 C 
ENDBRANCH  16  17
ENDBRANCH  15  16
ENDBRANCH  14  15
ENDBRANCH  13  14
ENDBRANCH  12  13
ENDBRANCH  11  12
ENDBRANCH   1  11
TORSDOF 14
ENDMDL
MODEL 2
REMARK VINA RESULT:    -3.586      4.791      7.024
REMARK INTER + INTRA:          -8.946
REMARK INTER:                  -7.272
REMARK INTRA:                  -1.673
REMARK UNBOUND:                -2.425
REMARK SMILES CCCCCCCCCCCCCCCC(=O)[O-]
REMARK SMILES IDX 9 1 10 2 11 3 12 4 13 5 14 6 15 7 16 8 17 9 18 10 8 11 7 12
REMARK SMILES IDX 6 13 5 14 4 15 3 16 2 17 1 18
REMARK H PARENT
REMARK Flexibility Score: inf
ROOT
ATOM      1  C   UNL     1       7.143 -22.027 -36.291  1.00  0.00     0.000 C 
ENDROOT
BRANCH   1   2
ATOM      2  C   UNL     1       6.294 -20.890 -36.885  1.00  0.00     0.000 C 
BRANCH   2   3
ATOM      3  C   UNL     1       6.695 -19.508 -36.343  1.00  0.00     0.000 C 
BRANCH   3   4
ATOM      4  C   UNL     1       5.716 -18.398 -36.759  1.00  0.00     0.000 C 
BRANCH   4   5
ATOM      5  C   UNL     1       6.457 -17.073 -36.995  1.00  0.00     0.000 C 
BRANCH   5   6
ATOM      6  C   UNL     1       6.169 -16.029 -35.906  1.00  0.00     0.006 C 
BRANCH   6   7
ATOM      7  C   UNL     1       4.866 -16.312 -35.146  1.00  0.00     0.053 C 
BRANCH   7   8
ATOM      8  C   UNL     1       5.114 -16.325 -33.671  1.00  0.00     0.041 C 
ATOM      9  O   UNL     1       5.107 -17.413 -33.036  1.00  0.00    -0.550 OA
ATOM     10  O   UNL     1       5.303 -15.130 -32.987  1.00  0.00    -0.550 OA
ENDBRANCH   7   8
ENDBRANCH   6   7
ENDBRANCH   5   6
ENDBRANCH   4   5
ENDBRANCH   3   4
ENDBRANCH   2   3
ENDBRANCH   1   2
BRANCH   1  11
ATOM     11  C   UNL     1       8.126 -21.539 -35.208  1.00  0.00     0.000 C 
BRANCH  11  12
ATOM     12  C   UNL     1       9.219 -22.548 -34.806  1.00  0.00    -0.000 C 
BRANCH  12  13
ATOM     13  C   UNL     1       9.176 -23.843 -35.632  1.00  0.00    -0.000 C 
BRANCH  13  14
ATOM     14  C   UNL     1      10.419 -24.033 -36.522  1.00  0.00    -0.000 C 
BRANCH  14  15
ATOM     15  C   UNL     1      10.527 -23.072 -37.723  1.00  0.00    -0.000 C 
BRANCH  15  16
ATOM     16  C   UNL     1      11.622 -22.006 -37.545  1.00  0.00    -0.000 C 
BRANCH  16  17
ATOM     17  C   UNL     1      11.043 -20.594 -37.364  1.00  0.00    -0.003 C 
ATOM     18  C   UNL     1       9.836 -20.330 -38.265  1.00  0.00     0.004 C 
ENDBRANCH  16  17
ENDBRANCH  15  16
ENDBRANCH  14  15
ENDBRANCH  13  14
ENDBRANCH  12  13
ENDBRANCH  11  12
ENDBRANCH   1  11
TORSDOF 14
ENDMDL
MODEL 3
REMARK VINA RESULT:    -3.491      1.109      2.744
REMARK INTER + INTRA:          -8.773
REMARK INTER:                  -6.248
REMARK INTRA:                  -2.525
REMARK UNBOUND:                -2.425
REMARK SMILES CCCCCCCCCCCCCCCC(=O)[O-]
REMARK SMILES IDX 9 1 10 2 11 3 12 4 13 5 14 6 15 7 16 8 17 9 18 10 8 11 7 12
REMARK SMILES IDX 6 13 5 14 4 15 3 16 2 17 1 18
REMARK H PARENT
REMARK Flexibility Score: inf
ROOT
ATOM      1  C   UNL     1       7.715 -21.803 -38.678  1.00  0.00     0.000 C 
ENDROOT
BRANCH   1   2
ATOM      2  C   UNL     1       8.580 -20.662 -39.240  1.00  0.00     0.000 C 
BRANCH   2   3
ATOM      3  C   UNL     1       9.978 -20.611 -38.600  1.00  0.00     0.000 C 
BRANCH   3   4
ATOM      4  C   UNL     1      10.113 -19.493 -37.553  1.00  0.00     0.000 C 
BRANCH   4   5
ATOM      5  C   UNL     1      11.411 -19.654 -36.746  1.00  0.00     0.000 C 
BRANCH   5   6
ATOM      6  C   UNL     1      12.347 -20.721 -37.333  1.00  0.00     0.006 C 
BRANCH   6   7
ATOM      7  C   UNL     1      13.828 -20.343 -37.207  1.00  0.00     0.053 C 
BRANCH   7   8
ATOM      8  C   UNL     1      14.696 -21.480 -37.645  1.00  0.00     0.041 C 
ATOM      9  O   UNL     1      15.447 -22.060 -36.817  1.00  0.00    -0.550 OA
ATOM     10  O   UNL     1      14.716 -21.866 -38.980  1.00  0.00    -0.550 OA
ENDBRANCH   7   8
ENDBRANCH   6   7
ENDBRANCH   5   6
ENDBRANCH   4   5
ENDBRANCH   3   4
ENDBRANCH   2   3
ENDBRANCH   1   2
BRANCH   1  11
ATOM     11  C   UNL     1       6.988 -21.421 -37.375  1.00  0.00     0.000 C 
BRANCH  11  12
ATOM     12  C   UNL     1       7.278 -22.330 -36.165  1.00  0.00    -0.000 C 
BRANCH  12  13
ATOM     13  C   UNL     1       8.221 -21.681 -35.138  1.00  0.00    -0.000 C 
BRANCH  13  14
ATOM     14  C   UNL     1       9.596 -22.371 -35.062  1.00  0.00    -0.000 C 
BRANCH  14  15
ATOM     15  C   UNL     1       9.649 -23.807 -35.619  1.00  0.00    -0.000 C 
BRANCH  15  16
ATOM     16  C   UNL     1      10.697 -23.983 -36.732  1.00  0.00    -0.000 C 
BRANCH  16  17
ATOM     17  C   UNL     1      10.099 -24.595 -38.009  1.00  0.00    -0.003 C 
ATOM     18  C   UNL     1       8.771 -25.309 -37.757  1.00  0.00     0.004 C 
ENDBRANCH  16  17
ENDBRANCH  15  16
ENDBRANCH  14  15
ENDBRANCH  13  14
ENDBRANCH  12  13
ENDBRANCH  11  12
ENDBRANCH   1  11
TORSDOF 14
ENDMDL
MODEL 4
REMARK VINA RESULT:    -3.487      3.503      5.299
REMARK INTER + INTRA:          -8.766
REMARK INTER:                  -7.577
REMARK INTRA:                  -1.189
REMARK UNBOUND:                -2.425
REMARK SMILES CCCCCCCCCCCCCCCC(=O)[O-]
REMARK SMILES IDX 9 1 10 2 11 3 12 4 13 5 14 6 15 7 16 8 17 9 18 10 8 11 7 12
REMARK SMILES IDX 6 13 5 14 4 15 3 16 2 17 1 18
REMARK H PARENT
REMARK Flexibility Score: inf
ROOT
ATOM      1  C   UNL     1       7.616 -21.080 -36.882  1.00  0.00     0.000 C 
ENDROOT
BRANCH   1   2
ATOM      2  C   UNL     1       7.556 -22.336 -35.996  1.00  0.00     0.000 C 
BRANCH   2   3
ATOM      3  C   UNL     1       8.612 -22.321 -34.878  1.00  0.00     0.000 C 
BRANCH   3   4
ATOM      4  C   UNL     1       9.556 -23.532 -34.934  1.00  0.00     0.000 C 
BRANCH   4   5
ATOM      5  C   UNL     1       9.554 -24.163 -36.336  1.00  0.00     0.000 C 
BRANCH   5   6
ATOM      6  C   UNL     1      10.890 -23.978 -37.071  1.00  0.00     0.006 C 
BRANCH   6   7
ATOM      7  C   UNL     1      10.895 -22.749 -37.988  1.00  0.00     0.053 C 
BRANCH   7   8
ATOM      8  C   UNL     1      11.736 -21.661 -37.399  1.00  0.00     0.041 C 
ATOM      9  O   UNL     1      12.989 -21.693 -37.518  1.00  0.00    -0.550 OA
ATOM     10  O   UNL     1      11.140 -20.636 -36.674  1.00  0.00    -0.550 OA
ENDBRANCH   7   8
ENDBRANCH   6   7
ENDBRANCH   5   6
ENDBRANCH   4   5
ENDBRANCH   3   4
ENDBRANCH   2   3
ENDBRANCH   1   2
BRANCH   1  11
ATOM     11  C   UNL     1       7.384 -19.777 -36.094  1.00  0.00     0.000 C 
BRANCH  11  12
ATOM     12  C   UNL     1       6.157 -18.952 -36.527  1.00  0.00    -0.000 C 
BRANCH  12  13
ATOM     13  C   UNL     1       5.866 -17.769 -35.589  1.00  0.00    -0.000 C 
BRANCH  13  14
ATOM     14  C   UNL     1       4.585 -17.001 -35.965  1.00  0.00    -0.000 C 
BRANCH  14  15
ATOM     15  C   UNL     1       4.476 -15.574 -35.393  1.00  0.00    -0.000 C 
BRANCH  15  16
ATOM     16  C   UNL     1       5.420 -15.327 -34.204  1.00  0.00    -0.000 C 
BRANCH  16  17
ATOM     17  C   UNL     1       4.702 -15.442 -32.850  1.00  0.00    -0.003 C 
ATOM     18  C   UNL     1       4.879 -16.816 -32.202  1.00  0.00     0.004 C 
ENDBRANCH  16  17
ENDBRANCH  15  16
ENDBRANCH  14  15
ENDBRANCH  13  14
ENDBRANCH  12  13
ENDBRANCH  11  12
ENDBRANCH   1  11
TORSDOF 14
ENDMDL
MODEL 5
REMARK VINA RESULT:    -3.436      1.124      3.063
REMARK INTER + INTRA:          -8.673
REMARK INTER:                  -6.010
REMARK INTRA:                  -2.663
REMARK UNBOUND:                -2.425
REMARK SMILES CCCCCCCCCCCCCCCC(=O)[O-]
REMARK SMILES IDX 9 1 10 2 11 3 12 4 13 5 14 6 15 7 16 8 17 9 18 10 8 11 7 12
REMARK SMILES IDX 6 13 5 14 4 15 3 16 2 17 1 18
REMARK H PARENT
REMARK Flexibility Score: inf
ROOT
ATOM      1  C   UNL     1       6.591 -21.985 -38.723  1.00  0.00     0.000 C 
ENDROOT
BRANCH   1   2
ATOM      2  C   UNL     1       7.582 -20.952 -39.288  1.00  0.00     0.000 C 
BRANCH   2   3
ATOM      3  C   UNL     1       8.819 -21.608 -39.925  1.00  0.00     0.000 C 
BRANCH   3   4
ATOM      4  C   UNL     1       9.972 -21.799 -38.926  1.00  0.00     0.000 C 
BRANCH   4   5
ATOM      5  C   UNL     1      10.376 -20.459 -38.293  1.00  0.00     0.000 C 
BRANCH   5   6
ATOM      6  C   UNL     1      11.611 -20.579 -37.387  1.00  0.00     0.006 C 
BRANCH   6   7
ATOM      7  C   UNL     1      12.369 -21.897 -37.593  1.00  0.00     0.053 C 
BRANCH   7   8
ATOM      8  C   UNL     1      13.768 -21.628 -38.051  1.00  0.00     0.041 C 
ATOM      9  O   UNL     1      14.053 -21.673 -39.277  1.00  0.00    -0.550 OA
ATOM     10  O   UNL     1      14.769 -21.379 -37.120  1.00  0.00    -0.550 OA
ENDBRANCH   7   8
ENDBRANCH   6   7
ENDBRANCH   5   6
ENDBRANCH   4   5
ENDBRANCH   3   4
ENDBRANCH   2   3
ENDBRANCH   1   2
BRANCH   1  11
ATOM     11  C   UNL     1       6.466 -21.920 -37.189  1.00  0.00     0.000 C 
BRANCH  11  12
ATOM     12  C   UNL     1       6.824 -20.564 -36.553  1.00  0.00    -0.000 C 
BRANCH  12  13
ATOM     13  C   UNL     1       8.020 -20.648 -35.591  1.00  0.00    -0.000 C 
BRANCH  13  14
ATOM     14  C   UNL     1       8.243 -22.064 -35.028  1.00  0.00    -0.000 C 
BRANCH  14  15
ATOM     15  C   UNL     1       9.716 -22.489 -34.869  1.00  0.00    -0.000 C 
BRANCH  15  16
ATOM     16  C   UNL     1      10.017 -23.867 -35.485  1.00  0.00    -0.000 C 
BRANCH  16  17
ATOM     17  C   UNL     1       8.885 -24.360 -36.400  1.00  0.00    -0.003 C 
ATOM     18  C   UNL     1       9.401 -25.118 -37.623  1.00  0.00     0.004 C 
ENDBRANCH  16  17
ENDBRANCH  15  16
ENDBRANCH  14  15
ENDBRANCH  13  14
ENDBRANCH  12  13
ENDBRANCH  11  12
ENDBRANCH   1  11
TORSDOF 14
ENDMDL
MODEL 6
REMARK VINA RESULT:    -3.423      1.268      2.340
REMARK INTER + INTRA:          -8.649
REMARK INTER:                  -6.332
REMARK INTRA:                  -2.316
REMARK UNBOUND:                -2.425
REMARK SMILES CCCCCCCCCCCCCCCC(=O)[O-]
REMARK SMILES IDX 9 1 10 2 11 3 12 4 13 5 14 6 15 7 16 8 17 9 18 10 8 11 7 12
REMARK SMILES IDX 6 13 5 14 4 15 3 16 2 17 1 18
REMARK H PARENT
REMARK Flexibility Score: inf
ROOT
ATOM      1  C   UNL     1      11.012 -21.146 -38.992  1.00  0.00     0.000 C 
ENDROOT
BRANCH   1   2
ATOM      2  C   UNL     1      10.744 -19.968 -38.040  1.00  0.00     0.000 C 
BRANCH   2   3
ATOM      3  C   UNL     1      11.999 -19.543 -37.259  1.00  0.00     0.000 C 
BRANCH   3   4
ATOM      4  C   UNL     1      13.304 -19.920 -37.977  1.00  0.00     0.000 C 
BRANCH   4   5
ATOM      5  C   UNL     1      14.145 -20.877 -37.118  1.00  0.00     0.000 C 
BRANCH   5   6
ATOM      6  C   UNL     1      15.119 -21.723 -37.952  1.00  0.00     0.006 C 
BRANCH   6   7
ATOM      7  C   UNL     1      14.551 -22.095 -39.328  1.00  0.00     0.053 C 
BRANCH   7   8
ATOM      8  C   UNL     1      14.295 -23.567 -39.407  1.00  0.00     0.041 C 
ATOM      9  O   UNL     1      15.130 -24.381 -38.932  1.00  0.00    -0.550 OA
ATOM     10  O   UNL     1      13.159 -24.041 -40.051  1.00  0.00    -0.550 OA
ENDBRANCH   7   8
ENDBRANCH   6   7
ENDBRANCH   5   6
ENDBRANCH   4   5
ENDBRANCH   3   4
ENDBRANCH   2   3
ENDBRANCH   1   2
BRANCH   1  11
ATOM     11  C   UNL     1      10.395 -22.469 -38.498  1.00  0.00     0.000 C 
BRANCH  11  12
ATOM     12  C   UNL     1      11.078 -23.098 -37.269  1.00  0.00    -0.000 C 
BRANCH  12  13
ATOM     13  C   UNL     1      10.273 -24.260 -36.663  1.00  0.00    -0.000 C 
BRANCH  13  14
ATOM     14  C   UNL     1       9.457 -23.848 -35.424  1.00  0.00    -0.000 C 
BRANCH  14  15
ATOM     15  C   UNL     1       9.756 -22.439 -34.873  1.00  0.00    -0.000 C 
BRANCH  15  16
ATOM     16  C   UNL     1       8.673 -21.408 -35.238  1.00  0.00    -0.000 C 
BRANCH  16  17
ATOM     17  C   UNL     1       7.419 -22.061 -35.840  1.00  0.00    -0.003 C 
ATOM     18  C   UNL     1       7.087 -21.527 -37.234  1.00  0.00     0.004 C 
ENDBRANCH  16  17
ENDBRANCH  15  16
ENDBRANCH  14  15
ENDBRANCH  13  14
ENDBRANCH  12  13
ENDBRANCH  11  12
ENDBRANCH   1  11
TORSDOF 14
ENDMDL
MODEL 7
REMARK VINA RESULT:    -3.389      3.575      6.133
REMARK INTER + INTRA:          -8.587
REMARK INTER:                  -6.402
REMARK INTRA:                  -2.185
REMARK UNBOUND:                -2.425
REMARK SMILES CCCCCCCCCCCCCCCC(=O)[O-]
REMARK SMILES IDX 9 1 10 2 11 3 12 4 13 5 14 6 15 7 16 8 17 9 18 10 8 11 7 12
REMARK SMILES IDX 6 13 5 14 4 15 3 16 2 17 1 18
REMARK H PARENT
REMARK Flexibility Score: inf
ROOT
ATOM      1  C   UNL     1       9.479 -23.879 -35.492  1.00  0.00     0.000 C 
ENDROOT
BRANCH   1   2
ATOM      2  C   UNL     1       9.673 -22.482 -34.877  1.00  0.00     0.000 C 
BRANCH   2   3
ATOM      3  C   UNL     1       8.410 -21.610 -34.985  1.00  0.00     0.000 C 
BRANCH   3   4
ATOM      4  C   UNL     1       7.424 -22.119 -36.049  1.00  0.00     0.000 C 
BRANCH   4   5
ATOM      5  C   UNL     1       6.680 -20.948 -36.710  1.00  0.00     0.000 C 
BRANCH   5   6
ATOM      6  C   UNL     1       7.223 -19.579 -36.275  1.00  0.00     0.006 C 
BRANCH   6   7
ATOM      7  C   UNL     1       6.172 -18.466 -36.375  1.00  0.00     0.053 C 
BRANCH   7   8
ATOM      8  C   UNL     1       6.729 -17.284 -37.102  1.00  0.00     0.041 C 
ATOM      9  O   UNL     1       7.683 -17.429 -37.912  1.00  0.00    -0.550 OA
ATOM     10  O   UNL     1       6.230 -16.012 -36.847  1.00  0.00    -0.550 OA
ENDBRANCH   7   8
ENDBRANCH   6   7
ENDBRANCH   5   6
ENDBRANCH   4   5
ENDBRANCH   3   4
ENDBRANCH   2   3
ENDBRANCH   1   2
BRANCH   1  11
ATOM     11  C   UNL     1      10.492 -24.188 -36.611  1.00  0.00     0.000 C 
BRANCH  11  12
ATOM     12  C   UNL     1      10.047 -23.794 -38.032  1.00  0.00    -0.000 C 
BRANCH  12  13
ATOM     13  C   UNL     1      10.788 -22.561 -38.574  1.00  0.00    -0.000 C 
BRANCH  13  14
ATOM     14  C   UNL     1       9.902 -21.302 -38.632  1.00  0.00    -0.000 C 
BRANCH  14  15
ATOM     15  C   UNL     1      10.499 -20.040 -37.979  1.00  0.00    -0.000 C 
BRANCH  15  16
ATOM     16  C   UNL     1      11.767 -20.330 -37.156  1.00  0.00    -0.000 C 
BRANCH  16  17
ATOM     17  C   UNL     1      13.051 -19.915 -37.889  1.00  0.00    -0.003 C 
ATOM     18  C   UNL     1      12.884 -18.624 -38.691  1.00  0.00     0.004 C 
ENDBRANCH  16  17
ENDBRANCH  15  16
ENDBRANCH  14  15
ENDBRANCH  13  14
ENDBRANCH  12  13
ENDBRANCH  11  12
ENDBRANCH   1  11
TORSDOF 14
ENDMDL
MODEL 8
REMARK VINA RESULT:    -3.370      1.609      2.002
REMARK INTER + INTRA:          -8.553
REMARK INTER:                  -6.241
REMARK INTRA:                  -2.312
REMARK UNBOUND:                -2.425
REMARK SMILES CCCCCCCCCCCCCCCC(=O)[O-]
REMARK SMILES IDX 9 1 10 2 11 3 12 4 13 5 14 6 15 7 16 8 17 9 18 10 8 11 7 12
REMARK SMILES IDX 6 13 5 14 4 15 3 16 2 17 1 18
REMARK H PARENT
REMARK Flexibility Score: inf
ROOT
ATOM      1  C   UNL     1      11.087 -23.488 -37.221  1.00  0.00     0.000 C 
ENDROOT
BRANCH   1   2
ATOM      2  C   UNL     1      10.802 -22.697 -38.510  1.00  0.00     0.000 C 
BRANCH   2   3
ATOM      3  C   UNL     1      11.562 -21.361 -38.563  1.00  0.00     0.000 C 
BRANCH   3   4
ATOM      4  C   UNL     1      12.219 -20.996 -37.222  1.00  0.00     0.000 C 
BRANCH   4   5
ATOM      5  C   UNL     1      13.743 -20.871 -37.376  1.00  0.00     0.000 C 
BRANCH   5   6
ATOM      6  C   UNL     1      14.343 -21.973 -38.261  1.00  0.00     0.006 C 
BRANCH   6   7
ATOM      7  C   UNL     1      15.675 -21.560 -38.901  1.00  0.00     0.053 C 
BRANCH   7   8
ATOM      8  C   UNL     1      15.557 -21.550 -40.392  1.00  0.00     0.041 C 
ATOM      9  O   UNL     1      16.557 -21.272 -41.105  1.00  0.00    -0.550 OA
ATOM     10  O   UNL     1      14.330 -21.796 -40.994  1.00  0.00    -0.550 OA
ENDBRANCH   7   8
ENDBRANCH   6   7
ENDBRANCH   5   6
ENDBRANCH   4   5
ENDBRANCH   3   4
ENDBRANCH   2   3
ENDBRANCH   1   2
BRANCH   1  11
ATOM     11  C   UNL     1       9.860 -24.266 -36.710  1.00  0.00     0.000 C 
BRANCH  11  12
ATOM     12  C   UNL     1       9.457 -23.981 -35.250  1.00  0.00    -0.000 C 
BRANCH  12  13
ATOM     13  C   UNL     1       9.761 -22.538 -34.814  1.00  0.00    -0.000 C 
BRANCH  13  14
ATOM     14  C   UNL     1       8.553 -21.595 -34.966  1.00  0.00    -0.000 C 
BRANCH  14  15
ATOM     15  C   UNL     1       8.722 -20.463 -35.998  1.00  0.00    -0.000 C 
BRANCH  15  16
ATOM     16  C   UNL     1       7.756 -20.585 -37.190  1.00  0.00    -0.000 C 
BRANCH  16  17
ATOM     17  C   UNL     1       6.967 -21.904 -37.174  1.00  0.00    -0.003 C 
ATOM     18  C   UNL     1       7.052 -22.660 -38.500  1.00  0.00     0.004 C 
ENDBRANCH  16  17
ENDBRANCH  15  16
ENDBRANCH  14  15
ENDBRANCH  13  14
ENDBRANCH  12  13
ENDBRANCH  11  12
ENDBRANCH   1  11
TORSDOF 14
ENDMDL
MODEL 9
REMARK VINA RESULT:    -3.349     10.887     12.854
REMARK INTER + INTRA:          -8.515
REMARK INTER:                  -6.799
REMARK INTRA:                  -1.716
REMARK UNBOUND:                -2.425
REMARK SMILES CCCCCCCCCCCCCCCC(=O)[O-]
REMARK SMILES IDX 9 1 10 2 11 3 12 4 13 5 14 6 15 7 16 8 17 9 18 10 8 11 7 12
REMARK SMILES IDX 6 13 5 14 4 15 3 16 2 17 1 18
REMARK H PARENT
REMARK Flexibility Score: inf
ROOT
ATOM      1  C   UNL     1       7.567 -13.621 -46.741  1.00  0.00     0.000 C 
ENDROOT
BRANCH   1   2
ATOM      2  C   UNL     1       7.583 -14.993 -46.046  1.00  0.00     0.000 C 
BRANCH   2   3
ATOM      3  C   UNL     1       7.503 -14.880 -44.514  1.00  0.00     0.000 C 
BRANCH   3   4
ATOM      4  C   UNL     1       8.777 -15.378 -43.813  1.00  0.00     0.000 C 
BRANCH   4   5
ATOM      5  C   UNL     1       9.666 -14.199 -43.388  1.00  0.00     0.000 C 
BRANCH   5   6
ATOM      6  C   UNL     1      10.896 -14.027 -44.293  1.00  0.00     0.006 C 
BRANCH   6   7
ATOM      7  C   UNL     1      12.152 -13.619 -43.513  1.00  0.00     0.053 C 
BRANCH   7   8
ATOM      8  C   UNL     1      13.363 -13.716 -44.385  1.00  0.00     0.041 C 
ATOM      9  O   UNL     1      13.272 -13.501 -45.622  1.00  0.00    -0.550 OA
ATOM     10  O   UNL     1      14.584 -14.095 -43.839  1.00  0.00    -0.550 OA
ENDBRANCH   7   8
ENDBRANCH   6   7
ENDBRANCH   5   6
ENDBRANCH   4   5
ENDBRANCH   3   4
ENDBRANCH   2   3
ENDBRANCH   1   2
BRANCH   1  11
ATOM     11  C   UNL     1       7.163 -12.474 -45.796  1.00  0.00     0.000 C 
BRANCH  11  12
ATOM     12  C   UNL     1       7.774 -11.099 -46.127  1.00  0.00    -0.000 C 
BRANCH  12  13
ATOM     13  C   UNL     1       9.311 -11.097 -46.081  1.00  0.00    -0.000 C 
BRANCH  13  14
ATOM     14  C   UNL     1       9.875 -10.655 -44.718  1.00  0.00    -0.000 C 
BRANCH  14  15
ATOM     15  C   UNL     1      11.356 -10.229 -44.720  1.00  0.00    -0.000 C 
BRANCH  15  16
ATOM     16  C   UNL     1      11.574  -8.803 -44.182  1.00  0.00    -0.000 C 
BRANCH  16  17
ATOM     17  C   UNL     1      10.667  -8.484 -42.983  1.00  0.00    -0.003 C 
ATOM     18  C   UNL     1       9.685  -7.348 -43.270  1.00  0.00     0.004 C 
ENDBRANCH  16  17
ENDBRANCH  15  16
ENDBRANCH  14  15
ENDBRANCH  13  14
ENDBRANCH  12  13
ENDBRANCH  11  12
ENDBRANCH   1  11
TORSDOF 14
ENDMDL
