MODEL 1
REMARK VINA RESULT:    -3.474      0.000      0.000
REMARK INTER + INTRA:          -3.474
REMARK INTER:                  -3.474
REMARK INTRA:                   0.000
REMARK UNBOUND:                 0.000
REMARK SMILES C=C1CCC[C@]2(C)CC(=O)C(=C(C)C)C[C@H]12
REMARK SMILES IDX 13 1 12 2 11 3 15 4 16 5 2 6 1 7 3 8 4 9 5 10 6 11 8 12 9 13
REMARK SMILES IDX 10 14 7 15 14 16
REMARK H PARENT
REMARK Flexibility Score: inf
ROOT
ATOM      1  C   UNL     1      -1.066  -9.272 -15.873  1.00  0.00     0.039 C 
ATOM      2  C   UNL     1      -1.555  -8.057 -15.120  1.00  0.00    -0.070 C 
ATOM      3  C   UNL     1      -2.536  -7.254 -15.624  1.00  0.00    -0.006 C 
ATOM      4  C   UNL     1      -2.992  -5.979 -14.943  1.00  0.00     0.047 C 
ATOM      5  C   UNL     1      -2.876  -4.740 -15.875  1.00  0.00     0.025 C 
ATOM      6  C   UNL     1      -3.823  -3.663 -15.368  1.00  0.00    -0.073 C 
ATOM      7  C   UNL     1      -3.472  -2.876 -14.338  1.00  0.00     0.008 C 
ATOM      8  C   UNL     1      -5.210  -3.576 -15.959  1.00  0.00     0.031 C 
ATOM      9  C   UNL     1      -5.190  -3.531 -17.498  1.00  0.00     0.005 C 
ATOM     10  C   UNL     1      -3.826  -3.878 -18.121  1.00  0.00     0.008 C 
ATOM     11  C   UNL     1      -3.094  -5.055 -17.412  1.00  0.00    -0.018 C 
ATOM     12  C   UNL     1      -3.897  -6.373 -17.615  1.00  0.00     0.088 C 
ATOM     13  C   UNL     1      -3.239  -7.522 -16.906  1.00  0.00     0.159 C 
ATOM     14  O   UNL     1      -3.367  -8.687 -17.368  1.00  0.00    -0.295 OA
ATOM     15  C   UNL     1      -1.713  -5.205 -18.108  1.00  0.00     0.012 C 
ATOM     16  C   UNL     1      -0.883  -7.741 -13.804  1.00  0.00     0.039 C 
ENDROOT
TORSDOF 0
ENDMDL
MODEL 2
REMARK VINA RESULT:    -2.187      1.626      3.074
REMARK INTER + INTRA:          -2.187
REMARK INTER:                  -2.187
REMARK INTRA:                   0.000
REMARK UNBOUND:                 0.000
REMARK SMILES C=C1CCC[C@]2(C)CC(=O)C(=C(C)C)C[C@H]12
REMARK SMILES IDX 13 1 12 2 11 3 15 4 16 5 2 6 1 7 3 8 4 9 5 10 6 11 8 12 9 13
REMARK SMILES IDX 10 14 7 15 14 16
REMARK H PARENT
REMARK Flexibility Score: inf
ROOT
ATOM      1  C   UNL     1      -2.858  -9.855 -17.841  1.00  0.00     0.039 C 
ATOM      2  C   UNL     1      -3.732  -8.625 -17.892  1.00  0.00    -0.070 C 
ATOM      3  C   UNL     1      -3.218  -7.376 -17.699  1.00  0.00    -0.006 C 
ATOM      4  C   UNL     1      -4.075  -6.126 -17.655  1.00  0.00     0.047 C 
ATOM      5  C   UNL     1      -3.883  -5.328 -16.335  1.00  0.00     0.025 C 
ATOM      6  C   UNL     1      -4.301  -3.885 -16.577  1.00  0.00    -0.073 C 
ATOM      7  C   UNL     1      -5.599  -3.539 -16.555  1.00  0.00     0.008 C 
ATOM      8  C   UNL     1      -3.248  -2.876 -16.964  1.00  0.00     0.031 C 
ATOM      9  C   UNL     1      -2.045  -2.885 -16.003  1.00  0.00     0.005 C 
ATOM     10  C   UNL     1      -2.013  -4.090 -15.045  1.00  0.00     0.008 C 
ATOM     11  C   UNL     1      -2.430  -5.433 -15.712  1.00  0.00    -0.018 C 
ATOM     12  C   UNL     1      -1.378  -5.836 -16.786  1.00  0.00     0.088 C 
ATOM     13  C   UNL     1      -1.773  -7.108 -17.480  1.00  0.00     0.159 C 
ATOM     14  O   UNL     1      -0.876  -7.871 -17.928  1.00  0.00    -0.295 OA
ATOM     15  C   UNL     1      -2.427  -6.508 -14.590  1.00  0.00     0.012 C 
ATOM     16  C   UNL     1      -5.211  -8.835 -18.122  1.00  0.00     0.039 C 
ENDROOT
TORSDOF 0
ENDMDL
MODEL 3
REMARK VINA RESULT:    -2.013      1.690      4.683
REMARK INTER + INTRA:          -2.013
REMARK INTER:                  -2.013
REMARK INTRA:                   0.000
REMARK UNBOUND:                 0.000
REMARK SMILES C=C1CCC[C@]2(C)CC(=O)C(=C(C)C)C[C@H]12
REMARK SMILES IDX 13 1 12 2 11 3 15 4 16 5 2 6 1 7 3 8 4 9 5 10 6 11 8 12 9 13
REMARK SMILES IDX 10 14 7 15 14 16
REMARK H PARENT
REMARK Flexibility Score: inf
ROOT
ATOM      1  C   UNL     1      -3.720  -2.897 -15.561  1.00  0.00     0.039 C 
ATOM      2  C   UNL     1      -2.865  -4.046 -15.081  1.00  0.00    -0.070 C 
ATOM      3  C   UNL     1      -2.531  -5.080 -15.905  1.00  0.00    -0.006 C 
ATOM      4  C   UNL     1      -1.750  -6.292 -15.438  1.00  0.00     0.047 C 
ATOM      5  C   UNL     1      -2.506  -7.622 -15.714  1.00  0.00     0.025 C 
ATOM      6  C   UNL     1      -1.493  -8.756 -15.747  1.00  0.00    -0.073 C 
ATOM      7  C   UNL     1      -1.036  -9.296 -14.605  1.00  0.00     0.008 C 
ATOM      8  C   UNL     1      -0.918  -9.181 -17.077  1.00  0.00     0.031 C 
ATOM      9  C   UNL     1      -2.010  -9.464 -18.125  1.00  0.00     0.005 C 
ATOM     10  C   UNL     1      -3.415  -8.982 -17.718  1.00  0.00     0.008 C 
ATOM     11  C   UNL     1      -3.421  -7.598 -17.007  1.00  0.00    -0.018 C 
ATOM     12  C   UNL     1      -2.968  -6.492 -18.005  1.00  0.00     0.088 C 
ATOM     13  C   UNL     1      -2.922  -5.148 -17.338  1.00  0.00     0.159 C 
ATOM     14  O   UNL     1      -3.134  -4.111 -18.022  1.00  0.00    -0.295 OA
ATOM     15  C   UNL     1      -4.892  -7.316 -16.592  1.00  0.00     0.012 C 
ATOM     16  C   UNL     1      -2.428  -4.026 -13.634  1.00  0.00     0.039 C 
ENDROOT
TORSDOF 0
ENDMDL
MODEL 4
REMARK VINA RESULT:    -0.817      1.993      4.794
REMARK INTER + INTRA:          -0.817
REMARK INTER:                  -0.817
REMARK INTRA:                   0.000
REMARK UNBOUND:                 0.000
REMARK SMILES C=C1CCC[C@]2(C)CC(=O)C(=C(C)C)C[C@H]12
REMARK SMILES IDX 13 1 12 2 11 3 15 4 16 5 2 6 1 7 3 8 4 9 5 10 6 11 8 12 9 13
REMARK SMILES IDX 10 14 7 15 14 16
REMARK H PARENT
REMARK Flexibility Score: inf
ROOT
ATOM      1  C   UNL     1      -3.050  -2.925 -14.573  1.00  0.00     0.039 C 
ATOM      2  C   UNL     1      -3.805  -4.113 -15.122  1.00  0.00    -0.070 C 
ATOM      3  C   UNL     1      -3.183  -5.301 -15.370  1.00  0.00    -0.006 C 
ATOM      4  C   UNL     1      -3.885  -6.487 -16.002  1.00  0.00     0.047 C 
ATOM      5  C   UNL     1      -3.166  -6.978 -17.290  1.00  0.00     0.025 C 
ATOM      6  C   UNL     1      -3.558  -8.426 -17.540  1.00  0.00    -0.073 C 
ATOM      7  C   UNL     1      -4.730  -8.724 -18.125  1.00  0.00     0.008 C 
ATOM      8  C   UNL     1      -2.667  -9.524 -17.010  1.00  0.00     0.031 C 
ATOM      9  C   UNL     1      -1.195  -9.335 -17.419  1.00  0.00     0.005 C 
ATOM     10  C   UNL     1      -0.879  -7.949 -18.011  1.00  0.00     0.008 C 
ATOM     11  C   UNL     1      -1.594  -6.776 -17.279  1.00  0.00    -0.018 C 
ATOM     12  C   UNL     1      -1.046  -6.650 -15.827  1.00  0.00     0.088 C 
ATOM     13  C   UNL     1      -1.747  -5.553 -15.078  1.00  0.00     0.159 C 
ATOM     14  O   UNL     1      -1.131  -4.932 -14.172  1.00  0.00    -0.295 OA
ATOM     15  C   UNL     1      -1.236  -5.480 -18.057  1.00  0.00     0.012 C 
ATOM     16  C   UNL     1      -5.272  -3.919 -15.428  1.00  0.00     0.039 C 
ENDROOT
TORSDOF 0
ENDMDL
