MODEL 1
REMARK VINA RESULT:    -3.535      0.000      0.000
REMARK INTER + INTRA:          -7.964
REMARK INTER:                  -6.015
REMARK INTRA:                  -1.949
REMARK UNBOUND:                -1.949
REMARK SMILES CCCCCCCCCCCCCC(=O)[O-]
REMARK SMILES IDX 8 1 9 2 10 3 11 4 12 5 13 6 14 7 15 8 16 9 7 10 6 11 5 12
REMARK SMILES IDX 4 13 3 14 2 15 1 16
REMARK H PARENT
REMARK Flexibility Score: inf
ROOT
ATOM      1  C   UNL     1      25.125 -13.910   2.578  1.00  0.00     0.000 C 
ENDROOT
BRANCH   1   2
ATOM      2  C   UNL     1      25.226 -14.478   4.010  1.00  0.00     0.000 C 
BRANCH   2   3
ATOM      3  C   UNL     1      24.288 -13.784   5.017  1.00  0.00     0.000 C 
BRANCH   3   4
ATOM      4  C   UNL     1      23.402 -14.738   5.841  1.00  0.00     0.000 C 
BRANCH   4   5
ATOM      5  C   UNL     1      21.888 -14.452   5.764  1.00  0.00     0.006 C 
BRANCH   5   6
ATOM      6  C   UNL     1      21.047 -15.175   6.829  1.00  0.00     0.053 C 
BRANCH   6   7
ATOM      7  C   UNL     1      21.361 -14.697   8.214  1.00  0.00     0.041 C 
ATOM      8  O   UNL     1      21.739 -15.512   9.096  1.00  0.00    -0.550 OA
ATOM      9  O   UNL     1      21.201 -13.356   8.540  1.00  0.00    -0.550 OA
ENDBRANCH   6   7
ENDBRANCH   5   6
ENDBRANCH   4   5
ENDBRANCH   3   4
ENDBRANCH   2   3
ENDBRANCH   1   2
BRANCH   1  10
ATOM     10  C   UNL     1      24.152 -12.722   2.486  1.00  0.00     0.000 C 
BRANCH  10  11
ATOM     11  C   UNL     1      22.969 -12.986   1.538  1.00  0.00    -0.000 C 
BRANCH  11  12
ATOM     12  C   UNL     1      21.856 -13.877   2.118  1.00  0.00    -0.000 C 
BRANCH  12  13
ATOM     13  C   UNL     1      21.835 -15.286   1.505  1.00  0.00    -0.000 C 
BRANCH  13  14
ATOM     14  C   UNL     1      21.845 -16.362   2.601  1.00  0.00    -0.000 C 
BRANCH  14  15
ATOM     15  C   UNL     1      22.907 -17.446   2.356  1.00  0.00    -0.003 C 
ATOM     16  C   UNL     1      23.749 -17.737   3.598  1.00  0.00     0.004 C 
ENDBRANCH  14  15
ENDBRANCH  13  14
ENDBRANCH  12  13
ENDBRANCH  11  12
ENDBRANCH  10  11
ENDBRANCH   1  10
TORSDOF 12
ENDMDL
MODEL 2
REMARK VINA RESULT:    -3.497      1.634      4.097
REMARK INTER + INTRA:          -7.899
REMARK INTER:                  -6.929
REMARK INTRA:                  -0.969
REMARK UNBOUND:                -1.949
REMARK SMILES CCCCCCCCCCCCCC(=O)[O-]
REMARK SMILES IDX 8 1 9 2 10 3 11 4 12 5 13 6 14 7 15 8 16 9 7 10 6 11 5 12
REMARK SMILES IDX 4 13 3 14 2 15 1 16
REMARK H PARENT
REMARK Flexibility Score: inf
ROOT
ATOM      1  C   UNL     1      21.838 -15.690   1.672  1.00  0.00     0.000 C 
ENDROOT
BRANCH   1   2
ATOM      2  C   UNL     1      21.507 -15.948   3.158  1.00  0.00     0.000 C 
BRANCH   2   3
ATOM      3  C   UNL     1      22.714 -16.432   3.985  1.00  0.00     0.000 C 
BRANCH   3   4
ATOM      4  C   UNL     1      23.020 -15.592   5.239  1.00  0.00     0.000 C 
BRANCH   4   5
ATOM      5  C   UNL     1      21.899 -14.619   5.663  1.00  0.00     0.006 C 
BRANCH   5   6
ATOM      6  C   UNL     1      21.038 -15.110   6.838  1.00  0.00     0.053 C 
BRANCH   6   7
ATOM      7  C   UNL     1      21.483 -14.528   8.144  1.00  0.00     0.041 C 
ATOM      8  O   UNL     1      21.748 -15.281   9.117  1.00  0.00    -0.550 OA
ATOM      9  O   UNL     1      21.571 -13.150   8.297  1.00  0.00    -0.550 OA
ENDBRANCH   6   7
ENDBRANCH   5   6
ENDBRANCH   4   5
ENDBRANCH   3   4
ENDBRANCH   2   3
ENDBRANCH   1   2
BRANCH   1  10
ATOM     10  C   UNL     1      21.768 -14.198   1.307  1.00  0.00     0.000 C 
BRANCH  10  11
ATOM     11  C   UNL     1      23.155 -13.558   1.121  1.00  0.00    -0.000 C 
BRANCH  11  12
ATOM     12  C   UNL     1      23.691 -12.800   2.349  1.00  0.00    -0.000 C 
BRANCH  12  13
ATOM     13  C   UNL     1      24.706 -11.706   1.982  1.00  0.00    -0.000 C 
BRANCH  13  14
ATOM     14  C   UNL     1      24.041 -10.594   1.157  1.00  0.00    -0.000 C 
BRANCH  14  15
ATOM     15  C   UNL     1      24.661  -9.213   1.418  1.00  0.00    -0.003 C 
ATOM     16  C   UNL     1      25.384  -9.135   2.762  1.00  0.00     0.004 C 
ENDBRANCH  14  15
ENDBRANCH  13  14
ENDBRANCH  12  13
ENDBRANCH  11  12
ENDBRANCH  10  11
ENDBRANCH   1  10
TORSDOF 12
ENDMDL
MODEL 3
REMARK VINA RESULT:    -3.497      1.267      2.439
REMARK INTER + INTRA:          -7.898
REMARK INTER:                  -6.072
REMARK INTRA:                  -1.826
REMARK UNBOUND:                -1.949
REMARK SMILES CCCCCCCCCCCCCC(=O)[O-]
REMARK SMILES IDX 8 1 9 2 10 3 11 4 12 5 13 6 14 7 15 8 16 9 7 10 6 11 5 12
REMARK SMILES IDX 4 13 3 14 2 15 1 16
REMARK H PARENT
REMARK Flexibility Score: inf
ROOT
ATOM      1  C   UNL     1      24.861 -16.266   4.675  1.00  0.00     0.000 C 
ENDROOT
BRANCH   1   2
ATOM      2  C   UNL     1      23.772 -16.158   5.763  1.00  0.00     0.000 C 
BRANCH   2   3
ATOM      3  C   UNL     1      22.545 -17.052   5.501  1.00  0.00     0.000 C 
BRANCH   3   4
ATOM      4  C   UNL     1      21.183 -16.357   5.690  1.00  0.00     0.000 C 
BRANCH   4   5
ATOM      5  C   UNL     1      21.259 -14.899   6.192  1.00  0.00     0.006 C 
BRANCH   5   6
ATOM      6  C   UNL     1      21.379 -14.755   7.718  1.00  0.00     0.053 C 
BRANCH   6   7
ATOM      7  C   UNL     1      21.789 -13.372   8.122  1.00  0.00     0.041 C 
ATOM      8  O   UNL     1      22.950 -12.956   7.868  1.00  0.00    -0.550 OA
ATOM      9  O   UNL     1      20.901 -12.556   8.810  1.00  0.00    -0.550 OA
ENDBRANCH   6   7
ENDBRANCH   5   6
ENDBRANCH   4   5
ENDBRANCH   3   4
ENDBRANCH   2   3
ENDBRANCH   1   2
BRANCH   1  10
ATOM     10  C   UNL     1      25.260 -14.893   4.106  1.00  0.00     0.000 C 
BRANCH  10  11
ATOM     11  C   UNL     1      24.071 -13.925   3.984  1.00  0.00    -0.000 C 
BRANCH  11  12
ATOM     12  C   UNL     1      23.998 -13.148   2.657  1.00  0.00    -0.000 C 
BRANCH  12  13
ATOM     13  C   UNL     1      22.763 -13.508   1.818  1.00  0.00    -0.000 C 
BRANCH  13  14
ATOM     14  C   UNL     1      21.800 -14.403   2.614  1.00  0.00    -0.000 C 
BRANCH  14  15
ATOM     15  C   UNL     1      21.443 -15.698   1.867  1.00  0.00    -0.003 C 
ATOM     16  C   UNL     1      22.643 -16.628   1.691  1.00  0.00     0.004 C 
ENDBRANCH  14  15
ENDBRANCH  13  14
ENDBRANCH  12  13
ENDBRANCH  11  12
ENDBRANCH  10  11
ENDBRANCH   1  10
TORSDOF 12
ENDMDL
MODEL 4
REMARK VINA RESULT:    -3.471     13.508     15.265
REMARK INTER + INTRA:          -7.854
REMARK INTER:                  -6.010
REMARK INTRA:                  -1.843
REMARK UNBOUND:                -1.949
REMARK SMILES CCCCCCCCCCCCCC(=O)[O-]
REMARK SMILES IDX 8 1 9 2 10 3 11 4 12 5 13 6 14 7 15 8 16 9 7 10 6 11 5 12
REMARK SMILES IDX 4 13 3 14 2 15 1 16
REMARK H PARENT
REMARK Flexibility Score: inf
ROOT
ATOM      1  C   UNL     1      28.717  -0.422  12.462  1.00  0.00     0.000 C 
ENDROOT
BRANCH   1   2
ATOM      2  C   UNL     1      28.651   0.244  11.071  1.00  0.00     0.000 C 
BRANCH   2   3
ATOM      3  C   UNL     1      27.248   0.206  10.434  1.00  0.00     0.000 C 
BRANCH   3   4
ATOM      4  C   UNL     1      26.151  -0.416  11.318  1.00  0.00     0.000 C 
BRANCH   4   5
ATOM      5  C   UNL     1      24.810  -0.686  10.602  1.00  0.00     0.006 C 
BRANCH   5   6
ATOM      6  C   UNL     1      24.405  -2.167  10.543  1.00  0.00     0.053 C 
BRANCH   6   7
ATOM      7  C   UNL     1      23.094  -2.365   9.844  1.00  0.00     0.041 C 
ATOM      8  O   UNL     1      22.674  -3.526   9.602  1.00  0.00    -0.550 OA
ATOM      9  O   UNL     1      22.355  -1.264   9.429  1.00  0.00    -0.550 OA
ENDBRANCH   6   7
ENDBRANCH   5   6
ENDBRANCH   4   5
ENDBRANCH   3   4
ENDBRANCH   2   3
ENDBRANCH   1   2
BRANCH   1  10
ATOM     10  C   UNL     1      29.611  -1.674  12.470  1.00  0.00     0.000 C 
BRANCH  10  11
ATOM     11  C   UNL     1      28.952  -2.888  11.794  1.00  0.00    -0.000 C 
BRANCH  11  12
ATOM     12  C   UNL     1      29.729  -3.469  10.598  1.00  0.00    -0.000 C 
BRANCH  12  13
ATOM     13  C   UNL     1      29.202  -2.973   9.243  1.00  0.00    -0.000 C 
BRANCH  13  14
ATOM     14  C   UNL     1      27.681  -3.162   9.143  1.00  0.00    -0.000 C 
BRANCH  14  15
ATOM     15  C   UNL     1      27.108  -2.648   7.812  1.00  0.00    -0.003 C 
ATOM     16  C   UNL     1      27.919  -1.492   7.228  1.00  0.00     0.004 C 
ENDBRANCH  14  15
ENDBRANCH  13  14
ENDBRANCH  12  13
ENDBRANCH  11  12
ENDBRANCH  10  11
ENDBRANCH   1  10
TORSDOF 12
ENDMDL
MODEL 5
REMARK VINA RESULT:    -3.465      1.096      3.205
REMARK INTER + INTRA:          -7.845
REMARK INTER:                  -6.074
REMARK INTRA:                  -1.771
REMARK UNBOUND:                -1.949
REMARK SMILES CCCCCCCCCCCCCC(=O)[O-]
REMARK SMILES IDX 8 1 9 2 10 3 11 4 12 5 13 6 14 7 15 8 16 9 7 10 6 11 5 12
REMARK SMILES IDX 4 13 3 14 2 15 1 16
REMARK H PARENT
REMARK Flexibility Score: inf
ROOT
ATOM      1  C   UNL     1      21.522 -15.353   1.356  1.00  0.00     0.000 C 
ENDROOT
BRANCH   1   2
ATOM      2  C   UNL     1      21.594 -16.176   2.660  1.00  0.00     0.000 C 
BRANCH   2   3
ATOM      3  C   UNL     1      21.910 -15.329   3.908  1.00  0.00     0.000 C 
BRANCH   3   4
ATOM      4  C   UNL     1      22.939 -15.951   4.871  1.00  0.00     0.000 C 
BRANCH   4   5
ATOM      5  C   UNL     1      22.920 -15.381   6.305  1.00  0.00     0.006 C 
BRANCH   5   6
ATOM      6  C   UNL     1      21.762 -14.411   6.591  1.00  0.00     0.053 C 
BRANCH   6   7
ATOM      7  C   UNL     1      21.758 -13.943   8.014  1.00  0.00     0.041 C 
ATOM      8  O   UNL     1      21.512 -14.753   8.946  1.00  0.00    -0.550 OA
ATOM      9  O   UNL     1      21.989 -12.606   8.308  1.00  0.00    -0.550 OA
ENDBRANCH   6   7
ENDBRANCH   5   6
ENDBRANCH   4   5
ENDBRANCH   3   4
ENDBRANCH   2   3
ENDBRANCH   1   2
BRANCH   1  10
ATOM     10  C   UNL     1      21.597 -13.839   1.613  1.00  0.00     0.000 C 
BRANCH  10  11
ATOM     11  C   UNL     1      22.764 -13.160   0.875  1.00  0.00    -0.000 C 
BRANCH  11  12
ATOM     12  C   UNL     1      23.925 -12.701   1.775  1.00  0.00    -0.000 C 
BRANCH  12  13
ATOM     13  C   UNL     1      24.947 -13.814   2.049  1.00  0.00    -0.000 C 
BRANCH  13  14
ATOM     14  C   UNL     1      25.467 -13.739   3.492  1.00  0.00    -0.000 C 
BRANCH  14  15
ATOM     15  C   UNL     1      24.804 -12.614   4.302  1.00  0.00    -0.003 C 
ATOM     16  C   UNL     1      25.265 -12.585   5.759  1.00  0.00     0.004 C 
ENDBRANCH  14  15
ENDBRANCH  13  14
ENDBRANCH  12  13
ENDBRANCH  11  12
ENDBRANCH  10  11
ENDBRANCH   1  10
TORSDOF 12
ENDMDL
MODEL 6
REMARK VINA RESULT:    -3.418      1.107      2.845
REMARK INTER + INTRA:          -7.764
REMARK INTER:                  -6.009
REMARK INTRA:                  -1.754
REMARK UNBOUND:                -1.949
REMARK SMILES CCCCCCCCCCCCCC(=O)[O-]
REMARK SMILES IDX 8 1 9 2 10 3 11 4 12 5 13 6 14 7 15 8 16 9 7 10 6 11 5 12
REMARK SMILES IDX 4 13 3 14 2 15 1 16
REMARK H PARENT
REMARK Flexibility Score: inf
ROOT
ATOM      1  C   UNL     1      21.467 -15.133   1.402  1.00  0.00     0.000 C 
ENDROOT
BRANCH   1   2
ATOM      2  C   UNL     1      21.837 -16.186   2.469  1.00  0.00     0.000 C 
BRANCH   2   3
ATOM      3  C   UNL     1      21.694 -15.677   3.916  1.00  0.00     0.000 C 
BRANCH   3   4
ATOM      4  C   UNL     1      22.923 -15.916   4.812  1.00  0.00     0.000 C 
BRANCH   4   5
ATOM      5  C   UNL     1      22.860 -15.245   6.201  1.00  0.00     0.006 C 
BRANCH   5   6
ATOM      6  C   UNL     1      21.584 -14.427   6.457  1.00  0.00     0.053 C 
BRANCH   6   7
ATOM      7  C   UNL     1      21.446 -14.035   7.896  1.00  0.00     0.041 C 
ATOM      8  O   UNL     1      21.497 -14.911   8.799  1.00  0.00    -0.550 OA
ATOM      9  O   UNL     1      21.224 -12.707   8.238  1.00  0.00    -0.550 OA
ENDBRANCH   6   7
ENDBRANCH   5   6
ENDBRANCH   4   5
ENDBRANCH   3   4
ENDBRANCH   2   3
ENDBRANCH   1   2
BRANCH   1  10
ATOM     10  C   UNL     1      21.829 -13.704   1.840  1.00  0.00     0.000 C 
BRANCH  10  11
ATOM     11  C   UNL     1      22.869 -13.038   0.921  1.00  0.00    -0.000 C 
BRANCH  11  12
ATOM     12  C   UNL     1      24.024 -12.329   1.651  1.00  0.00    -0.000 C 
BRANCH  12  13
ATOM     13  C   UNL     1      24.179 -12.782   3.110  1.00  0.00    -0.000 C 
BRANCH  13  14
ATOM     14  C   UNL     1      25.468 -13.595   3.299  1.00  0.00    -0.000 C 
BRANCH  14  15
ATOM     15  C   UNL     1      25.894 -14.334   2.020  1.00  0.00    -0.003 C 
ATOM     16  C   UNL     1      25.401 -15.780   1.982  1.00  0.00     0.004 C 
ENDBRANCH  14  15
ENDBRANCH  13  14
ENDBRANCH  12  13
ENDBRANCH  11  12
ENDBRANCH  10  11
ENDBRANCH   1  10
TORSDOF 12
ENDMDL
MODEL 7
REMARK VINA RESULT:    -3.416     13.758     15.683
REMARK INTER + INTRA:          -7.760
REMARK INTER:                  -5.989
REMARK INTRA:                  -1.771
REMARK UNBOUND:                -1.949
REMARK SMILES CCCCCCCCCCCCCC(=O)[O-]
REMARK SMILES IDX 8 1 9 2 10 3 11 4 12 5 13 6 14 7 15 8 16 9 7 10 6 11 5 12
REMARK SMILES IDX 4 13 3 14 2 15 1 16
REMARK H PARENT
REMARK Flexibility Score: inf
ROOT
ATOM      1  C   UNL     1      27.543  -2.425   8.887  1.00  0.00     0.000 C 
ENDROOT
BRANCH   1   2
ATOM      2  C   UNL     1      27.194  -1.045   8.290  1.00  0.00     0.000 C 
BRANCH   2   3
ATOM      3  C   UNL     1      25.992  -0.363   8.971  1.00  0.00     0.000 C 
BRANCH   3   4
ATOM      4  C   UNL     1      25.871  -0.624  10.485  1.00  0.00     0.000 C 
BRANCH   4   5
ATOM      5  C   UNL     1      24.516  -1.206  10.941  1.00  0.00     0.006 C 
BRANCH   5   6
ATOM      6  C   UNL     1      24.277  -2.667  10.526  1.00  0.00     0.053 C 
BRANCH   6   7
ATOM      7  C   UNL     1      22.994  -2.835   9.771  1.00  0.00     0.041 C 
ATOM      8  O   UNL     1      22.629  -3.977   9.388  1.00  0.00    -0.550 OA
ATOM      9  O   UNL     1      22.219  -1.725   9.460  1.00  0.00    -0.550 OA
ENDBRANCH   6   7
ENDBRANCH   5   6
ENDBRANCH   4   5
ENDBRANCH   3   4
ENDBRANCH   2   3
ENDBRANCH   1   2
BRANCH   1  10
ATOM     10  C   UNL     1      29.044  -2.567   9.195  1.00  0.00     0.000 C 
BRANCH  10  11
ATOM     11  C   UNL     1      29.320  -3.332  10.501  1.00  0.00    -0.000 C 
BRANCH  11  12
ATOM     12  C   UNL     1      28.679  -2.723  11.760  1.00  0.00    -0.000 C 
BRANCH  12  13
ATOM     13  C   UNL     1      29.597  -1.719  12.474  1.00  0.00    -0.000 C 
BRANCH  13  14
ATOM     14  C   UNL     1      28.962  -0.321  12.507  1.00  0.00    -0.000 C 
BRANCH  14  15
ATOM     15  C   UNL     1      29.798   0.726  11.754  1.00  0.00    -0.003 C 
ATOM     16  C   UNL     1      29.105   1.239  10.493  1.00  0.00     0.004 C 
ENDBRANCH  14  15
ENDBRANCH  13  14
ENDBRANCH  12  13
ENDBRANCH  11  12
ENDBRANCH  10  11
ENDBRANCH   1  10
TORSDOF 12
ENDMDL
MODEL 8
REMARK VINA RESULT:    -3.373      2.125      4.372
REMARK INTER + INTRA:          -7.688
REMARK INTER:                  -6.150
REMARK INTRA:                  -1.537
REMARK UNBOUND:                -1.949
REMARK SMILES CCCCCCCCCCCCCC(=O)[O-]
REMARK SMILES IDX 8 1 9 2 10 3 11 4 12 5 13 6 14 7 15 8 16 9 7 10 6 11 5 12
REMARK SMILES IDX 4 13 3 14 2 15 1 16
REMARK H PARENT
REMARK Flexibility Score: inf
ROOT
ATOM      1  C   UNL     1      21.805 -13.702   1.332  1.00  0.00     0.000 C 
ENDROOT
BRANCH   1   2
ATOM      2  C   UNL     1      23.113 -12.883   1.360  1.00  0.00     0.000 C 
BRANCH   2   3
ATOM      3  C   UNL     1      24.386 -13.751   1.366  1.00  0.00     0.000 C 
BRANCH   3   4
ATOM      4  C   UNL     1      25.264 -13.606   2.623  1.00  0.00     0.000 C 
BRANCH   4   5
ATOM      5  C   UNL     1      24.641 -12.771   3.762  1.00  0.00     0.006 C 
BRANCH   5   6
ATOM      6  C   UNL     1      25.072 -13.197   5.175  1.00  0.00     0.053 C 
BRANCH   6   7
ATOM      7  C   UNL     1      25.323 -12.019   6.066  1.00  0.00     0.041 C 
ATOM      8  O   UNL     1      25.168 -12.123   7.311  1.00  0.00    -0.550 OA
ATOM      9  O   UNL     1      25.692 -10.798   5.517  1.00  0.00    -0.550 OA
ENDBRANCH   6   7
ENDBRANCH   5   6
ENDBRANCH   4   5
ENDBRANCH   3   4
ENDBRANCH   2   3
ENDBRANCH   1   2
BRANCH   1  10
ATOM     10  C   UNL     1      22.061 -15.218   1.379  1.00  0.00     0.000 C 
BRANCH  10  11
ATOM     11  C   UNL     1      21.441 -15.895   2.613  1.00  0.00    -0.000 C 
BRANCH  11  12
ATOM     12  C   UNL     1      22.352 -15.951   3.852  1.00  0.00    -0.000 C 
BRANCH  12  13
ATOM     13  C   UNL     1      21.910 -14.989   4.966  1.00  0.00    -0.000 C 
BRANCH  13  14
ATOM     14  C   UNL     1      21.181 -15.745   6.087  1.00  0.00    -0.000 C 
BRANCH  14  15
ATOM     15  C   UNL     1      21.602 -15.276   7.488  1.00  0.00    -0.003 C 
ATOM     16  C   UNL     1      21.910 -13.780   7.542  1.00  0.00     0.004 C 
ENDBRANCH  14  15
ENDBRANCH  13  14
ENDBRANCH  12  13
ENDBRANCH  11  12
ENDBRANCH  10  11
ENDBRANCH   1  10
TORSDOF 12
ENDMDL
MODEL 9
REMARK VINA RESULT:    -3.328      1.293      3.688
REMARK INTER + INTRA:          -7.611
REMARK INTER:                  -6.235
REMARK INTRA:                  -1.376
REMARK UNBOUND:                -1.949
REMARK SMILES CCCCCCCCCCCCCC(=O)[O-]
REMARK SMILES IDX 8 1 9 2 10 3 11 4 12 5 13 6 14 7 15 8 16 9 7 10 6 11 5 12
REMARK SMILES IDX 4 13 3 14 2 15 1 16
REMARK H PARENT
REMARK Flexibility Score: inf
ROOT
ATOM      1  C   UNL     1      21.842 -13.832   1.480  1.00  0.00     0.000 C 
ENDROOT
BRANCH   1   2
ATOM      2  C   UNL     1      21.638 -15.356   1.616  1.00  0.00     0.000 C 
BRANCH   2   3
ATOM      3  C   UNL     1      21.732 -15.865   3.067  1.00  0.00     0.000 C 
BRANCH   3   4
ATOM      4  C   UNL     1      21.874 -14.761   4.133  1.00  0.00     0.000 C 
BRANCH   4   5
ATOM      5  C   UNL     1      22.470 -15.226   5.479  1.00  0.00     0.006 C 
BRANCH   5   6
ATOM      6  C   UNL     1      22.024 -14.397   6.695  1.00  0.00     0.053 C 
BRANCH   6   7
ATOM      7  C   UNL     1      21.871 -15.239   7.924  1.00  0.00     0.041 C 
ATOM      8  O   UNL     1      21.584 -14.704   9.027  1.00  0.00    -0.550 OA
ATOM      9  O   UNL     1      22.079 -16.611   7.858  1.00  0.00    -0.550 OA
ENDBRANCH   6   7
ENDBRANCH   5   6
ENDBRANCH   4   5
ENDBRANCH   3   4
ENDBRANCH   2   3
ENDBRANCH   1   2
BRANCH   1  10
ATOM     10  C   UNL     1      23.300 -13.463   1.157  1.00  0.00     0.000 C 
BRANCH  10  11
ATOM     11  C   UNL     1      23.698 -12.071   1.680  1.00  0.00    -0.000 C 
BRANCH  11  12
ATOM     12  C   UNL     1      24.620 -12.077   2.912  1.00  0.00    -0.000 C 
BRANCH  12  13
ATOM     13  C   UNL     1      25.081 -13.488   3.309  1.00  0.00    -0.000 C 
BRANCH  13  14
ATOM     14  C   UNL     1      25.838 -13.462   4.645  1.00  0.00    -0.000 C 
BRANCH  14  15
ATOM     15  C   UNL     1      25.096 -12.668   5.731  1.00  0.00    -0.003 C 
ATOM     16  C   UNL     1      25.991 -11.647   6.432  1.00  0.00     0.004 C 
ENDBRANCH  14  15
ENDBRANCH  13  14
ENDBRANCH  12  13
ENDBRANCH  11  12
ENDBRANCH  10  11
ENDBRANCH   1  10
TORSDOF 12
ENDMDL
