MODEL 1
REMARK VINA RESULT:    -3.395      0.000      0.000
REMARK INTER + INTRA:          -5.545
REMARK INTER:                  -4.884
REMARK INTRA:                  -0.661
REMARK UNBOUND:                -0.661
REMARK SMILES O=C(CO)[C@H](O)[C@H](O)[C@@H](O)CO
REMARK SMILES IDX 7 1 9 2 11 3 12 4 10 6 5 8 2 9 1 10 3 11 4 12 6 14 8 16
REMARK H PARENT 12 5 10 7 4 13 6 15 8 17
REMARK Flexibility Score: inf
ROOT
ATOM      1  C   UNL     1     -45.250 -27.803  -4.196  1.00  0.00     0.181 C 
ENDROOT
BRANCH   1   2
ATOM      2  C   UNL     1     -46.263 -27.719  -5.376  1.00  0.00     0.171 C 
BRANCH   2   3
ATOM      3  C   UNL     1     -45.602 -27.571  -6.754  1.00  0.00     0.190 C 
BRANCH   3   4
ATOM      4  O   UNL     1     -44.875 -26.375  -6.827  1.00  0.00    -0.394 OA
ATOM      5  H   UNL     1     -45.542 -25.656  -6.983  1.00  0.00     0.210 HD
ENDBRANCH   3   4
ENDBRANCH   2   3
BRANCH   2   6
ATOM      6  O   UNL     1     -47.118 -26.621  -5.180  1.00  0.00    -0.388 OA
ATOM      7  H   UNL     1     -47.949 -26.800  -5.691  1.00  0.00     0.211 HD
ENDBRANCH   2   6
ENDBRANCH   1   2
BRANCH   1   8
ATOM      8  C   UNL     1     -45.788 -28.596  -2.969  1.00  0.00     0.214 C 
BRANCH   8   9
ATOM      9  C   UNL     1     -45.488 -27.875  -1.669  1.00  0.00     0.189 C 
ATOM     10  O   UNL     1     -46.365 -27.220  -1.125  1.00  0.00    -0.294 OA
BRANCH   9  11
ATOM     11  C   UNL     1     -44.130 -27.954  -1.026  1.00  0.00     0.234 C 
BRANCH  11  12
ATOM     12  O   UNL     1     -43.435 -26.753  -1.219  1.00  0.00    -0.388 OA
ATOM     13  H   UNL     1     -42.530 -26.999  -1.547  1.00  0.00     0.211 HD
ENDBRANCH  11  12
ENDBRANCH   9  11
ENDBRANCH   8   9
BRANCH   8  14
ATOM     14  O   UNL     1     -45.256 -29.896  -2.913  1.00  0.00    -0.382 OA
ATOM     15  H   UNL     1     -44.541 -29.904  -2.223  1.00  0.00     0.211 HD
ENDBRANCH   8  14
ENDBRANCH   1   8
BRANCH   1  16
ATOM     16  O   UNL     1     -44.882 -26.501  -3.807  1.00  0.00    -0.387 OA
ATOM     17  H   UNL     1     -45.718 -26.002  -3.607  1.00  0.00     0.211 HD
ENDBRANCH   1  16
TORSDOF 10
ENDMDL
MODEL 2
REMARK VINA RESULT:    -3.346      2.028      3.382
REMARK INTER + INTRA:          -5.474
REMARK INTER:                  -5.013
REMARK INTRA:                  -0.462
REMARK UNBOUND:                -0.661
REMARK SMILES O=C(CO)[C@H](O)[C@H](O)[C@@H](O)CO
REMARK SMILES IDX 7 1 9 2 11 3 12 4 10 6 5 8 2 9 1 10 3 11 4 12 6 14 8 16
REMARK H PARENT 12 5 10 7 4 13 6 15 8 17
REMARK Flexibility Score: inf
ROOT
ATOM      1  C   UNL     1     -44.474 -27.766  -6.759  1.00  0.00     0.181 C 
ENDROOT
BRANCH   1   2
ATOM      2  C   UNL     1     -44.146 -28.239  -8.206  1.00  0.00     0.171 C 
BRANCH   2   3
ATOM      3  C   UNL     1     -42.827 -29.018  -8.321  1.00  0.00     0.190 C 
BRANCH   3   4
ATOM      4  O   UNL     1     -41.833 -28.426  -7.530  1.00  0.00    -0.394 OA
ATOM      5  H   UNL     1     -42.305 -27.810  -6.911  1.00  0.00     0.210 HD
ENDBRANCH   3   4
ENDBRANCH   2   3
BRANCH   2   6
ATOM      6  O   UNL     1     -44.071 -27.123  -9.057  1.00  0.00    -0.388 OA
ATOM      7  H   UNL     1     -43.570 -27.403  -9.866  1.00  0.00     0.211 HD
ENDBRANCH   2   6
ENDBRANCH   1   2
BRANCH   1   8
ATOM      8  C   UNL     1     -45.582 -28.612  -6.064  1.00  0.00     0.214 C 
BRANCH   8   9
ATOM      9  C   UNL     1     -46.168 -27.883  -4.871  1.00  0.00     0.189 C 
ATOM     10  O   UNL     1     -47.069 -27.073  -5.040  1.00  0.00    -0.294 OA
BRANCH   9  11
ATOM     11  C   UNL     1     -45.670 -28.140  -3.474  1.00  0.00     0.234 C 
BRANCH  11  12
ATOM     12  O   UNL     1     -44.940 -27.037  -3.013  1.00  0.00    -0.388 OA
ATOM     13  H   UNL     1     -43.999 -27.339  -2.918  1.00  0.00     0.211 HD
ENDBRANCH  11  12
ENDBRANCH   9  11
ENDBRANCH   8   9
BRANCH   8  14
ATOM     14  O   UNL     1     -45.099 -29.866  -5.651  1.00  0.00    -0.382 OA
ATOM     15  H   UNL     1     -44.919 -30.407  -6.464  1.00  0.00     0.211 HD
ENDBRANCH   8  14
ENDBRANCH   1   8
BRANCH   1  16
ATOM     16  O   UNL     1     -44.849 -26.409  -6.788  1.00  0.00    -0.387 OA
ATOM     17  H   UNL     1     -45.841 -26.372  -6.737  1.00  0.00     0.211 HD
ENDBRANCH   1  16
TORSDOF 10
ENDMDL
MODEL 3
REMARK VINA RESULT:    -3.342      2.486      5.341
REMARK INTER + INTRA:          -5.469
REMARK INTER:                  -4.520
REMARK INTRA:                  -0.949
REMARK UNBOUND:                -0.661
REMARK SMILES O=C(CO)[C@H](O)[C@H](O)[C@@H](O)CO
REMARK SMILES IDX 7 1 9 2 11 3 12 4 10 6 5 8 2 9 1 10 3 11 4 12 6 14 8 16
REMARK H PARENT 12 5 10 7 4 13 6 15 8 17
REMARK Flexibility Score: inf
ROOT
ATOM      1  C   UNL     1     -45.755 -27.372  -7.311  1.00  0.00     0.181 C 
ENDROOT
BRANCH   1   2
ATOM      2  C   UNL     1     -46.477 -27.723  -5.976  1.00  0.00     0.171 C 
BRANCH   2   3
ATOM      3  C   UNL     1     -45.538 -27.799  -4.763  1.00  0.00     0.190 C 
BRANCH   3   4
ATOM      4  O   UNL     1     -45.174 -26.514  -4.339  1.00  0.00    -0.394 OA
ATOM      5  H   UNL     1     -44.190 -26.534  -4.214  1.00  0.00     0.210 HD
ENDBRANCH   3   4
ENDBRANCH   2   3
BRANCH   2   6
ATOM      6  O   UNL     1     -47.125 -28.964  -6.107  1.00  0.00    -0.388 OA
ATOM      7  H   UNL     1     -47.837 -28.853  -6.789  1.00  0.00     0.211 HD
ENDBRANCH   2   6
ENDBRANCH   1   2
BRANCH   1   8
ATOM      8  C   UNL     1     -45.248 -28.622  -8.090  1.00  0.00     0.214 C 
BRANCH   8   9
ATOM      9  C   UNL     1     -44.027 -28.294  -8.927  1.00  0.00     0.189 C 
ATOM     10  O   UNL     1     -44.125 -27.506  -9.857  1.00  0.00    -0.294 OA
BRANCH   9  11
ATOM     11  C   UNL     1     -42.687 -28.913  -8.634  1.00  0.00     0.234 C 
BRANCH  11  12
ATOM     12  O   UNL     1     -42.141 -28.352  -7.472  1.00  0.00    -0.388 OA
ATOM     13  H   UNL     1     -41.621 -27.556  -7.759  1.00  0.00     0.211 HD
ENDBRANCH  11  12
ENDBRANCH   9  11
ENDBRANCH   8   9
BRANCH   8  14
ATOM     14  O   UNL     1     -46.247 -29.162  -8.917  1.00  0.00    -0.382 OA
ATOM     15  H   UNL     1     -46.402 -28.526  -9.665  1.00  0.00     0.211 HD
ENDBRANCH   8  14
ENDBRANCH   1   8
BRANCH   1  16
ATOM     16  O   UNL     1     -44.682 -26.502  -7.042  1.00  0.00    -0.387 OA
ATOM     17  H   UNL     1     -43.862 -26.909  -7.430  1.00  0.00     0.211 HD
ENDBRANCH   1  16
TORSDOF 10
ENDMDL
MODEL 4
REMARK VINA RESULT:    -3.338      3.750      5.921
REMARK INTER + INTRA:          -5.463
REMARK INTER:                  -4.274
REMARK INTRA:                  -1.190
REMARK UNBOUND:                -0.661
REMARK SMILES O=C(CO)[C@H](O)[C@H](O)[C@@H](O)CO
REMARK SMILES IDX 7 1 9 2 11 3 12 4 10 6 5 8 2 9 1 10 3 11 4 12 6 14 8 16
REMARK H PARENT 12 5 10 7 4 13 6 15 8 17
REMARK Flexibility Score: inf
ROOT
ATOM      1  C   UNL     1     -44.216 -28.716  -6.743  1.00  0.00     0.181 C 
ENDROOT
BRANCH   1   2
ATOM      2  C   UNL     1     -45.184 -27.633  -6.181  1.00  0.00     0.171 C 
BRANCH   2   3
ATOM      3  C   UNL     1     -46.669 -27.937  -6.431  1.00  0.00     0.190 C 
BRANCH   3   4
ATOM      4  O   UNL     1     -46.962 -27.872  -7.800  1.00  0.00    -0.394 OA
ATOM      5  H   UNL     1     -47.638 -28.579  -7.970  1.00  0.00     0.210 HD
ENDBRANCH   3   4
ENDBRANCH   2   3
BRANCH   2   6
ATOM      6  O   UNL     1     -44.887 -26.391  -6.767  1.00  0.00    -0.388 OA
ATOM      7  H   UNL     1     -44.665 -25.764  -6.031  1.00  0.00     0.211 HD
ENDBRANCH   2   6
ENDBRANCH   1   2
BRANCH   1   8
ATOM      8  C   UNL     1     -43.239 -28.173  -7.829  1.00  0.00     0.214 C 
BRANCH   8   9
ATOM      9  C   UNL     1     -43.550 -28.757  -9.194  1.00  0.00     0.189 C 
ATOM     10  O   UNL     1     -43.001 -29.791  -9.548  1.00  0.00    -0.294 OA
BRANCH   9  11
ATOM     11  C   UNL     1     -44.529 -28.095 -10.125  1.00  0.00     0.234 C 
BRANCH  11  12
ATOM     12  O   UNL     1     -44.816 -26.798  -9.679  1.00  0.00    -0.388 OA
ATOM     13  H   UNL     1     -44.092 -26.213 -10.026  1.00  0.00     0.211 HD
ENDBRANCH  11  12
ENDBRANCH   9  11
ENDBRANCH   8   9
BRANCH   8  14
ATOM     14  O   UNL     1     -41.898 -28.438  -7.504  1.00  0.00    -0.382 OA
ATOM     15  H   UNL     1     -41.476 -27.583  -7.226  1.00  0.00     0.211 HD
ENDBRANCH   8  14
ENDBRANCH   1   8
BRANCH   1  16
ATOM     16  O   UNL     1     -44.968 -29.786  -7.262  1.00  0.00    -0.387 OA
ATOM     17  H   UNL     1     -44.564 -30.041  -8.134  1.00  0.00     0.211 HD
ENDBRANCH   1  16
TORSDOF 10
ENDMDL
MODEL 5
REMARK VINA RESULT:    -3.319      1.698      2.850
REMARK INTER + INTRA:          -5.435
REMARK INTER:                  -4.491
REMARK INTRA:                  -0.945
REMARK UNBOUND:                -0.661
REMARK SMILES O=C(CO)[C@H](O)[C@H](O)[C@@H](O)CO
REMARK SMILES IDX 7 1 9 2 11 3 12 4 10 6 5 8 2 9 1 10 3 11 4 12 6 14 8 16
REMARK H PARENT 12 5 10 7 4 13 6 15 8 17
REMARK Flexibility Score: inf
ROOT
ATOM      1  C   UNL     1     -45.565 -28.545  -6.268  1.00  0.00     0.181 C 
ENDROOT
BRANCH   1   2
ATOM      2  C   UNL     1     -45.036 -27.685  -7.453  1.00  0.00     0.171 C 
BRANCH   2   3
ATOM      3  C   UNL     1     -43.848 -28.314  -8.196  1.00  0.00     0.190 C 
BRANCH   3   4
ATOM      4  O   UNL     1     -42.657 -28.108  -7.487  1.00  0.00    -0.394 OA
ATOM      5  H   UNL     1     -42.367 -29.003  -7.170  1.00  0.00     0.210 HD
ENDBRANCH   3   4
ENDBRANCH   2   3
BRANCH   2   6
ATOM      6  O   UNL     1     -44.635 -26.426  -6.974  1.00  0.00    -0.388 OA
ATOM      7  H   UNL     1     -44.854 -25.760  -7.677  1.00  0.00     0.211 HD
ENDBRANCH   2   6
ENDBRANCH   1   2
BRANCH   1   8
ATOM      8  C   UNL     1     -45.624 -27.773  -4.916  1.00  0.00     0.214 C 
BRANCH   8   9
ATOM      9  C   UNL     1     -45.967 -28.698  -3.765  1.00  0.00     0.189 C 
ATOM     10  O   UNL     1     -46.591 -29.727  -3.982  1.00  0.00    -0.294 OA
BRANCH   9  11
ATOM     11  C   UNL     1     -45.549 -28.381  -2.355  1.00  0.00     0.234 C 
BRANCH  11  12
ATOM     12  O   UNL     1     -44.860 -27.162  -2.319  1.00  0.00    -0.388 OA
ATOM     13  H   UNL     1     -44.996 -26.786  -1.409  1.00  0.00     0.211 HD
ENDBRANCH  11  12
ENDBRANCH   9  11
ENDBRANCH   8   9
BRANCH   8  14
ATOM     14  O   UNL     1     -46.552 -26.718  -4.958  1.00  0.00    -0.382 OA
ATOM     15  H   UNL     1     -46.857 -26.616  -5.898  1.00  0.00     0.211 HD
ENDBRANCH   8  14
ENDBRANCH   1   8
BRANCH   1  16
ATOM     16  O   UNL     1     -44.763 -29.693  -6.134  1.00  0.00    -0.387 OA
ATOM     17  H   UNL     1     -44.010 -29.463  -5.527  1.00  0.00     0.211 HD
ENDBRANCH   1  16
TORSDOF 10
ENDMDL
MODEL 6
REMARK VINA RESULT:    -3.310      3.388      4.887
REMARK INTER + INTRA:          -5.423
REMARK INTER:                  -4.127
REMARK INTRA:                  -1.296
REMARK UNBOUND:                -0.661
REMARK SMILES O=C(CO)[C@H](O)[C@H](O)[C@@H](O)CO
REMARK SMILES IDX 7 1 9 2 11 3 12 4 10 6 5 8 2 9 1 10 3 11 4 12 6 14 8 16
REMARK H PARENT 12 5 10 7 4 13 6 15 8 17
REMARK Flexibility Score: inf
ROOT
ATOM      1  C   UNL     1     -43.743 -28.072  -7.161  1.00  0.00     0.181 C 
ENDROOT
BRANCH   1   2
ATOM      2  C   UNL     1     -42.787 -28.640  -8.251  1.00  0.00     0.171 C 
BRANCH   2   3
ATOM      3  C   UNL     1     -43.493 -29.013  -9.563  1.00  0.00     0.190 C 
BRANCH   3   4
ATOM      4  O   UNL     1     -44.135 -27.896 -10.113  1.00  0.00    -0.394 OA
ATOM      5  H   UNL     1     -43.415 -27.307 -10.460  1.00  0.00     0.210 HD
ENDBRANCH   3   4
ENDBRANCH   2   3
BRANCH   2   6
ATOM      6  O   UNL     1     -42.145 -29.788  -7.757  1.00  0.00    -0.388 OA
ATOM      7  H   UNL     1     -41.536 -29.495  -7.031  1.00  0.00     0.211 HD
ENDBRANCH   2   6
ENDBRANCH   1   2
BRANCH   1   8
ATOM      8  C   UNL     1     -45.043 -28.910  -6.976  1.00  0.00     0.214 C 
BRANCH   8   9
ATOM      9  C   UNL     1     -46.281 -28.080  -7.259  1.00  0.00     0.189 C 
ATOM     10  O   UNL     1     -46.608 -27.857  -8.416  1.00  0.00    -0.294 OA
BRANCH   9  11
ATOM     11  C   UNL     1     -47.125 -27.528  -6.142  1.00  0.00     0.234 C 
BRANCH  11  12
ATOM     12  O   UNL     1     -46.345 -26.726  -5.300  1.00  0.00    -0.388 OA
ATOM     13  H   UNL     1     -46.701 -25.802  -5.380  1.00  0.00     0.211 HD
ENDBRANCH  11  12
ENDBRANCH   9  11
ENDBRANCH   8   9
BRANCH   8  14
ATOM     14  O   UNL     1     -45.134 -29.455  -5.684  1.00  0.00    -0.382 OA
ATOM     15  H   UNL     1     -45.631 -28.810  -5.114  1.00  0.00     0.211 HD
ENDBRANCH   8  14
ENDBRANCH   1   8
BRANCH   1  16
ATOM     16  O   UNL     1     -44.068 -26.740  -7.477  1.00  0.00    -0.387 OA
ATOM     17  H   UNL     1     -43.296 -26.173  -7.215  1.00  0.00     0.211 HD
ENDBRANCH   1  16
TORSDOF 10
ENDMDL
MODEL 7
REMARK VINA RESULT:    -3.218      2.378      5.487
REMARK INTER + INTRA:          -5.290
REMARK INTER:                  -4.493
REMARK INTRA:                  -0.797
REMARK UNBOUND:                -0.661
REMARK SMILES O=C(CO)[C@H](O)[C@H](O)[C@@H](O)CO
REMARK SMILES IDX 7 1 9 2 11 3 12 4 10 6 5 8 2 9 1 10 3 11 4 12 6 14 8 16
REMARK H PARENT 12 5 10 7 4 13 6 15 8 17
REMARK Flexibility Score: inf
ROOT
ATOM      1  C   UNL     1     -45.980 -27.448  -6.686  1.00  0.00     0.181 C 
ENDROOT
BRANCH   1   2
ATOM      2  C   UNL     1     -45.807 -27.831  -5.186  1.00  0.00     0.171 C 
BRANCH   2   3
ATOM      3  C   UNL     1     -47.120 -28.217  -4.488  1.00  0.00     0.190 C 
BRANCH   3   4
ATOM      4  O   UNL     1     -47.073 -27.881  -3.128  1.00  0.00    -0.394 OA
ATOM      5  H   UNL     1     -46.272 -28.336  -2.759  1.00  0.00     0.210 HD
ENDBRANCH   3   4
ENDBRANCH   2   3
BRANCH   2   6
ATOM      6  O   UNL     1     -45.243 -26.749  -4.489  1.00  0.00    -0.388 OA
ATOM      7  H   UNL     1     -44.345 -27.035  -4.179  1.00  0.00     0.211 HD
ENDBRANCH   2   6
ENDBRANCH   1   2
BRANCH   1   8
ATOM      8  C   UNL     1     -45.722 -28.633  -7.664  1.00  0.00     0.214 C 
BRANCH   8   9
ATOM      9  C   UNL     1     -44.337 -28.554  -8.275  1.00  0.00     0.189 C 
ATOM     10  O   UNL     1     -43.357 -28.794  -7.585  1.00  0.00    -0.294 OA
BRANCH   9  11
ATOM     11  C   UNL     1     -44.140 -28.193  -9.723  1.00  0.00     0.234 C 
BRANCH  11  12
ATOM     12  O   UNL     1     -44.625 -26.902  -9.968  1.00  0.00    -0.388 OA
ATOM     13  H   UNL     1     -45.277 -26.981 -10.714  1.00  0.00     0.211 HD
ENDBRANCH  11  12
ENDBRANCH   9  11
ENDBRANCH   8   9
BRANCH   8  14
ATOM     14  O   UNL     1     -46.681 -28.680  -8.690  1.00  0.00    -0.382 OA
ATOM     15  H   UNL     1     -46.340 -29.285  -9.400  1.00  0.00     0.211 HD
ENDBRANCH   8  14
ENDBRANCH   1   8
BRANCH   1  16
ATOM     16  O   UNL     1     -45.123 -26.374  -6.992  1.00  0.00    -0.387 OA
ATOM     17  H   UNL     1     -45.684 -25.638  -7.354  1.00  0.00     0.211 HD
ENDBRANCH   1  16
TORSDOF 10
ENDMDL
MODEL 8
REMARK VINA RESULT:    -3.176      3.943      6.080
REMARK INTER + INTRA:          -5.230
REMARK INTER:                  -4.111
REMARK INTRA:                  -1.120
REMARK UNBOUND:                -0.661
REMARK SMILES O=C(CO)[C@H](O)[C@H](O)[C@@H](O)CO
REMARK SMILES IDX 7 1 9 2 11 3 12 4 10 6 5 8 2 9 1 10 3 11 4 12 6 14 8 16
REMARK H PARENT 12 5 10 7 4 13 6 15 8 17
REMARK Flexibility Score: inf
ROOT
ATOM      1  C   UNL     1     -44.198 -28.745  -6.928  1.00  0.00     0.181 C 
ENDROOT
BRANCH   1   2
ATOM      2  C   UNL     1     -45.162 -27.606  -6.481  1.00  0.00     0.171 C 
BRANCH   2   3
ATOM      3  C   UNL     1     -46.590 -27.749  -7.030  1.00  0.00     0.190 C 
BRANCH   3   4
ATOM      4  O   UNL     1     -46.584 -27.734  -8.431  1.00  0.00    -0.394 OA
ATOM      5  H   UNL     1     -47.480 -27.408  -8.707  1.00  0.00     0.210 HD
ENDBRANCH   3   4
ENDBRANCH   2   3
BRANCH   2   6
ATOM      6  O   UNL     1     -44.651 -26.368  -6.907  1.00  0.00    -0.388 OA
ATOM      7  H   UNL     1     -44.343 -25.883  -6.098  1.00  0.00     0.211 HD
ENDBRANCH   2   6
ENDBRANCH   1   2
BRANCH   1   8
ATOM      8  C   UNL     1     -43.131 -28.286  -7.966  1.00  0.00     0.214 C 
BRANCH   8   9
ATOM      9  C   UNL     1     -43.336 -28.964  -9.306  1.00  0.00     0.189 C 
ATOM     10  O   UNL     1     -44.232 -28.585 -10.046  1.00  0.00    -0.294 OA
BRANCH   9  11
ATOM     11  C   UNL     1     -42.450 -30.096  -9.754  1.00  0.00     0.234 C 
BRANCH  11  12
ATOM     12  O   UNL     1     -41.135 -29.644  -9.915  1.00  0.00    -0.388 OA
ATOM     13  H   UNL     1     -40.596 -30.431 -10.191  1.00  0.00     0.211 HD
ENDBRANCH  11  12
ENDBRANCH   9  11
ENDBRANCH   8   9
BRANCH   8  14
ATOM     14  O   UNL     1     -41.824 -28.534  -7.514  1.00  0.00    -0.382 OA
ATOM     15  H   UNL     1     -41.310 -28.930  -8.266  1.00  0.00     0.211 HD
ENDBRANCH   8  14
ENDBRANCH   1   8
BRANCH   1  16
ATOM     16  O   UNL     1     -44.953 -29.812  -7.451  1.00  0.00    -0.387 OA
ATOM     17  H   UNL     1     -44.561 -30.656  -7.101  1.00  0.00     0.211 HD
ENDBRANCH   1  16
TORSDOF 10
ENDMDL
MODEL 9
REMARK VINA RESULT:    -3.150      1.765      4.904
REMARK INTER + INTRA:          -5.192
REMARK INTER:                  -4.443
REMARK INTRA:                  -0.750
REMARK UNBOUND:                -0.661
REMARK SMILES O=C(CO)[C@H](O)[C@H](O)[C@@H](O)CO
REMARK SMILES IDX 7 1 9 2 11 3 12 4 10 6 5 8 2 9 1 10 3 11 4 12 6 14 8 16
REMARK H PARENT 12 5 10 7 4 13 6 15 8 17
REMARK Flexibility Score: inf
ROOT
ATOM      1  C   UNL     1     -46.011 -28.107  -0.418  1.00  0.00     0.181 C 
ENDROOT
BRANCH   1   2
ATOM      2  C   UNL     1     -45.123 -27.534   0.726  1.00  0.00     0.171 C 
BRANCH   2   3
ATOM      3  C   UNL     1     -45.894 -26.671   1.738  1.00  0.00     0.190 C 
BRANCH   3   4
ATOM      4  O   UNL     1     -45.916 -25.332   1.328  1.00  0.00    -0.394 OA
ATOM      5  H   UNL     1     -46.810 -24.982   1.579  1.00  0.00     0.210 HD
ENDBRANCH   3   4
ENDBRANCH   2   3
BRANCH   2   6
ATOM      6  O   UNL     1     -44.098 -26.749   0.173  1.00  0.00    -0.388 OA
ATOM      7  H   UNL     1     -44.385 -25.801   0.238  1.00  0.00     0.211 HD
ENDBRANCH   2   6
ENDBRANCH   1   2
BRANCH   1   8
ATOM      8  C   UNL     1     -45.192 -28.731  -1.587  1.00  0.00     0.214 C 
BRANCH   8   9
ATOM      9  C   UNL     1     -45.140 -27.803  -2.784  1.00  0.00     0.189 C 
ATOM     10  O   UNL     1     -44.499 -26.764  -2.717  1.00  0.00    -0.294 OA
BRANCH   9  11
ATOM     11  C   UNL     1     -45.859 -28.136  -4.064  1.00  0.00     0.234 C 
BRANCH  11  12
ATOM     12  O   UNL     1     -45.998 -26.985  -4.852  1.00  0.00    -0.388 OA
ATOM     13  H   UNL     1     -45.148 -26.881  -5.354  1.00  0.00     0.211 HD
ENDBRANCH  11  12
ENDBRANCH   9  11
ENDBRANCH   8   9
BRANCH   8  14
ATOM     14  O   UNL     1     -45.715 -29.974  -1.984  1.00  0.00    -0.382 OA
ATOM     15  H   UNL     1     -45.206 -30.280  -2.780  1.00  0.00     0.211 HD
ENDBRANCH   8  14
ENDBRANCH   1   8
BRANCH   1  16
ATOM     16  O   UNL     1     -46.851 -27.089  -0.907  1.00  0.00    -0.387 OA
ATOM     17  H   UNL     1     -46.346 -26.594  -1.605  1.00  0.00     0.211 HD
ENDBRANCH   1  16
TORSDOF 10
ENDMDL
