MODEL 1
REMARK VINA RESULT:    -3.431      0.000      0.000
REMARK INTER + INTRA:          -4.135
REMARK INTER:                  -4.032
REMARK INTRA:                  -0.102
REMARK UNBOUND:                -0.102
REMARK SMILES CCCCC(=O)[O-]
REMARK SMILES IDX 4 1 5 2 6 3 7 4 3 5 2 6 1 7
REMARK H PARENT
REMARK Flexibility Score: inf
ROOT
ATOM      1  C   UNL     1      73.787  13.094  18.667  1.00  0.00     0.053 C 
ENDROOT
BRANCH   1   2
ATOM      2  C   UNL     1      74.709  13.861  17.773  1.00  0.00     0.041 C 
ATOM      3  O   UNL     1      75.073  13.372  16.671  1.00  0.00    -0.550 OA
ATOM      4  O   UNL     1      75.208  15.091  18.180  1.00  0.00    -0.550 OA
ENDBRANCH   1   2
BRANCH   1   5
ATOM      5  C   UNL     1      74.430  11.772  19.096  1.00  0.00     0.006 C 
BRANCH   5   6
ATOM      6  C   UNL     1      75.557  12.012  20.106  1.00  0.00    -0.003 C 
ATOM      7  C   UNL     1      76.666  10.975  19.950  1.00  0.00     0.004 C 
ENDBRANCH   5   6
ENDBRANCH   1   5
TORSDOF 3
ENDMDL
MODEL 2
REMARK VINA RESULT:    -3.410      0.628      1.355
REMARK INTER + INTRA:          -4.110
REMARK INTER:                  -4.003
REMARK INTRA:                  -0.107
REMARK UNBOUND:                -0.102
REMARK SMILES CCCCC(=O)[O-]
REMARK SMILES IDX 4 1 5 2 6 3 7 4 3 5 2 6 1 7
REMARK H PARENT
REMARK Flexibility Score: inf
ROOT
ATOM      1  C   UNL     1      73.649  13.052  18.229  1.00  0.00     0.053 C 
ENDROOT
BRANCH   1   2
ATOM      2  C   UNL     1      74.732  13.910  17.654  1.00  0.00     0.041 C 
ATOM      3  O   UNL     1      75.156  14.908  18.295  1.00  0.00    -0.550 OA
ATOM      4  O   UNL     1      75.237  13.637  16.390  1.00  0.00    -0.550 OA
ENDBRANCH   1   2
BRANCH   1   5
ATOM      5  C   UNL     1      74.144  12.334  19.487  1.00  0.00     0.006 C 
BRANCH   5   6
ATOM      6  C   UNL     1      75.428  11.546  19.201  1.00  0.00    -0.003 C 
ATOM      7  C   UNL     1      76.413  11.659  20.361  1.00  0.00     0.004 C 
ENDBRANCH   5   6
ENDBRANCH   1   5
TORSDOF 3
ENDMDL
MODEL 3
REMARK VINA RESULT:    -3.408      1.088      1.510
REMARK INTER + INTRA:          -4.108
REMARK INTER:                  -4.014
REMARK INTRA:                  -0.094
REMARK UNBOUND:                -0.102
REMARK SMILES CCCCC(=O)[O-]
REMARK SMILES IDX 4 1 5 2 6 3 7 4 3 5 2 6 1 7
REMARK H PARENT
REMARK Flexibility Score: inf
ROOT
ATOM      1  C   UNL     1      74.875  13.992  18.152  1.00  0.00     0.053 C 
ENDROOT
BRANCH   1   2
ATOM      2  C   UNL     1      74.874  14.086  16.659  1.00  0.00     0.041 C 
ATOM      3  O   UNL     1      75.093  13.061  15.960  1.00  0.00    -0.550 OA
ATOM      4  O   UNL     1      74.682  15.313  16.039  1.00  0.00    -0.550 OA
ENDBRANCH   1   2
BRANCH   1   5
ATOM      5  C   UNL     1      73.701  13.138  18.637  1.00  0.00     0.006 C 
BRANCH   5   6
ATOM      6  C   UNL     1      74.188  11.993  19.533  1.00  0.00    -0.003 C 
ATOM      7  C   UNL     1      75.709  12.008  19.667  1.00  0.00     0.004 C 
ENDBRANCH   5   6
ENDBRANCH   1   5
TORSDOF 3
ENDMDL
MODEL 4
REMARK VINA RESULT:    -3.400      1.357      2.019
REMARK INTER + INTRA:          -4.098
REMARK INTER:                  -3.999
REMARK INTRA:                  -0.099
REMARK UNBOUND:                -0.102
REMARK SMILES CCCCC(=O)[O-]
REMARK SMILES IDX 4 1 5 2 6 3 7 4 3 5 2 6 1 7
REMARK H PARENT
REMARK Flexibility Score: inf
ROOT
ATOM      1  C   UNL     1      74.917  11.894  19.797  1.00  0.00     0.053 C 
ENDROOT
BRANCH   1   2
ATOM      2  C   UNL     1      74.555  12.840  18.696  1.00  0.00     0.041 C 
ATOM      3  O   UNL     1      73.391  13.315  18.627  1.00  0.00    -0.550 OA
ATOM      4  O   UNL     1      75.488  13.157  17.718  1.00  0.00    -0.550 OA
ENDBRANCH   1   2
BRANCH   1   5
ATOM      5  C   UNL     1      76.419  11.955  20.086  1.00  0.00     0.006 C 
BRANCH   5   6
ATOM      6  C   UNL     1      77.029  10.549  20.128  1.00  0.00    -0.003 C 
ATOM      7  C   UNL     1      76.721   9.777  18.848  1.00  0.00     0.004 C 
ENDBRANCH   5   6
ENDBRANCH   1   5
TORSDOF 3
ENDMDL
MODEL 5
REMARK VINA RESULT:    -3.378      2.553      3.552
REMARK INTER + INTRA:          -4.072
REMARK INTER:                  -3.978
REMARK INTRA:                  -0.094
REMARK UNBOUND:                -0.102
REMARK SMILES CCCCC(=O)[O-]
REMARK SMILES IDX 4 1 5 2 6 3 7 4 3 5 2 6 1 7
REMARK H PARENT
REMARK Flexibility Score: inf
ROOT
ATOM      1  C   UNL     1      75.514  11.363  18.894  1.00  0.00     0.053 C 
ENDROOT
BRANCH   1   2
ATOM      2  C   UNL     1      76.621  11.251  19.894  1.00  0.00     0.041 C 
ATOM      3  O   UNL     1      76.987  10.119  20.309  1.00  0.00    -0.550 OA
ATOM      4  O   UNL     1      77.215  12.397  20.405  1.00  0.00    -0.550 OA
ENDBRANCH   1   2
BRANCH   1   5
ATOM      5  C   UNL     1      74.287  12.028  19.524  1.00  0.00     0.006 C 
BRANCH   5   6
ATOM      6  C   UNL     1      73.705  13.099  18.594  1.00  0.00    -0.003 C 
ATOM      7  C   UNL     1      74.787  14.067  18.123  1.00  0.00     0.004 C 
ENDBRANCH   5   6
ENDBRANCH   1   5
TORSDOF 3
ENDMDL
MODEL 6
REMARK VINA RESULT:    -3.315      2.181      3.321
REMARK INTER + INTRA:          -3.999
REMARK INTER:                  -3.887
REMARK INTRA:                  -0.112
REMARK UNBOUND:                -0.102
REMARK SMILES CCCCC(=O)[O-]
REMARK SMILES IDX 4 1 5 2 6 3 7 4 3 5 2 6 1 7
REMARK H PARENT
REMARK Flexibility Score: inf
ROOT
ATOM      1  C   UNL     1      76.630  11.686  20.157  1.00  0.00     0.053 C 
ENDROOT
BRANCH   1   2
ATOM      2  C   UNL     1      77.597  12.649  19.543  1.00  0.00     0.041 C 
ATOM      3  O   UNL     1      78.540  13.123  20.230  1.00  0.00    -0.550 OA
ATOM      4  O   UNL     1      77.427  13.062  18.228  1.00  0.00    -0.550 OA
ENDBRANCH   1   2
BRANCH   1   5
ATOM      5  C   UNL     1      75.494  11.370  19.180  1.00  0.00     0.006 C 
BRANCH   5   6
ATOM      6  C   UNL     1      74.200  12.082  19.593  1.00  0.00    -0.003 C 
ATOM      7  C   UNL     1      73.819  13.160  18.582  1.00  0.00     0.004 C 
ENDBRANCH   5   6
ENDBRANCH   1   5
TORSDOF 3
ENDMDL
MODEL 7
REMARK VINA RESULT:    -3.268      1.815      2.781
REMARK INTER + INTRA:          -3.943
REMARK INTER:                  -3.924
REMARK INTRA:                  -0.019
REMARK UNBOUND:                -0.102
REMARK SMILES CCCCC(=O)[O-]
REMARK SMILES IDX 4 1 5 2 6 3 7 4 3 5 2 6 1 7
REMARK H PARENT
REMARK Flexibility Score: inf
ROOT
ATOM      1  C   UNL     1      74.784  14.343  16.605  1.00  0.00     0.053 C 
ENDROOT
BRANCH   1   2
ATOM      2  C   UNL     1      75.203  15.735  16.251  1.00  0.00     0.041 C 
ATOM      3  O   UNL     1      76.133  16.296  16.889  1.00  0.00    -0.550 OA
ATOM      4  O   UNL     1      74.535  16.430  15.252  1.00  0.00    -0.550 OA
ENDBRANCH   1   2
BRANCH   1   5
ATOM      5  C   UNL     1      74.795  14.148  18.123  1.00  0.00     0.006 C 
BRANCH   5   6
ATOM      6  C   UNL     1      73.722  13.141  18.556  1.00  0.00    -0.003 C 
ATOM      7  C   UNL     1      74.317  12.048  19.439  1.00  0.00     0.004 C 
ENDBRANCH   5   6
ENDBRANCH   1   5
TORSDOF 3
ENDMDL
MODEL 8
REMARK VINA RESULT:    -2.999      2.773      4.739
REMARK INTER + INTRA:          -3.627
REMARK INTER:                  -3.532
REMARK INTRA:                  -0.096
REMARK UNBOUND:                -0.102
REMARK SMILES CCCCC(=O)[O-]
REMARK SMILES IDX 4 1 5 2 6 3 7 4 3 5 2 6 1 7
REMARK H PARENT
REMARK Flexibility Score: inf
ROOT
ATOM      1  C   UNL     1      75.097  14.069  16.112  1.00  0.00     0.053 C 
ENDROOT
BRANCH   1   2
ATOM      2  C   UNL     1      75.376  14.418  17.540  1.00  0.00     0.041 C 
ATOM      3  O   UNL     1      74.530  14.151  18.433  1.00  0.00    -0.550 OA
ATOM      4  O   UNL     1      76.547  15.083  17.877  1.00  0.00    -0.550 OA
ENDBRANCH   1   2
BRANCH   1   5
ATOM      5  C   UNL     1      75.619  15.164  15.179  1.00  0.00     0.006 C 
BRANCH   5   6
ATOM      6  C   UNL     1      74.737  16.416  15.253  1.00  0.00    -0.003 C 
ATOM      7  C   UNL     1      75.574  17.687  15.136  1.00  0.00     0.004 C 
ENDBRANCH   5   6
ENDBRANCH   1   5
TORSDOF 3
ENDMDL
MODEL 9
REMARK VINA RESULT:    -2.977      2.594      3.401
REMARK INTER + INTRA:          -3.602
REMARK INTER:                  -3.513
REMARK INTRA:                  -0.089
REMARK UNBOUND:                -0.102
REMARK SMILES CCCCC(=O)[O-]
REMARK SMILES IDX 4 1 5 2 6 3 7 4 3 5 2 6 1 7
REMARK H PARENT
REMARK Flexibility Score: inf
ROOT
ATOM      1  C   UNL     1      76.644  11.670  20.446  1.00  0.00     0.053 C 
ENDROOT
BRANCH   1   2
ATOM      2  C   UNL     1      77.412  12.721  19.709  1.00  0.00     0.041 C 
ATOM      3  O   UNL     1      78.607  12.970  20.024  1.00  0.00    -0.550 OA
ATOM      4  O   UNL     1      76.795  13.462  18.710  1.00  0.00    -0.550 OA
ENDBRANCH   1   2
BRANCH   1   5
ATOM      5  C   UNL     1      77.076  10.273  19.992  1.00  0.00     0.006 C 
BRANCH   5   6
ATOM      6  C   UNL     1      76.388   9.885  18.678  1.00  0.00    -0.003 C 
ATOM      7  C   UNL     1      77.361   9.182  17.735  1.00  0.00     0.004 C 
ENDBRANCH   5   6
ENDBRANCH   1   5
TORSDOF 3
ENDMDL
