MODEL 1
REMARK VINA RESULT:    -7.475      0.000      0.000
REMARK INTER + INTRA:         -12.999
REMARK INTER:                 -11.845
REMARK INTRA:                  -1.154
REMARK UNBOUND:                -1.154
REMARK SMILES C[C@H]1O[C@H](O[C@H]2[C@H](Oc3cc(O)c4c(c3)O[C@H](c3ccc(O)cc3)CC4=O)O[C@@H](CO)[C@H](O)[C@@H]2O)[C@@H](O)[C@@H](O)[C@H]1O
REMARK SMILES IDX 6 1 34 2 32 3 29 4 28 5 7 6 5 7 4 8 1 9 2 10 40 11 3 12
REMARK SMILES IDX 38 13 36 14 41 15 39 17 37 19 35 21 8 23 9 24 10 25 15 26
REMARK SMILES IDX 11 27 14 28 13 29 16 30 26 31 17 32 27 33 25 34 12 35 18 37
REMARK SMILES IDX 19 38 24 39 20 40 23 41 21 42 22 43 33 45 30 47 31 48
REMARK H PARENT 41 16 39 18 37 20 35 22 12 36 22 44 33 46 31 49
REMARK Flexibility Score: inf
ROOT
ATOM      1  C   UNL     1      19.421  34.910  32.308  1.00  0.00     0.221 C 
ATOM      2  C   UNL     1      19.023  35.772  33.520  1.00  0.00     0.181 C 
ATOM      3  C   UNL     1      19.856  35.405  34.769  1.00  0.00     0.177 C 
ATOM      4  C   UNL     1      19.918  33.868  34.971  1.00  0.00     0.179 C 
ATOM      5  O   UNL     1      20.385  33.220  33.797  1.00  0.00    -0.332 OA
ATOM      6  C   UNL     1      19.502  33.415  32.699  1.00  0.00     0.339 C 
ENDROOT
BRANCH   1   7
ATOM      7  O   UNL     1      20.695  35.347  31.863  1.00  0.00    -0.337 OA
BRANCH   7   8
ATOM      8  C   UNL     1      20.638  36.009  30.607  1.00  0.00     0.282 C 
ATOM      9  C   UNL     1      24.149  37.121  30.416  1.00  0.00     0.041 C 
ATOM     10  C   UNL     1      22.983  36.130  30.470  1.00  0.00     0.150 C 
ATOM     11  C   UNL     1      23.061  35.126  29.299  1.00  0.00     0.174 C 
ATOM     12  O   UNL     1      21.764  36.861  30.437  1.00  0.00    -0.344 OA
ATOM     13  C   UNL     1      21.859  34.170  29.366  1.00  0.00     0.179 C 
ATOM     14  C   UNL     1      20.543  34.964  29.477  1.00  0.00     0.202 C 
BRANCH  11  15
ATOM     15  O   UNL     1      23.070  35.814  28.071  1.00  0.00    -0.388 OA
ATOM     16  H   UNL     1      22.745  35.181  27.379  1.00  0.00     0.211 HD
ENDBRANCH  11  15
BRANCH  13  17
ATOM     17  O   UNL     1      21.848  33.339  28.233  1.00  0.00    -0.387 OA
ATOM     18  H   UNL     1      22.553  33.678  27.621  1.00  0.00     0.211 HD
ENDBRANCH  13  17
BRANCH  14  19
ATOM     19  O   UNL     1      20.255  35.615  28.262  1.00  0.00    -0.385 OA
ATOM     20  H   UNL     1      20.069  36.566  28.478  1.00  0.00     0.211 HD
ENDBRANCH  14  19
ENDBRANCH   7   8
ENDBRANCH   1   7
BRANCH   2  21
ATOM     21  O   UNL     1      17.634  35.720  33.753  1.00  0.00    -0.387 OA
ATOM     22  H   UNL     1      17.396  34.810  34.058  1.00  0.00     0.211 HD
ENDBRANCH   2  21
BRANCH   6  23
ATOM     23  O   UNL     1      18.202  32.884  32.978  1.00  0.00    -0.462 OA
BRANCH  23  24
ATOM     24  C   UNL     1      17.932  31.529  33.215  1.00  0.00     0.130 A 
ATOM     25  C   UNL     1      17.202  30.820  32.254  1.00  0.00     0.093 A 
ATOM     26  C   UNL     1      18.397  30.857  34.359  1.00  0.00     0.094 A 
ATOM     27  C   UNL     1      16.904  29.463  32.437  1.00  0.00     0.133 A 
ATOM     28  C   UNL     1      18.156  29.491  34.523  1.00  0.00     0.138 A 
ATOM     29  C   UNL     1      17.384  28.789  33.579  1.00  0.00     0.102 A 
ATOM     30  O   UNL     1      18.719  28.821  35.620  1.00  0.00    -0.484 OA
ATOM     31  C   UNL     1      17.103  27.359  33.843  1.00  0.00     0.174 C 
ATOM     32  C   UNL     1      18.731  27.392  35.744  1.00  0.00     0.211 C 
ATOM     33  O   UNL     1      16.554  26.629  32.976  1.00  0.00    -0.294 OA
ATOM     34  C   UNL     1      17.427  26.786  35.192  1.00  0.00     0.131 C 
BRANCH  27  35
ATOM     35  O   UNL     1      16.131  28.794  31.488  1.00  0.00    -0.507 OA
ATOM     36  H   UNL     1      15.460  28.082  31.754  1.00  0.00     0.293 HD
ENDBRANCH  27  35
BRANCH  32  37
ATOM     37  C   UNL     1      19.954  26.768  35.087  1.00  0.00    -0.007 A 
ATOM     38  C   UNL     1      19.849  25.776  34.092  1.00  0.00     0.011 A 
ATOM     39  C   UNL     1      21.235  27.151  35.527  1.00  0.00     0.011 A 
ATOM     40  C   UNL     1      20.998  25.193  33.548  1.00  0.00     0.046 A 
ATOM     41  C   UNL     1      22.381  26.560  34.987  1.00  0.00     0.046 A 
ATOM     42  C   UNL     1      22.264  25.576  33.997  1.00  0.00     0.115 A 
BRANCH  42  43
ATOM     43  O   UNL     1      23.395  24.971  33.454  1.00  0.00    -0.508 OA
ATOM     44  H   UNL     1      23.724  25.204  32.520  1.00  0.00     0.293 HD
ENDBRANCH  42  43
ENDBRANCH  32  37
ENDBRANCH  23  24
ENDBRANCH   6  23
BRANCH   3  45
ATOM     45  O   UNL     1      19.303  36.018  35.905  1.00  0.00    -0.387 OA
ATOM     46  H   UNL     1      19.953  36.707  36.206  1.00  0.00     0.211 HD
ENDBRANCH   3  45
BRANCH   4  47
ATOM     47  C   UNL     1      20.870  33.505  36.119  1.00  0.00     0.191 C 
BRANCH  47  48
ATOM     48  O   UNL     1      21.819  32.566  35.691  1.00  0.00    -0.394 OA
ATOM     49  H   UNL     1      21.488  32.214  34.825  1.00  0.00     0.210 HD
ENDBRANCH  47  48
ENDBRANCH   4  47
TORSDOF 14
ENDMDL
MODEL 2
REMARK VINA RESULT:    -7.154      1.375      2.114
REMARK INTER + INTRA:         -12.490
REMARK INTER:                 -11.396
REMARK INTRA:                  -1.095
REMARK UNBOUND:                -1.154
REMARK SMILES C[C@H]1O[C@H](O[C@H]2[C@H](Oc3cc(O)c4c(c3)O[C@H](c3ccc(O)cc3)CC4=O)O[C@@H](CO)[C@H](O)[C@@H]2O)[C@@H](O)[C@@H](O)[C@H]1O
REMARK SMILES IDX 6 1 34 2 32 3 29 4 28 5 7 6 5 7 4 8 1 9 2 10 40 11 3 12
REMARK SMILES IDX 38 13 36 14 41 15 39 17 37 19 35 21 8 23 9 24 10 25 15 26
REMARK SMILES IDX 11 27 14 28 13 29 16 30 26 31 17 32 27 33 25 34 12 35 18 37
REMARK SMILES IDX 19 38 24 39 20 40 23 41 21 42 22 43 33 45 30 47 31 48
REMARK H PARENT 41 16 39 18 37 20 35 22 12 36 22 44 33 46 31 49
REMARK Flexibility Score: inf
ROOT
ATOM      1  C   UNL     1      18.765  33.681  31.777  1.00  0.00     0.221 C 
ATOM      2  C   UNL     1      17.719  34.778  31.505  1.00  0.00     0.181 C 
ATOM      3  C   UNL     1      17.899  35.976  32.464  1.00  0.00     0.177 C 
ATOM      4  C   UNL     1      18.080  35.503  33.930  1.00  0.00     0.179 C 
ATOM      5  O   UNL     1      19.137  34.560  34.033  1.00  0.00    -0.332 OA
ATOM      6  C   UNL     1      18.865  33.378  33.290  1.00  0.00     0.339 C 
ENDROOT
BRANCH   1   7
ATOM      7  O   UNL     1      20.018  34.152  31.309  1.00  0.00    -0.337 OA
BRANCH   7   8
ATOM      8  C   UNL     1      20.231  33.868  29.933  1.00  0.00     0.282 C 
ATOM      9  C   UNL     1      19.206  37.125  28.538  1.00  0.00     0.041 C 
ATOM     10  C   UNL     1      20.052  36.140  29.349  1.00  0.00     0.150 C 
ATOM     11  C   UNL     1      21.545  36.258  28.973  1.00  0.00     0.174 C 
ATOM     12  O   UNL     1      19.568  34.824  29.115  1.00  0.00    -0.344 OA
ATOM     13  C   UNL     1      22.358  35.234  29.781  1.00  0.00     0.179 C 
ATOM     14  C   UNL     1      21.745  33.827  29.642  1.00  0.00     0.202 C 
BRANCH  11  15
ATOM     15  O   UNL     1      21.715  36.038  27.593  1.00  0.00    -0.388 OA
ATOM     16  H   UNL     1      21.616  36.917  27.143  1.00  0.00     0.211 HD
ENDBRANCH  11  15
BRANCH  13  17
ATOM     17  O   UNL     1      23.696  35.241  29.351  1.00  0.00    -0.387 OA
ATOM     18  H   UNL     1      24.078  36.119  29.615  1.00  0.00     0.211 HD
ENDBRANCH  13  17
BRANCH  14  19
ATOM     19  O   UNL     1      21.958  33.322  28.346  1.00  0.00    -0.385 OA
ATOM     20  H   UNL     1      21.519  33.949  27.713  1.00  0.00     0.211 HD
ENDBRANCH  14  19
ENDBRANCH   7   8
ENDBRANCH   1   7
BRANCH   2  21
ATOM     21  O   UNL     1      16.410  34.254  31.524  1.00  0.00    -0.387 OA
ATOM     22  H   UNL     1      16.082  34.180  30.594  1.00  0.00     0.211 HD
ENDBRANCH   2  21
BRANCH   6  23
ATOM     23  O   UNL     1      17.681  32.727  33.765  1.00  0.00    -0.462 OA
BRANCH  23  24
ATOM     24  C   UNL     1      17.485  31.339  33.770  1.00  0.00     0.130 A 
ATOM     25  C   UNL     1      16.890  30.750  32.648  1.00  0.00     0.093 A 
ATOM     26  C   UNL     1      17.896  30.524  34.839  1.00  0.00     0.094 A 
ATOM     27  C   UNL     1      16.671  29.367  32.597  1.00  0.00     0.133 A 
ATOM     28  C   UNL     1      17.736  29.138  34.772  1.00  0.00     0.138 A 
ATOM     29  C   UNL     1      17.097  28.550  33.665  1.00  0.00     0.102 A 
ATOM     30  O   UNL     1      18.248  28.337  35.804  1.00  0.00    -0.484 OA
ATOM     31  C   UNL     1      16.893  27.084  33.684  1.00  0.00     0.174 C 
ATOM     32  C   UNL     1      18.348  26.910  35.714  1.00  0.00     0.211 C 
ATOM     33  O   UNL     1      16.470  26.469  32.669  1.00  0.00    -0.294 OA
ATOM     34  C   UNL     1      17.140  26.326  34.956  1.00  0.00     0.131 C 
BRANCH  27  35
ATOM     35  O   UNL     1      16.029  28.813  31.489  1.00  0.00    -0.507 OA
ATOM     36  H   UNL     1      15.205  29.240  31.083  1.00  0.00     0.293 HD
ENDBRANCH  27  35
BRANCH  32  37
ATOM     37  C   UNL     1      19.662  26.462  35.089  1.00  0.00    -0.007 A 
ATOM     38  C   UNL     1      19.715  25.521  34.042  1.00  0.00     0.011 A 
ATOM     39  C   UNL     1      20.869  26.962  35.610  1.00  0.00     0.011 A 
ATOM     40  C   UNL     1      20.946  25.101  33.528  1.00  0.00     0.046 A 
ATOM     41  C   UNL     1      22.099  26.533  35.100  1.00  0.00     0.046 A 
ATOM     42  C   UNL     1      22.138  25.598  34.058  1.00  0.00     0.115 A 
BRANCH  42  43
ATOM     43  O   UNL     1      23.354  25.153  33.543  1.00  0.00    -0.508 OA
ATOM     44  H   UNL     1      23.690  25.464  32.636  1.00  0.00     0.293 HD
ENDBRANCH  42  43
ENDBRANCH  32  37
ENDBRANCH  23  24
ENDBRANCH   6  23
BRANCH   3  45
ATOM     45  O   UNL     1      16.791  36.833  32.367  1.00  0.00    -0.387 OA
ATOM     46  H   UNL     1      16.033  36.287  32.029  1.00  0.00     0.211 HD
ENDBRANCH   3  45
BRANCH   4  47
ATOM     47  C   UNL     1      18.412  36.685  34.851  1.00  0.00     0.191 C 
BRANCH  47  48
ATOM     48  O   UNL     1      19.663  36.499  35.454  1.00  0.00    -0.394 OA
ATOM     49  H   UNL     1      19.974  37.400  35.728  1.00  0.00     0.210 HD
ENDBRANCH  47  48
ENDBRANCH   4  47
TORSDOF 14
ENDMDL
