MODEL 1
REMARK VINA RESULT:    -3.492      0.000      0.000
REMARK INTER + INTRA:          -4.046
REMARK INTER:                  -5.329
REMARK INTRA:                   1.283
REMARK UNBOUND:                 1.283
REMARK SMILES CC1=CCC[C@@H](C)C(=O)C[C@@H](C(C)C)C(=O)C1
REMARK SMILES IDX 8 1 9 2 6 3 7 4 5 5 4 6 3 7 2 8 1 9 10 11 11 12 15 13 16 14
REMARK SMILES IDX 17 15 12 17 13 18 14 19
REMARK H PARENT
REMARK Flexibility Score: 70.00
ROOT
ATOM      1  C   UNL     1      -6.948  -3.077   7.534  1.00  0.00     0.136 C 
ATOM      2  O   UNL     1      -7.514  -3.391   8.572  1.00  0.00    -0.299 OA
ENDROOT
BRANCH   1   3
ATOM      3  C   UNL     1      -5.551  -3.612   7.286  1.00  0.00     0.053 C 
ATOM      4  C   UNL     1      -5.630  -4.911   6.473  1.00  0.00     0.016 C 
BRANCH   3   5
ATOM      5  C   UNL     1      -4.803  -3.837   8.638  1.00  0.00     0.015 C 
BRANCH   5   6
ATOM      6  C   UNL     1      -4.050  -2.583   9.136  1.00  0.00     0.028 C 
BRANCH   6   7
ATOM      7  C   UNL     1      -4.805  -1.768  10.164  1.00  0.00    -0.028 C 
ATOM      8  C   UNL     1      -5.476  -0.607   9.947  1.00  0.00    -0.070 CG0
ATOM      9  C   UNL     1      -6.045   0.101  11.153  1.00  0.00     0.039 C 
ATOM     10  G   UNL     1      -5.764  -0.029   8.568  1.00  0.00     0.000 G0
ENDBRANCH   6   7
ENDBRANCH   5   6
ENDBRANCH   3   5
ENDBRANCH   1   3
BRANCH   1  11
ATOM     11  C   UNL     1      -7.708  -2.191   6.564  1.00  0.00     0.087 C 
BRANCH  11  12
ATOM     12  C   UNL     1      -7.551  -0.646   6.695  1.00  0.00     0.066 C 
BRANCH  12  13
ATOM     13  C   UNL     1      -7.203  -0.189   8.110  1.00  0.00     0.140 C 
ATOM     14  O   UNL     1      -8.110  -0.082   8.925  1.00  0.00    -0.299 OA
BRANCH  13  15
ATOM     15  C   UNL     1      -5.775  -0.011   8.574  1.00  0.00     0.106 CG0
ATOM     16  G   UNL     1      -5.482  -0.611   9.943  1.00  0.00     0.000 G0
ENDBRANCH  13  15
ENDBRANCH  12  13
BRANCH  12  17
ATOM     17  C   UNL     1      -8.836   0.094   6.191  1.00  0.00    -0.006 C 
ATOM     18  C   UNL     1      -9.298  -0.417   4.812  1.00  0.00     0.008 C 
ATOM     19  C   UNL     1     -10.010  -0.032   7.181  1.00  0.00     0.008 C 
ENDBRANCH  12  17
ENDBRANCH  11  12
ENDBRANCH   1  11
TORSDOF 1
ENDMDL
MODEL 2
REMARK VINA RESULT:    -3.408      2.191      5.136
REMARK INTER + INTRA:          -3.918
REMARK INTER:                  -4.997
REMARK INTRA:                   1.079
REMARK UNBOUND:                 1.283
REMARK SMILES CC1=CCC[C@@H](C)C(=O)C[C@@H](C(C)C)C(=O)C1
REMARK SMILES IDX 8 1 9 2 6 3 7 4 5 5 4 6 3 7 2 8 1 9 10 11 11 12 15 13 16 14
REMARK SMILES IDX 17 15 12 17 13 18 14 19
REMARK H PARENT
REMARK Flexibility Score: 70.00
ROOT
ATOM      1  C   UNL     1      -7.661  -0.881   9.769  1.00  0.00     0.136 C 
ATOM      2  O   UNL     1      -7.142  -0.081  10.534  1.00  0.00    -0.299 OA
ENDROOT
BRANCH   1   3
ATOM      3  C   UNL     1      -8.627  -0.357   8.724  1.00  0.00     0.053 C 
ATOM      4  C   UNL     1     -10.024  -0.201   9.341  1.00  0.00     0.016 C 
BRANCH   3   5
ATOM      5  C   UNL     1      -8.660  -1.308   7.485  1.00  0.00     0.015 C 
BRANCH   5   6
ATOM      6  C   UNL     1      -7.260  -1.604   6.904  1.00  0.00     0.028 C 
BRANCH   6   7
ATOM      7  C   UNL     1      -7.007  -3.065   6.599  1.00  0.00    -0.028 C 
ATOM      8  C   UNL     1      -5.861  -3.758   6.830  1.00  0.00    -0.070 CG0
ATOM      9  C   UNL     1      -5.793  -5.177   6.319  1.00  0.00     0.039 C 
ATOM     10  G   UNL     1      -4.688  -3.226   7.643  1.00  0.00     0.000 G0
ENDBRANCH   6   7
ENDBRANCH   5   6
ENDBRANCH   3   5
ENDBRANCH   1   3
BRANCH   1  11
ATOM     11  C   UNL     1      -7.273  -2.342   9.917  1.00  0.00     0.087 C 
BRANCH  11  12
ATOM     12  C   UNL     1      -5.758  -2.699   9.992  1.00  0.00     0.066 C 
BRANCH  12  13
ATOM     13  C   UNL     1      -4.972  -2.283   8.750  1.00  0.00     0.140 C 
ATOM     14  O   UNL     1      -4.487  -1.160   8.720  1.00  0.00    -0.299 OA
BRANCH  13  15
ATOM     15  C   UNL     1      -4.650  -3.251   7.635  1.00  0.00     0.106 CG0
ATOM     16  G   UNL     1      -5.866  -3.745   6.862  1.00  0.00     0.000 G0
ENDBRANCH  13  15
ENDBRANCH  12  13
BRANCH  12  17
ATOM     17  C   UNL     1      -5.554  -4.227  10.272  1.00  0.00    -0.006 C 
ATOM     18  C   UNL     1      -4.088  -4.566  10.605  1.00  0.00     0.008 C 
ATOM     19  C   UNL     1      -6.449  -4.735  11.418  1.00  0.00     0.008 C 
ENDBRANCH  12  17
ENDBRANCH  11  12
ENDBRANCH   1  11
TORSDOF 1
ENDMDL
MODEL 3
REMARK VINA RESULT:    -3.202      1.777      4.215
REMARK INTER + INTRA:          -3.603
REMARK INTER:                  -4.523
REMARK INTRA:                   0.920
REMARK UNBOUND:                 1.283
REMARK SMILES CC1=CCC[C@@H](C)C(=O)C[C@@H](C(C)C)C(=O)C1
REMARK SMILES IDX 8 1 9 2 6 3 7 4 5 5 4 6 3 7 2 8 1 9 10 11 11 12 15 13 16 14
REMARK SMILES IDX 17 15 12 17 13 18 14 19
REMARK H PARENT
REMARK Flexibility Score: 70.00
ROOT
ATOM      1  C   UNL     1      -7.634  -2.114   6.395  1.00  0.00     0.136 C 
ATOM      2  O   UNL     1      -7.466  -2.780   5.383  1.00  0.00    -0.299 OA
ENDROOT
BRANCH   1   3
ATOM      3  C   UNL     1      -8.881  -1.259   6.497  1.00  0.00     0.053 C 
ATOM      4  C   UNL     1      -9.432  -0.977   5.092  1.00  0.00     0.016 C 
BRANCH   3   5
ATOM      5  C   UNL     1      -8.573   0.069   7.259  1.00  0.00     0.015 C 
BRANCH   5   6
ATOM      6  C   UNL     1      -8.818  -0.029   8.781  1.00  0.00     0.028 C 
BRANCH   6   7
ATOM      7  C   UNL     1      -7.572   0.125   9.626  1.00  0.00    -0.028 C 
ATOM      8  C   UNL     1      -7.024  -0.810  10.445  1.00  0.00    -0.070 CG0
ATOM      9  C   UNL     1      -5.850  -0.386  11.295  1.00  0.00     0.039 C 
ATOM     10  G   UNL     1      -7.460  -2.269  10.491  1.00  0.00     0.000 G0
ENDBRANCH   6   7
ENDBRANCH   5   6
ENDBRANCH   3   5
ENDBRANCH   1   3
BRANCH   1  11
ATOM     11  C   UNL     1      -6.580  -2.221   7.484  1.00  0.00     0.087 C 
BRANCH  11  12
ATOM     12  C   UNL     1      -6.536  -3.519   8.345  1.00  0.00     0.066 C 
BRANCH  12  13
ATOM     13  C   UNL     1      -6.554  -3.252   9.849  1.00  0.00     0.140 C 
ATOM     14  O   UNL     1      -5.692  -3.779  10.541  1.00  0.00    -0.299 OA
BRANCH  13  15
ATOM     15  C   UNL     1      -7.494  -2.254  10.482  1.00  0.00     0.106 CG0
ATOM     16  G   UNL     1      -6.999  -0.814  10.443  1.00  0.00     0.000 G0
ENDBRANCH  13  15
ENDBRANCH  12  13
BRANCH  12  17
ATOM     17  C   UNL     1      -5.298  -4.401   7.969  1.00  0.00    -0.006 C 
ATOM     18  C   UNL     1      -5.354  -4.889   6.508  1.00  0.00     0.008 C 
ATOM     19  C   UNL     1      -3.965  -3.660   8.189  1.00  0.00     0.008 C 
ENDBRANCH  12  17
ENDBRANCH  11  12
ENDBRANCH   1  11
TORSDOF 1
ENDMDL
MODEL 4
REMARK VINA RESULT:    -3.182      1.889      5.201
REMARK INTER + INTRA:          -3.574
REMARK INTER:                  -4.321
REMARK INTRA:                   0.748
REMARK UNBOUND:                 1.283
REMARK SMILES CC1=CCC[C@@H](C)C(=O)C[C@@H](C(C)C)C(=O)C1
REMARK SMILES IDX 8 1 9 2 6 3 7 4 5 5 4 6 3 7 2 8 1 9 10 11 11 12 15 13 16 14
REMARK SMILES IDX 17 15 12 17 13 18 14 19
REMARK H PARENT
REMARK Flexibility Score: 70.00
ROOT
ATOM      1  C   UNL     1      -7.579  -1.526  10.233  1.00  0.00     0.136 C 
ATOM      2  O   UNL     1      -8.046  -2.616  10.531  1.00  0.00    -0.299 OA
ENDROOT
BRANCH   1   3
ATOM      3  C   UNL     1      -8.503  -0.323  10.225  1.00  0.00     0.053 C 
ATOM      4  C   UNL     1      -8.783   0.125  11.666  1.00  0.00     0.016 C 
BRANCH   3   5
ATOM      5  C   UNL     1      -9.829  -0.658   9.471  1.00  0.00     0.015 C 
BRANCH   5   6
ATOM      6  C   UNL     1      -9.988   0.113   8.142  1.00  0.00     0.028 C 
BRANCH   6   7
ATOM      7  C   UNL     1      -9.818  -0.737   6.902  1.00  0.00    -0.028 C 
ATOM      8  C   UNL     1      -8.646  -1.137   6.344  1.00  0.00    -0.070 CG0
ATOM      9  C   UNL     1      -8.719  -1.872   5.027  1.00  0.00     0.039 C 
ATOM     10  G   UNL     1      -7.283  -0.972   7.005  1.00  0.00     0.000 G0
ENDBRANCH   6   7
ENDBRANCH   5   6
ENDBRANCH   3   5
ENDBRANCH   1   3
BRANCH   1  11
ATOM     11  C   UNL     1      -6.095  -1.464   9.917  1.00  0.00     0.087 C 
BRANCH  11  12
ATOM     12  C   UNL     1      -5.583  -2.181   8.631  1.00  0.00     0.066 C 
BRANCH  12  13
ATOM     13  C   UNL     1      -6.608  -2.204   7.499  1.00  0.00     0.140 C 
ATOM     14  O   UNL     1      -6.986  -3.290   7.081  1.00  0.00    -0.299 OA
BRANCH  13  15
ATOM     15  C   UNL     1      -7.276  -0.949   6.987  1.00  0.00     0.106 CG0
ATOM     16  G   UNL     1      -8.645  -1.178   6.359  1.00  0.00     0.000 G0
ENDBRANCH  13  15
ENDBRANCH  12  13
BRANCH  12  17
ATOM     17  C   UNL     1      -5.104  -3.637   8.953  1.00  0.00    -0.006 C 
ATOM     18  C   UNL     1      -3.786  -3.986   8.234  1.00  0.00     0.008 C 
ATOM     19  C   UNL     1      -4.916  -3.869  10.464  1.00  0.00     0.008 C 
ENDBRANCH  12  17
ENDBRANCH  11  12
ENDBRANCH   1  11
TORSDOF 1
ENDMDL
MODEL 5
REMARK VINA RESULT:    -3.155      1.822      4.253
REMARK INTER + INTRA:          -3.532
REMARK INTER:                  -3.878
REMARK INTRA:                   0.346
REMARK UNBOUND:                 1.283
REMARK SMILES CC1=CCC[C@@H](C)C(=O)C[C@@H](C(C)C)C(=O)C1
REMARK SMILES IDX 8 1 9 2 6 3 7 4 5 5 4 6 3 7 2 8 1 9 10 11 11 12 15 13 16 14
REMARK SMILES IDX 17 15 12 17 13 18 14 19
REMARK H PARENT
REMARK Flexibility Score: 70.00
ROOT
ATOM      1  C   UNL     1      -6.918  -2.791   6.525  1.00  0.00     0.136 C 
ATOM      2  O   UNL     1      -6.779  -3.865   5.956  1.00  0.00    -0.299 OA
ENDROOT
BRANCH   1   3
ATOM      3  C   UNL     1      -8.206  -2.022   6.306  1.00  0.00     0.053 C 
ATOM      4  C   UNL     1      -8.664  -2.180   4.850  1.00  0.00     0.016 C 
BRANCH   3   5
ATOM      5  C   UNL     1      -8.014  -0.517   6.676  1.00  0.00     0.015 C 
BRANCH   5   6
ATOM      6  C   UNL     1      -9.267   0.121   7.316  1.00  0.00     0.028 C 
BRANCH   6   7
ATOM      7  C   UNL     1      -9.369  -0.068   8.814  1.00  0.00    -0.028 C 
ATOM      8  C   UNL     1      -8.339  -0.199   9.689  1.00  0.00    -0.070 CG0
ATOM      9  C   UNL     1      -8.684  -0.512  11.126  1.00  0.00     0.039 C 
ATOM     10  G   UNL     1      -6.877   0.037   9.332  1.00  0.00     0.000 G0
ENDBRANCH   6   7
ENDBRANCH   5   6
ENDBRANCH   3   5
ENDBRANCH   1   3
BRANCH   1  11
ATOM     11  C   UNL     1      -5.790  -2.327   7.429  1.00  0.00     0.087 C 
BRANCH  11  12
ATOM     12  C   UNL     1      -5.978  -2.454   8.971  1.00  0.00     0.066 C 
BRANCH  12  13
ATOM     13  C   UNL     1      -5.955  -1.111   9.698  1.00  0.00     0.140 C 
ATOM     14  O   UNL     1      -5.070  -0.912  10.520  1.00  0.00    -0.299 OA
BRANCH  13  15
ATOM     15  C   UNL     1      -6.885   0.023   9.333  1.00  0.00     0.106 CG0
ATOM     16  G   UNL     1      -8.344  -0.222   9.692  1.00  0.00     0.000 G0
ENDBRANCH  13  15
ENDBRANCH  12  13
BRANCH  12  17
ATOM     17  C   UNL     1      -4.913  -3.420   9.590  1.00  0.00    -0.006 C 
ATOM     18  C   UNL     1      -5.554  -4.485  10.502  1.00  0.00     0.008 C 
ATOM     19  C   UNL     1      -4.077  -4.136   8.511  1.00  0.00     0.008 C 
ENDBRANCH  12  17
ENDBRANCH  11  12
ENDBRANCH   1  11
TORSDOF 1
ENDMDL
MODEL 6
REMARK VINA RESULT:    -3.132      2.045      3.560
REMARK INTER + INTRA:          -3.497
REMARK INTER:                  -3.840
REMARK INTRA:                   0.343
REMARK UNBOUND:                 1.283
REMARK SMILES CC1=CCC[C@@H](C)C(=O)C[C@@H](C(C)C)C(=O)C1
REMARK SMILES IDX 8 1 9 2 6 3 7 4 5 5 4 6 3 7 2 8 1 9 10 11 11 12 15 13 16 14
REMARK SMILES IDX 17 15 12 17 13 18 14 19
REMARK H PARENT
REMARK Flexibility Score: 70.00
ROOT
ATOM      1  C   UNL     1      -6.215  -3.103  10.520  1.00  0.00     0.136 C 
ATOM      2  O   UNL     1      -7.037  -3.986  10.723  1.00  0.00    -0.299 OA
ENDROOT
BRANCH   1   3
ATOM      3  C   UNL     1      -4.744  -3.442  10.660  1.00  0.00     0.053 C 
ATOM      4  C   UNL     1      -3.893  -2.215  10.304  1.00  0.00     0.016 C 
BRANCH   3   5
ATOM      5  C   UNL     1      -4.376  -4.664   9.759  1.00  0.00     0.015 C 
BRANCH   5   6
ATOM      6  C   UNL     1      -3.860  -4.259   8.360  1.00  0.00     0.028 C 
BRANCH   6   7
ATOM      7  C   UNL     1      -4.845  -4.503   7.237  1.00  0.00    -0.028 C 
ATOM      8  C   UNL     1      -5.825  -3.661   6.817  1.00  0.00    -0.070 CG0
ATOM      9  C   UNL     1      -6.776  -4.173   5.762  1.00  0.00     0.039 C 
ATOM     10  G   UNL     1      -5.965  -2.215   7.275  1.00  0.00     0.000 G0
ENDBRANCH   6   7
ENDBRANCH   5   6
ENDBRANCH   3   5
ENDBRANCH   1   3
BRANCH   1  11
ATOM     11  C   UNL     1      -6.742  -1.737  10.117  1.00  0.00     0.087 C 
BRANCH  11  12
ATOM     12  C   UNL     1      -7.887  -1.669   9.061  1.00  0.00     0.066 C 
BRANCH  12  13
ATOM     13  C   UNL     1      -7.395  -1.800   7.621  1.00  0.00     0.140 C 
ATOM     14  O   UNL     1      -8.143  -1.449   6.719  1.00  0.00    -0.299 OA
BRANCH  13  15
ATOM     15  C   UNL     1      -5.977  -2.201   7.284  1.00  0.00     0.106 CG0
ATOM     16  G   UNL     1      -5.827  -3.644   6.819  1.00  0.00     0.000 G0
ENDBRANCH  13  15
ENDBRANCH  12  13
BRANCH  12  17
ATOM     17  C   UNL     1      -8.725  -0.356   9.226  1.00  0.00    -0.006 C 
ATOM     18  C   UNL     1     -10.129  -0.481   8.601  1.00  0.00     0.008 C 
ATOM     19  C   UNL     1      -8.880   0.056  10.703  1.00  0.00     0.008 C 
ENDBRANCH  12  17
ENDBRANCH  11  12
ENDBRANCH   1  11
TORSDOF 1
ENDMDL
MODEL 7
REMARK VINA RESULT:    -3.125      1.521      3.849
REMARK INTER + INTRA:          -3.487
REMARK INTER:                  -5.385
REMARK INTRA:                   1.899
REMARK UNBOUND:                 1.283
REMARK SMILES CC1=CCC[C@@H](C)C(=O)C[C@@H](C(C)C)C(=O)C1
REMARK SMILES IDX 8 1 9 2 6 3 7 4 5 5 4 6 3 7 2 8 1 9 10 11 11 12 15 13 16 14
REMARK SMILES IDX 17 15 12 17 13 18 14 19
REMARK H PARENT
REMARK Flexibility Score: 70.00
ROOT
ATOM      1  C   UNL     1      -5.531  -3.553   9.566  1.00  0.00     0.136 C 
ATOM      2  O   UNL     1      -4.887  -3.705  10.595  1.00  0.00    -0.299 OA
ENDROOT
BRANCH   1   3
ATOM      3  C   UNL     1      -4.895  -3.958   8.251  1.00  0.00     0.053 C 
ATOM      4  C   UNL     1      -3.386  -3.679   8.297  1.00  0.00     0.016 C 
BRANCH   3   5
ATOM      5  C   UNL     1      -5.571  -3.206   7.062  1.00  0.00     0.015 C 
BRANCH   5   6
ATOM      6  C   UNL     1      -7.086  -3.485   6.944  1.00  0.00     0.028 C 
BRANCH   6   7
ATOM      7  C   UNL     1      -7.844  -2.478   6.105  1.00  0.00    -0.028 C 
ATOM      8  C   UNL     1      -8.074  -1.175   6.409  1.00  0.00    -0.070 CG0
ATOM      9  C   UNL     1      -8.971  -0.393   5.479  1.00  0.00     0.039 C 
ATOM     10  G   UNL     1      -7.416  -0.437   7.567  1.00  0.00     0.000 G0
ENDBRANCH   6   7
ENDBRANCH   5   6
ENDBRANCH   3   5
ENDBRANCH   1   3
BRANCH   1  11
ATOM     11  C   UNL     1      -6.934  -2.987   9.697  1.00  0.00     0.087 C 
BRANCH  11  12
ATOM     12  C   UNL     1      -7.093  -1.461   9.973  1.00  0.00     0.066 C 
BRANCH  12  13
ATOM     13  C   UNL     1      -7.950  -0.742   8.933  1.00  0.00     0.140 C 
ATOM     14  O   UNL     1      -9.050  -0.328   9.275  1.00  0.00    -0.299 OA
BRANCH  13  15
ATOM     15  C   UNL     1      -7.432  -0.395   7.557  1.00  0.00     0.106 CG0
ATOM     16  G   UNL     1      -8.073  -1.190   6.426  1.00  0.00     0.000 G0
ENDBRANCH  13  15
ENDBRANCH  12  13
BRANCH  12  17
ATOM     17  C   UNL     1      -5.696  -0.764  10.095  1.00  0.00    -0.006 C 
ATOM     18  C   UNL     1      -5.377   0.117   8.871  1.00  0.00     0.008 C 
ATOM     19  C   UNL     1      -5.585   0.102  11.366  1.00  0.00     0.008 C 
ENDBRANCH  12  17
ENDBRANCH  11  12
ENDBRANCH   1  11
TORSDOF 1
ENDMDL
MODEL 8
REMARK VINA RESULT:    -3.066      1.522      2.046
REMARK INTER + INTRA:          -3.396
REMARK INTER:                  -3.488
REMARK INTRA:                   0.093
REMARK UNBOUND:                 1.283
REMARK SMILES CC1=CCC[C@@H](C)C(=O)C[C@@H](C(C)C)C(=O)C1
REMARK SMILES IDX 8 1 9 2 6 3 7 4 5 5 4 6 3 7 2 8 1 9 10 11 11 12 15 13 16 14
REMARK SMILES IDX 17 15 12 17 13 18 14 19
REMARK H PARENT
REMARK Flexibility Score: 70.00
ROOT
ATOM      1  C   UNL     1      -6.899  -3.164   6.720  1.00  0.00     0.136 C 
ATOM      2  O   UNL     1      -7.617  -2.927   5.758  1.00  0.00    -0.299 OA
ENDROOT
BRANCH   1   3
ATOM      3  C   UNL     1      -5.718  -4.094   6.524  1.00  0.00     0.053 C 
ATOM      4  C   UNL     1      -6.011  -5.072   5.379  1.00  0.00     0.016 C 
BRANCH   3   5
ATOM      5  C   UNL     1      -5.398  -4.857   7.849  1.00  0.00     0.015 C 
BRANCH   5   6
ATOM      6  C   UNL     1      -4.085  -4.395   8.519  1.00  0.00     0.028 C 
BRANCH   6   7
ATOM      7  C   UNL     1      -4.266  -3.782   9.892  1.00  0.00    -0.028 C 
ATOM      8  C   UNL     1      -4.355  -2.459  10.187  1.00  0.00    -0.070 CG0
ATOM      9  C   UNL     1      -4.400  -2.075  11.646  1.00  0.00     0.039 C 
ATOM     10  G   UNL     1      -4.503  -1.358   9.145  1.00  0.00     0.000 G0
ENDBRANCH   6   7
ENDBRANCH   5   6
ENDBRANCH   3   5
ENDBRANCH   1   3
BRANCH   1  11
ATOM     11  C   UNL     1      -7.241  -2.482   8.032  1.00  0.00     0.087 C 
BRANCH  11  12
ATOM     12  C   UNL     1      -6.948  -0.958   8.171  1.00  0.00     0.066 C 
BRANCH  12  13
ATOM     13  C   UNL     1      -5.838  -0.641   9.172  1.00  0.00     0.140 C 
ATOM     14  O   UNL     1      -6.090   0.124  10.094  1.00  0.00    -0.299 OA
BRANCH  13  15
ATOM     15  C   UNL     1      -4.503  -1.348   9.150  1.00  0.00     0.106 CG0
ATOM     16  G   UNL     1      -4.366  -2.462  10.180  1.00  0.00     0.000 G0
ENDBRANCH  13  15
ENDBRANCH  12  13
BRANCH  12  17
ATOM     17  C   UNL     1      -8.248  -0.166   8.541  1.00  0.00    -0.006 C 
ATOM     18  C   UNL     1      -9.154   0.068   7.316  1.00  0.00     0.008 C 
ATOM     19  C   UNL     1      -9.072  -0.875   9.633  1.00  0.00     0.008 C 
ENDBRANCH  12  17
ENDBRANCH  11  12
ENDBRANCH   1  11
TORSDOF 1
ENDMDL
MODEL 9
REMARK VINA RESULT:    -2.933      1.564      4.024
REMARK INTER + INTRA:          -3.192
REMARK INTER:                  -3.270
REMARK INTRA:                   0.078
REMARK UNBOUND:                 1.283
REMARK SMILES CC1=CCC[C@@H](C)C(=O)C[C@@H](C(C)C)C(=O)C1
REMARK SMILES IDX 8 1 9 2 6 3 7 4 5 5 4 6 3 7 2 8 1 9 10 11 11 12 15 13 16 14
REMARK SMILES IDX 17 15 12 17 13 18 14 19
REMARK H PARENT
REMARK Flexibility Score: 70.00
ROOT
ATOM      1  C   UNL     1      -7.860  -2.424   8.831  1.00  0.00     0.136 C 
ATOM      2  O   UNL     1      -7.904  -3.182   9.790  1.00  0.00    -0.299 OA
ENDROOT
BRANCH   1   3
ATOM      3  C   UNL     1      -8.603  -1.105   8.922  1.00  0.00     0.053 C 
ATOM      4  C   UNL     1      -8.455  -0.335   7.603  1.00  0.00     0.016 C 
BRANCH   3   5
ATOM      5  C   UNL     1      -8.077  -0.264  10.128  1.00  0.00     0.015 C 
BRANCH   5   6
ATOM      6  C   UNL     1      -6.586   0.122  10.001  1.00  0.00     0.028 C 
BRANCH   6   7
ATOM      7  C   UNL     1      -5.647  -0.732  10.826  1.00  0.00    -0.028 C 
ATOM      8  C   UNL     1      -4.815  -1.702  10.367  1.00  0.00    -0.070 CG0
ATOM      9  C   UNL     1      -4.066  -2.517  11.394  1.00  0.00     0.039 C 
ATOM     10  G   UNL     1      -4.527  -1.956   8.893  1.00  0.00     0.000 G0
ENDBRANCH   6   7
ENDBRANCH   5   6
ENDBRANCH   3   5
ENDBRANCH   1   3
BRANCH   1  11
ATOM     11  C   UNL     1      -7.039  -2.861   7.631  1.00  0.00     0.087 C 
BRANCH  11  12
ATOM     12  C   UNL     1      -5.941  -3.947   7.842  1.00  0.00     0.066 C 
BRANCH  12  13
ATOM     13  C   UNL     1      -4.659  -3.401   8.468  1.00  0.00     0.140 C 
ATOM     14  O   UNL     1      -3.679  -4.132   8.512  1.00  0.00    -0.299 OA
BRANCH  13  15
ATOM     15  C   UNL     1      -4.516  -1.957   8.891  1.00  0.00     0.106 CG0
ATOM     16  G   UNL     1      -4.832  -1.699  10.358  1.00  0.00     0.000 G0
ENDBRANCH  13  15
ENDBRANCH  12  13
BRANCH  12  17
ATOM     17  C   UNL     1      -5.614  -4.684   6.500  1.00  0.00    -0.006 C 
ATOM     18  C   UNL     1      -5.633  -6.217   6.659  1.00  0.00     0.008 C 
ATOM     19  C   UNL     1      -6.586  -4.295   5.368  1.00  0.00     0.008 C 
ENDBRANCH  12  17
ENDBRANCH  11  12
ENDBRANCH   1  11
TORSDOF 1
ENDMDL
