MODEL 1
REMARK VINA RESULT:    -1.648      0.000      0.000
REMARK INTER + INTRA:          -1.648
REMARK INTER:                  -1.648
REMARK INTRA:                   0.000
REMARK UNBOUND:                 0.000
REMARK SMILES CC(=O)[O-]
REMARK SMILES IDX 1 1 2 2 3 3 4 4
REMARK H PARENT
REMARK Flexibility Score: inf
ROOT
ATOM      1  C   UNL     1      15.117  50.707  61.391  1.00  0.00     0.063 C 
ATOM      2  C   UNL     1      15.962  51.382  60.365  1.00  0.00     0.038 C 
ATOM      3  O   UNL     1      15.431  51.898  59.347  1.00  0.00    -0.550 OA
ATOM      4  O   UNL     1      17.334  51.490  60.555  1.00  0.00    -0.550 OA
ENDROOT
TORSDOF 0
ENDMDL
MODEL 2
REMARK VINA RESULT:    -1.631      1.406      2.076
REMARK INTER + INTRA:          -1.631
REMARK INTER:                  -1.631
REMARK INTRA:                   0.000
REMARK UNBOUND:                 0.000
REMARK SMILES CC(=O)[O-]
REMARK SMILES IDX 1 1 2 2 3 3 4 4
REMARK H PARENT
REMARK Flexibility Score: inf
ROOT
ATOM      1  C   UNL     1      15.289  52.063  59.380  1.00  0.00     0.063 C 
ATOM      2  C   UNL     1      15.938  51.320  60.497  1.00  0.00     0.038 C 
ATOM      3  O   UNL     1      17.180  51.415  60.683  1.00  0.00    -0.550 OA
ATOM      4  O   UNL     1      15.167  50.562  61.370  1.00  0.00    -0.550 OA
ENDROOT
TORSDOF 0
ENDMDL
MODEL 3
REMARK VINA RESULT:    -1.577      1.403      1.768
REMARK INTER + INTRA:          -1.577
REMARK INTER:                  -1.577
REMARK INTRA:                   0.000
REMARK UNBOUND:                 0.000
REMARK SMILES CC(=O)[O-]
REMARK SMILES IDX 1 1 2 2 3 3 4 4
REMARK H PARENT
REMARK Flexibility Score: inf
ROOT
ATOM      1  C   UNL     1      17.292  51.589  60.656  1.00  0.00     0.063 C 
ATOM      2  C   UNL     1      15.838  51.336  60.444  1.00  0.00     0.038 C 
ATOM      3  O   UNL     1      15.268  51.756  59.403  1.00  0.00    -0.550 OA
ATOM      4  O   UNL     1      15.119  50.589  61.370  1.00  0.00    -0.550 OA
ENDROOT
TORSDOF 0
ENDMDL
MODEL 4
REMARK VINA RESULT:    -0.304      6.751      6.918
REMARK INTER + INTRA:          -0.304
REMARK INTER:                  -0.304
REMARK INTRA:                   0.000
REMARK UNBOUND:                 0.000
REMARK SMILES CC(=O)[O-]
REMARK SMILES IDX 1 1 2 2 3 3 4 4
REMARK H PARENT
REMARK Flexibility Score: inf
ROOT
ATOM      1  C   UNL     1      17.168  44.615  56.220  1.00  0.00     0.063 C 
ATOM      2  C   UNL     1      16.657  45.804  56.960  1.00  0.00     0.038 C 
ATOM      3  O   UNL     1      17.357  46.847  57.043  1.00  0.00    -0.550 OA
ATOM      4  O   UNL     1      15.384  45.783  57.516  1.00  0.00    -0.550 OA
ENDROOT
TORSDOF 0
ENDMDL
MODEL 5
REMARK VINA RESULT:    -0.270      7.431      7.488
REMARK INTER + INTRA:          -0.270
REMARK INTER:                  -0.270
REMARK INTRA:                   0.000
REMARK UNBOUND:                 0.000
REMARK SMILES CC(=O)[O-]
REMARK SMILES IDX 1 1 2 2 3 3 4 4
REMARK H PARENT
REMARK Flexibility Score: inf
ROOT
ATOM      1  C   UNL     1      16.849  46.450  57.267  1.00  0.00     0.063 C 
ATOM      2  C   UNL     1      17.108  45.177  56.534  1.00  0.00     0.038 C 
ATOM      3  O   UNL     1      16.193  44.321  56.410  1.00  0.00    -0.550 OA
ATOM      4  O   UNL     1      18.344  44.955  55.940  1.00  0.00    -0.550 OA
ENDROOT
TORSDOF 0
ENDMDL
MODEL 6
REMARK VINA RESULT:     0.512      8.457      9.073
REMARK INTER + INTRA:           0.512
REMARK INTER:                   0.512
REMARK INTRA:                   0.000
REMARK UNBOUND:                 0.000
REMARK SMILES CC(=O)[O-]
REMARK SMILES IDX 1 1 2 2 3 3 4 4
REMARK H PARENT
REMARK Flexibility Score: inf
ROOT
ATOM      1  C   UNL     1       9.534  54.807  54.503  1.00  0.00     0.063 C 
ATOM      2  C   UNL     1       9.246  53.393  54.880  1.00  0.00     0.038 C 
ATOM      3  O   UNL     1       8.081  52.932  54.766  1.00  0.00    -0.550 OA
ATOM      4  O   UNL     1      10.276  52.563  55.306  1.00  0.00    -0.550 OA
ENDROOT
TORSDOF 0
ENDMDL
