MODEL 1
REMARK VINA RESULT:    -2.874      0.000      0.000
REMARK INTER + INTRA:          -2.874
REMARK INTER:                  -2.874
REMARK INTRA:                   0.000
REMARK UNBOUND:                 0.000
REMARK SMILES CC(=O)[O-]
REMARK SMILES IDX 1 1 2 2 3 3 4 4
REMARK H PARENT
REMARK Flexibility Score: inf
ROOT
ATOM      1  C   UNL     1       3.338   7.820  53.992  1.00  0.00     0.063 C 
ATOM      2  C   UNL     1       3.367   9.294  53.770  1.00  0.00     0.038 C 
ATOM      3  O   UNL     1       3.084   9.768  52.639  1.00  0.00    -0.550 OA
ATOM      4  O   UNL     1       3.652  10.151  54.825  1.00  0.00    -0.550 OA
ENDROOT
TORSDOF 0
ENDMDL
MODEL 2
REMARK VINA RESULT:    -2.819      1.506      1.992
REMARK INTER + INTRA:          -2.819
REMARK INTER:                  -2.819
REMARK INTRA:                   0.000
REMARK UNBOUND:                 0.000
REMARK SMILES CC(=O)[O-]
REMARK SMILES IDX 1 1 2 2 3 3 4 4
REMARK H PARENT
REMARK Flexibility Score: inf
ROOT
ATOM      1  C   UNL     1       3.248   9.367  52.906  1.00  0.00     0.063 C 
ATOM      2  C   UNL     1       3.443   9.159  54.370  1.00  0.00     0.038 C 
ATOM      3  O   UNL     1       3.688  10.139  55.120  1.00  0.00    -0.550 OA
ATOM      4  O   UNL     1       3.300   7.891  54.917  1.00  0.00    -0.550 OA
ENDROOT
TORSDOF 0
ENDMDL
MODEL 3
REMARK VINA RESULT:    -2.800      1.689      1.965
REMARK INTER + INTRA:          -2.800
REMARK INTER:                  -2.800
REMARK INTRA:                   0.000
REMARK UNBOUND:                 0.000
REMARK SMILES CC(=O)[O-]
REMARK SMILES IDX 1 1 2 2 3 3 4 4
REMARK H PARENT
REMARK Flexibility Score: inf
ROOT
ATOM      1  C   UNL     1       3.010   9.811  54.219  1.00  0.00     0.063 C 
ATOM      2  C   UNL     1       3.563   8.428  54.161  1.00  0.00     0.038 C 
ATOM      3  O   UNL     1       3.851   7.908  53.051  1.00  0.00    -0.550 OA
ATOM      4  O   UNL     1       3.813   7.728  55.334  1.00  0.00    -0.550 OA
ENDROOT
TORSDOF 0
ENDMDL
MODEL 4
REMARK VINA RESULT:    -2.064     14.236     14.684
REMARK INTER + INTRA:          -2.064
REMARK INTER:                  -2.064
REMARK INTRA:                   0.000
REMARK UNBOUND:                 0.000
REMARK SMILES CC(=O)[O-]
REMARK SMILES IDX 1 1 2 2 3 3 4 4
REMARK H PARENT
REMARK Flexibility Score: inf
ROOT
ATOM      1  C   UNL     1      11.294  20.241  55.431  1.00  0.00     0.063 C 
ATOM      2  C   UNL     1      12.720  20.455  55.049  1.00  0.00     0.038 C 
ATOM      3  O   UNL     1      13.053  21.483  54.403  1.00  0.00    -0.550 OA
ATOM      4  O   UNL     1      13.691  19.548  55.451  1.00  0.00    -0.550 OA
ENDROOT
TORSDOF 0
ENDMDL
MODEL 5
REMARK VINA RESULT:    -2.005     11.687     12.189
REMARK INTER + INTRA:          -2.005
REMARK INTER:                  -2.005
REMARK INTRA:                   0.000
REMARK UNBOUND:                 0.000
REMARK SMILES CC(=O)[O-]
REMARK SMILES IDX 1 1 2 2 3 3 4 4
REMARK H PARENT
REMARK Flexibility Score: inf
ROOT
ATOM      1  C   UNL     1       4.143  20.639  54.080  1.00  0.00     0.063 C 
ATOM      2  C   UNL     1       5.182  21.182  55.002  1.00  0.00     0.038 C 
ATOM      3  O   UNL     1       4.900  22.125  55.787  1.00  0.00    -0.550 OA
ATOM      4  O   UNL     1       6.448  20.612  55.037  1.00  0.00    -0.550 OA
ENDROOT
TORSDOF 0
ENDMDL
MODEL 6
REMARK VINA RESULT:    -1.932     14.129     14.613
REMARK INTER + INTRA:          -1.932
REMARK INTER:                  -1.932
REMARK INTRA:                   0.000
REMARK UNBOUND:                 0.000
REMARK SMILES CC(=O)[O-]
REMARK SMILES IDX 1 1 2 2 3 3 4 4
REMARK H PARENT
REMARK Flexibility Score: inf
ROOT
ATOM      1  C   UNL     1      13.797  19.523  55.913  1.00  0.00     0.063 C 
ATOM      2  C   UNL     1      12.732  20.244  55.159  1.00  0.00     0.038 C 
ATOM      3  O   UNL     1      11.531  19.880  55.259  1.00  0.00    -0.550 OA
ATOM      4  O   UNL     1      13.054  21.353  54.388  1.00  0.00    -0.550 OA
ENDROOT
TORSDOF 0
ENDMDL
MODEL 7
REMARK VINA RESULT:    -1.825     13.340     13.919
REMARK INTER + INTRA:          -1.825
REMARK INTER:                  -1.825
REMARK INTRA:                   0.000
REMARK UNBOUND:                 0.000
REMARK SMILES CC(=O)[O-]
REMARK SMILES IDX 1 1 2 2 3 3 4 4
REMARK H PARENT
REMARK Flexibility Score: inf
ROOT
ATOM      1  C   UNL     1       9.389  20.640  56.125  1.00  0.00     0.063 C 
ATOM      2  C   UNL     1      10.861  20.710  55.901  1.00  0.00     0.038 C 
ATOM      3  O   UNL     1      11.465  21.810  56.005  1.00  0.00    -0.550 OA
ATOM      4  O   UNL     1      11.580  19.553  55.629  1.00  0.00    -0.550 OA
ENDROOT
TORSDOF 0
ENDMDL
MODEL 8
REMARK VINA RESULT:    -1.663     13.798     14.304
REMARK INTER + INTRA:          -1.663
REMARK INTER:                  -1.663
REMARK INTRA:                   0.000
REMARK UNBOUND:                 0.000
REMARK SMILES CC(=O)[O-]
REMARK SMILES IDX 1 1 2 2 3 3 4 4
REMARK H PARENT
REMARK Flexibility Score: inf
ROOT
ATOM      1  C   UNL     1      12.679  19.589  56.067  1.00  0.00     0.063 C 
ATOM      2  C   UNL     1      11.781  20.658  55.543  1.00  0.00     0.038 C 
ATOM      3  O   UNL     1      12.269  21.699  55.032  1.00  0.00    -0.550 OA
ATOM      4  O   UNL     1      10.403  20.482  55.567  1.00  0.00    -0.550 OA
ENDROOT
TORSDOF 0
ENDMDL
MODEL 9
REMARK VINA RESULT:    -1.445     11.971     12.155
REMARK INTER + INTRA:          -1.445
REMARK INTER:                  -1.445
REMARK INTRA:                   0.000
REMARK UNBOUND:                 0.000
REMARK SMILES CC(=O)[O-]
REMARK SMILES IDX 1 1 2 2 3 3 4 4
REMARK H PARENT
REMARK Flexibility Score: inf
ROOT
ATOM      1  C   UNL     1      12.280   2.340  56.067  1.00  0.00     0.063 C 
ATOM      2  C   UNL     1      13.324   2.466  55.009  1.00  0.00     0.038 C 
ATOM      3  O   UNL     1      13.180   1.877  53.906  1.00  0.00    -0.550 OA
ATOM      4  O   UNL     1      14.431   3.278  55.217  1.00  0.00    -0.550 OA
ENDROOT
TORSDOF 0
ENDMDL
