MODEL 1
REMARK VINA RESULT:    -5.533      0.000      0.000
REMARK INTER + INTRA:          -8.617
REMARK INTER:                  -7.959
REMARK INTRA:                  -0.658
REMARK UNBOUND:                -0.658
REMARK SMILES O=C(CO)[C@H](O)[C@@H](O)[C@@H](O)CO
REMARK SMILES IDX 7 1 9 2 11 3 12 4 10 6 5 8 2 9 1 10 3 11 4 12 6 14 8 16
REMARK H PARENT 12 5 10 7 4 13 6 15 8 17
REMARK Flexibility Score: inf
ROOT
ATOM      1  C   UNL     1       3.795  34.381  19.583  1.00  0.00     0.181 C 
ENDROOT
BRANCH   1   2
ATOM      2  C   UNL     1       3.865  35.309  18.333  1.00  0.00     0.171 C 
BRANCH   2   3
ATOM      3  C   UNL     1       2.663  36.260  18.146  1.00  0.00     0.190 C 
BRANCH   3   4
ATOM      4  O   UNL     1       2.122  36.667  19.375  1.00  0.00    -0.394 OA
ATOM      5  H   UNL     1       2.459  37.584  19.550  1.00  0.00     0.210 HD
ENDBRANCH   3   4
ENDBRANCH   2   3
BRANCH   2   6
ATOM      6  O   UNL     1       4.083  34.555  17.165  1.00  0.00    -0.388 OA
ATOM      7  H   UNL     1       3.199  34.270  16.814  1.00  0.00     0.211 HD
ENDBRANCH   2   6
ENDBRANCH   1   2
BRANCH   1   8
ATOM      8  C   UNL     1       4.506  34.958  20.849  1.00  0.00     0.214 C 
BRANCH   8   9
ATOM      9  C   UNL     1       5.478  33.981  21.488  1.00  0.00     0.189 C 
ATOM     10  O   UNL     1       5.962  33.105  20.786  1.00  0.00    -0.294 OA
BRANCH   9  11
ATOM     11  C   UNL     1       5.876  34.013  22.944  1.00  0.00     0.234 C 
BRANCH  11  12
ATOM     12  O   UNL     1       4.766  33.994  23.795  1.00  0.00    -0.388 OA
ATOM     13  H   UNL     1       4.753  33.093  24.212  1.00  0.00     0.211 HD
ENDBRANCH  11  12
ENDBRANCH   9  11
ENDBRANCH   8   9
BRANCH   8  14
ATOM     14  O   UNL     1       3.586  35.427  21.807  1.00  0.00    -0.382 OA
ATOM     15  H   UNL     1       4.042  36.084  22.394  1.00  0.00     0.211 HD
ENDBRANCH   8  14
ENDBRANCH   1   8
BRANCH   1  16
ATOM     16  O   UNL     1       2.467  34.015  19.872  1.00  0.00    -0.387 OA
ATOM     17  H   UNL     1       1.892  34.814  19.756  1.00  0.00     0.211 HD
ENDBRANCH   1  16
TORSDOF 10
ENDMDL
MODEL 2
REMARK VINA RESULT:    -5.461      1.587      2.560
REMARK INTER + INTRA:          -8.513
REMARK INTER:                  -7.701
REMARK INTRA:                  -0.812
REMARK UNBOUND:                -0.658
REMARK SMILES O=C(CO)[C@H](O)[C@@H](O)[C@@H](O)CO
REMARK SMILES IDX 7 1 9 2 11 3 12 4 10 6 5 8 2 9 1 10 3 11 4 12 6 14 8 16
REMARK H PARENT 12 5 10 7 4 13 6 15 8 17
REMARK Flexibility Score: inf
ROOT
ATOM      1  C   UNL     1       4.499  34.450  21.869  1.00  0.00     0.181 C 
ENDROOT
BRANCH   1   2
ATOM      2  C   UNL     1       4.855  34.273  20.362  1.00  0.00     0.171 C 
BRANCH   2   3
ATOM      3  C   UNL     1       3.716  34.593  19.370  1.00  0.00     0.190 C 
BRANCH   3   4
ATOM      4  O   UNL     1       2.471  34.150  19.843  1.00  0.00    -0.394 OA
ATOM      5  H   UNL     1       2.429  33.172  19.675  1.00  0.00     0.210 HD
ENDBRANCH   3   4
ENDBRANCH   2   3
BRANCH   2   6
ATOM      6  O   UNL     1       5.371  32.987  20.121  1.00  0.00    -0.388 OA
ATOM      7  H   UNL     1       5.954  33.035  19.320  1.00  0.00     0.211 HD
ENDBRANCH   2   6
ENDBRANCH   1   2
BRANCH   1   8
ATOM      8  C   UNL     1       5.737  34.472  22.821  1.00  0.00     0.214 C 
BRANCH   8   9
ATOM      9  C   UNL     1       5.965  33.153  23.539  1.00  0.00     0.189 C 
ATOM     10  O   UNL     1       6.258  32.174  22.869  1.00  0.00    -0.294 OA
BRANCH   9  11
ATOM     11  C   UNL     1       5.836  32.968  25.032  1.00  0.00     0.234 C 
BRANCH  11  12
ATOM     12  O   UNL     1       4.562  33.309  25.498  1.00  0.00    -0.388 OA
ATOM     13  H   UNL     1       4.493  34.296  25.419  1.00  0.00     0.211 HD
ENDBRANCH  11  12
ENDBRANCH   9  11
ENDBRANCH   8   9
BRANCH   8  14
ATOM     14  O   UNL     1       5.673  35.528  23.751  1.00  0.00    -0.382 OA
ATOM     15  H   UNL     1       4.841  36.044  23.593  1.00  0.00     0.211 HD
ENDBRANCH   8  14
ENDBRANCH   1   8
BRANCH   1  16
ATOM     16  O   UNL     1       3.686  35.582  22.070  1.00  0.00    -0.387 OA
ATOM     17  H   UNL     1       4.105  36.352  21.605  1.00  0.00     0.211 HD
ENDBRANCH   1  16
TORSDOF 10
ENDMDL
MODEL 3
REMARK VINA RESULT:    -5.426      0.375      4.351
REMARK INTER + INTRA:          -8.463
REMARK INTER:                  -7.733
REMARK INTRA:                  -0.730
REMARK UNBOUND:                -0.658
REMARK SMILES O=C(CO)[C@H](O)[C@@H](O)[C@@H](O)CO
REMARK SMILES IDX 7 1 9 2 11 3 12 4 10 6 5 8 2 9 1 10 3 11 4 12 6 14 8 16
REMARK H PARENT 12 5 10 7 4 13 6 15 8 17
REMARK Flexibility Score: inf
ROOT
ATOM      1  C   UNL     1       4.626  34.871  20.775  1.00  0.00     0.181 C 
ENDROOT
BRANCH   1   2
ATOM      2  C   UNL     1       5.590  33.877  21.492  1.00  0.00     0.171 C 
BRANCH   2   3
ATOM      3  C   UNL     1       5.912  34.212  22.964  1.00  0.00     0.190 C 
BRANCH   3   4
ATOM      4  O   UNL     1       4.803  34.009  23.800  1.00  0.00    -0.394 OA
ATOM      5  H   UNL     1       3.995  34.238  23.270  1.00  0.00     0.210 HD
ENDBRANCH   3   4
ENDBRANCH   2   3
BRANCH   2   6
ATOM      6  O   UNL     1       6.776  33.714  20.753  1.00  0.00    -0.388 OA
ATOM      7  H   UNL     1       7.434  34.381  21.077  1.00  0.00     0.211 HD
ENDBRANCH   2   6
ENDBRANCH   1   2
BRANCH   1   8
ATOM      8  C   UNL     1       3.792  34.233  19.619  1.00  0.00     0.214 C 
BRANCH   8   9
ATOM      9  C   UNL     1       3.760  35.084  18.361  1.00  0.00     0.189 C 
ATOM     10  O   UNL     1       4.288  34.644  17.352  1.00  0.00    -0.294 OA
BRANCH   9  11
ATOM     11  C   UNL     1       3.129  36.454  18.282  1.00  0.00     0.234 C 
BRANCH  11  12
ATOM     12  O   UNL     1       2.144  36.638  19.258  1.00  0.00    -0.388 OA
ATOM     13  H   UNL     1       2.088  37.617  19.413  1.00  0.00     0.211 HD
ENDBRANCH  11  12
ENDBRANCH   9  11
ENDBRANCH   8   9
BRANCH   8  14
ATOM     14  O   UNL     1       2.481  33.913  20.024  1.00  0.00    -0.382 OA
ATOM     15  H   UNL     1       2.465  33.822  21.011  1.00  0.00     0.211 HD
ENDBRANCH   8  14
ENDBRANCH   1   8
BRANCH   1  16
ATOM     16  O   UNL     1       3.791  35.526  21.700  1.00  0.00    -0.387 OA
ATOM     17  H   UNL     1       3.502  36.387  21.301  1.00  0.00     0.211 HD
ENDBRANCH   1  16
TORSDOF 10
ENDMDL
MODEL 4
REMARK VINA RESULT:    -5.180      1.715      5.237
REMARK INTER + INTRA:          -8.108
REMARK INTER:                  -7.480
REMARK INTRA:                  -0.628
REMARK UNBOUND:                -0.658
REMARK SMILES O=C(CO)[C@H](O)[C@@H](O)[C@@H](O)CO
REMARK SMILES IDX 7 1 9 2 11 3 12 4 10 6 5 8 2 9 1 10 3 11 4 12 6 14 8 16
REMARK H PARENT 12 5 10 7 4 13 6 15 8 17
REMARK Flexibility Score: inf
ROOT
ATOM      1  C   UNL     1       6.203  34.412  23.287  1.00  0.00     0.181 C 
ENDROOT
BRANCH   1   2
ATOM      2  C   UNL     1       6.018  33.631  24.623  1.00  0.00     0.171 C 
BRANCH   2   3
ATOM      3  C   UNL     1       6.305  32.115  24.550  1.00  0.00     0.190 C 
BRANCH   3   4
ATOM      4  O   UNL     1       6.314  31.649  23.227  1.00  0.00    -0.394 OA
ATOM      5  H   UNL     1       7.264  31.492  22.982  1.00  0.00     0.210 HD
ENDBRANCH   3   4
ENDBRANCH   2   3
BRANCH   2   6
ATOM      6  O   UNL     1       4.741  33.865  25.164  1.00  0.00    -0.388 OA
ATOM      7  H   UNL     1       4.067  33.555  24.505  1.00  0.00     0.211 HD
ENDBRANCH   2   6
ENDBRANCH   1   2
BRANCH   1   8
ATOM      8  C   UNL     1       4.891  34.576  22.455  1.00  0.00     0.214 C 
BRANCH   8   9
ATOM      9  C   UNL     1       5.055  34.189  20.995  1.00  0.00     0.189 C 
ATOM     10  O   UNL     1       6.054  33.564  20.672  1.00  0.00    -0.294 OA
BRANCH   9  11
ATOM     11  C   UNL     1       4.066  34.541  19.910  1.00  0.00     0.234 C 
BRANCH  11  12
ATOM     12  O   UNL     1       2.744  34.490  20.363  1.00  0.00    -0.388 OA
ATOM     13  H   UNL     1       2.329  33.705  19.920  1.00  0.00     0.211 HD
ENDBRANCH  11  12
ENDBRANCH   9  11
ENDBRANCH   8   9
BRANCH   8  14
ATOM     14  O   UNL     1       4.357  35.875  22.557  1.00  0.00    -0.382 OA
ATOM     15  H   UNL     1       4.216  36.236  21.645  1.00  0.00     0.211 HD
ENDBRANCH   8  14
ENDBRANCH   1   8
BRANCH   1  16
ATOM     16  O   UNL     1       6.822  35.657  23.507  1.00  0.00    -0.387 OA
ATOM     17  H   UNL     1       6.284  36.158  24.173  1.00  0.00     0.211 HD
ENDBRANCH   1  16
TORSDOF 10
ENDMDL
MODEL 5
REMARK VINA RESULT:    -5.151      1.755      5.140
REMARK INTER + INTRA:          -8.067
REMARK INTER:                  -7.379
REMARK INTRA:                  -0.688
REMARK UNBOUND:                -0.658
REMARK SMILES O=C(CO)[C@H](O)[C@@H](O)[C@@H](O)CO
REMARK SMILES IDX 7 1 9 2 11 3 12 4 10 6 5 8 2 9 1 10 3 11 4 12 6 14 8 16
REMARK H PARENT 12 5 10 7 4 13 6 15 8 17
REMARK Flexibility Score: inf
ROOT
ATOM      1  C   UNL     1       6.214  34.352  23.037  1.00  0.00     0.181 C 
ENDROOT
BRANCH   1   2
ATOM      2  C   UNL     1       5.710  32.980  23.578  1.00  0.00     0.171 C 
BRANCH   2   3
ATOM      3  C   UNL     1       5.734  32.825  25.114  1.00  0.00     0.190 C 
BRANCH   3   4
ATOM      4  O   UNL     1       4.546  33.281  25.705  1.00  0.00    -0.394 OA
ATOM      5  H   UNL     1       4.634  33.136  26.683  1.00  0.00     0.210 HD
ENDBRANCH   3   4
ENDBRANCH   2   3
BRANCH   2   6
ATOM      6  O   UNL     1       6.399  31.919  22.964  1.00  0.00    -0.388 OA
ATOM      7  H   UNL     1       5.818  31.548  22.250  1.00  0.00     0.211 HD
ENDBRANCH   2   6
ENDBRANCH   1   2
BRANCH   1   8
ATOM      8  C   UNL     1       6.053  34.529  21.493  1.00  0.00     0.214 C 
BRANCH   8   9
ATOM      9  C   UNL     1       4.605  34.518  21.036  1.00  0.00     0.189 C 
ATOM     10  O   UNL     1       3.762  35.005  21.775  1.00  0.00    -0.294 OA
BRANCH   9  11
ATOM     11  C   UNL     1       4.134  33.926  19.729  1.00  0.00     0.234 C 
BRANCH  11  12
ATOM     12  O   UNL     1       2.742  33.801  19.678  1.00  0.00    -0.388 OA
ATOM     13  H   UNL     1       2.512  33.027  20.256  1.00  0.00     0.211 HD
ENDBRANCH  11  12
ENDBRANCH   9  11
ENDBRANCH   8   9
BRANCH   8  14
ATOM     14  O   UNL     1       6.801  33.581  20.768  1.00  0.00    -0.382 OA
ATOM     15  H   UNL     1       7.113  32.876  21.392  1.00  0.00     0.211 HD
ENDBRANCH   8  14
ENDBRANCH   1   8
BRANCH   1  16
ATOM     16  O   UNL     1       5.623  35.423  23.733  1.00  0.00    -0.387 OA
ATOM     17  H   UNL     1       5.099  35.963  23.087  1.00  0.00     0.211 HD
ENDBRANCH   1  16
TORSDOF 10
ENDMDL
MODEL 6
REMARK VINA RESULT:    -5.110      1.391      2.271
REMARK INTER + INTRA:          -8.009
REMARK INTER:                  -7.637
REMARK INTRA:                  -0.372
REMARK UNBOUND:                -0.658
REMARK SMILES O=C(CO)[C@H](O)[C@@H](O)[C@@H](O)CO
REMARK SMILES IDX 7 1 9 2 11 3 12 4 10 6 5 8 2 9 1 10 3 11 4 12 6 14 8 16
REMARK H PARENT 12 5 10 7 4 13 6 15 8 17
REMARK Flexibility Score: inf
ROOT
ATOM      1  C   UNL     1       4.312  34.463  21.193  1.00  0.00     0.181 C 
ENDROOT
BRANCH   1   2
ATOM      2  C   UNL     1       3.768  34.401  19.734  1.00  0.00     0.171 C 
BRANCH   2   3
ATOM      3  C   UNL     1       3.530  35.767  19.056  1.00  0.00     0.190 C 
BRANCH   3   4
ATOM      4  O   UNL     1       2.310  36.339  19.448  1.00  0.00    -0.394 OA
ATOM      5  H   UNL     1       1.618  36.003  18.822  1.00  0.00     0.210 HD
ENDBRANCH   3   4
ENDBRANCH   2   3
BRANCH   2   6
ATOM      6  O   UNL     1       2.607  33.609  19.669  1.00  0.00    -0.388 OA
ATOM      7  H   UNL     1       2.006  34.002  18.984  1.00  0.00     0.211 HD
ENDBRANCH   2   6
ENDBRANCH   1   2
BRANCH   1   8
ATOM      8  C   UNL     1       5.871  34.461  21.297  1.00  0.00     0.214 C 
BRANCH   8   9
ATOM      9  C   UNL     1       6.482  33.084  21.106  1.00  0.00     0.189 C 
ATOM     10  O   UNL     1       7.100  32.864  20.076  1.00  0.00    -0.294 OA
BRANCH   9  11
ATOM     11  C   UNL     1       6.362  31.959  22.106  1.00  0.00     0.234 C 
BRANCH  11  12
ATOM     12  O   UNL     1       6.017  30.747  21.498  1.00  0.00    -0.388 OA
ATOM     13  H   UNL     1       5.030  30.672  21.571  1.00  0.00     0.211 HD
ENDBRANCH  11  12
ENDBRANCH   9  11
ENDBRANCH   8   9
BRANCH   8  14
ATOM     14  O   UNL     1       6.323  35.033  22.501  1.00  0.00    -0.382 OA
ATOM     15  H   UNL     1       6.935  34.394  22.949  1.00  0.00     0.211 HD
ENDBRANCH   8  14
ENDBRANCH   1   8
BRANCH   1  16
ATOM     16  O   UNL     1       3.760  35.551  21.895  1.00  0.00    -0.387 OA
ATOM     17  H   UNL     1       4.286  36.363  21.675  1.00  0.00     0.211 HD
ENDBRANCH   1  16
TORSDOF 10
ENDMDL
MODEL 7
REMARK VINA RESULT:    -5.095      1.753      2.947
REMARK INTER + INTRA:          -7.987
REMARK INTER:                  -6.782
REMARK INTRA:                  -1.205
REMARK UNBOUND:                -0.658
REMARK SMILES O=C(CO)[C@H](O)[C@@H](O)[C@@H](O)CO
REMARK SMILES IDX 7 1 9 2 11 3 12 4 10 6 5 8 2 9 1 10 3 11 4 12 6 14 8 16
REMARK H PARENT 12 5 10 7 4 13 6 15 8 17
REMARK Flexibility Score: inf
ROOT
ATOM      1  C   UNL     1       3.252  34.072  19.504  1.00  0.00     0.181 C 
ENDROOT
BRANCH   1   2
ATOM      2  C   UNL     1       3.679  35.274  18.608  1.00  0.00     0.171 C 
BRANCH   2   3
ATOM      3  C   UNL     1       2.654  36.424  18.508  1.00  0.00     0.190 C 
BRANCH   3   4
ATOM      4  O   UNL     1       1.380  36.028  18.945  1.00  0.00    -0.394 OA
ATOM      5  H   UNL     1       1.083  35.295  18.344  1.00  0.00     0.210 HD
ENDBRANCH   3   4
ENDBRANCH   2   3
BRANCH   2   6
ATOM      6  O   UNL     1       4.049  34.831  17.326  1.00  0.00    -0.388 OA
ATOM      7  H   UNL     1       3.232  34.505  16.866  1.00  0.00     0.211 HD
ENDBRANCH   2   6
ENDBRANCH   1   2
BRANCH   1   8
ATOM      8  C   UNL     1       4.134  32.796  19.328  1.00  0.00     0.214 C 
BRANCH   8   9
ATOM      9  C   UNL     1       5.599  33.030  19.656  1.00  0.00     0.189 C 
ATOM     10  O   UNL     1       5.877  33.518  20.741  1.00  0.00    -0.294 OA
BRANCH   9  11
ATOM     11  C   UNL     1       6.738  32.711  18.718  1.00  0.00     0.234 C 
BRANCH  11  12
ATOM     12  O   UNL     1       6.513  33.204  17.428  1.00  0.00    -0.388 OA
ATOM     13  H   UNL     1       6.359  32.411  16.851  1.00  0.00     0.211 HD
ENDBRANCH  11  12
ENDBRANCH   9  11
ENDBRANCH   8   9
BRANCH   8  14
ATOM     14  O   UNL     1       4.006  32.234  18.043  1.00  0.00    -0.382 OA
ATOM     15  H   UNL     1       3.111  32.464  17.682  1.00  0.00     0.211 HD
ENDBRANCH   8  14
ENDBRANCH   1   8
BRANCH   1  16
ATOM     16  O   UNL     1       3.174  34.450  20.859  1.00  0.00    -0.387 OA
ATOM     17  H   UNL     1       2.315  34.115  21.225  1.00  0.00     0.211 HD
ENDBRANCH   1  16
TORSDOF 10
ENDMDL
MODEL 8
REMARK VINA RESULT:    -5.038      2.580      4.508
REMARK INTER + INTRA:          -7.905
REMARK INTER:                  -7.120
REMARK INTRA:                  -0.785
REMARK UNBOUND:                -0.658
REMARK SMILES O=C(CO)[C@H](O)[C@@H](O)[C@@H](O)CO
REMARK SMILES IDX 7 1 9 2 11 3 12 4 10 6 5 8 2 9 1 10 3 11 4 12 6 14 8 16
REMARK H PARENT 12 5 10 7 4 13 6 15 8 17
REMARK Flexibility Score: inf
ROOT
ATOM      1  C   UNL     1       4.593  32.672  19.315  1.00  0.00     0.181 C 
ENDROOT
BRANCH   1   2
ATOM      2  C   UNL     1       3.940  34.064  19.573  1.00  0.00     0.171 C 
BRANCH   2   3
ATOM      3  C   UNL     1       4.549  34.876  20.736  1.00  0.00     0.190 C 
BRANCH   3   4
ATOM      4  O   UNL     1       3.572  35.277  21.661  1.00  0.00    -0.394 OA
ATOM      5  H   UNL     1       3.492  34.550  22.332  1.00  0.00     0.210 HD
ENDBRANCH   3   4
ENDBRANCH   2   3
BRANCH   2   6
ATOM      6  O   UNL     1       2.548  33.937  19.736  1.00  0.00    -0.388 OA
ATOM      7  H   UNL     1       2.182  33.505  18.922  1.00  0.00     0.211 HD
ENDBRANCH   2   6
ENDBRANCH   1   2
BRANCH   1   8
ATOM      8  C   UNL     1       4.469  32.170  17.841  1.00  0.00     0.214 C 
BRANCH   8   9
ATOM      9  C   UNL     1       5.743  31.529  17.317  1.00  0.00     0.189 C 
ATOM     10  O   UNL     1       6.105  30.472  17.812  1.00  0.00    -0.294 OA
BRANCH   9  11
ATOM     11  C   UNL     1       6.604  32.125  16.229  1.00  0.00     0.234 C 
BRANCH  11  12
ATOM     12  O   UNL     1       6.891  33.474  16.463  1.00  0.00    -0.388 OA
ATOM     13  H   UNL     1       6.387  33.986  15.778  1.00  0.00     0.211 HD
ENDBRANCH  11  12
ENDBRANCH   9  11
ENDBRANCH   8   9
BRANCH   8  14
ATOM     14  O   UNL     1       4.039  33.187  16.968  1.00  0.00    -0.382 OA
ATOM     15  H   UNL     1       3.724  33.958  17.505  1.00  0.00     0.211 HD
ENDBRANCH   8  14
ENDBRANCH   1   8
BRANCH   1  16
ATOM     16  O   UNL     1       5.934  32.652  19.745  1.00  0.00    -0.387 OA
ATOM     17  H   UNL     1       5.980  32.146  20.596  1.00  0.00     0.211 HD
ENDBRANCH   1  16
TORSDOF 10
ENDMDL
MODEL 9
REMARK VINA RESULT:    -4.918      1.607      2.735
REMARK INTER + INTRA:          -7.732
REMARK INTER:                  -7.278
REMARK INTRA:                  -0.455
REMARK UNBOUND:                -0.658
REMARK SMILES O=C(CO)[C@H](O)[C@@H](O)[C@@H](O)CO
REMARK SMILES IDX 7 1 9 2 11 3 12 4 10 6 5 8 2 9 1 10 3 11 4 12 6 14 8 16
REMARK H PARENT 12 5 10 7 4 13 6 15 8 17
REMARK Flexibility Score: inf
ROOT
ATOM      1  C   UNL     1       4.358  34.138  18.915  1.00  0.00     0.181 C 
ENDROOT
BRANCH   1   2
ATOM      2  C   UNL     1       3.196  34.805  19.713  1.00  0.00     0.171 C 
BRANCH   2   3
ATOM      3  C   UNL     1       2.516  36.003  19.016  1.00  0.00     0.190 C 
BRANCH   3   4
ATOM      4  O   UNL     1       1.118  35.882  19.016  1.00  0.00    -0.394 OA
ATOM      5  H   UNL     1       0.909  34.935  19.224  1.00  0.00     0.210 HD
ENDBRANCH   3   4
ENDBRANCH   2   3
BRANCH   2   6
ATOM      6  O   UNL     1       3.622  35.162  21.005  1.00  0.00    -0.388 OA
ATOM      7  H   UNL     1       4.594  35.354  20.966  1.00  0.00     0.211 HD
ENDBRANCH   2   6
ENDBRANCH   1   2
BRANCH   1   8
ATOM      8  C   UNL     1       4.500  32.601  19.155  1.00  0.00     0.214 C 
BRANCH   8   9
ATOM      9  C   UNL     1       5.724  32.233  19.976  1.00  0.00     0.189 C 
ATOM     10  O   UNL     1       5.958  31.049  20.165  1.00  0.00    -0.294 OA
BRANCH   9  11
ATOM     11  C   UNL     1       6.666  33.241  20.589  1.00  0.00     0.234 C 
BRANCH  11  12
ATOM     12  O   UNL     1       6.211  33.702  21.829  1.00  0.00    -0.388 OA
ATOM     13  H   UNL     1       6.580  34.616  21.937  1.00  0.00     0.211 HD
ENDBRANCH  11  12
ENDBRANCH   9  11
ENDBRANCH   8   9
BRANCH   8  14
ATOM     14  O   UNL     1       4.484  31.872  17.950  1.00  0.00    -0.382 OA
ATOM     15  H   UNL     1       5.376  31.460  17.813  1.00  0.00     0.211 HD
ENDBRANCH   8  14
ENDBRANCH   1   8
BRANCH   1  16
ATOM     16  O   UNL     1       4.263  34.429  17.541  1.00  0.00    -0.387 OA
ATOM     17  H   UNL     1       5.078  34.927  17.272  1.00  0.00     0.211 HD
ENDBRANCH   1  16
TORSDOF 10
ENDMDL
