MODEL 1
REMARK VINA RESULT:    -3.589      0.000      0.000
REMARK INTER + INTRA:          -5.242
REMARK INTER:                  -4.847
REMARK INTRA:                  -0.394
REMARK UNBOUND:                -0.394
REMARK SMILES CCCCCCC=CC(=O)[O-]
REMARK SMILES IDX 5 1 6 2 7 3 8 4 9 5 10 6 11 7 4 8 3 9 2 10 1 11
REMARK H PARENT
REMARK Flexibility Score: inf
ROOT
ATOM      1  C   UNL     1      -1.677 -51.720   3.462  1.00  0.00     0.004 C 
ENDROOT
BRANCH   1   2
ATOM      2  C   UNL     1      -3.156 -51.918   3.822  1.00  0.00     0.027 C 
BRANCH   2   3
ATOM      3  C   UNL     1      -3.426 -51.523   5.245  1.00  0.00    -0.025 C 
ATOM      4  C   UNL     1      -2.451 -51.501   6.160  1.00  0.00     0.020 C 
BRANCH   4   5
ATOM      5  C   UNL     1      -2.702 -51.130   7.561  1.00  0.00     0.064 C 
ATOM      6  O   UNL     1      -3.681 -50.391   7.842  1.00  0.00    -0.545 OA
ATOM      7  O   UNL     1      -1.873 -51.583   8.581  1.00  0.00    -0.545 OA
ENDBRANCH   4   5
ENDBRANCH   2   3
ENDBRANCH   1   2
BRANCH   1   8
ATOM      8  C   UNL     1      -1.476 -50.814   2.236  1.00  0.00     0.000 C 
BRANCH   8   9
ATOM      9  C   UNL     1      -2.059 -51.399   0.933  1.00  0.00    -0.000 C 
BRANCH   9  10
ATOM     10  C   UNL     1      -3.168 -50.515   0.344  1.00  0.00    -0.003 C 
ATOM     11  C   UNL     1      -4.496 -51.265   0.276  1.00  0.00     0.004 C 
ENDBRANCH   9  10
ENDBRANCH   8   9
ENDBRANCH   1   8
TORSDOF 6
ENDMDL
MODEL 2
REMARK VINA RESULT:    -3.542      0.802      1.202
REMARK INTER + INTRA:          -5.179
REMARK INTER:                  -4.803
REMARK INTRA:                  -0.376
REMARK UNBOUND:                -0.394
REMARK SMILES CCCCCCC=CC(=O)[O-]
REMARK SMILES IDX 5 1 6 2 7 3 8 4 9 5 10 6 11 7 4 8 3 9 2 10 1 11
REMARK H PARENT
REMARK Flexibility Score: inf
ROOT
ATOM      1  C   UNL     1      -2.084 -51.929   3.305  1.00  0.00     0.004 C 
ENDROOT
BRANCH   1   2
ATOM      2  C   UNL     1      -3.571 -51.814   3.666  1.00  0.00     0.027 C 
BRANCH   2   3
ATOM      3  C   UNL     1      -3.753 -51.477   5.118  1.00  0.00    -0.025 C 
ATOM      4  C   UNL     1      -2.730 -51.527   5.979  1.00  0.00     0.020 C 
BRANCH   4   5
ATOM      5  C   UNL     1      -2.895 -51.213   7.407  1.00  0.00     0.064 C 
ATOM      6  O   UNL     1      -4.036 -50.923   7.852  1.00  0.00    -0.545 OA
ATOM      7  O   UNL     1      -1.808 -51.231   8.273  1.00  0.00    -0.545 OA
ENDBRANCH   4   5
ENDBRANCH   2   3
ENDBRANCH   1   2
BRANCH   1   8
ATOM      8  C   UNL     1      -1.658 -50.942   2.206  1.00  0.00     0.000 C 
BRANCH   8   9
ATOM      9  C   UNL     1      -2.759 -50.669   1.160  1.00  0.00    -0.000 C 
BRANCH   9  10
ATOM     10  C   UNL     1      -2.626 -51.574  -0.073  1.00  0.00    -0.003 C 
ATOM     11  C   UNL     1      -1.189 -51.599  -0.588  1.00  0.00     0.004 C 
ENDBRANCH   9  10
ENDBRANCH   8   9
ENDBRANCH   1   8
TORSDOF 6
ENDMDL
MODEL 3
REMARK VINA RESULT:    -3.536      4.152      5.933
REMARK INTER + INTRA:          -5.170
REMARK INTER:                  -4.942
REMARK INTRA:                  -0.229
REMARK UNBOUND:                -0.394
REMARK SMILES CCCCCCC=CC(=O)[O-]
REMARK SMILES IDX 5 1 6 2 7 3 8 4 9 5 10 6 11 7 4 8 3 9 2 10 1 11
REMARK H PARENT
REMARK Flexibility Score: inf
ROOT
ATOM      1  C   UNL     1      -5.986 -51.797   1.089  1.00  0.00     0.004 C 
ENDROOT
BRANCH   1   2
ATOM      2  C   UNL     1      -5.161 -51.097   0.000  1.00  0.00     0.027 C 
BRANCH   2   3
ATOM      3  C   UNL     1      -3.692 -51.341   0.191  1.00  0.00    -0.025 C 
ATOM      4  C   UNL     1      -3.022 -50.802   1.215  1.00  0.00     0.020 C 
BRANCH   4   5
ATOM      5  C   UNL     1      -1.580 -51.020   1.407  1.00  0.00     0.064 C 
ATOM      6  O   UNL     1      -1.074 -50.860   2.548  1.00  0.00    -0.545 OA
ATOM      7  O   UNL     1      -0.767 -51.402   0.346  1.00  0.00    -0.545 OA
ENDBRANCH   4   5
ENDBRANCH   2   3
ENDBRANCH   1   2
BRANCH   1   8
ATOM      8  C   UNL     1      -7.458 -51.991   0.691  1.00  0.00     0.000 C 
BRANCH   8   9
ATOM      9  C   UNL     1      -8.427 -51.998   1.893  1.00  0.00    -0.000 C 
BRANCH   9  10
ATOM     10  C   UNL     1      -9.030 -50.612   2.161  1.00  0.00    -0.003 C 
ATOM     11  C   UNL     1      -8.765 -50.162   3.595  1.00  0.00     0.004 C 
ENDBRANCH   9  10
ENDBRANCH   8   9
ENDBRANCH   1   8
TORSDOF 6
ENDMDL
MODEL 4
REMARK VINA RESULT:    -3.418      1.228      2.202
REMARK INTER + INTRA:          -5.011
REMARK INTER:                  -4.685
REMARK INTRA:                  -0.326
REMARK UNBOUND:                -0.394
REMARK SMILES CCCCCCC=CC(=O)[O-]
REMARK SMILES IDX 5 1 6 2 7 3 8 4 9 5 10 6 11 7 4 8 3 9 2 10 1 11
REMARK H PARENT
REMARK Flexibility Score: inf
ROOT
ATOM      1  C   UNL     1      -3.680 -52.089   2.347  1.00  0.00     0.004 C 
ENDROOT
BRANCH   1   2
ATOM      2  C   UNL     1      -4.844 -52.081   3.347  1.00  0.00     0.027 C 
BRANCH   2   3
ATOM      3  C   UNL     1      -4.344 -51.990   4.760  1.00  0.00    -0.025 C 
ATOM      4  C   UNL     1      -3.201 -51.363   5.056  1.00  0.00     0.020 C 
BRANCH   4   5
ATOM      5  C   UNL     1      -2.691 -51.276   6.434  1.00  0.00     0.064 C 
ATOM      6  O   UNL     1      -1.617 -51.857   6.737  1.00  0.00    -0.545 OA
ATOM      7  O   UNL     1      -3.379 -50.561   7.408  1.00  0.00    -0.545 OA
ENDBRANCH   4   5
ENDBRANCH   2   3
ENDBRANCH   1   2
BRANCH   1   8
ATOM      8  C   UNL     1      -4.032 -51.405   1.015  1.00  0.00     0.000 C 
BRANCH   8   9
ATOM      9  C   UNL     1      -2.840 -50.676   0.360  1.00  0.00    -0.000 C 
BRANCH   9  10
ATOM     10  C   UNL     1      -1.506 -51.385   0.632  1.00  0.00    -0.003 C 
ATOM     11  C   UNL     1      -0.817 -51.784  -0.671  1.00  0.00     0.004 C 
ENDBRANCH   9  10
ENDBRANCH   8   9
ENDBRANCH   1   8
TORSDOF 6
ENDMDL
MODEL 5
REMARK VINA RESULT:    -3.329      2.066      2.674
REMARK INTER + INTRA:          -4.890
REMARK INTER:                  -4.388
REMARK INTRA:                  -0.502
REMARK UNBOUND:                -0.394
REMARK SMILES CCCCCCC=CC(=O)[O-]
REMARK SMILES IDX 5 1 6 2 7 3 8 4 9 5 10 6 11 7 4 8 3 9 2 10 1 11
REMARK H PARENT
REMARK Flexibility Score: inf
ROOT
ATOM      1  C   UNL     1      -1.547 -50.920   2.316  1.00  0.00     0.004 C 
ENDROOT
BRANCH   1   2
ATOM      2  C   UNL     1      -1.342 -51.695   3.625  1.00  0.00     0.027 C 
BRANCH   2   3
ATOM      3  C   UNL     1      -2.654 -51.991   4.293  1.00  0.00    -0.025 C 
ATOM      4  C   UNL     1      -3.811 -51.567   3.775  1.00  0.00     0.020 C 
BRANCH   4   5
ATOM      5  C   UNL     1      -5.103 -51.837   4.424  1.00  0.00     0.064 C 
ATOM      6  O   UNL     1      -6.156 -51.841   3.735  1.00  0.00    -0.545 OA
ATOM      7  O   UNL     1      -5.179 -52.088   5.790  1.00  0.00    -0.545 OA
ENDBRANCH   4   5
ENDBRANCH   2   3
ENDBRANCH   1   2
BRANCH   1   8
ATOM      8  C   UNL     1      -1.350 -51.795   1.066  1.00  0.00     0.000 C 
BRANCH   8   9
ATOM      9  C   UNL     1      -2.355 -51.492  -0.065  1.00  0.00    -0.000 C 
BRANCH   9  10
ATOM     10  C   UNL     1      -3.542 -50.649   0.423  1.00  0.00    -0.003 C 
ATOM     11  C   UNL     1      -4.869 -51.242  -0.042  1.00  0.00     0.004 C 
ENDBRANCH   9  10
ENDBRANCH   8   9
ENDBRANCH   1   8
TORSDOF 6
ENDMDL
MODEL 6
REMARK VINA RESULT:    -3.232      3.673      6.050
REMARK INTER + INTRA:          -4.760
REMARK INTER:                  -4.494
REMARK INTRA:                  -0.265
REMARK UNBOUND:                -0.394
REMARK SMILES CCCCCCC=CC(=O)[O-]
REMARK SMILES IDX 5 1 6 2 7 3 8 4 9 5 10 6 11 7 4 8 3 9 2 10 1 11
REMARK H PARENT
REMARK Flexibility Score: inf
ROOT
ATOM      1  C   UNL     1      -1.638 -51.738   5.053  1.00  0.00     0.004 C 
ENDROOT
BRANCH   1   2
ATOM      2  C   UNL     1      -3.017 -51.726   4.380  1.00  0.00     0.027 C 
BRANCH   2   3
ATOM      3  C   UNL     1      -2.890 -51.725   2.883  1.00  0.00    -0.025 C 
ATOM      4  C   UNL     1      -1.868 -51.119   2.270  1.00  0.00     0.020 C 
BRANCH   4   5
ATOM      5  C   UNL     1      -1.737 -51.098   0.805  1.00  0.00     0.064 C 
ATOM      6  O   UNL     1      -2.727 -50.780   0.097  1.00  0.00    -0.545 OA
ATOM      7  O   UNL     1      -0.533 -51.424   0.190  1.00  0.00    -0.545 OA
ENDBRANCH   4   5
ENDBRANCH   2   3
ENDBRANCH   1   2
BRANCH   1   8
ATOM      8  C   UNL     1      -1.719 -51.920   6.578  1.00  0.00     0.000 C 
BRANCH   8   9
ATOM      9  C   UNL     1      -2.724 -50.969   7.261  1.00  0.00    -0.000 C 
BRANCH   9  10
ATOM     10  C   UNL     1      -3.814 -51.730   8.030  1.00  0.00    -0.003 C 
ATOM     11  C   UNL     1      -4.536 -50.816   9.015  1.00  0.00     0.004 C 
ENDBRANCH   9  10
ENDBRANCH   8   9
ENDBRANCH   1   8
TORSDOF 6
ENDMDL
MODEL 7
REMARK VINA RESULT:    -3.217      1.247      2.231
REMARK INTER + INTRA:          -4.739
REMARK INTER:                  -4.404
REMARK INTRA:                  -0.335
REMARK UNBOUND:                -0.394
REMARK SMILES CCCCCCC=CC(=O)[O-]
REMARK SMILES IDX 5 1 6 2 7 3 8 4 9 5 10 6 11 7 4 8 3 9 2 10 1 11
REMARK H PARENT
REMARK Flexibility Score: inf
ROOT
ATOM      1  C   UNL     1      -1.543 -51.752   4.391  1.00  0.00     0.004 C 
ENDROOT
BRANCH   1   2
ATOM      2  C   UNL     1      -1.274 -51.481   5.878  1.00  0.00     0.027 C 
BRANCH   2   3
ATOM      3  C   UNL     1      -2.490 -51.770   6.710  1.00  0.00    -0.025 C 
ATOM      4  C   UNL     1      -2.769 -51.058   7.808  1.00  0.00     0.020 C 
BRANCH   4   5
ATOM      5  C   UNL     1      -3.948 -51.337   8.641  1.00  0.00     0.064 C 
ATOM      6  O   UNL     1      -3.796 -51.821   9.793  1.00  0.00    -0.545 OA
ATOM      7  O   UNL     1      -5.232 -51.074   8.175  1.00  0.00    -0.545 OA
ENDBRANCH   4   5
ENDBRANCH   2   3
ENDBRANCH   1   2
BRANCH   1   8
ATOM      8  C   UNL     1      -3.013 -52.099   4.103  1.00  0.00     0.000 C 
BRANCH   8   9
ATOM      9  C   UNL     1      -3.506 -51.606   2.727  1.00  0.00    -0.000 C 
BRANCH   9  10
ATOM     10  C   UNL     1      -2.410 -50.864   1.948  1.00  0.00    -0.003 C 
ATOM     11  C   UNL     1      -2.733 -50.807   0.458  1.00  0.00     0.004 C 
ENDBRANCH   9  10
ENDBRANCH   8   9
ENDBRANCH   1   8
TORSDOF 6
ENDMDL
MODEL 8
REMARK VINA RESULT:    -3.142      1.741      3.112
REMARK INTER + INTRA:          -4.638
REMARK INTER:                  -4.207
REMARK INTRA:                  -0.431
REMARK UNBOUND:                -0.394
REMARK SMILES CCCCCCC=CC(=O)[O-]
REMARK SMILES IDX 5 1 6 2 7 3 8 4 9 5 10 6 11 7 4 8 3 9 2 10 1 11
REMARK H PARENT
REMARK Flexibility Score: inf
ROOT
ATOM      1  C   UNL     1      -3.056 -50.639   0.687  1.00  0.00     0.004 C 
ENDROOT
BRANCH   1   2
ATOM      2  C   UNL     1      -1.779 -51.246   1.284  1.00  0.00     0.027 C 
BRANCH   2   3
ATOM      3  C   UNL     1      -2.021 -51.761   2.674  1.00  0.00    -0.025 C 
ATOM      4  C   UNL     1      -2.942 -51.211   3.471  1.00  0.00     0.020 C 
BRANCH   4   5
ATOM      5  C   UNL     1      -3.181 -51.695   4.839  1.00  0.00     0.064 C 
ATOM      6  O   UNL     1      -4.355 -51.723   5.293  1.00  0.00    -0.545 OA
ATOM      7  O   UNL     1      -2.129 -52.125   5.640  1.00  0.00    -0.545 OA
ENDBRANCH   4   5
ENDBRANCH   2   3
ENDBRANCH   1   2
BRANCH   1   8
ATOM      8  C   UNL     1      -4.065 -51.705   0.226  1.00  0.00     0.000 C 
BRANCH   8   9
ATOM      9  C   UNL     1      -5.462 -51.135  -0.095  1.00  0.00    -0.000 C 
BRANCH   9  10
ATOM     10  C   UNL     1      -6.581 -51.897   0.631  1.00  0.00    -0.003 C 
ATOM     11  C   UNL     1      -6.300 -51.997   2.127  1.00  0.00     0.004 C 
ENDBRANCH   9  10
ENDBRANCH   8   9
ENDBRANCH   1   8
TORSDOF 6
ENDMDL
MODEL 9
REMARK VINA RESULT:    -2.966      4.532      5.822
REMARK INTER + INTRA:          -4.401
REMARK INTER:                  -4.134
REMARK INTRA:                  -0.266
REMARK UNBOUND:                -0.394
REMARK SMILES CCCCCCC=CC(=O)[O-]
REMARK SMILES IDX 5 1 6 2 7 3 8 4 9 5 10 6 11 7 4 8 3 9 2 10 1 11
REMARK H PARENT
REMARK Flexibility Score: inf
ROOT
ATOM      1  C   UNL     1      -4.089 -51.089   0.513  1.00  0.00     0.004 C 
ENDROOT
BRANCH   1   2
ATOM      2  C   UNL     1      -4.885 -52.097  -0.327  1.00  0.00     0.027 C 
BRANCH   2   3
ATOM      3  C   UNL     1      -6.330 -52.122   0.080  1.00  0.00    -0.025 C 
ATOM      4  C   UNL     1      -6.753 -51.505   1.188  1.00  0.00     0.020 C 
BRANCH   4   5
ATOM      5  C   UNL     1      -8.163 -51.531   1.607  1.00  0.00     0.064 C 
ATOM      6  O   UNL     1      -9.054 -51.842   0.774  1.00  0.00    -0.545 OA
ATOM      7  O   UNL     1      -8.528 -51.219   2.912  1.00  0.00    -0.545 OA
ENDBRANCH   4   5
ENDBRANCH   2   3
ENDBRANCH   1   2
BRANCH   1   8
ATOM      8  C   UNL     1      -2.864 -51.718   1.198  1.00  0.00     0.000 C 
BRANCH   8   9
ATOM      9  C   UNL     1      -1.520 -51.300   0.566  1.00  0.00    -0.000 C 
BRANCH   9  10
ATOM     10  C   UNL     1      -1.234 -52.054  -0.741  1.00  0.00    -0.003 C 
ATOM     11  C   UNL     1       0.195 -51.811  -1.217  1.00  0.00     0.004 C 
ENDBRANCH   9  10
ENDBRANCH   8   9
ENDBRANCH   1   8
TORSDOF 6
ENDMDL
