MODEL 1
REMARK VINA RESULT:    -3.580      0.000      0.000
REMARK INTER + INTRA:         -12.065
REMARK INTER:                  -7.765
REMARK INTRA:                  -4.300
REMARK UNBOUND:                -4.300
REMARK SMILES CCCCCCCCCCCCCCCCCCCCCC(=O)[O-]
REMARK SMILES IDX 12 1 11 2 10 3 9 4 8 5 7 6 6 7 5 8 4 9 3 10 2 11 1 12 13 13
REMARK SMILES IDX 14 14 15 15 16 16 17 17 18 18 19 19 20 20 21 21 22 22 23 23
REMARK SMILES IDX 24 24
REMARK H PARENT
REMARK Flexibility Score: inf
ROOT
ATOM      1  C   UNL     1     128.936 141.239 107.557  1.00  0.00     0.000 C 
ENDROOT
BRANCH   1   2
ATOM      2  C   UNL     1     130.297 141.949 107.445  1.00  0.00     0.000 C 
BRANCH   2   3
ATOM      3  C   UNL     1     130.840 141.967 106.007  1.00  0.00     0.000 C 
BRANCH   3   4
ATOM      4  C   UNL     1     131.221 143.380 105.533  1.00  0.00    -0.000 C 
BRANCH   4   5
ATOM      5  C   UNL     1     130.942 144.456 106.605  1.00  0.00    -0.000 C 
BRANCH   5   6
ATOM      6  C   UNL     1     130.721 145.867 106.026  1.00  0.00    -0.000 C 
BRANCH   6   7
ATOM      7  C   UNL     1     131.954 146.788 106.078  1.00  0.00    -0.000 C 
BRANCH   7   8
ATOM      8  C   UNL     1     133.113 146.282 106.964  1.00  0.00    -0.000 C 
BRANCH   8   9
ATOM      9  C   UNL     1     133.186 146.902 108.370  1.00  0.00    -0.000 C 
BRANCH   9  10
ATOM     10  C   UNL     1     132.779 145.918 109.480  1.00  0.00    -0.000 C 
BRANCH  10  11
ATOM     11  C   UNL     1     133.595 144.616 109.438  1.00  0.00    -0.003 C 
ATOM     12  C   UNL     1     132.742 143.374 109.695  1.00  0.00     0.004 C 
ENDBRANCH  10  11
ENDBRANCH   9  10
ENDBRANCH   8   9
ENDBRANCH   7   8
ENDBRANCH   6   7
ENDBRANCH   5   6
ENDBRANCH   4   5
ENDBRANCH   3   4
ENDBRANCH   2   3
ENDBRANCH   1   2
BRANCH   1  13
ATOM     13  C   UNL     1     128.166 141.229 106.227  1.00  0.00     0.000 C 
BRANCH  13  14
ATOM     14  C   UNL     1     127.069 142.308 106.172  1.00  0.00     0.000 C 
BRANCH  14  15
ATOM     15  C   UNL     1     127.523 143.566 105.415  1.00  0.00     0.000 C 
BRANCH  15  16
ATOM     16  C   UNL     1     127.174 144.860 106.164  1.00  0.00     0.000 C 
BRANCH  16  17
ATOM     17  C   UNL     1     127.289 144.663 107.681  1.00  0.00     0.000 C 
BRANCH  17  18
ATOM     18  C   UNL     1     127.530 146.001 108.394  1.00  0.00     0.000 C 
BRANCH  18  19
ATOM     19  C   UNL     1     128.823 146.011 109.229  1.00  0.00     0.000 C 
BRANCH  19  20
ATOM     20  C   UNL     1     129.180 144.631 109.823  1.00  0.00     0.006 C 
BRANCH  20  21
ATOM     21  C   UNL     1     129.617 144.729 111.291  1.00  0.00     0.053 C 
BRANCH  21  22
ATOM     22  C   UNL     1     128.532 144.236 112.195  1.00  0.00     0.041 C 
ATOM     23  O   UNL     1     127.409 143.918 111.722  1.00  0.00    -0.550 OA
ATOM     24  O   UNL     1     128.745 144.175 113.567  1.00  0.00    -0.550 OA
ENDBRANCH  21  22
ENDBRANCH  20  21
ENDBRANCH  19  20
ENDBRANCH  18  19
ENDBRANCH  17  18
ENDBRANCH  16  17
ENDBRANCH  15  16
ENDBRANCH  14  15
ENDBRANCH  13  14
ENDBRANCH   1  13
TORSDOF 20
ENDMDL
MODEL 2
REMARK VINA RESULT:    -3.499      1.399      2.069
REMARK INTER + INTRA:         -11.891
REMARK INTER:                  -7.747
REMARK INTRA:                  -4.144
REMARK UNBOUND:                -4.300
REMARK SMILES CCCCCCCCCCCCCCCCCCCCCC(=O)[O-]
REMARK SMILES IDX 12 1 11 2 10 3 9 4 8 5 7 6 6 7 5 8 4 9 3 10 2 11 1 12 13 13
REMARK SMILES IDX 14 14 15 15 16 16 17 17 18 18 19 19 20 20 21 21 22 22 23 23
REMARK SMILES IDX 24 24
REMARK H PARENT
REMARK Flexibility Score: inf
ROOT
ATOM      1  C   UNL     1     130.347 142.037 107.452  1.00  0.00     0.000 C 
ENDROOT
BRANCH   1   2
ATOM      2  C   UNL     1     130.908 142.065 106.019  1.00  0.00     0.000 C 
BRANCH   2   3
ATOM      3  C   UNL     1     131.203 143.490 105.526  1.00  0.00     0.000 C 
BRANCH   3   4
ATOM      4  C   UNL     1     130.968 144.556 106.611  1.00  0.00    -0.000 C 
BRANCH   4   5
ATOM      5  C   UNL     1     131.193 145.991 106.088  1.00  0.00    -0.000 C 
BRANCH   5   6
ATOM      6  C   UNL     1     132.627 146.513 106.302  1.00  0.00    -0.000 C 
BRANCH   6   7
ATOM      7  C   UNL     1     133.650 146.042 105.252  1.00  0.00    -0.000 C 
BRANCH   7   8
ATOM      8  C   UNL     1     135.115 146.006 105.736  1.00  0.00    -0.000 C 
BRANCH   8   9
ATOM      9  C   UNL     1     135.467 144.843 106.681  1.00  0.00    -0.000 C 
BRANCH   9  10
ATOM     10  C   UNL     1     134.794 143.520 106.277  1.00  0.00    -0.000 C 
BRANCH  10  11
ATOM     11  C   UNL     1     134.342 142.696 107.493  1.00  0.00    -0.003 C 
ATOM     12  C   UNL     1     133.785 143.562 108.622  1.00  0.00     0.004 C 
ENDBRANCH  10  11
ENDBRANCH   9  10
ENDBRANCH   8   9
ENDBRANCH   7   8
ENDBRANCH   6   7
ENDBRANCH   5   6
ENDBRANCH   4   5
ENDBRANCH   3   4
ENDBRANCH   2   3
ENDBRANCH   1   2
BRANCH   1  13
ATOM     13  C   UNL     1     128.968 141.364 107.531  1.00  0.00     0.000 C 
BRANCH  13  14
ATOM     14  C   UNL     1     128.237 141.352 106.176  1.00  0.00     0.000 C 
BRANCH  14  15
ATOM     15  C   UNL     1     127.182 142.465 106.071  1.00  0.00     0.000 C 
BRANCH  15  16
ATOM     16  C   UNL     1     127.603 143.584 105.108  1.00  0.00     0.000 C 
BRANCH  16  17
ATOM     17  C   UNL     1     127.393 144.963 105.745  1.00  0.00     0.000 C 
BRANCH  17  18
ATOM     18  C   UNL     1     127.232 144.849 107.267  1.00  0.00     0.000 C 
BRANCH  18  19
ATOM     19  C   UNL     1     127.874 146.022 108.028  1.00  0.00     0.000 C 
BRANCH  19  20
ATOM     20  C   UNL     1     128.108 145.728 109.526  1.00  0.00     0.006 C 
BRANCH  20  21
ATOM     21  C   UNL     1     128.777 144.365 109.751  1.00  0.00     0.053 C 
BRANCH  21  22
ATOM     22  C   UNL     1     127.990 143.550 110.728  1.00  0.00     0.041 C 
ATOM     23  O   UNL     1     127.245 142.619 110.322  1.00  0.00    -0.550 OA
ATOM     24  O   UNL     1     128.040 143.853 112.084  1.00  0.00    -0.550 OA
ENDBRANCH  21  22
ENDBRANCH  20  21
ENDBRANCH  19  20
ENDBRANCH  18  19
ENDBRANCH  17  18
ENDBRANCH  16  17
ENDBRANCH  15  16
ENDBRANCH  14  15
ENDBRANCH  13  14
ENDBRANCH   1  13
TORSDOF 20
ENDMDL
MODEL 3
REMARK VINA RESULT:    -3.493      1.849      2.596
REMARK INTER + INTRA:         -11.877
REMARK INTER:                  -8.162
REMARK INTRA:                  -3.715
REMARK UNBOUND:                -4.300
REMARK SMILES CCCCCCCCCCCCCCCCCCCCCC(=O)[O-]
REMARK SMILES IDX 12 1 11 2 10 3 9 4 8 5 7 6 6 7 5 8 4 9 3 10 2 11 1 12 13 13
REMARK SMILES IDX 14 14 15 15 16 16 17 17 18 18 19 19 20 20 21 21 22 22 23 23
REMARK SMILES IDX 24 24
REMARK H PARENT
REMARK Flexibility Score: inf
ROOT
ATOM      1  C   UNL     1     129.718 142.350 107.211  1.00  0.00     0.000 C 
ENDROOT
BRANCH   1   2
ATOM      2  C   UNL     1     130.969 143.244 107.242  1.00  0.00     0.000 C 
BRANCH   2   3
ATOM      3  C   UNL     1     131.179 144.017 105.931  1.00  0.00     0.000 C 
BRANCH   3   4
ATOM      4  C   UNL     1     131.159 145.543 106.130  1.00  0.00    -0.000 C 
BRANCH   4   5
ATOM      5  C   UNL     1     131.535 145.955 107.570  1.00  0.00    -0.000 C 
BRANCH   5   6
ATOM      6  C   UNL     1     132.933 146.591 107.688  1.00  0.00    -0.000 C 
BRANCH   6   7
ATOM      7  C   UNL     1     134.105 145.595 107.622  1.00  0.00    -0.000 C 
BRANCH   7   8
ATOM      8  C   UNL     1     135.463 146.207 107.216  1.00  0.00    -0.000 C 
BRANCH   8   9
ATOM      9  C   UNL     1     135.894 145.946 105.762  1.00  0.00    -0.000 C 
BRANCH   9  10
ATOM     10  C   UNL     1     134.704 145.875 104.790  1.00  0.00    -0.000 C 
BRANCH  10  11
ATOM     11  C   UNL     1     134.644 144.539 104.032  1.00  0.00    -0.003 C 
ATOM     12  C   UNL     1     135.229 143.376 104.833  1.00  0.00     0.004 C 
ENDBRANCH  10  11
ENDBRANCH   9  10
ENDBRANCH   8   9
ENDBRANCH   7   8
ENDBRANCH   6   7
ENDBRANCH   5   6
ENDBRANCH   4   5
ENDBRANCH   3   4
ENDBRANCH   2   3
ENDBRANCH   1   2
BRANCH   1  13
ATOM     13  C   UNL     1     129.004 142.383 105.850  1.00  0.00     0.000 C 
BRANCH  13  14
ATOM     14  C   UNL     1     127.658 143.127 105.907  1.00  0.00     0.000 C 
BRANCH  14  15
ATOM     15  C   UNL     1     127.611 144.328 104.949  1.00  0.00     0.000 C 
BRANCH  15  16
ATOM     16  C   UNL     1     127.501 145.668 105.691  1.00  0.00     0.000 C 
BRANCH  16  17
ATOM     17  C   UNL     1     126.953 145.465 107.109  1.00  0.00     0.000 C 
BRANCH  17  18
ATOM     18  C   UNL     1     127.948 145.970 108.163  1.00  0.00     0.000 C 
BRANCH  18  19
ATOM     19  C   UNL     1     128.263 144.921 109.243  1.00  0.00     0.000 C 
BRANCH  19  20
ATOM     20  C   UNL     1     129.278 145.411 110.299  1.00  0.00     0.006 C 
BRANCH  20  21
ATOM     21  C   UNL     1     130.265 144.311 110.708  1.00  0.00     0.053 C 
BRANCH  21  22
ATOM     22  C   UNL     1     129.583 143.282 111.553  1.00  0.00     0.041 C 
ATOM     23  O   UNL     1     129.604 142.069 111.217  1.00  0.00    -0.550 OA
ATOM     24  O   UNL     1     128.879 143.671 112.687  1.00  0.00    -0.550 OA
ENDBRANCH  21  22
ENDBRANCH  20  21
ENDBRANCH  19  20
ENDBRANCH  18  19
ENDBRANCH  17  18
ENDBRANCH  16  17
ENDBRANCH  15  16
ENDBRANCH  14  15
ENDBRANCH  13  14
ENDBRANCH   1  13
TORSDOF 20
ENDMDL
MODEL 4
REMARK VINA RESULT:    -3.444      2.044      3.775
REMARK INTER + INTRA:         -11.770
REMARK INTER:                  -7.969
REMARK INTRA:                  -3.801
REMARK UNBOUND:                -4.300
REMARK SMILES CCCCCCCCCCCCCCCCCCCCCC(=O)[O-]
REMARK SMILES IDX 12 1 11 2 10 3 9 4 8 5 7 6 6 7 5 8 4 9 3 10 2 11 1 12 13 13
REMARK SMILES IDX 14 14 15 15 16 16 17 17 18 18 19 19 20 20 21 21 22 22 23 23
REMARK SMILES IDX 24 24
REMARK H PARENT
REMARK Flexibility Score: inf
ROOT
ATOM      1  C   UNL     1     129.707 145.257 105.747  1.00  0.00     0.000 C 
ENDROOT
BRANCH   1   2
ATOM      2  C   UNL     1     130.715 146.018 106.626  1.00  0.00     0.000 C 
BRANCH   2   3
ATOM      3  C   UNL     1     131.783 146.755 105.801  1.00  0.00     0.000 C 
BRANCH   3   4
ATOM      4  C   UNL     1     133.217 146.376 106.213  1.00  0.00    -0.000 C 
BRANCH   4   5
ATOM      5  C   UNL     1     134.108 146.035 104.999  1.00  0.00    -0.000 C 
BRANCH   5   6
ATOM      6  C   UNL     1     135.213 145.007 105.310  1.00  0.00    -0.000 C 
BRANCH   6   7
ATOM      7  C   UNL     1     135.219 143.768 104.397  1.00  0.00    -0.000 C 
BRANCH   7   8
ATOM      8  C   UNL     1     133.823 143.245 103.994  1.00  0.00    -0.000 C 
BRANCH   8   9
ATOM      9  C   UNL     1     133.228 142.173 104.924  1.00  0.00    -0.000 C 
BRANCH   9  10
ATOM     10  C   UNL     1     131.851 142.565 105.485  1.00  0.00    -0.000 C 
BRANCH  10  11
ATOM     11  C   UNL     1     131.737 142.308 106.996  1.00  0.00    -0.003 C 
ATOM     12  C   UNL     1     132.730 143.132 107.814  1.00  0.00     0.004 C 
ENDBRANCH  10  11
ENDBRANCH   9  10
ENDBRANCH   8   9
ENDBRANCH   7   8
ENDBRANCH   6   7
ENDBRANCH   5   6
ENDBRANCH   4   5
ENDBRANCH   3   4
ENDBRANCH   2   3
ENDBRANCH   1   2
BRANCH   1  13
ATOM     13  C   UNL     1     128.259 145.716 105.979  1.00  0.00     0.000 C 
BRANCH  13  14
ATOM     14  C   UNL     1     127.244 144.570 105.823  1.00  0.00     0.000 C 
BRANCH  14  15
ATOM     15  C   UNL     1     127.853 143.339 105.133  1.00  0.00     0.000 C 
BRANCH  15  16
ATOM     16  C   UNL     1     128.064 142.167 106.103  1.00  0.00     0.000 C 
BRANCH  16  17
ATOM     17  C   UNL     1     127.247 142.363 107.386  1.00  0.00     0.000 C 
BRANCH  17  18
ATOM     18  C   UNL     1     128.125 142.180 108.632  1.00  0.00     0.000 C 
BRANCH  18  19
ATOM     19  C   UNL     1     128.967 143.425 108.961  1.00  0.00     0.000 C 
BRANCH  19  20
ATOM     20  C   UNL     1     128.175 144.521 109.708  1.00  0.00     0.006 C 
BRANCH  20  21
ATOM     21  C   UNL     1     128.838 145.900 109.585  1.00  0.00     0.053 C 
BRANCH  21  22
ATOM     22  C   UNL     1     130.046 145.981 110.463  1.00  0.00     0.041 C 
ATOM     23  O   UNL     1     130.052 145.412 111.587  1.00  0.00    -0.550 OA
ATOM     24  O   UNL     1     131.147 146.728 110.062  1.00  0.00    -0.550 OA
ENDBRANCH  21  22
ENDBRANCH  20  21
ENDBRANCH  19  20
ENDBRANCH  18  19
ENDBRANCH  17  18
ENDBRANCH  16  17
ENDBRANCH  15  16
ENDBRANCH  14  15
ENDBRANCH  13  14
ENDBRANCH   1  13
TORSDOF 20
ENDMDL
MODEL 5
REMARK VINA RESULT:    -3.413      3.328      5.794
REMARK INTER + INTRA:         -11.704
REMARK INTER:                  -8.712
REMARK INTRA:                  -2.992
REMARK UNBOUND:                -4.300
REMARK SMILES CCCCCCCCCCCCCCCCCCCCCC(=O)[O-]
REMARK SMILES IDX 12 1 11 2 10 3 9 4 8 5 7 6 6 7 5 8 4 9 3 10 2 11 1 12 13 13
REMARK SMILES IDX 14 14 15 15 16 16 17 17 18 18 19 19 20 20 21 21 22 22 23 23
REMARK SMILES IDX 24 24
REMARK H PARENT
REMARK Flexibility Score: inf
ROOT
ATOM      1  C   UNL     1     127.522 141.578 107.383  1.00  0.00     0.000 C 
ENDROOT
BRANCH   1   2
ATOM      2  C   UNL     1     127.236 142.990 106.842  1.00  0.00     0.000 C 
BRANCH   2   3
ATOM      3  C   UNL     1     127.653 143.157 105.373  1.00  0.00     0.000 C 
BRANCH   3   4
ATOM      4  C   UNL     1     127.534 144.612 104.884  1.00  0.00    -0.000 C 
BRANCH   4   5
ATOM      5  C   UNL     1     128.021 145.630 105.937  1.00  0.00    -0.000 C 
BRANCH   5   6
ATOM      6  C   UNL     1     129.555 145.732 106.040  1.00  0.00    -0.000 C 
BRANCH   6   7
ATOM      7  C   UNL     1     130.126 145.493 107.450  1.00  0.00    -0.000 C 
BRANCH   7   8
ATOM      8  C   UNL     1     129.231 145.978 108.610  1.00  0.00    -0.000 C 
BRANCH   8   9
ATOM      9  C   UNL     1     129.124 145.014 109.805  1.00  0.00    -0.000 C 
BRANCH   9  10
ATOM     10  C   UNL     1     127.687 144.525 110.053  1.00  0.00    -0.000 C 
BRANCH  10  11
ATOM     11  C   UNL     1     127.575 143.640 111.305  1.00  0.00    -0.003 C 
ATOM     12  C   UNL     1     128.114 144.322 112.562  1.00  0.00     0.004 C 
ENDBRANCH  10  11
ENDBRANCH   9  10
ENDBRANCH   8   9
ENDBRANCH   7   8
ENDBRANCH   6   7
ENDBRANCH   5   6
ENDBRANCH   4   5
ENDBRANCH   3   4
ENDBRANCH   2   3
ENDBRANCH   1   2
BRANCH   1  13
ATOM     13  C   UNL     1     128.935 141.448 107.974  1.00  0.00     0.000 C 
BRANCH  13  14
ATOM     14  C   UNL     1     129.731 140.287 107.352  1.00  0.00     0.000 C 
BRANCH  14  15
ATOM     15  C   UNL     1     130.670 140.756 106.229  1.00  0.00     0.000 C 
BRANCH  15  16
ATOM     16  C   UNL     1     131.008 142.251 106.333  1.00  0.00     0.000 C 
BRANCH  16  17
ATOM     17  C   UNL     1     131.666 142.755 105.043  1.00  0.00     0.000 C 
BRANCH  17  18
ATOM     18  C   UNL     1     132.725 143.825 105.345  1.00  0.00     0.000 C 
BRANCH  18  19
ATOM     19  C   UNL     1     134.025 143.624 104.547  1.00  0.00     0.000 C 
BRANCH  19  20
ATOM     20  C   UNL     1     134.710 144.949 104.146  1.00  0.00     0.006 C 
BRANCH  20  21
ATOM     21  C   UNL     1     134.480 146.057 105.182  1.00  0.00     0.053 C 
BRANCH  21  22
ATOM     22  C   UNL     1     135.592 146.077 106.183  1.00  0.00     0.041 C 
ATOM     23  O   UNL     1     136.693 145.528 105.918  1.00  0.00    -0.550 OA
ATOM     24  O   UNL     1     135.393 146.659 107.429  1.00  0.00    -0.550 OA
ENDBRANCH  21  22
ENDBRANCH  20  21
ENDBRANCH  19  20
ENDBRANCH  18  19
ENDBRANCH  17  18
ENDBRANCH  16  17
ENDBRANCH  15  16
ENDBRANCH  14  15
ENDBRANCH  13  14
ENDBRANCH   1  13
TORSDOF 20
ENDMDL
MODEL 6
REMARK VINA RESULT:    -3.326      2.137      4.058
REMARK INTER + INTRA:         -11.515
REMARK INTER:                  -8.080
REMARK INTRA:                  -3.435
REMARK UNBOUND:                -4.300
REMARK SMILES CCCCCCCCCCCCCCCCCCCCCC(=O)[O-]
REMARK SMILES IDX 12 1 11 2 10 3 9 4 8 5 7 6 6 7 5 8 4 9 3 10 2 11 1 12 13 13
REMARK SMILES IDX 14 14 15 15 16 16 17 17 18 18 19 19 20 20 21 21 22 22 23 23
REMARK SMILES IDX 24 24
REMARK H PARENT
REMARK Flexibility Score: inf
ROOT
ATOM      1  C   UNL     1     127.935 141.376 106.815  1.00  0.00     0.000 C 
ENDROOT
BRANCH   1   2
ATOM      2  C   UNL     1     129.141 142.053 106.140  1.00  0.00     0.000 C 
BRANCH   2   3
ATOM      3  C   UNL     1     128.724 143.091 105.085  1.00  0.00     0.000 C 
BRANCH   3   4
ATOM      4  C   UNL     1     127.322 143.672 105.345  1.00  0.00    -0.000 C 
BRANCH   4   5
ATOM      5  C   UNL     1     127.273 145.202 105.148  1.00  0.00    -0.000 C 
BRANCH   5   6
ATOM      6  C   UNL     1     126.920 145.982 106.429  1.00  0.00    -0.000 C 
BRANCH   6   7
ATOM      7  C   UNL     1     127.441 145.352 107.734  1.00  0.00    -0.000 C 
BRANCH   7   8
ATOM      8  C   UNL     1     128.769 145.938 108.260  1.00  0.00    -0.000 C 
BRANCH   8   9
ATOM      9  C   UNL     1     130.044 145.254 107.734  1.00  0.00    -0.000 C 
BRANCH   9  10
ATOM     10  C   UNL     1     130.603 145.925 106.468  1.00  0.00    -0.000 C 
BRANCH  10  11
ATOM     11  C   UNL     1     132.078 146.331 106.621  1.00  0.00    -0.003 C 
ATOM     12  C   UNL     1     132.568 146.251 108.067  1.00  0.00     0.004 C 
ENDBRANCH  10  11
ENDBRANCH   9  10
ENDBRANCH   8   9
ENDBRANCH   7   8
ENDBRANCH   6   7
ENDBRANCH   5   6
ENDBRANCH   4   5
ENDBRANCH   3   4
ENDBRANCH   2   3
ENDBRANCH   1   2
BRANCH   1  13
ATOM     13  C   UNL     1     128.298 140.744 108.168  1.00  0.00     0.000 C 
BRANCH  13  14
ATOM     14  C   UNL     1     128.786 141.782 109.194  1.00  0.00     0.000 C 
BRANCH  14  15
ATOM     15  C   UNL     1     127.623 142.508 109.890  1.00  0.00     0.000 C 
BRANCH  15  16
ATOM     16  C   UNL     1     128.102 143.436 111.017  1.00  0.00     0.000 C 
BRANCH  16  17
ATOM     17  C   UNL     1     129.487 143.016 111.522  1.00  0.00     0.000 C 
BRANCH  17  18
ATOM     18  C   UNL     1     130.208 144.191 112.199  1.00  0.00     0.000 C 
BRANCH  18  19
ATOM     19  C   UNL     1     130.960 145.088 111.200  1.00  0.00     0.000 C 
BRANCH  19  20
ATOM     20  C   UNL     1     131.104 146.550 111.676  1.00  0.00     0.006 C 
BRANCH  20  21
ATOM     21  C   UNL     1     132.555 146.905 112.027  1.00  0.00     0.053 C 
BRANCH  21  22
ATOM     22  C   UNL     1     132.825 146.638 113.474  1.00  0.00     0.041 C 
ATOM     23  O   UNL     1     134.008 146.520 113.887  1.00  0.00    -0.550 OA
ATOM     24  O   UNL     1     131.765 146.468 114.358  1.00  0.00    -0.550 OA
ENDBRANCH  21  22
ENDBRANCH  20  21
ENDBRANCH  19  20
ENDBRANCH  18  19
ENDBRANCH  17  18
ENDBRANCH  16  17
ENDBRANCH  15  16
ENDBRANCH  14  15
ENDBRANCH  13  14
ENDBRANCH   1  13
TORSDOF 20
ENDMDL
MODEL 7
REMARK VINA RESULT:    -3.319      2.065      2.759
REMARK INTER + INTRA:         -11.500
REMARK INTER:                  -7.559
REMARK INTRA:                  -3.941
REMARK UNBOUND:                -4.300
REMARK SMILES CCCCCCCCCCCCCCCCCCCCCC(=O)[O-]
REMARK SMILES IDX 12 1 11 2 10 3 9 4 8 5 7 6 6 7 5 8 4 9 3 10 2 11 1 12 13 13
REMARK SMILES IDX 14 14 15 15 16 16 17 17 18 18 19 19 20 20 21 21 22 22 23 23
REMARK SMILES IDX 24 24
REMARK H PARENT
REMARK Flexibility Score: inf
ROOT
ATOM      1  C   UNL     1     129.165 142.670 105.583  1.00  0.00     0.000 C 
ENDROOT
BRANCH   1   2
ATOM      2  C   UNL     1     129.754 142.546 106.999  1.00  0.00     0.000 C 
BRANCH   2   3
ATOM      3  C   UNL     1     130.887 143.552 107.259  1.00  0.00     0.000 C 
BRANCH   3   4
ATOM      4  C   UNL     1     131.130 144.495 106.068  1.00  0.00    -0.000 C 
BRANCH   4   5
ATOM      5  C   UNL     1     130.978 145.983 106.453  1.00  0.00    -0.000 C 
BRANCH   5   6
ATOM      6  C   UNL     1     132.296 146.779 106.383  1.00  0.00    -0.000 C 
BRANCH   6   7
ATOM      7  C   UNL     1     132.953 146.821 104.991  1.00  0.00    -0.000 C 
BRANCH   7   8
ATOM      8  C   UNL     1     134.282 146.045 104.871  1.00  0.00    -0.000 C 
BRANCH   8   9
ATOM      9  C   UNL     1     134.892 145.576 106.204  1.00  0.00    -0.000 C 
BRANCH   9  10
ATOM     10  C   UNL     1     134.807 144.053 106.398  1.00  0.00    -0.000 C 
BRANCH  10  11
ATOM     11  C   UNL     1     134.651 143.656 107.875  1.00  0.00    -0.003 C 
ATOM     12  C   UNL     1     134.255 144.833 108.766  1.00  0.00     0.004 C 
ENDBRANCH  10  11
ENDBRANCH   9  10
ENDBRANCH   8   9
ENDBRANCH   7   8
ENDBRANCH   6   7
ENDBRANCH   5   6
ENDBRANCH   4   5
ENDBRANCH   3   4
ENDBRANCH   2   3
ENDBRANCH   1   2
BRANCH   1  13
ATOM     13  C   UNL     1     127.716 143.181 105.591  1.00  0.00     0.000 C 
BRANCH  13  14
ATOM     14  C   UNL     1     127.579 144.579 104.961  1.00  0.00     0.000 C 
BRANCH  14  15
ATOM     15  C   UNL     1     127.238 145.659 106.001  1.00  0.00     0.000 C 
BRANCH  15  16
ATOM     16  C   UNL     1     127.054 145.078 107.411  1.00  0.00     0.000 C 
BRANCH  16  17
ATOM     17  C   UNL     1     127.515 146.077 108.479  1.00  0.00     0.000 C 
BRANCH  17  18
ATOM     18  C   UNL     1     128.614 145.470 109.364  1.00  0.00     0.000 C 
BRANCH  18  19
ATOM     19  C   UNL     1     129.680 146.496 109.785  1.00  0.00     0.000 C 
BRANCH  19  20
ATOM     20  C   UNL     1     130.986 145.850 110.297  1.00  0.00     0.006 C 
BRANCH  20  21
ATOM     21  C   UNL     1     131.948 146.885 110.895  1.00  0.00     0.053 C 
BRANCH  21  22
ATOM     22  C   UNL     1     132.533 146.377 112.175  1.00  0.00     0.041 C 
ATOM     23  O   UNL     1     132.318 146.986 113.256  1.00  0.00    -0.550 OA
ATOM     24  O   UNL     1     133.359 145.259 112.165  1.00  0.00    -0.550 OA
ENDBRANCH  21  22
ENDBRANCH  20  21
ENDBRANCH  19  20
ENDBRANCH  18  19
ENDBRANCH  17  18
ENDBRANCH  16  17
ENDBRANCH  15  16
ENDBRANCH  14  15
ENDBRANCH  13  14
ENDBRANCH   1  13
TORSDOF 20
ENDMDL
MODEL 8
REMARK VINA RESULT:    -3.294      2.874      6.072
REMARK INTER + INTRA:         -11.445
REMARK INTER:                  -7.379
REMARK INTRA:                  -4.066
REMARK UNBOUND:                -4.300
REMARK SMILES CCCCCCCCCCCCCCCCCCCCCC(=O)[O-]
REMARK SMILES IDX 12 1 11 2 10 3 9 4 8 5 7 6 6 7 5 8 4 9 3 10 2 11 1 12 13 13
REMARK SMILES IDX 14 14 15 15 16 16 17 17 18 18 19 19 20 20 21 21 22 22 23 23
REMARK SMILES IDX 24 24
REMARK H PARENT
REMARK Flexibility Score: inf
ROOT
ATOM      1  C   UNL     1     129.416 143.161 111.542  1.00  0.00     0.000 C 
ENDROOT
BRANCH   1   2
ATOM      2  C   UNL     1     129.070 142.613 110.147  1.00  0.00     0.000 C 
BRANCH   2   3
ATOM      3  C   UNL     1     127.972 143.428 109.445  1.00  0.00     0.000 C 
BRANCH   3   4
ATOM      4  C   UNL     1     127.807 144.838 110.039  1.00  0.00    -0.000 C 
BRANCH   4   5
ATOM      5  C   UNL     1     127.447 145.891 108.968  1.00  0.00    -0.000 C 
BRANCH   5   6
ATOM      6  C   UNL     1     126.875 145.287 107.671  1.00  0.00    -0.000 C 
BRANCH   6   7
ATOM      7  C   UNL     1     127.205 146.075 106.390  1.00  0.00    -0.000 C 
BRANCH   7   8
ATOM      8  C   UNL     1     127.879 145.253 105.271  1.00  0.00    -0.000 C 
BRANCH   8   9
ATOM      9  C   UNL     1     127.724 143.726 105.392  1.00  0.00    -0.000 C 
BRANCH   9  10
ATOM     10  C   UNL     1     129.072 142.984 105.366  1.00  0.00    -0.000 C 
BRANCH  10  11
ATOM     11  C   UNL     1     129.105 141.792 106.335  1.00  0.00    -0.003 C 
ATOM     12  C   UNL     1     127.742 141.119 106.494  1.00  0.00     0.004 C 
ENDBRANCH  10  11
ENDBRANCH   9  10
ENDBRANCH   8   9
ENDBRANCH   7   8
ENDBRANCH   6   7
ENDBRANCH   5   6
ENDBRANCH   4   5
ENDBRANCH   3   4
ENDBRANCH   2   3
ENDBRANCH   1   2
BRANCH   1  13
ATOM     13  C   UNL     1     130.864 142.854 111.953  1.00  0.00     0.000 C 
BRANCH  13  14
ATOM     14  C   UNL     1     131.460 143.936 112.871  1.00  0.00     0.000 C 
BRANCH  14  15
ATOM     15  C   UNL     1     130.469 145.077 113.151  1.00  0.00     0.000 C 
BRANCH  15  16
ATOM     16  C   UNL     1     130.995 146.440 112.676  1.00  0.00     0.000 C 
BRANCH  16  17
ATOM     17  C   UNL     1     131.899 146.281 111.448  1.00  0.00     0.000 C 
BRANCH  17  18
ATOM     18  C   UNL     1     131.074 146.263 110.153  1.00  0.00     0.000 C 
BRANCH  18  19
ATOM     19  C   UNL     1     131.700 145.388 109.054  1.00  0.00     0.000 C 
BRANCH  19  20
ATOM     20  C   UNL     1     130.794 145.215 107.816  1.00  0.00     0.006 C 
BRANCH  20  21
ATOM     21  C   UNL     1     131.303 146.015 106.609  1.00  0.00     0.053 C 
BRANCH  21  22
ATOM     22  C   UNL     1     132.473 145.327 105.980  1.00  0.00     0.041 C 
ATOM     23  O   UNL     1     132.427 144.093 105.736  1.00  0.00    -0.550 OA
ATOM     24  O   UNL     1     133.634 146.041 105.710  1.00  0.00    -0.550 OA
ENDBRANCH  21  22
ENDBRANCH  20  21
ENDBRANCH  19  20
ENDBRANCH  18  19
ENDBRANCH  17  18
ENDBRANCH  16  17
ENDBRANCH  15  16
ENDBRANCH  14  15
ENDBRANCH  13  14
ENDBRANCH   1  13
TORSDOF 20
ENDMDL
MODEL 9
REMARK VINA RESULT:    -3.290      3.368      6.371
REMARK INTER + INTRA:         -11.436
REMARK INTER:                  -7.945
REMARK INTRA:                  -3.491
REMARK UNBOUND:                -4.300
REMARK SMILES CCCCCCCCCCCCCCCCCCCCCC(=O)[O-]
REMARK SMILES IDX 12 1 11 2 10 3 9 4 8 5 7 6 6 7 5 8 4 9 3 10 2 11 1 12 13 13
REMARK SMILES IDX 14 14 15 15 16 16 17 17 18 18 19 19 20 20 21 21 22 22 23 23
REMARK SMILES IDX 24 24
REMARK H PARENT
REMARK Flexibility Score: inf
ROOT
ATOM      1  C   UNL     1     129.136 142.794 110.745  1.00  0.00     0.000 C 
ENDROOT
BRANCH   1   2
ATOM      2  C   UNL     1     127.750 143.178 110.198  1.00  0.00     0.000 C 
BRANCH   2   3
ATOM      3  C   UNL     1     127.318 144.592 110.618  1.00  0.00     0.000 C 
BRANCH   3   4
ATOM      4  C   UNL     1     127.359 145.596 109.452  1.00  0.00    -0.000 C 
BRANCH   4   5
ATOM      5  C   UNL     1     127.125 144.921 108.083  1.00  0.00    -0.000 C 
BRANCH   5   6
ATOM      6  C   UNL     1     127.099 145.908 106.900  1.00  0.00    -0.000 C 
BRANCH   6   7
ATOM      7  C   UNL     1     128.007 145.524 105.718  1.00  0.00    -0.000 C 
BRANCH   7   8
ATOM      8  C   UNL     1     127.605 144.231 104.976  1.00  0.00    -0.000 C 
BRANCH   8   9
ATOM      9  C   UNL     1     128.274 142.943 105.490  1.00  0.00    -0.000 C 
BRANCH   9  10
ATOM     10  C   UNL     1     127.278 141.978 106.156  1.00  0.00    -0.000 C 
BRANCH  10  11
ATOM     11  C   UNL     1     127.981 140.879 106.970  1.00  0.00    -0.003 C 
ATOM     12  C   UNL     1     129.499 141.049 107.009  1.00  0.00     0.004 C 
ENDBRANCH  10  11
ENDBRANCH   9  10
ENDBRANCH   8   9
ENDBRANCH   7   8
ENDBRANCH   6   7
ENDBRANCH   5   6
ENDBRANCH   4   5
ENDBRANCH   3   4
ENDBRANCH   2   3
ENDBRANCH   1   2
BRANCH   1  13
ATOM     13  C   UNL     1     129.502 143.570 112.020  1.00  0.00     0.000 C 
BRANCH  13  14
ATOM     14  C   UNL     1     130.652 144.568 111.795  1.00  0.00     0.000 C 
BRANCH  14  15
ATOM     15  C   UNL     1     131.310 144.401 110.416  1.00  0.00     0.000 C 
BRANCH  15  16
ATOM     16  C   UNL     1     131.418 145.730 109.653  1.00  0.00     0.000 C 
BRANCH  16  17
ATOM     17  C   UNL     1     130.683 145.651 108.309  1.00  0.00     0.000 C 
BRANCH  17  18
ATOM     18  C   UNL     1     131.065 144.374 107.546  1.00  0.00     0.000 C 
BRANCH  18  19
ATOM     19  C   UNL     1     131.652 144.661 106.153  1.00  0.00     0.000 C 
BRANCH  19  20
ATOM     20  C   UNL     1     132.433 145.992 106.078  1.00  0.00     0.006 C 
BRANCH  20  21
ATOM     21  C   UNL     1     133.865 145.854 106.612  1.00  0.00     0.053 C 
BRANCH  21  22
ATOM     22  C   UNL     1     134.855 146.004 105.501  1.00  0.00     0.041 C 
ATOM     23  O   UNL     1     135.906 146.675 105.674  1.00  0.00    -0.550 OA
ATOM     24  O   UNL     1     134.591 145.444 104.256  1.00  0.00    -0.550 OA
ENDBRANCH  21  22
ENDBRANCH  20  21
ENDBRANCH  19  20
ENDBRANCH  18  19
ENDBRANCH  17  18
ENDBRANCH  16  17
ENDBRANCH  15  16
ENDBRANCH  14  15
ENDBRANCH  13  14
ENDBRANCH   1  13
TORSDOF 20
ENDMDL
