MODEL 1
REMARK VINA RESULT:    -2.119      0.000      0.000
REMARK INTER + INTRA:          -1.984
REMARK INTER:                  -2.614
REMARK INTRA:                   0.630
REMARK UNBOUND:                 0.630
REMARK SMILES C=C1[C@H]2CC[C@@H]3[C@H]2C(C)(C)CCC[C@]13C
REMARK SMILES IDX 14 1 6 2 7 3 3 4 2 5 1 6 4 7 5 8 15 9 8 10 9 11 10 12 11 13
REMARK SMILES IDX 13 15 12 16
REMARK H PARENT
REMARK Flexibility Score: 80.00
ROOT
ATOM      1  C   UNL     1     167.670 173.700 140.373  1.00  0.00    -0.008 C 
ATOM      2  C   UNL     1     169.005 174.383 139.875  1.00  0.00     0.003 C 
ATOM      3  C   UNL     1     169.286 173.737 138.503  1.00  0.00     0.006 C 
ATOM      4  C   UNL     1     167.886 174.039 137.963  1.00  0.00     0.019 C 
ATOM      5  C   UNL     1     167.005 173.467 139.039  1.00  0.00    -0.068 C 
ATOM      6  C   UNL     1     165.795 172.929 138.838  1.00  0.00     0.009 C 
ATOM      7  C   UNL     1     167.836 175.577 138.123  1.00  0.00     0.008 C 
ATOM      8  C   UNL     1     168.697 175.826 139.386  1.00  0.00     0.005 C 
ATOM      9  C   UNL     1     166.797 174.622 141.267  1.00  0.00     0.016 C 
ENDROOT
BRANCH   3  10
ATOM     10  C   UNL     1     169.861 172.258 138.426  1.00  0.00    -0.032 C 
ATOM     11  C   UNL     1     169.179 171.440 137.299  1.00  0.00     0.011 C 
ATOM     12  C   UNL     1     171.364 172.351 138.043  1.00  0.00     0.011 C 
BRANCH  10  13
ATOM     13  C   UNL     1     169.828 171.471 139.768  1.00  0.00     0.007 CG0
ATOM     14  G   UNL     1     168.442 171.197 140.345  1.00  0.00     0.000 G0
ENDBRANCH  10  13
ENDBRANCH   3  10
BRANCH   1  15
ATOM     15  C   UNL     1     167.926 172.391 141.167  1.00  0.00     0.011 C 
BRANCH  15  16
ATOM     16  C   UNL     1     168.443 171.207 140.356  1.00  0.00     0.001 CG0
ATOM     17  G   UNL     1     169.829 171.464 139.769  1.00  0.00     0.000 G0
ENDBRANCH  15  16
ENDBRANCH   1  15
TORSDOF 0
ENDMDL
MODEL 2
REMARK VINA RESULT:    -2.062     13.487     15.458
REMARK INTER + INTRA:          -1.914
REMARK INTER:                  -2.543
REMARK INTRA:                   0.629
REMARK UNBOUND:                 0.630
REMARK SMILES C=C1[C@H]2CC[C@@H]3[C@H]2C(C)(C)CCC[C@]13C
REMARK SMILES IDX 14 1 6 2 7 3 3 4 2 5 1 6 4 7 5 8 15 9 8 10 9 11 10 12 11 13
REMARK SMILES IDX 13 15 12 16
REMARK H PARENT
REMARK Flexibility Score: 80.00
ROOT
ATOM      1  C   UNL     1     164.011 158.502 140.373  1.00  0.00    -0.008 C 
ATOM      2  C   UNL     1     162.764 157.741 139.775  1.00  0.00     0.003 C 
ATOM      3  C   UNL     1     162.568 158.353 138.372  1.00  0.00     0.006 C 
ATOM      4  C   UNL     1     164.023 158.123 137.960  1.00  0.00     0.019 C 
ATOM      5  C   UNL     1     164.776 158.755 139.098  1.00  0.00    -0.068 C 
ATOM      6  C   UNL     1     165.968 159.356 138.992  1.00  0.00     0.009 C 
ATOM      7  C   UNL     1     164.142 156.592 138.150  1.00  0.00     0.008 C 
ATOM      8  C   UNL     1     163.190 156.311 139.338  1.00  0.00     0.005 C 
ATOM      9  C   UNL     1     164.852 157.641 141.355  1.00  0.00     0.016 C 
ENDROOT
BRANCH   3  10
ATOM     10  C   UNL     1     161.923 159.798 138.222  1.00  0.00    -0.032 C 
ATOM     11  C   UNL     1     162.653 160.637 137.141  1.00  0.00     0.011 C 
ATOM     12  C   UNL     1     160.465 159.617 137.715  1.00  0.00     0.011 C 
BRANCH  10  13
ATOM     13  C   UNL     1     161.800 160.602 139.547  1.00  0.00     0.007 CG0
ATOM     14  G   UNL     1     163.114 160.934 140.250  1.00  0.00     0.000 G0
ENDBRANCH  10  13
ENDBRANCH   3  10
BRANCH   1  15
ATOM     15  C   UNL     1     163.618 159.805 141.120  1.00  0.00     0.011 C 
BRANCH  15  16
ATOM     16  C   UNL     1     163.103 160.946 140.249  1.00  0.00     0.001 CG0
ATOM     17  G   UNL     1     161.795 160.595 139.543  1.00  0.00     0.000 G0
ENDBRANCH  15  16
ENDBRANCH   1  15
TORSDOF 0
ENDMDL
MODEL 3
REMARK VINA RESULT:    -2.053      1.967      4.236
REMARK INTER + INTRA:          -1.903
REMARK INTER:                  -2.538
REMARK INTRA:                   0.635
REMARK UNBOUND:                 0.630
REMARK SMILES C=C1[C@H]2CC[C@@H]3[C@H]2C(C)(C)CCC[C@]13C
REMARK SMILES IDX 14 1 6 2 7 3 3 4 2 5 1 6 4 7 5 8 15 9 8 10 9 11 10 12 11 13
REMARK SMILES IDX 13 15 12 16
REMARK H PARENT
REMARK Flexibility Score: 80.00
ROOT
ATOM      1  C   UNL     1     167.356 173.295 138.265  1.00  0.00    -0.008 C 
ATOM      2  C   UNL     1     166.850 174.787 138.379  1.00  0.00     0.003 C 
ATOM      3  C   UNL     1     166.577 174.993 139.884  1.00  0.00     0.006 C 
ATOM      4  C   UNL     1     167.962 174.496 140.304  1.00  0.00     0.019 C 
ATOM      5  C   UNL     1     168.047 173.170 139.600  1.00  0.00    -0.068 C 
ATOM      6  C   UNL     1     168.709 172.099 140.055  1.00  0.00     0.009 C 
ATOM      7  C   UNL     1     168.873 175.471 139.521  1.00  0.00     0.008 C 
ATOM      8  C   UNL     1     168.057 175.756 138.235  1.00  0.00     0.005 C 
ATOM      9  C   UNL     1     168.362 173.068 137.104  1.00  0.00     0.016 C 
ENDROOT
BRANCH   3  10
ATOM     10  C   UNL     1     165.277 174.364 140.547  1.00  0.00    -0.032 C 
ATOM     11  C   UNL     1     165.586 173.751 141.937  1.00  0.00     0.011 C 
ATOM     12  C   UNL     1     164.267 175.518 140.799  1.00  0.00     0.011 C 
BRANCH  10  13
ATOM     13  C   UNL     1     164.516 173.341 139.655  1.00  0.00     0.007 CG0
ATOM     14  G   UNL     1     165.285 172.073 139.292  1.00  0.00     0.000 G0
ENDBRANCH  10  13
ENDBRANCH   3  10
BRANCH   1  15
ATOM     15  C   UNL     1     166.196 172.281 138.078  1.00  0.00     0.011 C 
BRANCH  15  16
ATOM     16  C   UNL     1     165.278 172.085 139.281  1.00  0.00     0.001 CG0
ATOM     17  G   UNL     1     164.511 173.355 139.641  1.00  0.00     0.000 G0
ENDBRANCH  15  16
ENDBRANCH   1  15
TORSDOF 0
ENDMDL
MODEL 4
REMARK VINA RESULT:    -2.044     13.766     15.683
REMARK INTER + INTRA:          -1.891
REMARK INTER:                  -2.518
REMARK INTRA:                   0.626
REMARK UNBOUND:                 0.630
REMARK SMILES C=C1[C@H]2CC[C@@H]3[C@H]2C(C)(C)CCC[C@]13C
REMARK SMILES IDX 14 1 6 2 7 3 3 4 2 5 1 6 4 7 5 8 15 9 8 10 9 11 10 12 11 13
REMARK SMILES IDX 13 15 12 16
REMARK H PARENT
REMARK Flexibility Score: 80.00
ROOT
ATOM      1  C   UNL     1     166.467 157.693 139.573  1.00  0.00    -0.008 C 
ATOM      2  C   UNL     1     166.174 158.816 138.501  1.00  0.00     0.003 C 
ATOM      3  C   UNL     1     164.743 159.296 138.821  1.00  0.00     0.006 C 
ATOM      4  C   UNL     1     165.050 159.546 140.298  1.00  0.00     0.019 C 
ATOM      5  C   UNL     1     165.651 158.234 140.721  1.00  0.00    -0.068 C 
ATOM      6  C   UNL     1     165.546 157.697 141.942  1.00  0.00     0.009 C 
ATOM      7  C   UNL     1     166.220 160.552 140.188  1.00  0.00     0.008 C 
ATOM      8  C   UNL     1     166.938 160.113 138.887  1.00  0.00     0.005 C 
ATOM      9  C   UNL     1     167.966 157.589 139.967  1.00  0.00     0.016 C 
ENDROOT
BRANCH   3  10
ATOM     10  C   UNL     1     163.496 158.398 138.413  1.00  0.00    -0.032 C 
ATOM     11  C   UNL     1     162.415 158.387 139.525  1.00  0.00     0.011 C 
ATOM     12  C   UNL     1     162.829 159.047 137.168  1.00  0.00     0.011 C 
BRANCH  10  13
ATOM     13  C   UNL     1     163.848 156.946 137.979  1.00  0.00     0.007 CG0
ATOM     14  G   UNL     1     164.499 156.071 139.047  1.00  0.00     0.000 G0
ENDBRANCH  10  13
ENDBRANCH   3  10
BRANCH   1  15
ATOM     15  C   UNL     1     166.012 156.284 139.107  1.00  0.00     0.011 C 
BRANCH  15  16
ATOM     16  C   UNL     1     164.504 156.063 139.023  1.00  0.00     0.001 CG0
ATOM     17  G   UNL     1     163.841 156.959 137.980  1.00  0.00     0.000 G0
ENDBRANCH  15  16
ENDBRANCH   1  15
TORSDOF 0
ENDMDL
MODEL 5
REMARK VINA RESULT:    -1.977     13.158     15.167
REMARK INTER + INTRA:          -1.809
REMARK INTER:                  -2.438
REMARK INTRA:                   0.629
REMARK UNBOUND:                 0.630
REMARK SMILES C=C1[C@H]2CC[C@@H]3[C@H]2C(C)(C)CCC[C@]13C
REMARK SMILES IDX 14 1 6 2 7 3 3 4 2 5 1 6 4 7 5 8 15 9 8 10 9 11 10 12 11 13
REMARK SMILES IDX 13 15 12 16
REMARK H PARENT
REMARK Flexibility Score: 80.00
ROOT
ATOM      1  C   UNL     1     164.126 158.980 138.232  1.00  0.00    -0.008 C 
ATOM      2  C   UNL     1     164.974 157.696 138.589  1.00  0.00     0.003 C 
ATOM      3  C   UNL     1     164.974 157.644 140.131  1.00  0.00     0.006 C 
ATOM      4  C   UNL     1     163.451 157.751 140.233  1.00  0.00     0.019 C 
ATOM      5  C   UNL     1     163.165 158.966 139.395  1.00  0.00    -0.068 C 
ATOM      6  C   UNL     1     162.163 159.829 139.608  1.00  0.00     0.009 C 
ATOM      7  C   UNL     1     163.015 156.525 139.396  1.00  0.00     0.008 C 
ATOM      8  C   UNL     1     164.125 156.422 138.320  1.00  0.00     0.005 C 
ATOM      9  C   UNL     1     163.359 158.863 136.887  1.00  0.00     0.016 C 
ENDROOT
BRANCH   3  10
ATOM     10  C   UNL     1     165.894 158.641 140.958  1.00  0.00    -0.032 C 
ATOM     11  C   UNL     1     165.154 159.202 142.200  1.00  0.00     0.011 C 
ATOM     12  C   UNL     1     167.103 157.831 141.504  1.00  0.00     0.011 C 
BRANCH  10  13
ATOM     13  C   UNL     1     166.519 159.798 140.127  1.00  0.00     0.007 CG0
ATOM     14  G   UNL     1     165.530 160.774 139.494  1.00  0.00     0.000 G0
ENDBRANCH  10  13
ENDBRANCH   3  10
BRANCH   1  15
ATOM     15  C   UNL     1     164.987 160.269 138.164  1.00  0.00     0.011 C 
BRANCH  15  16
ATOM     16  C   UNL     1     165.541 160.775 139.493  1.00  0.00     0.001 CG0
ATOM     17  G   UNL     1     166.508 159.783 140.136  1.00  0.00     0.000 G0
ENDBRANCH  15  16
ENDBRANCH   1  15
TORSDOF 0
ENDMDL
MODEL 6
REMARK VINA RESULT:    -1.941      1.844      3.782
REMARK INTER + INTRA:          -1.765
REMARK INTER:                  -2.387
REMARK INTRA:                   0.622
REMARK UNBOUND:                 0.630
REMARK SMILES C=C1[C@H]2CC[C@@H]3[C@H]2C(C)(C)CCC[C@]13C
REMARK SMILES IDX 14 1 6 2 7 3 3 4 2 5 1 6 4 7 5 8 15 9 8 10 9 11 10 12 11 13
REMARK SMILES IDX 13 15 12 16
REMARK H PARENT
REMARK Flexibility Score: 80.00
ROOT
ATOM      1  C   UNL     1     167.816 174.462 138.929  1.00  0.00    -0.008 C 
ATOM      2  C   UNL     1     166.260 174.731 138.933  1.00  0.00     0.003 C 
ATOM      3  C   UNL     1     165.641 173.431 139.488  1.00  0.00     0.006 C 
ATOM      4  C   UNL     1     166.537 173.417 140.728  1.00  0.00     0.019 C 
ATOM      5  C   UNL     1     167.908 173.550 140.127  1.00  0.00    -0.068 C 
ATOM      6  C   UNL     1     169.026 173.017 140.635  1.00  0.00     0.009 C 
ATOM      7  C   UNL     1     166.195 174.791 141.352  1.00  0.00     0.008 C 
ATOM      8  C   UNL     1     165.900 175.674 140.115  1.00  0.00     0.005 C 
ATOM      9  C   UNL     1     168.668 175.743 139.149  1.00  0.00     0.016 C 
ENDROOT
BRANCH   3  10
ATOM     10  C   UNL     1     165.547 172.141 138.565  1.00  0.00    -0.032 C 
ATOM     11  C   UNL     1     165.906 170.853 139.351  1.00  0.00     0.011 C 
ATOM     12  C   UNL     1     164.067 171.979 138.123  1.00  0.00     0.011 C 
BRANCH  10  13
ATOM     13  C   UNL     1     166.364 172.219 137.244  1.00  0.00     0.007 CG0
ATOM     14  G   UNL     1     167.877 172.351 137.402  1.00  0.00     0.000 G0
ENDBRANCH  10  13
ENDBRANCH   3  10
BRANCH   1  15
ATOM     15  C   UNL     1     168.308 173.800 137.614  1.00  0.00     0.011 C 
BRANCH  15  16
ATOM     16  C   UNL     1     167.880 172.351 137.395  1.00  0.00     0.001 CG0
ATOM     17  G   UNL     1     166.369 172.208 137.237  1.00  0.00     0.000 G0
ENDBRANCH  15  16
ENDBRANCH   1  15
TORSDOF 0
ENDMDL
MODEL 7
REMARK VINA RESULT:    -1.923      2.178      4.506
REMARK INTER + INTRA:          -1.743
REMARK INTER:                  -2.378
REMARK INTRA:                   0.635
REMARK UNBOUND:                 0.630
REMARK SMILES C=C1[C@H]2CC[C@@H]3[C@H]2C(C)(C)CCC[C@]13C
REMARK SMILES IDX 14 1 6 2 7 3 3 4 2 5 1 6 4 7 5 8 15 9 8 10 9 11 10 12 11 13
REMARK SMILES IDX 13 15 12 16
REMARK H PARENT
REMARK Flexibility Score: 80.00
ROOT
ATOM      1  C   UNL     1     168.765 173.948 139.585  1.00  0.00    -0.008 C 
ATOM      2  C   UNL     1     168.256 173.732 141.064  1.00  0.00     0.003 C 
ATOM      3  C   UNL     1     166.731 173.535 140.927  1.00  0.00     0.006 C 
ATOM      4  C   UNL     1     166.868 172.436 139.872  1.00  0.00     0.019 C 
ATOM      5  C   UNL     1     167.765 173.086 138.855  1.00  0.00    -0.068 C 
ATOM      6  C   UNL     1     167.727 172.855 137.537  1.00  0.00     0.009 C 
ATOM      7  C   UNL     1     167.737 171.406 140.633  1.00  0.00     0.008 C 
ATOM      8  C   UNL     1     168.626 172.298 141.536  1.00  0.00     0.005 C 
ATOM      9  C   UNL     1     170.210 173.432 139.345  1.00  0.00     0.016 C 
ENDROOT
BRANCH   3  10
ATOM     10  C   UNL     1     165.793 174.787 140.648  1.00  0.00    -0.032 C 
ATOM     11  C   UNL     1     164.694 174.453 139.606  1.00  0.00     0.011 C 
ATOM     12  C   UNL     1     165.047 175.126 141.969  1.00  0.00     0.011 C 
BRANCH  10  13
ATOM     13  C   UNL     1     166.541 176.092 140.254  1.00  0.00     0.007 CG0
ATOM     14  G   UNL     1     167.336 176.037 138.952  1.00  0.00     0.000 G0
ENDBRANCH  10  13
ENDBRANCH   3  10
BRANCH   1  15
ATOM     15  C   UNL     1     168.726 175.437 139.147  1.00  0.00     0.011 C 
BRANCH  15  16
ATOM     16  C   UNL     1     167.338 176.041 138.956  1.00  0.00     0.001 CG0
ATOM     17  G   UNL     1     166.545 176.103 140.259  1.00  0.00     0.000 G0
ENDBRANCH  15  16
ENDBRANCH   1  15
TORSDOF 0
ENDMDL
MODEL 8
REMARK VINA RESULT:    -1.908      1.557      3.920
REMARK INTER + INTRA:          -1.724
REMARK INTER:                  -2.348
REMARK INTRA:                   0.624
REMARK UNBOUND:                 0.630
REMARK SMILES C=C1[C@H]2CC[C@@H]3[C@H]2C(C)(C)CCC[C@]13C
REMARK SMILES IDX 14 1 6 2 7 3 3 4 2 5 1 6 4 7 5 8 15 9 8 10 9 11 10 12 11 13
REMARK SMILES IDX 13 15 12 16
REMARK H PARENT
REMARK Flexibility Score: 80.00
ROOT
ATOM      1  C   UNL     1     168.815 171.697 138.127  1.00  0.00    -0.008 C 
ATOM      2  C   UNL     1     169.784 172.945 138.108  1.00  0.00     0.003 C 
ATOM      3  C   UNL     1     169.497 173.682 139.432  1.00  0.00     0.006 C 
ATOM      4  C   UNL     1     169.692 172.428 140.287  1.00  0.00     0.019 C 
ATOM      5  C   UNL     1     168.776 171.444 139.614  1.00  0.00    -0.068 C 
ATOM      6  C   UNL     1     168.117 170.457 140.234  1.00  0.00     0.009 C 
ATOM      7  C   UNL     1     171.134 172.027 139.896  1.00  0.00     0.008 C 
ATOM      8  C   UNL     1     171.234 172.480 138.418  1.00  0.00     0.005 C 
ATOM      9  C   UNL     1     169.381 170.461 137.376  1.00  0.00     0.016 C 
ENDROOT
BRANCH   3  10
ATOM     10  C   UNL     1     168.173 174.548 139.587  1.00  0.00    -0.032 C 
ATOM     11  C   UNL     1     167.526 174.352 140.983  1.00  0.00     0.011 C 
ATOM     12  C   UNL     1     168.573 176.047 139.502  1.00  0.00     0.011 C 
BRANCH  10  13
ATOM     13  C   UNL     1     167.119 174.340 138.463  1.00  0.00     0.007 CG0
ATOM     14  G   UNL     1     166.529 172.936 138.354  1.00  0.00     0.000 G0
ENDBRANCH  10  13
ENDBRANCH   3  10
BRANCH   1  15
ATOM     15  C   UNL     1     167.421 172.009 137.521  1.00  0.00     0.011 C 
BRANCH  15  16
ATOM     16  C   UNL     1     166.530 172.941 138.338  1.00  0.00     0.001 CG0
ATOM     17  G   UNL     1     167.119 174.344 138.466  1.00  0.00     0.000 G0
ENDBRANCH  15  16
ENDBRANCH   1  15
TORSDOF 0
ENDMDL
MODEL 9
REMARK VINA RESULT:    -1.902      1.849      4.080
REMARK INTER + INTRA:          -1.717
REMARK INTER:                  -2.344
REMARK INTRA:                   0.627
REMARK UNBOUND:                 0.630
REMARK SMILES C=C1[C@H]2CC[C@@H]3[C@H]2C(C)(C)CCC[C@]13C
REMARK SMILES IDX 14 1 6 2 7 3 3 4 2 5 1 6 4 7 5 8 15 9 8 10 9 11 10 12 11 13
REMARK SMILES IDX 13 15 12 16
REMARK H PARENT
REMARK Flexibility Score: 80.00
ROOT
ATOM      1  C   UNL     1     168.401 172.947 140.101  1.00  0.00    -0.008 C 
ATOM      2  C   UNL     1     167.262 172.215 139.288  1.00  0.00     0.003 C 
ATOM      3  C   UNL     1     166.374 173.355 138.747  1.00  0.00     0.006 C 
ATOM      4  C   UNL     1     167.552 174.112 138.130  1.00  0.00     0.019 C 
ATOM      5  C   UNL     1     168.503 174.215 139.289  1.00  0.00    -0.068 C 
ATOM      6  C   UNL     1     169.354 175.226 139.499  1.00  0.00     0.009 C 
ATOM      7  C   UNL     1     168.128 173.035 137.181  1.00  0.00     0.008 C 
ATOM      8  C   UNL     1     167.834 171.713 137.933  1.00  0.00     0.005 C 
ATOM      9  C   UNL     1     169.755 172.185 140.098  1.00  0.00     0.016 C 
ENDROOT
BRANCH   3  10
ATOM     10  C   UNL     1     165.372 174.110 139.723  1.00  0.00    -0.032 C 
ATOM     11  C   UNL     1     165.369 175.639 139.463  1.00  0.00     0.011 C 
ATOM     12  C   UNL     1     163.934 173.615 139.403  1.00  0.00     0.011 C 
BRANCH  10  13
ATOM     13  C   UNL     1     165.582 173.813 141.235  1.00  0.00     0.007 CG0
ATOM     14  G   UNL     1     166.926 174.241 141.818  1.00  0.00     0.000 G0
ENDBRANCH  10  13
ENDBRANCH   3  10
BRANCH   1  15
ATOM     15  C   UNL     1     168.014 173.198 141.584  1.00  0.00     0.011 C 
BRANCH  15  16
ATOM     16  C   UNL     1     166.921 174.234 141.823  1.00  0.00     0.001 CG0
ATOM     17  G   UNL     1     165.577 173.809 141.237  1.00  0.00     0.000 G0
ENDBRANCH  15  16
ENDBRANCH   1  15
TORSDOF 0
ENDMDL
