MODEL 1
REMARK VINA RESULT:    -3.673      0.000      0.000
REMARK INTER + INTRA:          -3.780
REMARK INTER:                  -3.780
REMARK INTRA:                   0.000
REMARK UNBOUND:                 0.000
REMARK SMILES CC1(C)[C@H]2CC[C@](C)(C2)[C@@H]1O
REMARK SMILES IDX 1 1 2 2 4 3 5 4 6 5 7 6 9 7 10 8 8 9 3 10 11 11
REMARK H PARENT 11 12
REMARK Flexibility Score: inf
ROOT
ATOM      1  C   UNL     1     151.782 148.019 144.424  1.00  0.00     0.014 C 
ATOM      2  C   UNL     1     150.785 149.007 145.079  1.00  0.00    -0.006 C 
ATOM      3  C   UNL     1     151.452 149.966 146.125  1.00  0.00    -0.002 C 
ATOM      4  C   UNL     1     152.726 150.624 145.553  1.00  0.00     0.005 C 
ATOM      5  C   UNL     1     152.169 151.570 144.476  1.00  0.00     0.010 C 
ATOM      6  C   UNL     1     150.640 151.404 144.632  1.00  0.00    -0.006 C 
ATOM      7  C   UNL     1     150.517 151.164 146.123  1.00  0.00     0.013 C 
ATOM      8  C   UNL     1     150.227 150.027 144.026  1.00  0.00     0.126 C 
ATOM      9  C   UNL     1     149.848 152.612 144.113  1.00  0.00     0.014 C 
ATOM     10  C   UNL     1     149.687 148.156 145.771  1.00  0.00     0.014 C 
ENDROOT
BRANCH   8  11
ATOM     11  O   UNL     1     148.839 149.905 143.804  1.00  0.00    -0.392 OA
ATOM     12  H   UNL     1     148.614 148.947 143.691  1.00  0.00     0.211 HD
ENDBRANCH   8  11
TORSDOF 1
ENDMDL
MODEL 2
REMARK VINA RESULT:    -3.510      8.818     10.897
REMARK INTER + INTRA:          -3.613
REMARK INTER:                  -3.613
REMARK INTRA:                   0.000
REMARK UNBOUND:                 0.000
REMARK SMILES CC1(C)[C@H]2CC[C@](C)(C2)[C@@H]1O
REMARK SMILES IDX 1 1 2 2 4 3 5 4 6 5 7 6 9 7 10 8 8 9 3 10 11 11
REMARK H PARENT 11 12
REMARK Flexibility Score: inf
ROOT
ATOM      1  C   UNL     1     146.518 156.983 137.804  1.00  0.00     0.014 C 
ATOM      2  C   UNL     1     147.514 157.509 138.866  1.00  0.00    -0.006 C 
ATOM      3  C   UNL     1     148.635 158.430 138.269  1.00  0.00    -0.002 C 
ATOM      4  C   UNL     1     148.039 159.519 137.351  1.00  0.00     0.005 C 
ATOM      5  C   UNL     1     147.291 160.429 138.340  1.00  0.00     0.010 C 
ATOM      6  C   UNL     1     147.631 159.798 139.711  1.00  0.00    -0.006 C 
ATOM      7  C   UNL     1     149.035 159.284 139.461  1.00  0.00     0.013 C 
ATOM      8  C   UNL     1     146.806 158.485 139.870  1.00  0.00     0.126 C 
ATOM      9  C   UNL     1     147.514 160.792 140.875  1.00  0.00     0.014 C 
ATOM     10  C   UNL     1     148.157 156.270 139.543  1.00  0.00     0.014 C 
ENDROOT
BRANCH   8  11
ATOM     11  O   UNL     1     146.771 158.001 141.195  1.00  0.00    -0.392 OA
ATOM     12  H   UNL     1     146.043 157.333 141.275  1.00  0.00     0.211 HD
ENDBRANCH   8  11
TORSDOF 1
ENDMDL
MODEL 3
REMARK VINA RESULT:    -3.474      9.062     10.625
REMARK INTER + INTRA:          -3.576
REMARK INTER:                  -3.576
REMARK INTRA:                   0.000
REMARK UNBOUND:                 0.000
REMARK SMILES CC1(C)[C@H]2CC[C@](C)(C2)[C@@H]1O
REMARK SMILES IDX 1 1 2 2 4 3 5 4 6 5 7 6 9 7 10 8 8 9 3 10 11 11
REMARK H PARENT 11 12
REMARK Flexibility Score: inf
ROOT
ATOM      1  C   UNL     1     156.720 154.595 137.873  1.00  0.00     0.014 C 
ATOM      2  C   UNL     1     157.372 153.658 138.919  1.00  0.00    -0.006 C 
ATOM      3  C   UNL     1     158.329 152.587 138.288  1.00  0.00    -0.002 C 
ATOM      4  C   UNL     1     159.322 153.233 137.297  1.00  0.00     0.005 C 
ATOM      5  C   UNL     1     160.235 154.059 138.218  1.00  0.00     0.010 C 
ATOM      6  C   UNL     1     159.709 153.707 139.629  1.00  0.00    -0.006 C 
ATOM      7  C   UNL     1     159.275 152.268 139.434  1.00  0.00     0.013 C 
ATOM      8  C   UNL     1     158.355 154.448 139.852  1.00  0.00     0.126 C 
ATOM      9  C   UNL     1     160.758 153.912 140.731  1.00  0.00     0.014 C 
ATOM     10  C   UNL     1     156.219 152.949 139.679  1.00  0.00     0.014 C 
ENDROOT
BRANCH   8  11
ATOM     11  O   UNL     1     157.947 154.479 141.202  1.00  0.00    -0.392 OA
ATOM     12  H   UNL     1     158.747 154.572 141.779  1.00  0.00     0.211 HD
ENDBRANCH   8  11
TORSDOF 1
ENDMDL
MODEL 4
REMARK VINA RESULT:    -3.470      7.535      9.339
REMARK INTER + INTRA:          -3.571
REMARK INTER:                  -3.571
REMARK INTRA:                   0.000
REMARK UNBOUND:                 0.000
REMARK SMILES CC1(C)[C@H]2CC[C@](C)(C2)[C@@H]1O
REMARK SMILES IDX 1 1 2 2 4 3 5 4 6 5 7 6 9 7 10 8 8 9 3 10 11 11
REMARK H PARENT 11 12
REMARK Flexibility Score: inf
ROOT
ATOM      1  C   UNL     1     153.844 141.476 137.807  1.00  0.00     0.014 C 
ATOM      2  C   UNL     1     153.641 142.260 139.127  1.00  0.00    -0.006 C 
ATOM      3  C   UNL     1     154.552 143.532 139.244  1.00  0.00    -0.002 C 
ATOM      4  C   UNL     1     154.480 144.395 137.966  1.00  0.00     0.005 C 
ATOM      5  C   UNL     1     153.048 144.952 138.009  1.00  0.00     0.010 C 
ATOM      6  C   UNL     1     152.510 144.413 139.355  1.00  0.00    -0.006 C 
ATOM      7  C   UNL     1     153.768 144.416 140.200  1.00  0.00     0.013 C 
ATOM      8  C   UNL     1     152.207 142.892 139.193  1.00  0.00     0.126 C 
ATOM      9  C   UNL     1     151.359 145.255 139.923  1.00  0.00     0.014 C 
ATOM     10  C   UNL     1     153.951 141.283 140.291  1.00  0.00     0.014 C 
ENDROOT
BRANCH   8  11
ATOM     11  O   UNL     1     151.408 142.366 140.230  1.00  0.00    -0.392 OA
ATOM     12  H   UNL     1     151.605 141.401 140.331  1.00  0.00     0.211 HD
ENDBRANCH   8  11
TORSDOF 1
ENDMDL
MODEL 5
REMARK VINA RESULT:    -3.462      8.074     10.508
REMARK INTER + INTRA:          -3.563
REMARK INTER:                  -3.563
REMARK INTRA:                   0.000
REMARK UNBOUND:                 0.000
REMARK SMILES CC1(C)[C@H]2CC[C@](C)(C2)[C@@H]1O
REMARK SMILES IDX 1 1 2 2 4 3 5 4 6 5 7 6 9 7 10 8 8 9 3 10 11 11
REMARK H PARENT 11 12
REMARK Flexibility Score: inf
ROOT
ATOM      1  C   UNL     1     147.504 159.726 137.735  1.00  0.00     0.014 C 
ATOM      2  C   UNL     1     147.660 158.976 139.081  1.00  0.00    -0.006 C 
ATOM      3  C   UNL     1     146.698 157.745 139.225  1.00  0.00    -0.002 C 
ATOM      4  C   UNL     1     146.750 156.840 137.976  1.00  0.00     0.005 C 
ATOM      5  C   UNL     1     148.159 156.229 138.055  1.00  0.00     0.010 C 
ATOM      6  C   UNL     1     148.701 156.788 139.391  1.00  0.00    -0.006 C 
ATOM      7  C   UNL     1     147.434 156.861 140.218  1.00  0.00     0.013 C 
ATOM      8  C   UNL     1     149.067 158.290 139.186  1.00  0.00     0.126 C 
ATOM      9  C   UNL     1     149.812 155.920 139.999  1.00  0.00     0.014 C 
ATOM     10  C   UNL     1     147.375 160.001 140.211  1.00  0.00     0.014 C 
ENDROOT
BRANCH   8  11
ATOM     11  O   UNL     1     149.874 158.817 140.217  1.00  0.00    -0.392 OA
ATOM     12  H   UNL     1     150.575 158.157 140.447  1.00  0.00     0.211 HD
ENDBRANCH   8  11
TORSDOF 1
ENDMDL
MODEL 6
REMARK VINA RESULT:    -3.458      8.418     10.008
REMARK INTER + INTRA:          -3.559
REMARK INTER:                  -3.559
REMARK INTRA:                   0.000
REMARK UNBOUND:                 0.000
REMARK SMILES CC1(C)[C@H]2CC[C@](C)(C2)[C@@H]1O
REMARK SMILES IDX 1 1 2 2 4 3 5 4 6 5 7 6 9 7 10 8 8 9 3 10 11 11
REMARK H PARENT 11 12
REMARK Flexibility Score: inf
ROOT
ATOM      1  C   UNL     1     159.612 153.505 137.529  1.00  0.00     0.014 C 
ATOM      2  C   UNL     1     158.949 153.494 138.928  1.00  0.00    -0.006 C 
ATOM      3  C   UNL     1     157.790 154.541 139.078  1.00  0.00    -0.002 C 
ATOM      4  C   UNL     1     156.800 154.458 137.897  1.00  0.00     0.005 C 
ATOM      5  C   UNL     1     156.113 153.101 138.122  1.00  0.00     0.010 C 
ATOM      6  C   UNL     1     156.730 152.620 139.456  1.00  0.00    -0.006 C 
ATOM      7  C   UNL     1     156.935 153.936 140.179  1.00  0.00     0.013 C 
ATOM      8  C   UNL     1     158.190 152.146 139.183  1.00  0.00     0.126 C 
ATOM      9  C   UNL     1     155.842 151.614 140.201  1.00  0.00     0.014 C 
ATOM     10  C   UNL     1     160.065 153.792 139.965  1.00  0.00     0.014 C 
ENDROOT
BRANCH   8  11
ATOM     11  O   UNL     1     158.738 151.382 140.236  1.00  0.00    -0.392 OA
ATOM     12  H   UNL     1     158.151 150.604 140.409  1.00  0.00     0.211 HD
ENDBRANCH   8  11
TORSDOF 1
ENDMDL
MODEL 7
REMARK VINA RESULT:    -3.438      8.881     10.046
REMARK INTER + INTRA:          -3.538
REMARK INTER:                  -3.538
REMARK INTRA:                   0.000
REMARK UNBOUND:                 0.000
REMARK SMILES CC1(C)[C@H]2CC[C@](C)(C2)[C@@H]1O
REMARK SMILES IDX 1 1 2 2 4 3 5 4 6 5 7 6 9 7 10 8 8 9 3 10 11 11
REMARK H PARENT 11 12
REMARK Flexibility Score: inf
ROOT
ATOM      1  C   UNL     1     141.096 147.402 138.011  1.00  0.00     0.014 C 
ATOM      2  C   UNL     1     142.000 147.632 139.248  1.00  0.00    -0.006 C 
ATOM      3  C   UNL     1     143.285 146.732 139.258  1.00  0.00    -0.002 C 
ATOM      4  C   UNL     1     144.023 146.789 137.904  1.00  0.00     0.005 C 
ATOM      5  C   UNL     1     144.569 148.226 137.873  1.00  0.00     0.010 C 
ATOM      6  C   UNL     1     144.155 148.781 139.255  1.00  0.00    -0.006 C 
ATOM      7  C   UNL     1     144.248 147.536 140.115  1.00  0.00     0.013 C 
ATOM      8  C   UNL     1     142.623 149.071 139.233  1.00  0.00     0.126 C 
ATOM      9  C   UNL     1     145.037 149.947 139.724  1.00  0.00     0.014 C 
ATOM     10  C   UNL     1     141.139 147.333 140.504  1.00  0.00     0.014 C 
ENDROOT
BRANCH   8  11
ATOM     11  O   UNL     1     142.190 149.883 140.303  1.00  0.00    -0.392 OA
ATOM     12  H   UNL     1     141.644 150.626 139.943  1.00  0.00     0.211 HD
ENDBRANCH   8  11
TORSDOF 1
ENDMDL
MODEL 8
REMARK VINA RESULT:    -3.268      8.808      9.910
REMARK INTER + INTRA:          -3.364
REMARK INTER:                  -3.364
REMARK INTRA:                   0.000
REMARK UNBOUND:                 0.000
REMARK SMILES CC1(C)[C@H]2CC[C@](C)(C2)[C@@H]1O
REMARK SMILES IDX 1 1 2 2 4 3 5 4 6 5 7 6 9 7 10 8 8 9 3 10 11 11
REMARK H PARENT 11 12
REMARK Flexibility Score: inf
ROOT
ATOM      1  C   UNL     1     151.536 142.392 139.401  1.00  0.00     0.014 C 
ATOM      2  C   UNL     1     153.054 142.555 139.141  1.00  0.00    -0.006 C 
ATOM      3  C   UNL     1     153.417 142.672 137.619  1.00  0.00    -0.002 C 
ATOM      4  C   UNL     1     152.527 143.713 136.906  1.00  0.00     0.005 C 
ATOM      5  C   UNL     1     153.005 145.043 137.511  1.00  0.00     0.010 C 
ATOM      6  C   UNL     1     154.173 144.605 138.425  1.00  0.00    -0.006 C 
ATOM      7  C   UNL     1     154.733 143.430 137.648  1.00  0.00     0.013 C 
ATOM      8  C   UNL     1     153.579 143.925 139.696  1.00  0.00     0.126 C 
ATOM      9  C   UNL     1     155.181 145.731 138.694  1.00  0.00     0.014 C 
ATOM     10  C   UNL     1     153.758 141.317 139.756  1.00  0.00     0.014 C 
ENDROOT
BRANCH   8  11
ATOM     11  O   UNL     1     154.510 143.786 140.746  1.00  0.00    -0.392 OA
ATOM     12  H   UNL     1     154.851 142.857 140.754  1.00  0.00     0.211 HD
ENDBRANCH   8  11
TORSDOF 1
ENDMDL
