MODEL 1
REMARK VINA RESULT:    -3.393      0.000      0.000
REMARK INTER + INTRA:          -6.026
REMARK INTER:                  -4.980
REMARK INTRA:                  -1.047
REMARK UNBOUND:                -1.047
REMARK SMILES CCCCCC(=O)CCCCC
REMARK SMILES IDX 6 1 7 2 5 3 4 4 3 5 2 6 1 7 8 8 9 9 10 10 11 11 12 12
REMARK H PARENT
REMARK Flexibility Score: inf
ROOT
ATOM      1  C   UNL     1       6.817  -5.482   1.014  1.00  0.00     0.132 C 
ATOM      2  O   UNL     1       5.757  -6.088   1.065  1.00  0.00    -0.300 OA
ENDROOT
BRANCH   1   3
ATOM      3  C   UNL     1       8.040  -6.168   0.464  1.00  0.00     0.075 C 
BRANCH   3   4
ATOM      4  C   UNL     1       7.687  -7.180  -0.636  1.00  0.00     0.008 C 
BRANCH   4   5
ATOM      5  C   UNL     1       8.337  -6.824  -1.984  1.00  0.00     0.000 C 
BRANCH   5   6
ATOM      6  C   UNL     1       9.131  -5.510  -1.925  1.00  0.00    -0.003 C 
ATOM      7  C   UNL     1       8.872  -4.606  -3.131  1.00  0.00     0.004 C 
ENDBRANCH   5   6
ENDBRANCH   4   5
ENDBRANCH   3   4
ENDBRANCH   1   3
BRANCH   1   8
ATOM      8  C   UNL     1       6.893  -4.073   1.542  1.00  0.00     0.075 C 
BRANCH   8   9
ATOM      9  C   UNL     1       7.578  -3.148   0.527  1.00  0.00     0.008 C 
BRANCH   9  10
ATOM     10  C   UNL     1       8.799  -2.423   1.118  1.00  0.00     0.000 C 
BRANCH  10  11
ATOM     11  C   UNL     1      10.053  -2.570   0.245  1.00  0.00    -0.003 C 
ATOM     12  C   UNL     1      10.959  -3.681   0.767  1.00  0.00     0.004 C 
ENDBRANCH  10  11
ENDBRANCH   9  10
ENDBRANCH   8   9
ENDBRANCH   1   8
TORSDOF 8
ENDMDL
MODEL 2
REMARK VINA RESULT:    -3.364      0.945      3.630
REMARK INTER + INTRA:          -5.984
REMARK INTER:                  -4.817
REMARK INTRA:                  -1.167
REMARK UNBOUND:                -1.047
REMARK SMILES CCCCCC(=O)CCCCC
REMARK SMILES IDX 6 1 7 2 5 3 4 4 3 5 2 6 1 7 8 8 9 9 10 10 11 11 12 12
REMARK H PARENT
REMARK Flexibility Score: inf
ROOT
ATOM      1  C   UNL     1       6.894  -6.014   0.823  1.00  0.00     0.132 C 
ATOM      2  O   UNL     1       5.746  -6.398   0.996  1.00  0.00    -0.300 OA
ENDROOT
BRANCH   1   3
ATOM      3  C   UNL     1       7.499  -5.025   1.784  1.00  0.00     0.075 C 
BRANCH   3   4
ATOM      4  C   UNL     1       6.932  -3.612   1.590  1.00  0.00     0.008 C 
BRANCH   4   5
ATOM      5  C   UNL     1       7.769  -2.781   0.601  1.00  0.00     0.000 C 
BRANCH   5   6
ATOM      6  C   UNL     1       9.158  -2.430   1.156  1.00  0.00    -0.003 C 
ATOM      7  C   UNL     1      10.162  -2.076   0.059  1.00  0.00     0.004 C 
ENDBRANCH   5   6
ENDBRANCH   4   5
ENDBRANCH   3   4
ENDBRANCH   1   3
BRANCH   1   8
ATOM      8  C   UNL     1       7.667  -6.502  -0.374  1.00  0.00     0.075 C 
BRANCH   8   9
ATOM      9  C   UNL     1       9.174  -6.293  -0.169  1.00  0.00     0.008 C 
BRANCH   9  10
ATOM     10  C   UNL     1       9.823  -5.501  -1.316  1.00  0.00     0.000 C 
BRANCH  10  11
ATOM     11  C   UNL     1       8.791  -4.785  -2.198  1.00  0.00    -0.003 C 
ATOM     12  C   UNL     1       9.259  -4.722  -3.650  1.00  0.00     0.004 C 
ENDBRANCH  10  11
ENDBRANCH   9  10
ENDBRANCH   8   9
ENDBRANCH   1   8
TORSDOF 8
ENDMDL
MODEL 3
REMARK VINA RESULT:    -3.345      1.177      1.941
REMARK INTER + INTRA:          -5.956
REMARK INTER:                  -5.084
REMARK INTRA:                  -0.872
REMARK UNBOUND:                -1.047
REMARK SMILES CCCCCC(=O)CCCCC
REMARK SMILES IDX 6 1 7 2 5 3 4 4 3 5 2 6 1 7 8 8 9 9 10 10 11 11 12 12
REMARK H PARENT
REMARK Flexibility Score: inf
ROOT
ATOM      1  C   UNL     1       6.871  -6.116   0.666  1.00  0.00     0.132 C 
ATOM      2  O   UNL     1       5.716  -6.111   1.067  1.00  0.00    -0.300 OA
ENDROOT
BRANCH   1   3
ATOM      3  C   UNL     1       7.306  -7.155  -0.334  1.00  0.00     0.075 C 
BRANCH   3   4
ATOM      4  C   UNL     1       8.730  -6.900  -0.847  1.00  0.00     0.008 C 
BRANCH   4   5
ATOM      5  C   UNL     1       8.743  -6.417  -2.308  1.00  0.00     0.000 C 
BRANCH   5   6
ATOM      6  C   UNL     1       8.834  -4.888  -2.422  1.00  0.00    -0.003 C 
ATOM      7  C   UNL     1      10.100  -4.320  -1.779  1.00  0.00     0.004 C 
ENDBRANCH   5   6
ENDBRANCH   4   5
ENDBRANCH   3   4
ENDBRANCH   1   3
BRANCH   1   8
ATOM      8  C   UNL     1       7.851  -5.111   1.212  1.00  0.00     0.075 C 
BRANCH   8   9
ATOM      9  C   UNL     1       7.431  -3.683   0.835  1.00  0.00     0.008 C 
BRANCH   9  10
ATOM     10  C   UNL     1       8.504  -2.639   1.187  1.00  0.00     0.000 C 
BRANCH  10  11
ATOM     11  C   UNL     1       8.277  -1.999   2.564  1.00  0.00    -0.003 C 
ATOM     12  C   UNL     1       6.790  -1.780   2.829  1.00  0.00     0.004 C 
ENDBRANCH  10  11
ENDBRANCH   9  10
ENDBRANCH   8   9
ENDBRANCH   1   8
TORSDOF 8
ENDMDL
MODEL 4
REMARK VINA RESULT:    -3.329      8.382     10.405
REMARK INTER + INTRA:          -5.933
REMARK INTER:                  -5.020
REMARK INTRA:                  -0.913
REMARK UNBOUND:                -1.047
REMARK SMILES CCCCCC(=O)CCCCC
REMARK SMILES IDX 6 1 7 2 5 3 4 4 3 5 2 6 1 7 8 8 9 9 10 10 11 11 12 12
REMARK H PARENT
REMARK Flexibility Score: inf
ROOT
ATOM      1  C   UNL     1       9.966   1.096  -5.875  1.00  0.00     0.132 C 
ATOM      2  O   UNL     1      10.252   0.404  -4.909  1.00  0.00    -0.300 OA
ENDROOT
BRANCH   1   3
ATOM      3  C   UNL     1      10.890   2.211  -6.290  1.00  0.00     0.075 C 
BRANCH   3   4
ATOM      4  C   UNL     1      10.361   2.972  -7.514  1.00  0.00     0.008 C 
BRANCH   4   5
ATOM      5  C   UNL     1      11.178   2.671  -8.783  1.00  0.00     0.000 C 
BRANCH   5   6
ATOM      6  C   UNL     1      10.572   1.532  -9.617  1.00  0.00    -0.003 C 
ATOM      7  C   UNL     1       9.200   1.884 -10.192  1.00  0.00     0.004 C 
ENDBRANCH   5   6
ENDBRANCH   4   5
ENDBRANCH   3   4
ENDBRANCH   1   3
BRANCH   1   8
ATOM      8  C   UNL     1       8.672   0.852  -6.607  1.00  0.00     0.075 C 
BRANCH   8   9
ATOM      9  C   UNL     1       8.566  -0.615  -7.047  1.00  0.00     0.008 C 
BRANCH   9  10
ATOM     10  C   UNL     1       7.330  -0.882  -7.920  1.00  0.00     0.000 C 
BRANCH  10  11
ATOM     11  C   UNL     1       6.433   0.355  -8.071  1.00  0.00    -0.003 C 
ATOM     12  C   UNL     1       5.056  -0.027  -8.607  1.00  0.00     0.004 C 
ENDBRANCH  10  11
ENDBRANCH   9  10
ENDBRANCH   8   9
ENDBRANCH   1   8
TORSDOF 8
ENDMDL
MODEL 5
REMARK VINA RESULT:    -3.313      1.547      4.365
REMARK INTER + INTRA:          -5.909
REMARK INTER:                  -5.157
REMARK INTRA:                  -0.752
REMARK UNBOUND:                -1.047
REMARK SMILES CCCCCC(=O)CCCCC
REMARK SMILES IDX 6 1 7 2 5 3 4 4 3 5 2 6 1 7 8 8 9 9 10 10 11 11 12 12
REMARK H PARENT
REMARK Flexibility Score: inf
ROOT
ATOM      1  C   UNL     1       6.898  -6.141   1.176  1.00  0.00     0.132 C 
ATOM      2  O   UNL     1       5.727  -6.436   0.987  1.00  0.00    -0.300 OA
ENDROOT
BRANCH   1   3
ATOM      3  C   UNL     1       7.235  -4.926   2.000  1.00  0.00     0.075 C 
BRANCH   3   4
ATOM      4  C   UNL     1       7.006  -3.622   1.223  1.00  0.00     0.008 C 
BRANCH   4   5
ATOM      5  C   UNL     1       7.715  -2.424   1.878  1.00  0.00     0.000 C 
BRANCH   5   6
ATOM      6  C   UNL     1       6.800  -1.654   2.843  1.00  0.00    -0.003 C 
ATOM      7  C   UNL     1       7.560  -1.046   4.022  1.00  0.00     0.004 C 
ENDBRANCH   5   6
ENDBRANCH   4   5
ENDBRANCH   3   4
ENDBRANCH   1   3
BRANCH   1   8
ATOM      8  C   UNL     1       7.984  -6.972   0.544  1.00  0.00     0.075 C 
BRANCH   8   9
ATOM      9  C   UNL     1       7.894  -6.910  -0.987  1.00  0.00     0.008 C 
BRANCH   9  10
ATOM     10  C   UNL     1       9.095  -6.189  -1.620  1.00  0.00     0.000 C 
BRANCH  10  11
ATOM     11  C   UNL     1       8.843  -4.688  -1.825  1.00  0.00    -0.003 C 
ATOM     12  C   UNL     1       9.851  -3.850  -1.043  1.00  0.00     0.004 C 
ENDBRANCH  10  11
ENDBRANCH   9  10
ENDBRANCH   8   9
ENDBRANCH   1   8
TORSDOF 8
ENDMDL
MODEL 6
REMARK VINA RESULT:    -3.270      8.503     10.611
REMARK INTER + INTRA:          -5.847
REMARK INTER:                  -4.843
REMARK INTRA:                  -1.004
REMARK UNBOUND:                -1.047
REMARK SMILES CCCCCC(=O)CCCCC
REMARK SMILES IDX 6 1 7 2 5 3 4 4 3 5 2 6 1 7 8 8 9 9 10 10 11 11 12 12
REMARK H PARENT
REMARK Flexibility Score: inf
ROOT
ATOM      1  C   UNL     1       7.413  -0.770  -7.590  1.00  0.00     0.132 C 
ATOM      2  O   UNL     1       7.073  -1.934  -7.747  1.00  0.00    -0.300 OA
ENDROOT
BRANCH   1   3
ATOM      3  C   UNL     1       8.748  -0.464  -6.963  1.00  0.00     0.075 C 
BRANCH   3   4
ATOM      4  C   UNL     1       8.846   0.997  -6.500  1.00  0.00     0.008 C 
BRANCH   4   5
ATOM      5  C   UNL     1      10.241   1.594  -6.751  1.00  0.00     0.000 C 
BRANCH   5   6
ATOM      6  C   UNL     1      10.183   2.931  -7.506  1.00  0.00    -0.003 C 
ATOM      7  C   UNL     1      10.916   4.056  -6.775  1.00  0.00     0.004 C 
ENDBRANCH   5   6
ENDBRANCH   4   5
ENDBRANCH   3   4
ENDBRANCH   1   3
BRANCH   1   8
ATOM      8  C   UNL     1       6.473   0.338  -7.985  1.00  0.00     0.075 C 
BRANCH   8   9
ATOM      9  C   UNL     1       6.528   0.584  -9.499  1.00  0.00     0.008 C 
BRANCH   9  10
ATOM     10  C   UNL     1       7.537   1.678  -9.883  1.00  0.00     0.000 C 
BRANCH  10  11
ATOM     11  C   UNL     1       8.838   1.105 -10.465  1.00  0.00    -0.003 C 
ATOM     12  C   UNL     1       9.646   2.188 -11.174  1.00  0.00     0.004 C 
ENDBRANCH  10  11
ENDBRANCH   9  10
ENDBRANCH   8   9
ENDBRANCH   1   8
TORSDOF 8
ENDMDL
MODEL 7
REMARK VINA RESULT:    -3.268     14.433     16.338
REMARK INTER + INTRA:          -5.843
REMARK INTER:                  -4.674
REMARK INTRA:                  -1.168
REMARK UNBOUND:                -1.047
REMARK SMILES CCCCCC(=O)CCCCC
REMARK SMILES IDX 6 1 7 2 5 3 4 4 3 5 2 6 1 7 8 8 9 9 10 10 11 11 12 12
REMARK H PARENT
REMARK Flexibility Score: inf
ROOT
ATOM      1  C   UNL     1      -0.247   6.131   3.536  1.00  0.00     0.132 C 
ATOM      2  O   UNL     1       0.108   5.118   2.951  1.00  0.00    -0.300 OA
ENDROOT
BRANCH   1   3
ATOM      3  C   UNL     1       0.126   6.322   4.983  1.00  0.00     0.075 C 
BRANCH   3   4
ATOM      4  C   UNL     1       1.449   7.084   5.141  1.00  0.00     0.008 C 
BRANCH   4   5
ATOM      5  C   UNL     1       1.226   8.574   5.453  1.00  0.00     0.000 C 
BRANCH   5   6
ATOM      6  C   UNL     1       1.434   9.471   4.222  1.00  0.00    -0.003 C 
ATOM      7  C   UNL     1       2.809  10.138   4.200  1.00  0.00     0.004 C 
ENDBRANCH   5   6
ENDBRANCH   4   5
ENDBRANCH   3   4
ENDBRANCH   1   3
BRANCH   1   8
ATOM      8  C   UNL     1      -1.089   7.150   2.814  1.00  0.00     0.075 C 
BRANCH   8   9
ATOM      9  C   UNL     1      -2.251   7.620   3.699  1.00  0.00     0.008 C 
BRANCH   9  10
ATOM     10  C   UNL     1      -2.215   9.133   3.967  1.00  0.00     0.000 C 
BRANCH  10  11
ATOM     11  C   UNL     1      -2.342   9.474   5.459  1.00  0.00    -0.003 C 
ATOM     12  C   UNL     1      -2.765   8.250   6.267  1.00  0.00     0.004 C 
ENDBRANCH  10  11
ENDBRANCH   9  10
ENDBRANCH   8   9
ENDBRANCH   1   8
TORSDOF 8
ENDMDL
MODEL 8
REMARK VINA RESULT:    -3.261     15.280     17.334
REMARK INTER + INTRA:          -5.834
REMARK INTER:                  -4.696
REMARK INTRA:                  -1.137
REMARK UNBOUND:                -1.047
REMARK SMILES CCCCCC(=O)CCCCC
REMARK SMILES IDX 6 1 7 2 5 3 4 4 3 5 2 6 1 7 8 8 9 9 10 10 11 11 12 12
REMARK H PARENT
REMARK Flexibility Score: inf
ROOT
ATOM      1  C   UNL     1      -1.168   9.870   3.952  1.00  0.00     0.132 C 
ATOM      2  O   UNL     1      -0.475  10.875   4.014  1.00  0.00    -0.300 OA
ENDROOT
BRANCH   1   3
ATOM      3  C   UNL     1      -2.546   9.879   4.560  1.00  0.00     0.075 C 
BRANCH   3   4
ATOM      4  C   UNL     1      -3.275   8.543   4.355  1.00  0.00     0.008 C 
BRANCH   4   5
ATOM      5  C   UNL     1      -3.363   7.725   5.655  1.00  0.00     0.000 C 
BRANCH   5   6
ATOM      6  C   UNL     1      -2.776   8.473   6.863  1.00  0.00    -0.003 C 
ATOM      7  C   UNL     1      -1.524   7.799   7.426  1.00  0.00     0.004 C 
ENDBRANCH   5   6
ENDBRANCH   4   5
ENDBRANCH   3   4
ENDBRANCH   1   3
BRANCH   1   8
ATOM      8  C   UNL     1      -0.616   8.625   3.308  1.00  0.00     0.075 C 
BRANCH   8   9
ATOM      9  C   UNL     1       0.404   7.944   4.230  1.00  0.00     0.008 C 
BRANCH   9  10
ATOM     10  C   UNL     1       0.156   6.433   4.372  1.00  0.00     0.000 C 
BRANCH  10  11
ATOM     11  C   UNL     1      -1.017   5.943   3.512  1.00  0.00    -0.003 C 
ATOM     12  C   UNL     1      -0.533   5.023   2.395  1.00  0.00     0.004 C 
ENDBRANCH  10  11
ENDBRANCH   9  10
ENDBRANCH   8   9
ENDBRANCH   1   8
TORSDOF 8
ENDMDL
MODEL 9
REMARK VINA RESULT:    -3.211      2.136      5.140
REMARK INTER + INTRA:          -5.760
REMARK INTER:                  -4.970
REMARK INTRA:                  -0.790
REMARK UNBOUND:                -1.047
REMARK SMILES CCCCCC(=O)CCCCC
REMARK SMILES IDX 6 1 7 2 5 3 4 4 3 5 2 6 1 7 8 8 9 9 10 10 11 11 12 12
REMARK H PARENT
REMARK Flexibility Score: inf
ROOT
ATOM      1  C   UNL     1       8.635  -4.132  -0.724  1.00  0.00     0.132 C 
ATOM      2  O   UNL     1       8.573  -4.071  -1.943  1.00  0.00    -0.300 OA
ENDROOT
BRANCH   1   3
ATOM      3  C   UNL     1       8.443  -2.881   0.094  1.00  0.00     0.075 C 
BRANCH   3   4
ATOM      4  C   UNL     1       7.231  -2.987   1.031  1.00  0.00     0.008 C 
BRANCH   4   5
ATOM      5  C   UNL     1       7.451  -2.229   2.352  1.00  0.00     0.000 C 
BRANCH   5   6
ATOM      6  C   UNL     1       7.209  -3.114   3.585  1.00  0.00    -0.003 C 
ATOM      7  C   UNL     1       7.516  -4.589   3.326  1.00  0.00     0.004 C 
ENDBRANCH   5   6
ENDBRANCH   4   5
ENDBRANCH   3   4
ENDBRANCH   1   3
BRANCH   1   8
ATOM      8  C   UNL     1       8.948  -5.448  -0.060  1.00  0.00     0.075 C 
BRANCH   8   9
ATOM      9  C   UNL     1       7.981  -6.540  -0.538  1.00  0.00     0.008 C 
BRANCH   9  10
ATOM     10  C   UNL     1       6.668  -6.558   0.260  1.00  0.00     0.000 C 
BRANCH  10  11
ATOM     11  C   UNL     1       6.098  -7.973   0.430  1.00  0.00    -0.003 C 
ATOM     12  C   UNL     1       6.763  -8.697   1.598  1.00  0.00     0.004 C 
ENDBRANCH  10  11
ENDBRANCH   9  10
ENDBRANCH   8   9
ENDBRANCH   1   8
TORSDOF 8
ENDMDL
