MODEL 1
REMARK VINA RESULT:    -4.383      0.000      0.000
REMARK INTER + INTRA:          -5.084
REMARK INTER:                  -5.024
REMARK INTRA:                  -0.061
REMARK UNBOUND:                -0.061
REMARK SMILES CC(C)[C@@H]([NH3+])C(=O)[O-]
REMARK SMILES IDX 4 1 5 2 6 6 7 7 8 8 2 9 1 10 3 11
REMARK H PARENT 5 3 5 4 5 5
REMARK Flexibility Score: inf
ROOT
ATOM      1  C   UNL     1      12.786  -3.358  21.473  1.00  0.00     0.230 C 
ENDROOT
BRANCH   1   2
ATOM      2  N   UNL     1      13.906  -3.176  20.535  1.00  0.00    -0.350 N 
ATOM      3  H   UNL     1      14.337  -4.091  20.271  1.00  0.00     0.345 HD
ATOM      4  H   UNL     1      14.635  -2.556  20.953  1.00  0.00     0.345 HD
ATOM      5  H   UNL     1      13.557  -2.710  19.665  1.00  0.00     0.345 HD
ENDBRANCH   1   2
BRANCH   1   6
ATOM      6  C   UNL     1      11.555  -3.841  20.746  1.00  0.00     0.099 C 
ATOM      7  O   UNL     1      11.343  -5.077  20.626  1.00  0.00    -0.544 OA
ATOM      8  O   UNL     1      10.672  -2.938  20.165  1.00  0.00    -0.544 OA
ENDBRANCH   1   6
BRANCH   1   9
ATOM      9  C   UNL     1      13.136  -4.303  22.662  1.00  0.00     0.047 C 
ATOM     10  C   UNL     1      14.646  -4.451  22.909  1.00  0.00     0.014 C 
ATOM     11  C   UNL     1      12.426  -3.879  23.957  1.00  0.00     0.014 C 
ENDBRANCH   1   9
TORSDOF 3
ENDMDL
MODEL 2
REMARK VINA RESULT:    -4.347     18.761     19.605
REMARK INTER + INTRA:          -5.042
REMARK INTER:                  -4.982
REMARK INTRA:                  -0.060
REMARK UNBOUND:                -0.061
REMARK SMILES CC(C)[C@@H]([NH3+])C(=O)[O-]
REMARK SMILES IDX 4 1 5 2 6 6 7 7 8 8 2 9 1 10 3 11
REMARK H PARENT 5 3 5 4 5 5
REMARK Flexibility Score: inf
ROOT
ATOM      1  C   UNL     1      18.016  12.072  13.153  1.00  0.00     0.230 C 
ENDROOT
BRANCH   1   2
ATOM      2  N   UNL     1      18.334  11.637  14.523  1.00  0.00    -0.350 N 
ATOM      3  H   UNL     1      18.679  10.651  14.541  1.00  0.00     0.345 HD
ATOM      4  H   UNL     1      17.493  11.722  15.137  1.00  0.00     0.345 HD
ATOM      5  H   UNL     1      19.078  12.257  14.920  1.00  0.00     0.345 HD
ENDBRANCH   1   2
BRANCH   1   6
ATOM      6  C   UNL     1      16.734  12.866  13.130  1.00  0.00     0.099 C 
ATOM      7  O   UNL     1      16.775  14.125  13.132  1.00  0.00    -0.544 OA
ATOM      8  O   UNL     1      15.499  12.226  13.153  1.00  0.00    -0.544 OA
ENDBRANCH   1   6
BRANCH   1   9
ATOM      9  C   UNL     1      19.176  12.871  12.484  1.00  0.00     0.047 C 
ATOM     10  C   UNL     1      20.548  12.625  13.132  1.00  0.00     0.014 C 
ATOM     11  C   UNL     1      19.250  12.612  10.971  1.00  0.00     0.014 C 
ENDBRANCH   1   9
TORSDOF 3
ENDMDL
MODEL 3
REMARK VINA RESULT:    -4.107      1.985      2.482
REMARK INTER + INTRA:          -4.767
REMARK INTER:                  -4.703
REMARK INTRA:                  -0.064
REMARK UNBOUND:                -0.061
REMARK SMILES CC(C)[C@@H]([NH3+])C(=O)[O-]
REMARK SMILES IDX 4 1 5 2 6 6 7 7 8 8 2 9 1 10 3 11
REMARK H PARENT 5 3 5 4 5 5
REMARK Flexibility Score: inf
ROOT
ATOM      1  C   UNL     1      13.115  -4.746  22.644  1.00  0.00     0.230 C 
ENDROOT
BRANCH   1   2
ATOM      2  N   UNL     1      12.096  -4.932  23.690  1.00  0.00    -0.350 N 
ATOM      3  H   UNL     1      11.937  -5.945  23.893  1.00  0.00     0.345 HD
ATOM      4  H   UNL     1      11.195  -4.488  23.404  1.00  0.00     0.345 HD
ATOM      5  H   UNL     1      12.413  -4.463  24.570  1.00  0.00     0.345 HD
ENDBRANCH   1   2
BRANCH   1   6
ATOM      6  C   UNL     1      12.562  -3.932  21.500  1.00  0.00     0.099 C 
ATOM      7  O   UNL     1      13.322  -3.165  20.852  1.00  0.00    -0.544 OA
ATOM      8  O   UNL     1      11.210  -3.981  21.180  1.00  0.00    -0.544 OA
ENDBRANCH   1   6
BRANCH   1   9
ATOM      9  C   UNL     1      14.435  -4.119  23.185  1.00  0.00     0.047 C 
ATOM     10  C   UNL     1      14.279  -3.439  24.555  1.00  0.00     0.014 C 
ATOM     11  C   UNL     1      15.579  -5.143  23.229  1.00  0.00     0.014 C 
ENDBRANCH   1   9
TORSDOF 3
ENDMDL
MODEL 4
REMARK VINA RESULT:    -3.956      1.649      2.213
REMARK INTER + INTRA:          -4.595
REMARK INTER:                  -4.548
REMARK INTRA:                  -0.046
REMARK UNBOUND:                -0.061
REMARK SMILES CC(C)[C@@H]([NH3+])C(=O)[O-]
REMARK SMILES IDX 4 1 5 2 6 6 7 7 8 8 2 9 1 10 3 11
REMARK H PARENT 5 3 5 4 5 5
REMARK Flexibility Score: inf
ROOT
ATOM      1  C   UNL     1      12.588  -4.454  21.226  1.00  0.00     0.230 C 
ENDROOT
BRANCH   1   2
ATOM      2  N   UNL     1      11.443  -5.335  21.508  1.00  0.00    -0.350 N 
ATOM      3  H   UNL     1      11.232  -5.960  20.697  1.00  0.00     0.345 HD
ATOM      4  H   UNL     1      10.597  -4.769  21.742  1.00  0.00     0.345 HD
ATOM      5  H   UNL     1      11.662  -5.933  22.339  1.00  0.00     0.345 HD
ENDBRANCH   1   2
BRANCH   1   6
ATOM      6  C   UNL     1      12.234  -3.444  20.162  1.00  0.00     0.099 C 
ATOM      7  O   UNL     1      11.099  -2.899  20.167  1.00  0.00    -0.544 OA
ATOM      8  O   UNL     1      13.131  -3.139  19.143  1.00  0.00    -0.544 OA
ENDBRANCH   1   6
BRANCH   1   9
ATOM      9  C   UNL     1      13.140  -3.746  22.500  1.00  0.00     0.047 C 
ATOM     10  C   UNL     1      12.237  -3.905  23.734  1.00  0.00     0.014 C 
ATOM     11  C   UNL     1      14.571  -4.196  22.830  1.00  0.00     0.014 C 
ENDBRANCH   1   9
TORSDOF 3
ENDMDL
MODEL 5
REMARK VINA RESULT:    -3.948     19.478     20.017
REMARK INTER + INTRA:          -4.586
REMARK INTER:                  -4.522
REMARK INTRA:                  -0.064
REMARK UNBOUND:                -0.061
REMARK SMILES CC(C)[C@@H]([NH3+])C(=O)[O-]
REMARK SMILES IDX 4 1 5 2 6 6 7 7 8 8 2 9 1 10 3 11
REMARK H PARENT 5 3 5 4 5 5
REMARK Flexibility Score: inf
ROOT
ATOM      1  C   UNL     1      19.061  13.326  12.628  1.00  0.00     0.230 C 
ENDROOT
BRANCH   1   2
ATOM      2  N   UNL     1      18.936  13.696  11.209  1.00  0.00    -0.350 N 
ATOM      3  H   UNL     1      19.748  13.349  10.650  1.00  0.00     0.345 HD
ATOM      4  H   UNL     1      18.861  14.733  11.107  1.00  0.00     0.345 HD
ATOM      5  H   UNL     1      18.061  13.276  10.817  1.00  0.00     0.345 HD
ENDBRANCH   1   2
BRANCH   1   6
ATOM      6  C   UNL     1      17.749  12.801  13.159  1.00  0.00     0.099 C 
ATOM      7  O   UNL     1      17.745  11.913  14.052  1.00  0.00    -0.544 OA
ATOM      8  O   UNL     1      16.540  13.254  12.642  1.00  0.00    -0.544 OA
ENDBRANCH   1   6
BRANCH   1   9
ATOM      9  C   UNL     1      20.213  12.311  12.894  1.00  0.00     0.047 C 
ATOM     10  C   UNL     1      20.659  11.541  11.640  1.00  0.00     0.014 C 
ATOM     11  C   UNL     1      21.423  12.982  13.562  1.00  0.00     0.014 C 
ENDBRANCH   1   9
TORSDOF 3
ENDMDL
MODEL 6
REMARK VINA RESULT:    -3.716     18.483     19.277
REMARK INTER + INTRA:          -4.319
REMARK INTER:                  -4.272
REMARK INTRA:                  -0.047
REMARK UNBOUND:                -0.061
REMARK SMILES CC(C)[C@@H]([NH3+])C(=O)[O-]
REMARK SMILES IDX 4 1 5 2 6 6 7 7 8 8 2 9 1 10 3 11
REMARK H PARENT 5 3 5 4 5 5
REMARK Flexibility Score: inf
ROOT
ATOM      1  C   UNL     1      17.684  13.121  13.471  1.00  0.00     0.230 C 
ENDROOT
BRANCH   1   2
ATOM      2  N   UNL     1      17.039  14.103  12.584  1.00  0.00    -0.350 N 
ATOM      3  H   UNL     1      16.510  14.821  13.128  1.00  0.00     0.345 HD
ATOM      4  H   UNL     1      16.392  13.623  11.918  1.00  0.00     0.345 HD
ATOM      5  H   UNL     1      17.771  14.590  12.016  1.00  0.00     0.345 HD
ENDBRANCH   1   2
BRANCH   1   6
ATOM      6  C   UNL     1      16.648  12.294  14.193  1.00  0.00     0.099 C 
ATOM      7  O   UNL     1      15.573  11.989  13.613  1.00  0.00    -0.544 OA
ATOM      8  O   UNL     1      16.845  11.902  15.513  1.00  0.00    -0.544 OA
ENDBRANCH   1   6
BRANCH   1   9
ATOM      9  C   UNL     1      18.703  12.206  12.727  1.00  0.00     0.047 C 
ATOM     10  C   UNL     1      18.824  12.511  11.225  1.00  0.00     0.014 C 
ATOM     11  C   UNL     1      20.090  12.240  13.388  1.00  0.00     0.014 C 
ENDBRANCH   1   9
TORSDOF 3
ENDMDL
MODEL 7
REMARK VINA RESULT:    -3.679      0.657      1.811
REMARK INTER + INTRA:          -4.278
REMARK INTER:                  -4.633
REMARK INTRA:                   0.355
REMARK UNBOUND:                -0.061
REMARK SMILES CC(C)[C@@H]([NH3+])C(=O)[O-]
REMARK SMILES IDX 4 1 5 2 6 6 7 7 8 8 2 9 1 10 3 11
REMARK H PARENT 5 3 5 4 5 5
REMARK Flexibility Score: inf
ROOT
ATOM      1  C   UNL     1      12.960  -3.179  21.589  1.00  0.00     0.230 C 
ENDROOT
BRANCH   1   2
ATOM      2  N   UNL     1      13.957  -3.230  20.508  1.00  0.00    -0.350 N 
ATOM      3  H   UNL     1      14.861  -3.634  20.840  1.00  0.00     0.345 HD
ATOM      4  H   UNL     1      14.124  -2.274  20.121  1.00  0.00     0.345 HD
ATOM      5  H   UNL     1      13.593  -3.826  19.728  1.00  0.00     0.345 HD
ENDBRANCH   1   2
BRANCH   1   6
ATOM      6  C   UNL     1      11.787  -4.075  21.275  1.00  0.00     0.099 C 
ATOM      7  O   UNL     1      10.727  -3.580  20.809  1.00  0.00    -0.544 OA
ATOM      8  O   UNL     1      11.844  -5.440  21.537  1.00  0.00    -0.544 OA
ENDBRANCH   1   6
BRANCH   1   9
ATOM      9  C   UNL     1      13.559  -3.521  22.987  1.00  0.00     0.047 C 
ATOM     10  C   UNL     1      12.501  -3.892  24.039  1.00  0.00     0.014 C 
ATOM     11  C   UNL     1      14.626  -4.623  22.898  1.00  0.00     0.014 C 
ENDBRANCH   1   9
TORSDOF 3
ENDMDL
MODEL 8
REMARK VINA RESULT:    -3.615      2.092      3.369
REMARK INTER + INTRA:          -4.204
REMARK INTER:                  -4.137
REMARK INTRA:                  -0.068
REMARK UNBOUND:                -0.061
REMARK SMILES CC(C)[C@@H]([NH3+])C(=O)[O-]
REMARK SMILES IDX 4 1 5 2 6 6 7 7 8 8 2 9 1 10 3 11
REMARK H PARENT 5 3 5 4 5 5
REMARK Flexibility Score: inf
ROOT
ATOM      1  C   UNL     1      12.877  -4.044  21.414  1.00  0.00     0.230 C 
ENDROOT
BRANCH   1   2
ATOM      2  N   UNL     1      13.630  -2.976  20.736  1.00  0.00    -0.350 N 
ATOM      3  H   UNL     1      14.634  -2.973  21.025  1.00  0.00     0.345 HD
ATOM      4  H   UNL     1      13.205  -2.044  20.942  1.00  0.00     0.345 HD
ATOM      5  H   UNL     1      13.583  -3.122  19.701  1.00  0.00     0.345 HD
ENDBRANCH   1   2
BRANCH   1   6
ATOM      6  C   UNL     1      13.046  -3.947  22.911  1.00  0.00     0.099 C 
ATOM      7  O   UNL     1      12.032  -3.928  23.657  1.00  0.00    -0.544 OA
ATOM      8  O   UNL     1      14.311  -3.832  23.478  1.00  0.00    -0.544 OA
ENDBRANCH   1   6
BRANCH   1   9
ATOM      9  C   UNL     1      11.367  -4.064  21.027  1.00  0.00     0.047 C 
ATOM     10  C   UNL     1      10.925  -2.843  20.204  1.00  0.00     0.014 C 
ATOM     11  C   UNL     1      10.981  -5.361  20.300  1.00  0.00     0.014 C 
ENDBRANCH   1   9
TORSDOF 3
ENDMDL
MODEL 9
REMARK VINA RESULT:    -3.421     18.859     19.690
REMARK INTER + INTRA:          -3.981
REMARK INTER:                  -3.980
REMARK INTRA:                  -0.002
REMARK UNBOUND:                -0.061
REMARK SMILES CC(C)[C@@H]([NH3+])C(=O)[O-]
REMARK SMILES IDX 4 1 5 2 6 6 7 7 8 8 2 9 1 10 3 11
REMARK H PARENT 5 3 5 4 5 5
REMARK Flexibility Score: inf
ROOT
ATOM      1  C   UNL     1      18.480  12.143  13.281  1.00  0.00     0.230 C 
ENDROOT
BRANCH   1   2
ATOM      2  N   UNL     1      18.253  11.068  12.302  1.00  0.00    -0.350 N 
ATOM      3  H   UNL     1      18.097  11.452  11.342  1.00  0.00     0.345 HD
ATOM      4  H   UNL     1      17.432  10.487  12.582  1.00  0.00     0.345 HD
ATOM      5  H   UNL     1      19.090  10.440  12.276  1.00  0.00     0.345 HD
ENDBRANCH   1   2
BRANCH   1   6
ATOM      6  C   UNL     1      19.426  13.179  12.727  1.00  0.00     0.099 C 
ATOM      7  O   UNL     1      19.050  13.937  11.794  1.00  0.00    -0.544 OA
ATOM      8  O   UNL     1      20.730  13.279  13.201  1.00  0.00    -0.544 OA
ENDBRANCH   1   6
BRANCH   1   9
ATOM      9  C   UNL     1      17.159  12.806  13.775  1.00  0.00     0.047 C 
ATOM     10  C   UNL     1      16.019  12.753  12.744  1.00  0.00     0.014 C 
ATOM     11  C   UNL     1      16.689  12.217  15.114  1.00  0.00     0.014 C 
ENDBRANCH   1   9
TORSDOF 3
ENDMDL
