MODEL 1
REMARK VINA RESULT:    -7.148      0.000      0.000
REMARK INTER + INTRA:          -9.142
REMARK INTER:                  -8.820
REMARK INTRA:                  -0.322
REMARK UNBOUND:                -0.322
REMARK SMILES O=c1c(O)c(-c2cc(O)c(O)c(O)c2)oc2cc(O)cc(O)c12
REMARK SMILES IDX 5 1 3 2 2 3 1 4 23 5 21 6 20 7 18 8 17 9 16 10 15 11 6 12
REMARK SMILES IDX 7 13 8 14 14 15 10 16 12 17 9 18 11 20 13 22 4 24 22 26
REMARK SMILES IDX 19 28
REMARK H PARENT 9 19 11 21 13 23 4 25 22 27 19 29
REMARK Flexibility Score: inf
ROOT
ATOM      1  C   UNL     1       1.803  -3.003  23.014  1.00  0.00     0.180 A 
ATOM      2  C   UNL     1       1.012  -2.584  24.097  1.00  0.00     0.208 A 
ATOM      3  C   UNL     1       0.984  -3.367  25.263  1.00  0.00     0.238 A 
ATOM      4  O   UNL     1       0.318  -2.958  26.249  1.00  0.00    -0.285 OA
ATOM      5  C   UNL     1       1.734  -4.565  25.325  1.00  0.00     0.111 A 
ATOM      6  C   UNL     1       1.749  -5.457  26.440  1.00  0.00     0.134 A 
ATOM      7  C   UNL     1       2.627  -6.546  26.443  1.00  0.00     0.093 A 
ATOM      8  C   UNL     1       3.445  -6.814  25.343  1.00  0.00     0.123 A 
ATOM      9  C   UNL     1       3.397  -5.985  24.225  1.00  0.00     0.094 A 
ATOM     10  C   UNL     1       2.555  -4.868  24.208  1.00  0.00     0.146 A 
ATOM     11  O   UNL     1       2.547  -4.099  23.127  1.00  0.00    -0.452 OA
ENDROOT
BRANCH   1  12
ATOM     12  C   UNL     1       1.865  -2.245  21.743  1.00  0.00     0.029 A 
ATOM     13  C   UNL     1       1.156  -2.667  20.606  1.00  0.00     0.062 A 
ATOM     14  C   UNL     1       1.244  -1.950  19.404  1.00  0.00     0.162 A 
ATOM     15  C   UNL     1       2.692  -1.115  21.653  1.00  0.00     0.062 A 
ATOM     16  C   UNL     1       2.057  -0.806  19.330  1.00  0.00     0.200 A 
ATOM     17  C   UNL     1       2.782  -0.393  20.454  1.00  0.00     0.162 A 
BRANCH  14  18
ATOM     18  O   UNL     1       0.532  -2.373  18.283  1.00  0.00    -0.504 OA
ATOM     19  H   UNL     1      -0.393  -2.015  18.075  1.00  0.00     0.293 HD
ENDBRANCH  14  18
BRANCH  16  20
ATOM     20  O   UNL     1       2.158  -0.073  18.147  1.00  0.00    -0.502 OA
ATOM     21  H   UNL     1       3.053   0.204  17.761  1.00  0.00     0.293 HD
ENDBRANCH  16  20
BRANCH  17  22
ATOM     22  O   UNL     1       3.594   0.737  20.374  1.00  0.00    -0.504 OA
ATOM     23  H   UNL     1       3.583   1.451  21.094  1.00  0.00     0.293 HD
ENDBRANCH  17  22
ENDBRANCH   1  12
BRANCH   2  24
ATOM     24  O   UNL     1       0.297  -1.385  24.023  1.00  0.00    -0.502 OA
ATOM     25  H   UNL     1       0.152  -0.891  23.151  1.00  0.00     0.293 HD
ENDBRANCH   2  24
BRANCH   6  26
ATOM     26  O   UNL     1       0.905  -5.332  27.549  1.00  0.00    -0.507 OA
ATOM     27  H   UNL     1       1.162  -4.892  28.420  1.00  0.00     0.293 HD
ENDBRANCH   6  26
BRANCH   8  28
ATOM     28  O   UNL     1       4.307  -7.910  25.348  1.00  0.00    -0.508 OA
ATOM     29  H   UNL     1       4.017  -8.810  25.710  1.00  0.00     0.293 HD
ENDBRANCH   8  28
TORSDOF 7
ENDMDL
MODEL 2
REMARK VINA RESULT:    -7.085     13.793     15.773
REMARK INTER + INTRA:          -9.063
REMARK INTER:                  -8.762
REMARK INTRA:                  -0.302
REMARK UNBOUND:                -0.322
REMARK SMILES O=c1c(O)c(-c2cc(O)c(O)c(O)c2)oc2cc(O)cc(O)c12
REMARK SMILES IDX 5 1 3 2 2 3 1 4 23 5 21 6 20 7 18 8 17 9 16 10 15 11 6 12
REMARK SMILES IDX 7 13 8 14 14 15 10 16 12 17 9 18 11 20 13 22 4 24 22 26
REMARK SMILES IDX 19 28
REMARK H PARENT 9 19 11 21 13 23 4 25 22 27 19 29
REMARK Flexibility Score: inf
ROOT
ATOM      1  C   UNL     1      15.722  -4.501  27.939  1.00  0.00     0.180 A 
ATOM      2  C   UNL     1      14.651  -5.412  27.933  1.00  0.00     0.208 A 
ATOM      3  C   UNL     1      14.568  -6.360  26.900  1.00  0.00     0.238 A 
ATOM      4  O   UNL     1      13.639  -7.208  26.930  1.00  0.00    -0.285 OA
ATOM      5  C   UNL     1      15.547  -6.374  25.877  1.00  0.00     0.111 A 
ATOM      6  C   UNL     1      15.540  -7.263  24.760  1.00  0.00     0.134 A 
ATOM      7  C   UNL     1      16.627  -7.274  23.879  1.00  0.00     0.093 A 
ATOM      8  C   UNL     1      17.692  -6.383  24.038  1.00  0.00     0.123 A 
ATOM      9  C   UNL     1      17.681  -5.471  25.090  1.00  0.00     0.094 A 
ATOM     10  C   UNL     1      16.626  -5.461  26.007  1.00  0.00     0.146 A 
ATOM     11  O   UNL     1      16.660  -4.582  27.001  1.00  0.00    -0.452 OA
ENDROOT
BRANCH   1  12
ATOM     12  C   UNL     1      15.863  -3.458  28.980  1.00  0.00     0.029 A 
ATOM     13  C   UNL     1      15.567  -2.111  28.711  1.00  0.00     0.062 A 
ATOM     14  C   UNL     1      15.729  -1.134  29.703  1.00  0.00     0.162 A 
ATOM     15  C   UNL     1      16.358  -3.809  30.246  1.00  0.00     0.062 A 
ATOM     16  C   UNL     1      16.203  -1.498  30.974  1.00  0.00     0.200 A 
ATOM     17  C   UNL     1      16.521  -2.835  31.242  1.00  0.00     0.162 A 
BRANCH  14  18
ATOM     18  O   UNL     1      15.426   0.199  29.427  1.00  0.00    -0.504 OA
ATOM     19  H   UNL     1      14.865   0.461  28.625  1.00  0.00     0.293 HD
ENDBRANCH  14  18
BRANCH  16  20
ATOM     20  O   UNL     1      16.369  -0.544  31.979  1.00  0.00    -0.502 OA
ATOM     21  H   UNL     1      15.915  -0.628  32.880  1.00  0.00     0.293 HD
ENDBRANCH  16  20
BRANCH  17  22
ATOM     22  O   UNL     1      16.999  -3.192  32.502  1.00  0.00    -0.504 OA
ATOM     23  H   UNL     1      17.447  -2.516  33.110  1.00  0.00     0.293 HD
ENDBRANCH  17  22
ENDBRANCH   1  12
BRANCH   2  24
ATOM     24  O   UNL     1      13.709  -5.396  28.965  1.00  0.00    -0.502 OA
ATOM     25  H   UNL     1      12.892  -4.797  28.947  1.00  0.00     0.293 HD
ENDBRANCH   2  24
BRANCH   6  26
ATOM     26  O   UNL     1      14.483  -8.127  24.459  1.00  0.00    -0.507 OA
ATOM     27  H   UNL     1      14.225  -8.933  25.008  1.00  0.00     0.293 HD
ENDBRANCH   6  26
BRANCH   8  28
ATOM     28  O   UNL     1      18.764  -6.391  23.147  1.00  0.00    -0.508 OA
ATOM     29  H   UNL     1      19.054  -7.239  22.674  1.00  0.00     0.293 HD
ENDBRANCH   8  28
TORSDOF 7
ENDMDL
MODEL 3
REMARK VINA RESULT:    -7.079     12.793     15.862
REMARK INTER + INTRA:          -9.056
REMARK INTER:                  -9.342
REMARK INTRA:                   0.286
REMARK UNBOUND:                -0.322
REMARK SMILES O=c1c(O)c(-c2cc(O)c(O)c(O)c2)oc2cc(O)cc(O)c12
REMARK SMILES IDX 5 1 3 2 2 3 1 4 23 5 21 6 20 7 18 8 17 9 16 10 15 11 6 12
REMARK SMILES IDX 7 13 8 14 14 15 10 16 12 17 9 18 11 20 13 22 4 24 22 26
REMARK SMILES IDX 19 28
REMARK H PARENT 9 19 11 21 13 23 4 25 22 27 19 29
REMARK Flexibility Score: inf
ROOT
ATOM      1  C   UNL     1      15.998  -6.787  23.812  1.00  0.00     0.180 A 
ATOM      2  C   UNL     1      16.965  -6.063  23.093  1.00  0.00     0.208 A 
ATOM      3  C   UNL     1      16.831  -5.944  21.699  1.00  0.00     0.238 A 
ATOM      4  O   UNL     1      17.668  -5.249  21.069  1.00  0.00    -0.285 OA
ATOM      5  C   UNL     1      15.741  -6.565  21.042  1.00  0.00     0.111 A 
ATOM      6  C   UNL     1      15.528  -6.544  19.631  1.00  0.00     0.134 A 
ATOM      7  C   UNL     1      14.348  -7.081  19.102  1.00  0.00     0.093 A 
ATOM      8  C   UNL     1      13.404  -7.695  19.928  1.00  0.00     0.123 A 
ATOM      9  C   UNL     1      13.629  -7.773  21.300  1.00  0.00     0.094 A 
ATOM     10  C   UNL     1      14.781  -7.214  21.861  1.00  0.00     0.146 A 
ATOM     11  O   UNL     1      14.953  -7.302  23.174  1.00  0.00    -0.452 OA
ENDROOT
BRANCH   1  12
ATOM     12  C   UNL     1      16.085  -6.977  25.278  1.00  0.00     0.029 A 
ATOM     13  C   UNL     1      17.316  -6.906  25.952  1.00  0.00     0.062 A 
ATOM     14  C   UNL     1      17.382  -7.111  27.337  1.00  0.00     0.162 A 
ATOM     15  C   UNL     1      14.925  -7.289  26.004  1.00  0.00     0.062 A 
ATOM     16  C   UNL     1      16.212  -7.402  28.059  1.00  0.00     0.200 A 
ATOM     17  C   UNL     1      14.986  -7.494  27.389  1.00  0.00     0.162 A 
BRANCH  14  18
ATOM     18  O   UNL     1      18.608  -7.033  27.998  1.00  0.00    -0.504 OA
ATOM     19  H   UNL     1      18.668  -7.048  29.009  1.00  0.00     0.293 HD
ENDBRANCH  14  18
BRANCH  16  20
ATOM     20  O   UNL     1      16.252  -7.605  29.439  1.00  0.00    -0.502 OA
ATOM     21  H   UNL     1      15.764  -8.374  29.883  1.00  0.00     0.293 HD
ENDBRANCH  16  20
BRANCH  17  22
ATOM     22  O   UNL     1      13.828  -7.790  28.107  1.00  0.00    -0.504 OA
ATOM     23  H   UNL     1      12.908  -7.565  27.747  1.00  0.00     0.293 HD
ENDBRANCH  17  22
ENDBRANCH   1  12
BRANCH   2  24
ATOM     24  O   UNL     1      18.020  -5.439  23.765  1.00  0.00    -0.502 OA
ATOM     25  H   UNL     1      18.004  -5.268  24.763  1.00  0.00     0.293 HD
ENDBRANCH   2  24
BRANCH   6  26
ATOM     26  O   UNL     1      16.450  -6.038  18.710  1.00  0.00    -0.507 OA
ATOM     27  H   UNL     1      16.434  -5.101  18.335  1.00  0.00     0.293 HD
ENDBRANCH   6  26
BRANCH   8  28
ATOM     28  O   UNL     1      12.238  -8.240  19.392  1.00  0.00    -0.508 OA
ATOM     29  H   UNL     1      12.260  -8.840  18.576  1.00  0.00     0.293 HD
ENDBRANCH   8  28
TORSDOF 7
ENDMDL
MODEL 4
REMARK VINA RESULT:    -7.023      2.238      2.683
REMARK INTER + INTRA:          -8.988
REMARK INTER:                  -8.869
REMARK INTRA:                  -0.118
REMARK UNBOUND:                -0.322
REMARK SMILES O=c1c(O)c(-c2cc(O)c(O)c(O)c2)oc2cc(O)cc(O)c12
REMARK SMILES IDX 5 1 3 2 2 3 1 4 23 5 21 6 20 7 18 8 17 9 16 10 15 11 6 12
REMARK SMILES IDX 7 13 8 14 14 15 10 16 12 17 9 18 11 20 13 22 4 24 22 26
REMARK SMILES IDX 19 28
REMARK H PARENT 9 19 11 21 13 23 4 25 22 27 19 29
REMARK Flexibility Score: inf
ROOT
ATOM      1  C   UNL     1       2.563  -4.564  24.155  1.00  0.00     0.180 A 
ATOM      2  C   UNL     1       2.425  -3.604  25.172  1.00  0.00     0.208 A 
ATOM      3  C   UNL     1       2.584  -4.001  26.510  1.00  0.00     0.238 A 
ATOM      4  O   UNL     1       2.514  -3.127  27.412  1.00  0.00    -0.285 OA
ATOM      5  C   UNL     1       2.863  -5.355  26.815  1.00  0.00     0.111 A 
ATOM      6  C   UNL     1       3.004  -5.877  28.136  1.00  0.00     0.134 A 
ATOM      7  C   UNL     1       3.407  -7.205  28.315  1.00  0.00     0.093 A 
ATOM      8  C   UNL     1       3.612  -8.049  27.220  1.00  0.00     0.123 A 
ATOM      9  C   UNL     1       3.420  -7.567  25.928  1.00  0.00     0.094 A 
ATOM     10  C   UNL     1       3.052  -6.235  25.717  1.00  0.00     0.146 A 
ATOM     11  O   UNL     1       2.890  -5.813  24.469  1.00  0.00    -0.452 OA
ENDROOT
BRANCH   1  12
ATOM     12  C   UNL     1       2.386  -4.227  22.724  1.00  0.00     0.029 A 
ATOM     13  C   UNL     1       1.208  -3.621  22.257  1.00  0.00     0.062 A 
ATOM     14  C   UNL     1       1.047  -3.330  20.895  1.00  0.00     0.162 A 
ATOM     15  C   UNL     1       3.389  -4.571  21.804  1.00  0.00     0.062 A 
ATOM     16  C   UNL     1       2.066  -3.657  19.985  1.00  0.00     0.200 A 
ATOM     17  C   UNL     1       3.234  -4.281  20.441  1.00  0.00     0.162 A 
BRANCH  14  18
ATOM     18  O   UNL     1      -0.123  -2.723  20.442  1.00  0.00    -0.504 OA
ATOM     19  H   UNL     1      -0.915  -3.268  20.123  1.00  0.00     0.293 HD
ENDBRANCH  14  18
BRANCH  16  20
ATOM     20  O   UNL     1       1.932  -3.375  18.625  1.00  0.00    -0.502 OA
ATOM     21  H   UNL     1       1.453  -2.547  18.292  1.00  0.00     0.293 HD
ENDBRANCH  16  20
BRANCH  17  22
ATOM     22  O   UNL     1       4.239  -4.612  19.534  1.00  0.00    -0.504 OA
ATOM     23  H   UNL     1       4.986  -5.251  19.779  1.00  0.00     0.293 HD
ENDBRANCH  17  22
ENDBRANCH   1  12
BRANCH   2  24
ATOM     24  O   UNL     1       2.172  -2.268  24.848  1.00  0.00    -0.502 OA
ATOM     25  H   UNL     1       1.749  -1.620  25.503  1.00  0.00     0.293 HD
ENDBRANCH   2  24
BRANCH   6  26
ATOM     26  O   UNL     1       2.733  -5.145  29.296  1.00  0.00    -0.507 OA
ATOM     27  H   UNL     1       2.666  -4.139  29.339  1.00  0.00     0.293 HD
ENDBRANCH   6  26
BRANCH   8  28
ATOM     28  O   UNL     1       4.000  -9.375  27.408  1.00  0.00    -0.508 OA
ATOM     29  H   UNL     1       3.517 -10.139  26.950  1.00  0.00     0.293 HD
ENDBRANCH   8  28
TORSDOF 7
ENDMDL
MODEL 5
REMARK VINA RESULT:    -6.993     11.839     13.635
REMARK INTER + INTRA:          -8.950
REMARK INTER:                  -8.608
REMARK INTRA:                  -0.342
REMARK UNBOUND:                -0.322
REMARK SMILES O=c1c(O)c(-c2cc(O)c(O)c(O)c2)oc2cc(O)cc(O)c12
REMARK SMILES IDX 5 1 3 2 2 3 1 4 23 5 21 6 20 7 18 8 17 9 16 10 15 11 6 12
REMARK SMILES IDX 7 13 8 14 14 15 10 16 12 17 9 18 11 20 13 22 4 24 22 26
REMARK SMILES IDX 19 28
REMARK H PARENT 9 19 11 21 13 23 4 25 22 27 19 29
REMARK Flexibility Score: inf
ROOT
ATOM      1  C   UNL     1      14.889  -6.670  23.368  1.00  0.00     0.180 A 
ATOM      2  C   UNL     1      16.294  -6.701  23.374  1.00  0.00     0.208 A 
ATOM      3  C   UNL     1      16.966  -6.912  24.589  1.00  0.00     0.238 A 
ATOM      4  O   UNL     1      18.222  -6.995  24.579  1.00  0.00    -0.285 OA
ATOM      5  C   UNL     1      16.226  -7.074  25.784  1.00  0.00     0.111 A 
ATOM      6  C   UNL     1      16.803  -7.253  27.078  1.00  0.00     0.134 A 
ATOM      7  C   UNL     1      15.975  -7.533  28.171  1.00  0.00     0.093 A 
ATOM      8  C   UNL     1      14.586  -7.574  28.030  1.00  0.00     0.123 A 
ATOM      9  C   UNL     1      14.009  -7.342  26.784  1.00  0.00     0.094 A 
ATOM     10  C   UNL     1      14.812  -7.097  25.666  1.00  0.00     0.146 A 
ATOM     11  O   UNL     1      14.221  -6.890  24.496  1.00  0.00    -0.452 OA
ENDROOT
BRANCH   1  12
ATOM     12  C   UNL     1      14.111  -6.428  22.132  1.00  0.00     0.029 A 
ATOM     13  C   UNL     1      13.599  -7.492  21.370  1.00  0.00     0.062 A 
ATOM     14  C   UNL     1      12.884  -7.245  20.190  1.00  0.00     0.162 A 
ATOM     15  C   UNL     1      13.928  -5.113  21.678  1.00  0.00     0.062 A 
ATOM     16  C   UNL     1      12.687  -5.924  19.755  1.00  0.00     0.200 A 
ATOM     17  C   UNL     1      13.212  -4.860  20.499  1.00  0.00     0.162 A 
BRANCH  14  18
ATOM     18  O   UNL     1      12.375  -8.308  19.445  1.00  0.00    -0.504 OA
ATOM     19  H   UNL     1      12.694  -8.496  18.502  1.00  0.00     0.293 HD
ENDBRANCH  14  18
BRANCH  16  20
ATOM     20  O   UNL     1      11.976  -5.651  18.586  1.00  0.00    -0.502 OA
ATOM     21  H   UNL     1      12.436  -5.358  17.732  1.00  0.00     0.293 HD
ENDBRANCH  16  20
BRANCH  17  22
ATOM     22  O   UNL     1      13.022  -3.551  20.060  1.00  0.00    -0.504 OA
ATOM     23  H   UNL     1      12.997  -3.320  19.073  1.00  0.00     0.293 HD
ENDBRANCH  17  22
ENDBRANCH   1  12
BRANCH   2  24
ATOM     24  O   UNL     1      17.005  -6.563  22.178  1.00  0.00    -0.502 OA
ATOM     25  H   UNL     1      16.943  -7.239  21.426  1.00  0.00     0.293 HD
ENDBRANCH   2  24
BRANCH   6  26
ATOM     26  O   UNL     1      18.171  -7.140  27.343  1.00  0.00    -0.507 OA
ATOM     27  H   UNL     1      18.831  -6.648  26.760  1.00  0.00     0.293 HD
ENDBRANCH   6  26
BRANCH   8  28
ATOM     28  O   UNL     1      13.767  -7.839  29.127  1.00  0.00    -0.508 OA
ATOM     29  H   UNL     1      13.425  -8.773  29.320  1.00  0.00     0.293 HD
ENDBRANCH   8  28
TORSDOF 7
ENDMDL
MODEL 6
REMARK VINA RESULT:    -6.925     12.812     15.719
REMARK INTER + INTRA:          -8.866
REMARK INTER:                  -8.981
REMARK INTRA:                   0.114
REMARK UNBOUND:                -0.322
REMARK SMILES O=c1c(O)c(-c2cc(O)c(O)c(O)c2)oc2cc(O)cc(O)c12
REMARK SMILES IDX 5 1 3 2 2 3 1 4 23 5 21 6 20 7 18 8 17 9 16 10 15 11 6 12
REMARK SMILES IDX 7 13 8 14 14 15 10 16 12 17 9 18 11 20 13 22 4 24 22 26
REMARK SMILES IDX 19 28
REMARK H PARENT 9 19 11 21 13 23 4 25 22 27 19 29
REMARK Flexibility Score: inf
ROOT
ATOM      1  C   UNL     1      15.985  -6.463  23.929  1.00  0.00     0.180 A 
ATOM      2  C   UNL     1      16.955  -5.766  23.188  1.00  0.00     0.208 A 
ATOM      3  C   UNL     1      16.854  -5.741  21.787  1.00  0.00     0.238 A 
ATOM      4  O   UNL     1      17.693  -5.069  21.133  1.00  0.00    -0.285 OA
ATOM      5  C   UNL     1      15.795  -6.425  21.145  1.00  0.00     0.111 A 
ATOM      6  C   UNL     1      15.617  -6.500  19.731  1.00  0.00     0.134 A 
ATOM      7  C   UNL     1      14.462  -7.095  19.210  1.00  0.00     0.093 A 
ATOM      8  C   UNL     1      13.509  -7.675  20.051  1.00  0.00     0.123 A 
ATOM      9  C   UNL     1      13.701  -7.659  21.430  1.00  0.00     0.094 A 
ATOM     10  C   UNL     1      14.827  -7.041  21.981  1.00  0.00     0.146 A 
ATOM     11  O   UNL     1      14.967  -7.040  23.301  1.00  0.00    -0.452 OA
ENDROOT
BRANCH   1  12
ATOM     12  C   UNL     1      16.039  -6.556  25.406  1.00  0.00     0.029 A 
ATOM     13  C   UNL     1      14.886  -6.383  26.191  1.00  0.00     0.062 A 
ATOM     14  C   UNL     1      14.959  -6.451  27.589  1.00  0.00     0.162 A 
ATOM     15  C   UNL     1      17.273  -6.764  26.041  1.00  0.00     0.062 A 
ATOM     16  C   UNL     1      16.196  -6.682  28.215  1.00  0.00     0.200 A 
ATOM     17  C   UNL     1      17.352  -6.834  27.439  1.00  0.00     0.162 A 
BRANCH  14  18
ATOM     18  O   UNL     1      13.809  -6.283  28.359  1.00  0.00    -0.504 OA
ATOM     19  H   UNL     1      13.820  -6.408  29.364  1.00  0.00     0.293 HD
ENDBRANCH  14  18
BRANCH  16  20
ATOM     20  O   UNL     1      16.294  -6.758  29.605  1.00  0.00    -0.502 OA
ATOM     21  H   UNL     1      15.877  -7.515  30.133  1.00  0.00     0.293 HD
ENDBRANCH  16  20
BRANCH  17  22
ATOM     22  O   UNL     1      18.578  -7.055  28.063  1.00  0.00    -0.504 OA
ATOM     23  H   UNL     1      18.960  -6.395  28.731  1.00  0.00     0.293 HD
ENDBRANCH  17  22
ENDBRANCH   1  12
BRANCH   2  24
ATOM     24  O   UNL     1      17.981  -5.078  23.843  1.00  0.00    -0.502 OA
ATOM     25  H   UNL     1      18.851  -5.522  24.108  1.00  0.00     0.293 HD
ENDBRANCH   2  24
BRANCH   6  26
ATOM     26  O   UNL     1      16.552  -6.035  18.802  1.00  0.00    -0.507 OA
ATOM     27  H   UNL     1      17.444  -6.469  18.616  1.00  0.00     0.293 HD
ENDBRANCH   6  26
BRANCH   8  28
ATOM     28  O   UNL     1      12.368  -8.278  19.523  1.00  0.00    -0.508 OA
ATOM     29  H   UNL     1      12.209  -8.327  18.524  1.00  0.00     0.293 HD
ENDBRANCH   8  28
TORSDOF 7
ENDMDL
MODEL 7
REMARK VINA RESULT:    -6.852     14.251     16.314
REMARK INTER + INTRA:          -8.776
REMARK INTER:                  -8.489
REMARK INTRA:                  -0.287
REMARK UNBOUND:                -0.322
REMARK SMILES O=c1c(O)c(-c2cc(O)c(O)c(O)c2)oc2cc(O)cc(O)c12
REMARK SMILES IDX 5 1 3 2 2 3 1 4 23 5 21 6 20 7 18 8 17 9 16 10 15 11 6 12
REMARK SMILES IDX 7 13 8 14 14 15 10 16 12 17 9 18 11 20 13 22 4 24 22 26
REMARK SMILES IDX 19 28
REMARK H PARENT 9 19 11 21 13 23 4 25 22 27 19 29
REMARK Flexibility Score: inf
ROOT
ATOM      1  C   UNL     1      16.140  -4.189  28.552  1.00  0.00     0.180 A 
ATOM      2  C   UNL     1      16.411  -5.534  28.854  1.00  0.00     0.208 A 
ATOM      3  C   UNL     1      16.913  -6.372  27.844  1.00  0.00     0.238 A 
ATOM      4  O   UNL     1      17.206  -7.560  28.134  1.00  0.00    -0.285 OA
ATOM      5  C   UNL     1      17.122  -5.857  26.542  1.00  0.00     0.111 A 
ATOM      6  C   UNL     1      17.589  -6.624  25.432  1.00  0.00     0.134 A 
ATOM      7  C   UNL     1      17.883  -5.982  24.224  1.00  0.00     0.093 A 
ATOM      8  C   UNL     1      17.665  -4.611  24.065  1.00  0.00     0.123 A 
ATOM      9  C   UNL     1      17.154  -3.864  25.123  1.00  0.00     0.094 A 
ATOM     10  C   UNL     1      16.885  -4.471  26.353  1.00  0.00     0.146 A 
ATOM     11  O   UNL     1      16.408  -3.720  27.338  1.00  0.00    -0.452 OA
ENDROOT
BRANCH   1  12
ATOM     12  C   UNL     1      15.586  -3.252  29.556  1.00  0.00     0.029 A 
ATOM     13  C   UNL     1      16.394  -2.283  30.175  1.00  0.00     0.062 A 
ATOM     14  C   UNL     1      15.858  -1.420  31.141  1.00  0.00     0.162 A 
ATOM     15  C   UNL     1      14.241  -3.368  29.941  1.00  0.00     0.062 A 
ATOM     16  C   UNL     1      14.505  -1.529  31.504  1.00  0.00     0.200 A 
ATOM     17  C   UNL     1      13.700  -2.506  30.905  1.00  0.00     0.162 A 
BRANCH  14  18
ATOM     18  O   UNL     1      16.667  -0.458  31.745  1.00  0.00    -0.504 OA
ATOM     19  H   UNL     1      16.803   0.457  31.332  1.00  0.00     0.293 HD
ENDBRANCH  14  18
BRANCH  16  20
ATOM     20  O   UNL     1      13.947  -0.679  32.459  1.00  0.00    -0.502 OA
ATOM     21  H   UNL     1      14.515  -0.182  33.135  1.00  0.00     0.293 HD
ENDBRANCH  16  20
BRANCH  17  22
ATOM     22  O   UNL     1      12.360  -2.617  31.274  1.00  0.00    -0.504 OA
ATOM     23  H   UNL     1      12.006  -2.188  32.121  1.00  0.00     0.293 HD
ENDBRANCH  17  22
ENDBRANCH   1  12
BRANCH   2  24
ATOM     24  O   UNL     1      16.218  -6.016  30.152  1.00  0.00    -0.502 OA
ATOM     25  H   UNL     1      15.388  -5.806  30.693  1.00  0.00     0.293 HD
ENDBRANCH   2  24
BRANCH   6  26
ATOM     26  O   UNL     1      17.752  -8.012  25.458  1.00  0.00    -0.507 OA
ATOM     27  H   UNL     1      18.056  -8.541  26.262  1.00  0.00     0.293 HD
ENDBRANCH   6  26
BRANCH   8  28
ATOM     28  O   UNL     1      17.947  -3.983  22.853  1.00  0.00    -0.508 OA
ATOM     29  H   UNL     1      18.316  -3.040  22.818  1.00  0.00     0.293 HD
ENDBRANCH   8  28
TORSDOF 7
ENDMDL
MODEL 8
REMARK VINA RESULT:    -6.778     14.887     16.029
REMARK INTER + INTRA:          -8.685
REMARK INTER:                  -8.363
REMARK INTRA:                  -0.322
REMARK UNBOUND:                -0.322
REMARK SMILES O=c1c(O)c(-c2cc(O)c(O)c(O)c2)oc2cc(O)cc(O)c12
REMARK SMILES IDX 5 1 3 2 2 3 1 4 23 5 21 6 20 7 18 8 17 9 16 10 15 11 6 12
REMARK SMILES IDX 7 13 8 14 14 15 10 16 12 17 9 18 11 20 13 22 4 24 22 26
REMARK SMILES IDX 19 28
REMARK H PARENT 9 19 11 21 13 23 4 25 22 27 19 29
REMARK Flexibility Score: inf
ROOT
ATOM      1  C   UNL     1      13.344   7.029  25.123  1.00  0.00     0.180 A 
ATOM      2  C   UNL     1      12.568   8.125  24.709  1.00  0.00     0.208 A 
ATOM      3  C   UNL     1      11.722   8.752  25.639  1.00  0.00     0.238 A 
ATOM      4  O   UNL     1      11.072   9.767  25.278  1.00  0.00    -0.285 OA
ATOM      5  C   UNL     1      11.652   8.265  26.967  1.00  0.00     0.111 A 
ATOM      6  C   UNL     1      10.800   8.797  27.981  1.00  0.00     0.134 A 
ATOM      7  C   UNL     1      10.908   8.321  29.293  1.00  0.00     0.093 A 
ATOM      8  C   UNL     1      11.790   7.286  29.613  1.00  0.00     0.123 A 
ATOM      9  C   UNL     1      12.583   6.719  28.619  1.00  0.00     0.094 A 
ATOM     10  C   UNL     1      12.524   7.199  27.307  1.00  0.00     0.146 A 
ATOM     11  O   UNL     1      13.304   6.637  26.392  1.00  0.00    -0.452 OA
ENDROOT
BRANCH   1  12
ATOM     12  C   UNL     1      14.239   6.302  24.195  1.00  0.00     0.029 A 
ATOM     13  C   UNL     1      13.731   5.393  23.252  1.00  0.00     0.062 A 
ATOM     14  C   UNL     1      14.596   4.695  22.397  1.00  0.00     0.162 A 
ATOM     15  C   UNL     1      15.628   6.479  24.294  1.00  0.00     0.062 A 
ATOM     16  C   UNL     1      15.983   4.896  22.488  1.00  0.00     0.200 A 
ATOM     17  C   UNL     1      16.497   5.786  23.440  1.00  0.00     0.162 A 
BRANCH  14  18
ATOM     18  O   UNL     1      14.081   3.800  21.460  1.00  0.00    -0.504 OA
ATOM     19  H   UNL     1      13.092   3.586  21.418  1.00  0.00     0.293 HD
ENDBRANCH  14  18
BRANCH  16  20
ATOM     20  O   UNL     1      16.864   4.218  21.645  1.00  0.00    -0.502 OA
ATOM     21  H   UNL     1      16.763   3.230  21.444  1.00  0.00     0.293 HD
ENDBRANCH  16  20
BRANCH  17  22
ATOM     22  O   UNL     1      17.874   5.976  23.533  1.00  0.00    -0.504 OA
ATOM     23  H   UNL     1      18.515   5.545  22.878  1.00  0.00     0.293 HD
ENDBRANCH  17  22
ENDBRANCH   1  12
BRANCH   2  24
ATOM     24  O   UNL     1      12.670   8.605  23.400  1.00  0.00    -0.502 OA
ATOM     25  H   UNL     1      12.523   9.579  23.164  1.00  0.00     0.293 HD
ENDBRANCH   2  24
BRANCH   6  26
ATOM     26  O   UNL     1       9.821   9.767  27.748  1.00  0.00    -0.507 OA
ATOM     27  H   UNL     1       9.891  10.502  27.060  1.00  0.00     0.293 HD
ENDBRANCH   6  26
BRANCH   8  28
ATOM     28  O   UNL     1      11.880   6.807  30.920  1.00  0.00    -0.508 OA
ATOM     29  H   UNL     1      11.059   6.708  31.505  1.00  0.00     0.293 HD
ENDBRANCH   8  28
TORSDOF 7
ENDMDL
MODEL 9
REMARK VINA RESULT:    -6.163      2.431      7.164
REMARK INTER + INTRA:          -7.926
REMARK INTER:                  -7.573
REMARK INTRA:                  -0.353
REMARK UNBOUND:                -0.322
REMARK SMILES O=c1c(O)c(-c2cc(O)c(O)c(O)c2)oc2cc(O)cc(O)c12
REMARK SMILES IDX 5 1 3 2 2 3 1 4 23 5 21 6 20 7 18 8 17 9 16 10 15 11 6 12
REMARK SMILES IDX 7 13 8 14 14 15 10 16 12 17 9 18 11 20 13 22 4 24 22 26
REMARK SMILES IDX 19 28
REMARK H PARENT 9 19 11 21 13 23 4 25 22 27 19 29
REMARK Flexibility Score: inf
ROOT
ATOM      1  C   UNL     1       2.926  -5.398  24.482  1.00  0.00     0.180 A 
ATOM      2  C   UNL     1       1.609  -4.911  24.527  1.00  0.00     0.208 A 
ATOM      3  C   UNL     1       1.073  -4.287  23.389  1.00  0.00     0.238 A 
ATOM      4  O   UNL     1      -0.125  -3.904  23.417  1.00  0.00    -0.285 OA
ATOM      5  C   UNL     1       1.866  -4.145  22.225  1.00  0.00     0.111 A 
ATOM      6  C   UNL     1       1.440  -3.495  21.028  1.00  0.00     0.134 A 
ATOM      7  C   UNL     1       2.261  -3.526  19.895  1.00  0.00     0.093 A 
ATOM      8  C   UNL     1       3.521  -4.128  19.935  1.00  0.00     0.123 A 
ATOM      9  C   UNL     1       3.971  -4.714  21.115  1.00  0.00     0.094 A 
ATOM     10  C   UNL     1       3.159  -4.730  22.253  1.00  0.00     0.146 A 
ATOM     11  O   UNL     1       3.623  -5.307  23.354  1.00  0.00    -0.452 OA
ENDROOT
BRANCH   1  12
ATOM     12  C   UNL     1       3.569  -6.044  25.649  1.00  0.00     0.029 A 
ATOM     13  C   UNL     1       3.413  -7.418  25.902  1.00  0.00     0.062 A 
ATOM     14  C   UNL     1       4.009  -8.008  27.025  1.00  0.00     0.162 A 
ATOM     15  C   UNL     1       4.301  -5.262  26.555  1.00  0.00     0.062 A 
ATOM     16  C   UNL     1       4.759  -7.221  27.914  1.00  0.00     0.200 A 
ATOM     17  C   UNL     1       4.901  -5.848  27.679  1.00  0.00     0.162 A 
BRANCH  14  18
ATOM     18  O   UNL     1       3.853  -9.373  27.263  1.00  0.00    -0.504 OA
ATOM     19  H   UNL     1       2.949  -9.774  27.483  1.00  0.00     0.293 HD
ENDBRANCH  14  18
BRANCH  16  20
ATOM     20  O   UNL     1       5.366  -7.786  29.036  1.00  0.00    -0.502 OA
ATOM     21  H   UNL     1       5.625  -8.764  29.072  1.00  0.00     0.293 HD
ENDBRANCH  16  20
BRANCH  17  22
ATOM     22  O   UNL     1       5.639  -5.068  28.568  1.00  0.00    -0.504 OA
ATOM     23  H   UNL     1       5.195  -4.562  29.325  1.00  0.00     0.293 HD
ENDBRANCH  17  22
ENDBRANCH   1  12
BRANCH   2  24
ATOM     24  O   UNL     1       0.835  -5.083  25.679  1.00  0.00    -0.502 OA
ATOM     25  H   UNL     1       0.177  -5.846  25.784  1.00  0.00     0.293 HD
ENDBRANCH   2  24
BRANCH   6  26
ATOM     26  O   UNL     1       0.241  -2.786  20.910  1.00  0.00    -0.507 OA
ATOM     27  H   UNL     1      -0.289  -2.689  20.057  1.00  0.00     0.293 HD
ENDBRANCH   6  26
BRANCH   8  28
ATOM     28  O   UNL     1       4.339  -4.142  18.806  1.00  0.00    -0.508 OA
ATOM     29  H   UNL     1       3.950  -4.180  17.871  1.00  0.00     0.293 HD
ENDBRANCH   8  28
TORSDOF 7
ENDMDL
