MODEL 1
REMARK VINA RESULT:    -2.250      0.000      0.000
REMARK INTER + INTRA:          -2.250
REMARK INTER:                  -2.250
REMARK INTRA:                   0.000
REMARK UNBOUND:                 0.000
REMARK SMILES CC(=O)[O-]
REMARK SMILES IDX 1 1 2 2 3 3 4 4
REMARK H PARENT
REMARK Flexibility Score: inf
ROOT
ATOM      1  C   UNL     1       1.931  23.185  22.049  1.00  0.00     0.063 C 
ATOM      2  C   UNL     1       2.711  24.407  22.396  1.00  0.00     0.038 C 
ATOM      3  O   UNL     1       3.781  24.308  23.052  1.00  0.00    -0.550 OA
ATOM      4  O   UNL     1       2.233  25.662  22.045  1.00  0.00    -0.550 OA
ENDROOT
TORSDOF 0
ENDMDL
MODEL 2
REMARK VINA RESULT:    -2.247      2.577      2.915
REMARK INTER + INTRA:          -2.247
REMARK INTER:                  -2.247
REMARK INTRA:                   0.000
REMARK UNBOUND:                 0.000
REMARK SMILES CC(=O)[O-]
REMARK SMILES IDX 1 1 2 2 3 3 4 4
REMARK H PARENT
REMARK Flexibility Score: inf
ROOT
ATOM      1  C   UNL     1       2.069  23.860  22.194  1.00  0.00     0.063 C 
ATOM      2  C   UNL     1       1.497  22.670  22.886  1.00  0.00     0.038 C 
ATOM      3  O   UNL     1       1.253  21.620  22.236  1.00  0.00    -0.550 OA
ATOM      4  O   UNL     1       1.181  22.733  24.236  1.00  0.00    -0.550 OA
ENDROOT
TORSDOF 0
ENDMDL
MODEL 3
REMARK VINA RESULT:    -2.218     16.553     17.122
REMARK INTER + INTRA:          -2.218
REMARK INTER:                  -2.218
REMARK INTRA:                   0.000
REMARK UNBOUND:                 0.000
REMARK SMILES CC(=O)[O-]
REMARK SMILES IDX 1 1 2 2 3 3 4 4
REMARK H PARENT
REMARK Flexibility Score: inf
ROOT
ATOM      1  C   UNL     1     -11.163  22.865  12.517  1.00  0.00     0.063 C 
ATOM      2  C   UNL     1     -10.492  23.759  11.530  1.00  0.00     0.038 C 
ATOM      3  O   UNL     1      -9.346  24.219  11.773  1.00  0.00    -0.550 OA
ATOM      4  O   UNL     1     -11.152  24.131  10.367  1.00  0.00    -0.550 OA
ENDROOT
TORSDOF 0
ENDMDL
MODEL 4
REMARK VINA RESULT:    -2.202      1.075      1.709
REMARK INTER + INTRA:          -2.202
REMARK INTER:                  -2.202
REMARK INTRA:                   0.000
REMARK UNBOUND:                 0.000
REMARK SMILES CC(=O)[O-]
REMARK SMILES IDX 1 1 2 2 3 3 4 4
REMARK H PARENT
REMARK Flexibility Score: inf
ROOT
ATOM      1  C   UNL     1       2.260  23.550  21.945  1.00  0.00     0.063 C 
ATOM      2  C   UNL     1       2.198  24.862  22.651  1.00  0.00     0.038 C 
ATOM      3  O   UNL     1       2.171  25.933  21.991  1.00  0.00    -0.550 OA
ATOM      4  O   UNL     1       2.225  24.908  24.038  1.00  0.00    -0.550 OA
ENDROOT
TORSDOF 0
ENDMDL
MODEL 5
REMARK VINA RESULT:    -2.133      6.854      7.345
REMARK INTER + INTRA:          -2.133
REMARK INTER:                  -2.133
REMARK INTRA:                   0.000
REMARK UNBOUND:                 0.000
REMARK SMILES CC(=O)[O-]
REMARK SMILES IDX 1 1 2 2 3 3 4 4
REMARK H PARENT
REMARK Flexibility Score: inf
ROOT
ATOM      1  C   UNL     1      -1.414  31.399  19.646  1.00  0.00     0.063 C 
ATOM      2  C   UNL     1      -0.496  30.330  20.134  1.00  0.00     0.038 C 
ATOM      3  O   UNL     1       0.749  30.512  20.119  1.00  0.00    -0.550 OA
ATOM      4  O   UNL     1      -1.009  29.109  20.554  1.00  0.00    -0.550 OA
ENDROOT
TORSDOF 0
ENDMDL
MODEL 6
REMARK VINA RESULT:    -2.098     16.900     17.363
REMARK INTER + INTRA:          -2.098
REMARK INTER:                  -2.098
REMARK INTRA:                   0.000
REMARK UNBOUND:                 0.000
REMARK SMILES CC(=O)[O-]
REMARK SMILES IDX 1 1 2 2 3 3 4 4
REMARK H PARENT
REMARK Flexibility Score: inf
ROOT
ATOM      1  C   UNL     1      -9.984  23.901  11.662  1.00  0.00     0.063 C 
ATOM      2  C   UNL     1     -11.272  23.429  12.245  1.00  0.00     0.038 C 
ATOM      3  O   UNL     1     -12.296  24.159  12.188  1.00  0.00    -0.550 OA
ATOM      4  O   UNL     1     -11.333  22.207  12.901  1.00  0.00    -0.550 OA
ENDROOT
TORSDOF 0
ENDMDL
MODEL 7
REMARK VINA RESULT:    -2.078     16.594     17.185
REMARK INTER + INTRA:          -2.078
REMARK INTER:                  -2.078
REMARK INTRA:                   0.000
REMARK UNBOUND:                 0.000
REMARK SMILES CC(=O)[O-]
REMARK SMILES IDX 1 1 2 2 3 3 4 4
REMARK H PARENT
REMARK Flexibility Score: inf
ROOT
ATOM      1  C   UNL     1      -9.511  24.001  11.794  1.00  0.00     0.063 C 
ATOM      2  C   UNL     1     -10.877  23.431  11.974  1.00  0.00     0.038 C 
ATOM      3  O   UNL     1     -11.059  22.463  12.759  1.00  0.00    -0.550 OA
ATOM      4  O   UNL     1     -11.943  23.928  11.237  1.00  0.00    -0.550 OA
ENDROOT
TORSDOF 0
ENDMDL
MODEL 8
REMARK VINA RESULT:    -2.055     16.039     16.567
REMARK INTER + INTRA:          -2.055
REMARK INTER:                  -2.055
REMARK INTRA:                   0.000
REMARK UNBOUND:                 0.000
REMARK SMILES CC(=O)[O-]
REMARK SMILES IDX 1 1 2 2 3 3 4 4
REMARK H PARENT
REMARK Flexibility Score: inf
ROOT
ATOM      1  C   UNL     1     -12.792  22.646  14.532  1.00  0.00     0.063 C 
ATOM      2  C   UNL     1     -11.681  23.599  14.252  1.00  0.00     0.038 C 
ATOM      3  O   UNL     1     -11.206  23.691  13.090  1.00  0.00    -0.550 OA
ATOM      4  O   UNL     1     -11.129  24.348  15.282  1.00  0.00    -0.550 OA
ENDROOT
TORSDOF 0
ENDMDL
MODEL 9
REMARK VINA RESULT:    -2.029     16.842     16.944
REMARK INTER + INTRA:          -2.029
REMARK INTER:                  -2.029
REMARK INTRA:                   0.000
REMARK UNBOUND:                 0.000
REMARK SMILES CC(=O)[O-]
REMARK SMILES IDX 1 1 2 2 3 3 4 4
REMARK H PARENT
REMARK Flexibility Score: inf
ROOT
ATOM      1  C   UNL     1       4.821  32.421   7.252  1.00  0.00     0.063 C 
ATOM      2  C   UNL     1       6.085  32.629   8.014  1.00  0.00     0.038 C 
ATOM      3  O   UNL     1       6.960  31.724   8.045  1.00  0.00    -0.550 OA
ATOM      4  O   UNL     1       6.279  33.798   8.737  1.00  0.00    -0.550 OA
ENDROOT
TORSDOF 0
ENDMDL
