MODEL 1
REMARK VINA RESULT:    -3.332      0.000      0.000
REMARK INTER + INTRA:          -6.728
REMARK INTER:                  -5.864
REMARK INTRA:                  -0.864
REMARK UNBOUND:                -0.864
REMARK SMILES CCCCCCCCCCCCCC(=O)OC
REMARK SMILES IDX 8 1 7 2 6 3 5 4 4 5 3 6 2 7 1 8 9 9 10 10 11 11 12 12 13 13
REMARK SMILES IDX 14 14 15 15 16 16 17 17
REMARK H PARENT
REMARK Flexibility Score: inf
ROOT
ATOM      1  C   UNL     1      20.739  78.760 100.321  1.00  0.00     0.000 C 
ENDROOT
BRANCH   1   2
ATOM      2  C   UNL     1      20.072  78.185  99.065  1.00  0.00     0.000 C 
BRANCH   2   3
ATOM      3  C   UNL     1      20.252  79.127  97.866  1.00  0.00    -0.000 C 
BRANCH   3   4
ATOM      4  C   UNL     1      20.797  80.506  98.271  1.00  0.00    -0.000 C 
BRANCH   4   5
ATOM      5  C   UNL     1      22.152  80.823  97.617  1.00  0.00    -0.000 C 
BRANCH   5   6
ATOM      6  C   UNL     1      22.311  82.331  97.388  1.00  0.00    -0.000 C 
BRANCH   6   7
ATOM      7  C   UNL     1      23.671  82.822  97.898  1.00  0.00    -0.003 C 
ATOM      8  C   UNL     1      24.742  81.748  97.732  1.00  0.00     0.004 C 
ENDBRANCH   6   7
ENDBRANCH   5   6
ENDBRANCH   4   5
ENDBRANCH   3   4
ENDBRANCH   2   3
ENDBRANCH   1   2
BRANCH   1   9
ATOM      9  C   UNL     1      20.538  77.832 101.525  1.00  0.00     0.000 C 
BRANCH   9  10
ATOM     10  C   UNL     1      20.040  78.614 102.747  1.00  0.00     0.000 C 
BRANCH  10  11
ATOM     11  C   UNL     1      21.210  79.027 103.650  1.00  0.00     0.001 C 
BRANCH  11  12
ATOM     12  C   UNL     1      20.799  80.047 104.725  1.00  0.00     0.012 C 
BRANCH  12  13
ATOM     13  C   UNL     1      20.100  81.278 104.134  1.00  0.00     0.123 C 
BRANCH  13  14
ATOM     14  C   UNL     1      21.112  82.265 103.645  1.00  0.00     0.305 C 
ATOM     15  O   UNL     1      21.587  83.120 104.441  1.00  0.00    -0.252 OA
BRANCH  14  16
ATOM     16  O   UNL     1      21.483  82.260 102.297  1.00  0.00    -0.469 OA
ATOM     17  C   UNL     1      20.568  82.561 101.249  1.00  0.00     0.282 C 
ENDBRANCH  14  16
ENDBRANCH  13  14
ENDBRANCH  12  13
ENDBRANCH  11  12
ENDBRANCH  10  11
ENDBRANCH   9  10
ENDBRANCH   1   9
TORSDOF 13
ENDMDL
MODEL 2
REMARK VINA RESULT:    -3.240      1.687      3.287
REMARK INTER + INTRA:          -6.567
REMARK INTER:                  -5.153
REMARK INTRA:                  -1.414
REMARK UNBOUND:                -0.864
REMARK SMILES CCCCCCCCCCCCCC(=O)OC
REMARK SMILES IDX 8 1 7 2 6 3 5 4 4 5 3 6 2 7 1 8 9 9 10 10 11 11 12 12 13 13
REMARK SMILES IDX 14 14 15 15 16 16 17 17
REMARK H PARENT
REMARK Flexibility Score: inf
ROOT
ATOM      1  C   UNL     1      20.579  81.903 100.948  1.00  0.00     0.000 C 
ENDROOT
BRANCH   1   2
ATOM      2  C   UNL     1      20.022  82.915  99.939  1.00  0.00     0.000 C 
BRANCH   2   3
ATOM      3  C   UNL     1      20.134  82.381  98.505  1.00  0.00    -0.000 C 
BRANCH   3   4
ATOM      4  C   UNL     1      20.112  80.845  98.440  1.00  0.00    -0.000 C 
BRANCH   4   5
ATOM      5  C   UNL     1      21.473  80.249  98.047  1.00  0.00    -0.000 C 
BRANCH   5   6
ATOM      6  C   UNL     1      22.331  81.282  97.305  1.00  0.00    -0.000 C 
BRANCH   6   7
ATOM      7  C   UNL     1      23.671  81.495  98.018  1.00  0.00    -0.003 C 
ATOM      8  C   UNL     1      24.088  82.963  97.979  1.00  0.00     0.004 C 
ENDBRANCH   6   7
ENDBRANCH   5   6
ENDBRANCH   4   5
ENDBRANCH   3   4
ENDBRANCH   2   3
ENDBRANCH   1   2
BRANCH   1   9
ATOM      9  C   UNL     1      21.741  82.505 101.748  1.00  0.00     0.000 C 
BRANCH   9  10
ATOM     10  C   UNL     1      21.319  82.805 103.192  1.00  0.00     0.000 C 
BRANCH  10  11
ATOM     11  C   UNL     1      20.144  81.912 103.618  1.00  0.00     0.001 C 
BRANCH  11  12
ATOM     12  C   UNL     1      20.599  80.659 104.383  1.00  0.00     0.012 C 
BRANCH  12  13
ATOM     13  C   UNL     1      19.990  79.369 103.819  1.00  0.00     0.123 C 
BRANCH  13  14
ATOM     14  C   UNL     1      20.925  78.739 102.836  1.00  0.00     0.305 C 
ATOM     15  O   UNL     1      22.100  79.182 102.717  1.00  0.00    -0.252 OA
BRANCH  14  16
ATOM     16  O   UNL     1      20.469  77.696 102.023  1.00  0.00    -0.469 OA
ATOM     17  C   UNL     1      20.167  77.874 100.645  1.00  0.00     0.282 C 
ENDBRANCH  14  16
ENDBRANCH  13  14
ENDBRANCH  12  13
ENDBRANCH  11  12
ENDBRANCH  10  11
ENDBRANCH   9  10
ENDBRANCH   1   9
TORSDOF 13
ENDMDL
MODEL 3
REMARK VINA RESULT:    -3.226      1.331      2.194
REMARK INTER + INTRA:          -6.541
REMARK INTER:                  -5.794
REMARK INTRA:                  -0.747
REMARK UNBOUND:                -0.864
REMARK SMILES CCCCCCCCCCCCCC(=O)OC
REMARK SMILES IDX 8 1 7 2 6 3 5 4 4 5 3 6 2 7 1 8 9 9 10 10 11 11 12 12 13 13
REMARK SMILES IDX 14 14 15 15 16 16 17 17
REMARK H PARENT
REMARK Flexibility Score: inf
ROOT
ATOM      1  C   UNL     1      20.707  79.700  98.728  1.00  0.00     0.000 C 
ENDROOT
BRANCH   1   2
ATOM      2  C   UNL     1      20.876  79.914  97.219  1.00  0.00     0.000 C 
BRANCH   2   3
ATOM      3  C   UNL     1      20.150  81.186  96.760  1.00  0.00    -0.000 C 
BRANCH   3   4
ATOM      4  C   UNL     1      21.066  82.420  96.746  1.00  0.00    -0.000 C 
BRANCH   4   5
ATOM      5  C   UNL     1      21.408  82.921  98.159  1.00  0.00    -0.000 C 
BRANCH   5   6
ATOM      6  C   UNL     1      22.924  83.070  98.337  1.00  0.00    -0.000 C 
BRANCH   6   7
ATOM      7  C   UNL     1      23.653  81.781  97.938  1.00  0.00    -0.003 C 
ATOM      8  C   UNL     1      25.098  82.067  97.539  1.00  0.00     0.004 C 
ENDBRANCH   6   7
ENDBRANCH   5   6
ENDBRANCH   4   5
ENDBRANCH   3   4
ENDBRANCH   2   3
ENDBRANCH   1   2
BRANCH   1   9
ATOM      9  C   UNL     1      20.632  78.206  99.068  1.00  0.00     0.000 C 
BRANCH   9  10
ATOM     10  C   UNL     1      19.875  77.976 100.381  1.00  0.00     0.000 C 
BRANCH  10  11
ATOM     11  C   UNL     1      20.851  77.777 101.550  1.00  0.00     0.001 C 
BRANCH  11  12
ATOM     12  C   UNL     1      20.382  78.472 102.839  1.00  0.00     0.012 C 
BRANCH  12  13
ATOM     13  C   UNL     1      20.384  80.002 102.719  1.00  0.00     0.123 C 
BRANCH  13  14
ATOM     14  C   UNL     1      20.674  80.627 104.047  1.00  0.00     0.305 C 
ATOM     15  O   UNL     1      20.960  79.896 105.034  1.00  0.00    -0.252 OA
BRANCH  14  16
ATOM     16  O   UNL     1      20.575  82.015 104.190  1.00  0.00    -0.469 OA
ATOM     17  C   UNL     1      21.150  82.924 103.260  1.00  0.00     0.282 C 
ENDBRANCH  14  16
ENDBRANCH  13  14
ENDBRANCH  12  13
ENDBRANCH  11  12
ENDBRANCH  10  11
ENDBRANCH   9  10
ENDBRANCH   1   9
TORSDOF 13
ENDMDL
MODEL 4
REMARK VINA RESULT:    -3.020     22.107     24.072
REMARK INTER + INTRA:          -6.180
REMARK INTER:                  -5.451
REMARK INTRA:                  -0.729
REMARK UNBOUND:                -0.864
REMARK SMILES CCCCCCCCCCCCCC(=O)OC
REMARK SMILES IDX 8 1 7 2 6 3 5 4 4 5 3 6 2 7 1 8 9 9 10 10 11 11 12 12 13 13
REMARK SMILES IDX 14 14 15 15 16 16 17 17
REMARK H PARENT
REMARK Flexibility Score: inf
ROOT
ATOM      1  C   UNL     1      36.747  64.086 100.576  1.00  0.00     0.000 C 
ENDROOT
BRANCH   1   2
ATOM      2  C   UNL     1      37.492  63.596 101.823  1.00  0.00     0.000 C 
BRANCH   2   3
ATOM      3  C   UNL     1      36.510  63.259 102.954  1.00  0.00    -0.000 C 
BRANCH   3   4
ATOM      4  C   UNL     1      37.084  63.558 104.348  1.00  0.00    -0.000 C 
BRANCH   4   5
ATOM      5  C   UNL     1      36.170  64.470 105.182  1.00  0.00    -0.000 C 
BRANCH   5   6
ATOM      6  C   UNL     1      34.700  64.062 105.028  1.00  0.00    -0.000 C 
BRANCH   6   7
ATOM      7  C   UNL     1      34.321  62.980 106.047  1.00  0.00    -0.003 C 
ATOM      8  C   UNL     1      34.944  63.266 107.411  1.00  0.00     0.004 C 
ENDBRANCH   6   7
ENDBRANCH   5   6
ENDBRANCH   4   5
ENDBRANCH   3   4
ENDBRANCH   2   3
ENDBRANCH   1   2
BRANCH   1   9
ATOM      9  C   UNL     1      36.450  62.924  99.620  1.00  0.00     0.000 C 
BRANCH   9  10
ATOM     10  C   UNL     1      37.425  62.920  98.436  1.00  0.00     0.000 C 
BRANCH  10  11
ATOM     11  C   UNL     1      37.549  64.323  97.823  1.00  0.00     0.001 C 
BRANCH  11  12
ATOM     12  C   UNL     1      38.138  64.299  96.403  1.00  0.00     0.012 C 
BRANCH  12  13
ATOM     13  C   UNL     1      37.681  63.077  95.595  1.00  0.00     0.123 C 
BRANCH  13  14
ATOM     14  C   UNL     1      36.971  63.512  94.353  1.00  0.00     0.305 C 
ATOM     15  O   UNL     1      37.574  63.488  93.245  1.00  0.00    -0.252 OA
BRANCH  14  16
ATOM     16  O   UNL     1      35.659  63.988  94.441  1.00  0.00    -0.469 OA
ATOM     17  C   UNL     1      34.738  63.521  95.418  1.00  0.00     0.282 C 
ENDBRANCH  14  16
ENDBRANCH  13  14
ENDBRANCH  12  13
ENDBRANCH  11  12
ENDBRANCH  10  11
ENDBRANCH   9  10
ENDBRANCH   1   9
TORSDOF 13
ENDMDL
MODEL 5
REMARK VINA RESULT:    -2.885     22.277     23.021
REMARK INTER + INTRA:          -5.941
REMARK INTER:                  -5.276
REMARK INTRA:                  -0.665
REMARK UNBOUND:                -0.864
REMARK SMILES CCCCCCCCCCCCCC(=O)OC
REMARK SMILES IDX 8 1 7 2 6 3 5 4 4 5 3 6 2 7 1 8 9 9 10 10 11 11 12 12 13 13
REMARK SMILES IDX 14 14 15 15 16 16 17 17
REMARK H PARENT
REMARK Flexibility Score: inf
ROOT
ATOM      1  C   UNL     1      37.408  64.709 100.205  1.00  0.00     0.000 C 
ENDROOT
BRANCH   1   2
ATOM      2  C   UNL     1      37.890  64.054  98.906  1.00  0.00     0.000 C 
BRANCH   2   3
ATOM      3  C   UNL     1      36.928  62.944  98.459  1.00  0.00    -0.000 C 
BRANCH   3   4
ATOM      4  C   UNL     1      36.666  62.959  96.945  1.00  0.00    -0.000 C 
BRANCH   4   5
ATOM      5  C   UNL     1      35.192  63.225  96.600  1.00  0.00    -0.000 C 
BRANCH   5   6
ATOM      6  C   UNL     1      34.991  63.311  95.082  1.00  0.00    -0.000 C 
BRANCH   6   7
ATOM      7  C   UNL     1      36.151  64.061  94.416  1.00  0.00    -0.003 C 
ATOM      8  C   UNL     1      36.732  63.257  93.257  1.00  0.00     0.004 C 
ENDBRANCH   6   7
ENDBRANCH   5   6
ENDBRANCH   4   5
ENDBRANCH   3   4
ENDBRANCH   2   3
ENDBRANCH   1   2
BRANCH   1   9
ATOM      9  C   UNL     1      36.850  63.662 101.177  1.00  0.00     0.000 C 
BRANCH   9  10
ATOM     10  C   UNL     1      37.925  63.201 102.169  1.00  0.00     0.000 C 
BRANCH  10  11
ATOM     11  C   UNL     1      37.329  62.998 103.569  1.00  0.00     0.001 C 
BRANCH  11  12
ATOM     12  C   UNL     1      35.936  63.632 103.719  1.00  0.00     0.012 C 
BRANCH  12  13
ATOM     13  C   UNL     1      35.143  63.044 104.893  1.00  0.00     0.123 C 
BRANCH  13  14
ATOM     14  C   UNL     1      35.384  63.843 106.135  1.00  0.00     0.305 C 
ATOM     15  O   UNL     1      35.889  64.996 106.050  1.00  0.00    -0.252 OA
BRANCH  14  16
ATOM     16  O   UNL     1      35.091  63.282 107.382  1.00  0.00    -0.469 OA
ATOM     17  C   UNL     1      35.468  63.898 108.607  1.00  0.00     0.282 C 
ENDBRANCH  14  16
ENDBRANCH  13  14
ENDBRANCH  12  13
ENDBRANCH  11  12
ENDBRANCH  10  11
ENDBRANCH   9  10
ENDBRANCH   1   9
TORSDOF 13
ENDMDL
MODEL 6
REMARK VINA RESULT:    -2.675     22.804     24.658
REMARK INTER + INTRA:          -5.571
REMARK INTER:                  -5.125
REMARK INTRA:                  -0.446
REMARK UNBOUND:                -0.864
REMARK SMILES CCCCCCCCCCCCCC(=O)OC
REMARK SMILES IDX 8 1 7 2 6 3 5 4 4 5 3 6 2 7 1 8 9 9 10 10 11 11 12 12 13 13
REMARK SMILES IDX 14 14 15 15 16 16 17 17
REMARK H PARENT
REMARK Flexibility Score: inf
ROOT
ATOM      1  C   UNL     1      38.081  65.572  99.014  1.00  0.00     0.000 C 
ENDROOT
BRANCH   1   2
ATOM      2  C   UNL     1      38.437  64.901 100.346  1.00  0.00     0.000 C 
BRANCH   2   3
ATOM      3  C   UNL     1      37.290  64.005 100.835  1.00  0.00    -0.000 C 
BRANCH   3   4
ATOM      4  C   UNL     1      37.613  63.297 102.161  1.00  0.00    -0.000 C 
BRANCH   4   5
ATOM      5  C   UNL     1      36.384  63.160 103.073  1.00  0.00    -0.000 C 
BRANCH   5   6
ATOM      6  C   UNL     1      36.765  63.377 104.543  1.00  0.00    -0.000 C 
BRANCH   6   7
ATOM      7  C   UNL     1      35.849  64.417 105.199  1.00  0.00    -0.003 C 
ATOM      8  C   UNL     1      35.596  64.080 106.666  1.00  0.00     0.004 C 
ENDBRANCH   6   7
ENDBRANCH   5   6
ENDBRANCH   4   5
ENDBRANCH   3   4
ENDBRANCH   2   3
ENDBRANCH   1   2
BRANCH   1   9
ATOM      9  C   UNL     1      37.304  64.612  98.104  1.00  0.00     0.000 C 
BRANCH   9  10
ATOM     10  C   UNL     1      38.256  63.810  97.208  1.00  0.00     0.000 C 
BRANCH  10  11
ATOM     11  C   UNL     1      37.474  62.875  96.274  1.00  0.00     0.001 C 
BRANCH  11  12
ATOM     12  C   UNL     1      36.561  63.638  95.300  1.00  0.00     0.012 C 
BRANCH  12  13
ATOM     13  C   UNL     1      36.332  62.878  93.988  1.00  0.00     0.123 C 
BRANCH  13  14
ATOM     14  C   UNL     1      37.424  63.183  93.013  1.00  0.00     0.305 C 
ATOM     15  O   UNL     1      37.139  63.661  91.881  1.00  0.00    -0.252 OA
BRANCH  14  16
ATOM     16  O   UNL     1      38.749  62.886  93.349  1.00  0.00    -0.469 OA
ATOM     17  C   UNL     1      39.835  63.739  93.008  1.00  0.00     0.282 C 
ENDBRANCH  14  16
ENDBRANCH  13  14
ENDBRANCH  12  13
ENDBRANCH  11  12
ENDBRANCH  10  11
ENDBRANCH   9  10
ENDBRANCH   1   9
TORSDOF 13
ENDMDL
MODEL 7
REMARK VINA RESULT:    -2.637     22.595     24.385
REMARK INTER + INTRA:          -5.505
REMARK INTER:                  -4.739
REMARK INTRA:                  -0.766
REMARK UNBOUND:                -0.864
REMARK SMILES CCCCCCCCCCCCCC(=O)OC
REMARK SMILES IDX 8 1 7 2 6 3 5 4 4 5 3 6 2 7 1 8 9 9 10 10 11 11 12 12 13 13
REMARK SMILES IDX 14 14 15 15 16 16 17 17
REMARK H PARENT
REMARK Flexibility Score: inf
ROOT
ATOM      1  C   UNL     1      37.339  63.512  99.605  1.00  0.00     0.000 C 
ENDROOT
BRANCH   1   2
ATOM      2  C   UNL     1      37.580  62.875 100.979  1.00  0.00     0.000 C 
BRANCH   2   3
ATOM      3  C   UNL     1      36.695  63.528 102.051  1.00  0.00    -0.000 C 
BRANCH   3   4
ATOM      4  C   UNL     1      36.917  62.931 103.449  1.00  0.00    -0.000 C 
BRANCH   4   5
ATOM      5  C   UNL     1      38.086  63.592 104.197  1.00  0.00    -0.000 C 
BRANCH   5   6
ATOM      6  C   UNL     1      37.677  63.977 105.624  1.00  0.00    -0.000 C 
BRANCH   6   7
ATOM      7  C   UNL     1      36.227  64.476 105.663  1.00  0.00    -0.003 C 
ATOM      8  C   UNL     1      35.581  64.186 107.015  1.00  0.00     0.004 C 
ENDBRANCH   6   7
ENDBRANCH   5   6
ENDBRANCH   4   5
ENDBRANCH   3   4
ENDBRANCH   2   3
ENDBRANCH   1   2
BRANCH   1   9
ATOM      9  C   UNL     1      37.486  65.037  99.671  1.00  0.00     0.000 C 
BRANCH   9  10
ATOM     10  C   UNL     1      38.171  65.580  98.411  1.00  0.00     0.000 C 
BRANCH  10  11
ATOM     11  C   UNL     1      39.088  64.520  97.784  1.00  0.00     0.001 C 
BRANCH  11  12
ATOM     12  C   UNL     1      38.818  64.314  96.284  1.00  0.00     0.012 C 
BRANCH  12  13
ATOM     13  C   UNL     1      37.736  63.259  96.020  1.00  0.00     0.123 C 
BRANCH  13  14
ATOM     14  C   UNL     1      36.990  63.583  94.764  1.00  0.00     0.305 C 
ATOM     15  O   UNL     1      35.963  64.314  94.816  1.00  0.00    -0.252 OA
BRANCH  14  16
ATOM     16  O   UNL     1      37.411  63.029  93.551  1.00  0.00    -0.469 OA
ATOM     17  C   UNL     1      37.124  63.628  92.294  1.00  0.00     0.282 C 
ENDBRANCH  14  16
ENDBRANCH  13  14
ENDBRANCH  12  13
ENDBRANCH  11  12
ENDBRANCH  10  11
ENDBRANCH   9  10
ENDBRANCH   1   9
TORSDOF 13
ENDMDL
MODEL 8
REMARK VINA RESULT:    -2.622      1.794      5.343
REMARK INTER + INTRA:          -5.478
REMARK INTER:                  -4.531
REMARK INTRA:                  -0.947
REMARK UNBOUND:                -0.864
REMARK SMILES CCCCCCCCCCCCCC(=O)OC
REMARK SMILES IDX 8 1 7 2 6 3 5 4 4 5 3 6 2 7 1 8 9 9 10 10 11 11 12 12 13 13
REMARK SMILES IDX 14 14 15 15 16 16 17 17
REMARK H PARENT
REMARK Flexibility Score: inf
ROOT
ATOM      1  C   UNL     1      21.346  78.109 102.537  1.00  0.00     0.000 C 
ENDROOT
BRANCH   1   2
ATOM      2  C   UNL     1      19.954  78.458 103.077  1.00  0.00     0.000 C 
BRANCH   2   3
ATOM      3  C   UNL     1      19.875  79.936 103.481  1.00  0.00    -0.000 C 
BRANCH   3   4
ATOM      4  C   UNL     1      20.541  80.218 104.837  1.00  0.00    -0.000 C 
BRANCH   4   5
ATOM      5  C   UNL     1      21.046  81.664 104.961  1.00  0.00    -0.000 C 
BRANCH   5   6
ATOM      6  C   UNL     1      20.200  82.616 104.106  1.00  0.00    -0.000 C 
BRANCH   6   7
ATOM      7  C   UNL     1      20.899  82.928 102.778  1.00  0.00    -0.003 C 
ATOM      8  C   UNL     1      19.891  83.036 101.637  1.00  0.00     0.004 C 
ENDBRANCH   6   7
ENDBRANCH   5   6
ENDBRANCH   4   5
ENDBRANCH   3   4
ENDBRANCH   2   3
ENDBRANCH   1   2
BRANCH   1   9
ATOM      9  C   UNL     1      21.298  77.832 101.029  1.00  0.00     0.000 C 
BRANCH   9  10
ATOM     10  C   UNL     1      19.876  78.006 100.481  1.00  0.00     0.000 C 
BRANCH  10  11
ATOM     11  C   UNL     1      19.882  78.843  99.194  1.00  0.00     0.001 C 
BRANCH  11  12
ATOM     12  C   UNL     1      20.715  80.129  99.327  1.00  0.00     0.012 C 
BRANCH  12  13
ATOM     13  C   UNL     1      21.742  80.285  98.198  1.00  0.00     0.123 C 
BRANCH  13  14
ATOM     14  C   UNL     1      22.734  81.351  98.541  1.00  0.00     0.305 C 
ATOM     15  O   UNL     1      22.386  82.318  99.274  1.00  0.00    -0.252 OA
BRANCH  14  16
ATOM     16  O   UNL     1      24.024  81.290  98.004  1.00  0.00    -0.469 OA
ATOM     17  C   UNL     1      24.718  82.444  97.547  1.00  0.00     0.282 C 
ENDBRANCH  14  16
ENDBRANCH  13  14
ENDBRANCH  12  13
ENDBRANCH  11  12
ENDBRANCH  10  11
ENDBRANCH   9  10
ENDBRANCH   1   9
TORSDOF 13
ENDMDL
