MODEL 1
REMARK VINA RESULT:    -2.117      0.000      0.000
REMARK INTER + INTRA:          -2.302
REMARK INTER:                  -2.302
REMARK INTRA:                   0.000
REMARK UNBOUND:                 0.000
REMARK SMILES [NH3+]CC(=O)[O-]
REMARK SMILES IDX 2 1 1 2 3 6 4 7 5 8
REMARK H PARENT 1 3 1 4 1 5
REMARK Flexibility Score: inf
ROOT
ATOM      1  C   UNL     1     152.828 103.063  40.714  1.00  0.00     0.312 C 
ENDROOT
BRANCH   1   2
ATOM      2  N   UNL     1     153.488 102.352  39.621  1.00  0.00    -0.353 N 
ATOM      3  H   UNL     1     152.907 102.440  38.756  1.00  0.00     0.344 HD
ATOM      4  H   UNL     1     154.431 102.768  39.439  1.00  0.00     0.344 HD
ATOM      5  H   UNL     1     153.587 101.338  39.859  1.00  0.00     0.344 HD
ENDBRANCH   1   2
BRANCH   1   6
ATOM      6  C   UNL     1     153.832 103.793  41.552  1.00  0.00     0.096 C 
ATOM      7  O   UNL     1     153.516 104.869  42.123  1.00  0.00    -0.544 OA
ATOM      8  O   UNL     1     155.130 103.312  41.658  1.00  0.00    -0.544 OA
ENDBRANCH   1   6
TORSDOF 2
ENDMDL
MODEL 2
REMARK VINA RESULT:    -2.079      2.254      2.421
REMARK INTER + INTRA:          -2.262
REMARK INTER:                  -2.262
REMARK INTRA:                   0.000
REMARK UNBOUND:                 0.000
REMARK SMILES [NH3+]CC(=O)[O-]
REMARK SMILES IDX 2 1 1 2 3 6 4 7 5 8
REMARK H PARENT 1 3 1 4 1 5
REMARK Flexibility Score: inf
ROOT
ATOM      1  C   UNL     1     151.774 103.409  42.040  1.00  0.00     0.312 C 
ENDROOT
BRANCH   1   2
ATOM      2  N   UNL     1     150.941 104.555  41.679  1.00  0.00    -0.353 N 
ATOM      3  H   UNL     1     149.936 104.309  41.830  1.00  0.00     0.344 HD
ATOM      4  H   UNL     1     151.182 105.377  42.280  1.00  0.00     0.344 HD
ATOM      5  H   UNL     1     151.082 104.798  40.671  1.00  0.00     0.344 HD
ENDBRANCH   1   2
BRANCH   1   6
ATOM      6  C   UNL     1     153.086 103.462  41.319  1.00  0.00     0.096 C 
ATOM      7  O   UNL     1     153.299 102.704  40.337  1.00  0.00    -0.544 OA
ATOM      8  O   UNL     1     154.089 104.311  41.764  1.00  0.00    -0.544 OA
ENDBRANCH   1   6
TORSDOF 2
ENDMDL
MODEL 3
REMARK VINA RESULT:    -2.055      1.074      1.783
REMARK INTER + INTRA:          -2.236
REMARK INTER:                  -2.236
REMARK INTRA:                   0.000
REMARK UNBOUND:                 0.000
REMARK SMILES [NH3+]CC(=O)[O-]
REMARK SMILES IDX 2 1 1 2 3 6 4 7 5 8
REMARK H PARENT 1 3 1 4 1 5
REMARK Flexibility Score: inf
ROOT
ATOM      1  C   UNL     1     152.319 103.311  41.870  1.00  0.00     0.312 C 
ENDROOT
BRANCH   1   2
ATOM      2  N   UNL     1     152.058 102.609  40.616  1.00  0.00    -0.353 N 
ATOM      3  H   UNL     1     152.441 101.638  40.681  1.00  0.00     0.344 HD
ATOM      4  H   UNL     1     151.028 102.555  40.441  1.00  0.00     0.344 HD
ATOM      5  H   UNL     1     152.527 103.104  39.822  1.00  0.00     0.344 HD
ENDBRANCH   1   2
BRANCH   1   6
ATOM      6  C   UNL     1     153.562 104.141  41.762  1.00  0.00     0.096 C 
ATOM      7  O   UNL     1     154.683 103.586  41.628  1.00  0.00    -0.544 OA
ATOM      8  O   UNL     1     153.485 105.524  41.860  1.00  0.00    -0.544 OA
ENDBRANCH   1   6
TORSDOF 2
ENDMDL
MODEL 4
REMARK VINA RESULT:    -2.052     18.729     18.832
REMARK INTER + INTRA:          -2.232
REMARK INTER:                  -2.232
REMARK INTRA:                   0.000
REMARK UNBOUND:                 0.000
REMARK SMILES [NH3+]CC(=O)[O-]
REMARK SMILES IDX 2 1 1 2 3 6 4 7 5 8
REMARK H PARENT 1 3 1 4 1 5
REMARK Flexibility Score: inf
ROOT
ATOM      1  C   UNL     1     152.089 102.782  21.971  1.00  0.00     0.312 C 
ENDROOT
BRANCH   1   2
ATOM      2  N   UNL     1     153.330 102.932  22.728  1.00  0.00    -0.353 N 
ATOM      3  H   UNL     1     153.815 103.806  22.420  1.00  0.00     0.344 HD
ATOM      4  H   UNL     1     153.121 103.004  23.751  1.00  0.00     0.344 HD
ATOM      5  H   UNL     1     153.960 102.116  22.551  1.00  0.00     0.344 HD
ENDBRANCH   1   2
BRANCH   1   6
ATOM      6  C   UNL     1     151.014 103.657  22.538  1.00  0.00     0.096 C 
ATOM      7  O   UNL     1     149.910 103.161  22.884  1.00  0.00    -0.544 OA
ATOM      8  O   UNL     1     151.215 105.027  22.638  1.00  0.00    -0.544 OA
ENDBRANCH   1   6
TORSDOF 2
ENDMDL
MODEL 5
REMARK VINA RESULT:    -2.050     18.778     18.881
REMARK INTER + INTRA:          -2.230
REMARK INTER:                  -2.230
REMARK INTRA:                   0.000
REMARK UNBOUND:                 0.000
REMARK SMILES [NH3+]CC(=O)[O-]
REMARK SMILES IDX 2 1 1 2 3 6 4 7 5 8
REMARK H PARENT 1 3 1 4 1 5
REMARK Flexibility Score: inf
ROOT
ATOM      1  C   UNL     1     152.135 102.580  22.138  1.00  0.00     0.312 C 
ENDROOT
BRANCH   1   2
ATOM      2  N   UNL     1     153.389 102.907  22.814  1.00  0.00    -0.353 N 
ATOM      3  H   UNL     1     154.155 102.963  22.104  1.00  0.00     0.344 HD
ATOM      4  H   UNL     1     153.306 103.831  23.298  1.00  0.00     0.344 HD
ATOM      5  H   UNL     1     153.627 102.162  23.510  1.00  0.00     0.344 HD
ENDBRANCH   1   2
BRANCH   1   6
ATOM      6  C   UNL     1     151.100 103.628  22.409  1.00  0.00     0.096 C 
ATOM      7  O   UNL     1     151.381 104.847  22.267  1.00  0.00    -0.544 OA
ATOM      8  O   UNL     1     149.842 103.261  22.868  1.00  0.00    -0.544 OA
ENDBRANCH   1   6
TORSDOF 2
ENDMDL
MODEL 6
REMARK VINA RESULT:    -2.033      9.466      9.830
REMARK INTER + INTRA:          -2.211
REMARK INTER:                  -2.211
REMARK INTRA:                   0.000
REMARK UNBOUND:                 0.000
REMARK SMILES [NH3+]CC(=O)[O-]
REMARK SMILES IDX 2 1 1 2 3 6 4 7 5 8
REMARK H PARENT 1 3 1 4 1 5
REMARK Flexibility Score: inf
ROOT
ATOM      1  C   UNL     1     144.104 106.805  41.711  1.00  0.00     0.312 C 
ENDROOT
BRANCH   1   2
ATOM      2  N   UNL     1     142.812 106.862  41.030  1.00  0.00    -0.353 N 
ATOM      3  H   UNL     1     142.939 106.583  40.030  1.00  0.00     0.344 HD
ATOM      4  H   UNL     1     142.137 106.203  41.482  1.00  0.00     0.344 HD
ATOM      5  H   UNL     1     142.431 107.837  41.062  1.00  0.00     0.344 HD
ENDBRANCH   1   2
BRANCH   1   6
ATOM      6  C   UNL     1     145.221 106.715  40.717  1.00  0.00     0.096 C 
ATOM      7  O   UNL     1     146.254 107.419  40.862  1.00  0.00    -0.544 OA
ATOM      8  O   UNL     1     145.098 105.892  39.606  1.00  0.00    -0.544 OA
ENDBRANCH   1   6
TORSDOF 2
ENDMDL
MODEL 7
REMARK VINA RESULT:    -2.018      2.701      2.779
REMARK INTER + INTRA:          -2.195
REMARK INTER:                  -2.195
REMARK INTRA:                   0.000
REMARK UNBOUND:                 0.000
REMARK SMILES [NH3+]CC(=O)[O-]
REMARK SMILES IDX 2 1 1 2 3 6 4 7 5 8
REMARK H PARENT 1 3 1 4 1 5
REMARK Flexibility Score: inf
ROOT
ATOM      1  C   UNL     1     155.244 104.684  41.094  1.00  0.00     0.312 C 
ENDROOT
BRANCH   1   2
ATOM      2  N   UNL     1     154.230 104.897  42.125  1.00  0.00    -0.353 N 
ATOM      3  H   UNL     1     154.618 104.611  43.052  1.00  0.00     0.344 HD
ATOM      4  H   UNL     1     153.966 105.909  42.166  1.00  0.00     0.344 HD
ATOM      5  H   UNL     1     153.382 104.318  41.920  1.00  0.00     0.344 HD
ENDBRANCH   1   2
BRANCH   1   6
ATOM      6  C   UNL     1     155.450 103.220  40.851  1.00  0.00     0.096 C 
ATOM      7  O   UNL     1     154.731 102.609  40.018  1.00  0.00    -0.544 OA
ATOM      8  O   UNL     1     156.401 102.522  41.583  1.00  0.00    -0.544 OA
ENDBRANCH   1   6
TORSDOF 2
ENDMDL
MODEL 8
REMARK VINA RESULT:    -2.016      2.090      2.445
REMARK INTER + INTRA:          -2.193
REMARK INTER:                  -2.193
REMARK INTRA:                   0.000
REMARK UNBOUND:                 0.000
REMARK SMILES [NH3+]CC(=O)[O-]
REMARK SMILES IDX 2 1 1 2 3 6 4 7 5 8
REMARK H PARENT 1 3 1 4 1 5
REMARK Flexibility Score: inf
ROOT
ATOM      1  C   UNL     1     152.505 103.482  39.791  1.00  0.00     0.312 C 
ENDROOT
BRANCH   1   2
ATOM      2  N   UNL     1     153.433 102.355  39.860  1.00  0.00    -0.353 N 
ATOM      3  H   UNL     1     154.097 102.507  40.653  1.00  0.00     0.344 HD
ATOM      4  H   UNL     1     152.908 101.466  40.023  1.00  0.00     0.344 HD
ATOM      5  H   UNL     1     153.980 102.286  38.970  1.00  0.00     0.344 HD
ENDBRANCH   1   2
BRANCH   1   6
ATOM      6  C   UNL     1     151.876 103.730  41.128  1.00  0.00     0.096 C 
ATOM      7  O   UNL     1     151.876 102.827  42.005  1.00  0.00    -0.544 OA
ATOM      8  O   UNL     1     151.246 104.940  41.386  1.00  0.00    -0.544 OA
ENDBRANCH   1   6
TORSDOF 2
ENDMDL
