MODEL 1
REMARK VINA RESULT:    -3.507      0.000      0.000
REMARK INTER + INTRA:          -4.249
REMARK INTER:                  -4.122
REMARK INTRA:                  -0.127
REMARK UNBOUND:                -0.127
REMARK SMILES O=C([O-])CCC(=O)[O-]
REMARK SMILES IDX 4 1 2 2 1 3 3 4 5 5 6 6 7 7 8 8
REMARK H PARENT
REMARK Flexibility Score: inf
ROOT
ATOM      1  C   UNL     1     117.367 165.726 122.430  1.00  0.00     0.059 C 
ENDROOT
BRANCH   1   2
ATOM      2  C   UNL     1     118.039 165.311 121.159  1.00  0.00     0.042 C 
ATOM      3  O   UNL     1     119.167 165.782 120.857  1.00  0.00    -0.550 OA
ATOM      4  O   UNL     1     117.399 164.441 120.286  1.00  0.00    -0.550 OA
ENDBRANCH   1   2
BRANCH   1   5
ATOM      5  C   UNL     1     115.869 165.427 122.365  1.00  0.00     0.059 C 
BRANCH   5   6
ATOM      6  C   UNL     1     115.115 166.628 121.889  1.00  0.00     0.042 C 
ATOM      7  O   UNL     1     114.744 167.509 122.708  1.00  0.00    -0.550 OA
ATOM      8  O   UNL     1     114.864 166.799 120.533  1.00  0.00    -0.550 OA
ENDBRANCH   5   6
ENDBRANCH   1   5
TORSDOF 3
ENDMDL
MODEL 2
REMARK VINA RESULT:    -3.483      1.045      3.850
REMARK INTER + INTRA:          -4.221
REMARK INTER:                  -4.181
REMARK INTRA:                  -0.040
REMARK UNBOUND:                -0.127
REMARK SMILES O=C([O-])CCC(=O)[O-]
REMARK SMILES IDX 4 1 2 2 1 3 3 4 5 5 6 6 7 7 8 8
REMARK H PARENT
REMARK Flexibility Score: inf
ROOT
ATOM      1  C   UNL     1     116.105 165.360 122.341  1.00  0.00     0.059 C 
ENDROOT
BRANCH   1   2
ATOM      2  C   UNL     1     115.223 166.434 122.895  1.00  0.00     0.042 C 
ATOM      3  O   UNL     1     114.822 166.372 124.086  1.00  0.00    -0.550 OA
ATOM      4  O   UNL     1     114.803 167.478 122.080  1.00  0.00    -0.550 OA
ENDBRANCH   1   2
BRANCH   1   5
ATOM      5  C   UNL     1     116.470 165.663 120.887  1.00  0.00     0.059 C 
BRANCH   5   6
ATOM      6  C   UNL     1     117.787 165.046 120.538  1.00  0.00     0.042 C 
ATOM      7  O   UNL     1     118.858 165.570 120.941  1.00  0.00    -0.550 OA
ATOM      8  O   UNL     1     117.830 163.864 119.809  1.00  0.00    -0.550 OA
ENDBRANCH   5   6
ENDBRANCH   1   5
TORSDOF 3
ENDMDL
MODEL 3
REMARK VINA RESULT:    -3.468      1.312      1.783
REMARK INTER + INTRA:          -4.203
REMARK INTER:                  -4.080
REMARK INTRA:                  -0.123
REMARK UNBOUND:                -0.127
REMARK SMILES O=C([O-])CCC(=O)[O-]
REMARK SMILES IDX 4 1 2 2 1 3 3 4 5 5 6 6 7 7 8 8
REMARK H PARENT
REMARK Flexibility Score: inf
ROOT
ATOM      1  C   UNL     1     117.554 165.467 121.212  1.00  0.00     0.059 C 
ENDROOT
BRANCH   1   2
ATOM      2  C   UNL     1     117.382 164.766 119.901  1.00  0.00     0.042 C 
ATOM      3  O   UNL     1     116.835 165.358 118.934  1.00  0.00    -0.550 OA
ATOM      4  O   UNL     1     117.781 163.442 119.762  1.00  0.00    -0.550 OA
ENDBRANCH   1   2
BRANCH   1   5
ATOM      5  C   UNL     1     116.271 165.377 122.040  1.00  0.00     0.059 C 
BRANCH   5   6
ATOM      6  C   UNL     1     115.530 166.676 122.001  1.00  0.00     0.042 C 
ATOM      7  O   UNL     1     114.643 166.873 121.129  1.00  0.00    -0.550 OA
ATOM      8  O   UNL     1     115.784 167.651 122.957  1.00  0.00    -0.550 OA
ENDBRANCH   5   6
ENDBRANCH   1   5
TORSDOF 3
ENDMDL
MODEL 4
REMARK VINA RESULT:    -3.452      1.062      1.315
REMARK INTER + INTRA:          -4.185
REMARK INTER:                  -4.140
REMARK INTRA:                  -0.045
REMARK UNBOUND:                -0.127
REMARK SMILES O=C([O-])CCC(=O)[O-]
REMARK SMILES IDX 4 1 2 2 1 3 3 4 5 5 6 6 7 7 8 8
REMARK H PARENT
REMARK Flexibility Score: inf
ROOT
ATOM      1  C   UNL     1     116.309 165.750 121.064  1.00  0.00     0.059 C 
ENDROOT
BRANCH   1   2
ATOM      2  C   UNL     1     117.646 165.202 120.677  1.00  0.00     0.042 C 
ATOM      3  O   UNL     1     118.699 165.723 121.131  1.00  0.00    -0.550 OA
ATOM      4  O   UNL     1     117.732 164.148 119.776  1.00  0.00    -0.550 OA
ENDBRANCH   1   2
BRANCH   1   5
ATOM      5  C   UNL     1     115.988 165.404 122.519  1.00  0.00     0.059 C 
BRANCH   5   6
ATOM      6  C   UNL     1     115.140 166.469 123.136  1.00  0.00     0.042 C 
ATOM      7  O   UNL     1     114.778 166.373 124.338  1.00  0.00    -0.550 OA
ATOM      8  O   UNL     1     114.789 167.594 122.400  1.00  0.00    -0.550 OA
ENDBRANCH   5   6
ENDBRANCH   1   5
TORSDOF 3
ENDMDL
MODEL 5
REMARK VINA RESULT:    -3.452      2.156      2.920
REMARK INTER + INTRA:          -4.185
REMARK INTER:                  -4.079
REMARK INTRA:                  -0.106
REMARK UNBOUND:                -0.127
REMARK SMILES O=C([O-])CCC(=O)[O-]
REMARK SMILES IDX 4 1 2 2 1 3 3 4 5 5 6 6 7 7 8 8
REMARK H PARENT
REMARK Flexibility Score: inf
ROOT
ATOM      1  C   UNL     1     118.067 165.374 120.494  1.00  0.00     0.059 C 
ENDROOT
BRANCH   1   2
ATOM      2  C   UNL     1     117.472 165.544 121.856  1.00  0.00     0.042 C 
ATOM      3  O   UNL     1     118.141 166.082 122.776  1.00  0.00    -0.550 OA
ATOM      4  O   UNL     1     116.196 165.064 122.123  1.00  0.00    -0.550 OA
ENDBRANCH   1   2
BRANCH   1   5
ATOM      5  C   UNL     1     117.080 164.666 119.563  1.00  0.00     0.059 C 
BRANCH   5   6
ATOM      6  C   UNL     1     116.416 165.654 118.657  1.00  0.00     0.042 C 
ATOM      7  O   UNL     1     115.515 166.414 119.100  1.00  0.00    -0.550 OA
ATOM      8  O   UNL     1     116.825 165.768 117.334  1.00  0.00    -0.550 OA
ENDBRANCH   5   6
ENDBRANCH   1   5
TORSDOF 3
ENDMDL
MODEL 6
REMARK VINA RESULT:    -3.380     12.648     13.998
REMARK INTER + INTRA:          -4.100
REMARK INTER:                  -3.917
REMARK INTRA:                  -0.183
REMARK UNBOUND:                -0.127
REMARK SMILES O=C([O-])CCC(=O)[O-]
REMARK SMILES IDX 4 1 2 2 1 3 3 4 5 5 6 6 7 7 8 8
REMARK H PARENT
REMARK Flexibility Score: inf
ROOT
ATOM      1  C   UNL     1     115.925 178.476 126.496  1.00  0.00     0.059 C 
ENDROOT
BRANCH   1   2
ATOM      2  C   UNL     1     114.974 179.578 126.150  1.00  0.00     0.042 C 
ATOM      3  O   UNL     1     113.830 179.308 125.697  1.00  0.00    -0.550 OA
ATOM      4  O   UNL     1     115.367 180.904 126.281  1.00  0.00    -0.550 OA
ENDBRANCH   1   2
BRANCH   1   5
ATOM      5  C   UNL     1     116.258 177.647 125.255  1.00  0.00     0.059 C 
BRANCH   5   6
ATOM      6  C   UNL     1     117.052 178.458 124.280  1.00  0.00     0.042 C 
ATOM      7  O   UNL     1     118.173 178.925 124.610  1.00  0.00    -0.550 OA
ATOM      8  O   UNL     1     116.575 178.658 122.990  1.00  0.00    -0.550 OA
ENDBRANCH   5   6
ENDBRANCH   1   5
TORSDOF 3
ENDMDL
MODEL 7
REMARK VINA RESULT:    -3.380      1.104      3.605
REMARK INTER + INTRA:          -4.100
REMARK INTER:                  -4.014
REMARK INTRA:                  -0.086
REMARK UNBOUND:                -0.127
REMARK SMILES O=C([O-])CCC(=O)[O-]
REMARK SMILES IDX 4 1 2 2 1 3 3 4 5 5 6 6 7 7 8 8
REMARK H PARENT
REMARK Flexibility Score: inf
ROOT
ATOM      1  C   UNL     1     115.945 165.513 122.314  1.00  0.00     0.059 C 
ENDROOT
BRANCH   1   2
ATOM      2  C   UNL     1     115.135 166.695 121.884  1.00  0.00     0.042 C 
ATOM      3  O   UNL     1     114.738 167.534 122.735  1.00  0.00    -0.550 OA
ATOM      4  O   UNL     1     114.777 166.845 120.550  1.00  0.00    -0.550 OA
ENDBRANCH   1   2
BRANCH   1   5
ATOM      5  C   UNL     1     117.112 165.284 121.352  1.00  0.00     0.059 C 
BRANCH   5   6
ATOM      6  C   UNL     1     118.377 165.847 121.920  1.00  0.00     0.042 C 
ATOM      7  O   UNL     1     118.386 166.340 123.078  1.00  0.00    -0.550 OA
ATOM      8  O   UNL     1     119.556 165.781 121.189  1.00  0.00    -0.550 OA
ENDBRANCH   5   6
ENDBRANCH   1   5
TORSDOF 3
ENDMDL
MODEL 8
REMARK VINA RESULT:    -3.355      2.033      3.408
REMARK INTER + INTRA:          -4.070
REMARK INTER:                  -3.998
REMARK INTRA:                  -0.073
REMARK UNBOUND:                -0.127
REMARK SMILES O=C([O-])CCC(=O)[O-]
REMARK SMILES IDX 4 1 2 2 1 3 3 4 5 5 6 6 7 7 8 8
REMARK H PARENT
REMARK Flexibility Score: inf
ROOT
ATOM      1  C   UNL     1     117.326 165.010 119.671  1.00  0.00     0.059 C 
ENDROOT
BRANCH   1   2
ATOM      2  C   UNL     1     116.406 165.789 118.785  1.00  0.00     0.042 C 
ATOM      3  O   UNL     1     115.443 166.431 119.281  1.00  0.00    -0.550 OA
ATOM      4  O   UNL     1     116.582 165.767 117.408  1.00  0.00    -0.550 OA
ENDBRANCH   1   2
BRANCH   1   5
ATOM      5  C   UNL     1     116.997 165.267 121.143  1.00  0.00     0.059 C 
BRANCH   5   6
ATOM      6  C   UNL     1     118.202 165.775 121.869  1.00  0.00     0.042 C 
ATOM      7  O   UNL     1     118.115 166.117 123.077  1.00  0.00    -0.550 OA
ATOM      8  O   UNL     1     119.432 165.825 121.225  1.00  0.00    -0.550 OA
ENDBRANCH   5   6
ENDBRANCH   1   5
TORSDOF 3
ENDMDL
MODEL 9
REMARK VINA RESULT:    -3.245     12.424     13.460
REMARK INTER + INTRA:          -3.941
REMARK INTER:                  -3.824
REMARK INTRA:                  -0.117
REMARK UNBOUND:                -0.127
REMARK SMILES O=C([O-])CCC(=O)[O-]
REMARK SMILES IDX 4 1 2 2 1 3 3 4 5 5 6 6 7 7 8 8
REMARK H PARENT
REMARK Flexibility Score: inf
ROOT
ATOM      1  C   UNL     1     116.767 177.786 126.160  1.00  0.00     0.059 C 
ENDROOT
BRANCH   1   2
ATOM      2  C   UNL     1     117.995 177.600 125.325  1.00  0.00     0.042 C 
ATOM      3  O   UNL     1     118.871 176.763 125.666  1.00  0.00    -0.550 OA
ATOM      4  O   UNL     1     118.195 178.387 124.198  1.00  0.00    -0.550 OA
ENDBRANCH   1   2
BRANCH   1   5
ATOM      5  C   UNL     1     115.663 178.462 125.346  1.00  0.00     0.059 C 
BRANCH   5   6
ATOM      6  C   UNL     1     115.408 179.845 125.856  1.00  0.00     0.042 C 
ATOM      7  O   UNL     1     114.557 180.037 126.765  1.00  0.00    -0.550 OA
ATOM      8  O   UNL     1     116.144 180.915 125.364  1.00  0.00    -0.550 OA
ENDBRANCH   5   6
ENDBRANCH   1   5
TORSDOF 3
ENDMDL
