MODEL 1
REMARK VINA RESULT:    -5.252      0.000      0.000
REMARK INTER + INTRA:         -10.664
REMARK INTER:                  -9.551
REMARK INTRA:                  -1.113
REMARK UNBOUND:                -1.113
REMARK SMILES CCCCCCCCCCCCCC[C@@H](C)C(=O)[O-]
REMARK SMILES IDX 9 1 10 2 11 3 12 4 13 5 14 6 15 7 16 8 17 9 18 10 19 11 8 12
REMARK SMILES IDX 7 13 6 14 5 15 4 16 3 17 2 18 1 19
REMARK H PARENT
REMARK Flexibility Score: inf
ROOT
ATOM      1  C   UNL     1      -3.885   8.119   5.226  1.00  0.00     0.000 C 
ENDROOT
BRANCH   1   2
ATOM      2  C   UNL     1      -4.343   8.120   6.698  1.00  0.00     0.000 C 
BRANCH   2   3
ATOM      3  C   UNL     1      -5.233   6.915   7.072  1.00  0.00     0.000 C 
BRANCH   3   4
ATOM      4  C   UNL     1      -5.996   7.145   8.389  1.00  0.00     0.000 C 
BRANCH   4   5
ATOM      5  C   UNL     1      -7.453   6.659   8.319  1.00  0.00     0.001 C 
BRANCH   5   6
ATOM      6  C   UNL     1      -7.854   5.835   9.558  1.00  0.00     0.009 C 
BRANCH   6   7
ATOM      7  C   UNL     1      -8.518   4.490   9.186  1.00  0.00     0.032 C 
ATOM      8  C   UNL     1      -9.086   4.493   7.760  1.00  0.00     0.014 C 
BRANCH   7   9
ATOM      9  C   UNL     1      -7.531   3.366   9.332  1.00  0.00     0.044 C 
ATOM     10  O   UNL     1      -7.898   2.168   9.189  1.00  0.00    -0.550 OA
ATOM     11  O   UNL     1      -6.207   3.643   9.649  1.00  0.00    -0.550 OA
ENDBRANCH   7   9
ENDBRANCH   6   7
ENDBRANCH   5   6
ENDBRANCH   4   5
ENDBRANCH   3   4
ENDBRANCH   2   3
ENDBRANCH   1   2
BRANCH   1  12
ATOM     12  C   UNL     1      -3.984   6.760   4.511  1.00  0.00     0.000 C 
BRANCH  12  13
ATOM     13  C   UNL     1      -2.672   6.355   3.817  1.00  0.00    -0.000 C 
BRANCH  13  14
ATOM     14  C   UNL     1      -1.953   5.195   4.528  1.00  0.00    -0.000 C 
BRANCH  14  15
ATOM     15  C   UNL     1      -2.846   4.305   5.420  1.00  0.00    -0.000 C 
BRANCH  15  16
ATOM     16  C   UNL     1      -2.130   3.107   6.073  1.00  0.00    -0.000 C 
BRANCH  16  17
ATOM     17  C   UNL     1      -2.030   3.204   7.613  1.00  0.00    -0.000 C 
BRANCH  17  18
ATOM     18  C   UNL     1      -0.915   2.329   8.210  1.00  0.00    -0.003 C 
ATOM     19  C   UNL     1      -0.912   2.332   9.738  1.00  0.00     0.004 C 
ENDBRANCH  17  18
ENDBRANCH  16  17
ENDBRANCH  15  16
ENDBRANCH  14  15
ENDBRANCH  13  14
ENDBRANCH  12  13
ENDBRANCH   1  12
TORSDOF 14
ENDMDL
MODEL 2
REMARK VINA RESULT:    -5.103      1.856      3.659
REMARK INTER + INTRA:         -10.392
REMARK INTER:                  -9.371
REMARK INTRA:                  -1.022
REMARK UNBOUND:                -1.113
REMARK SMILES CCCCCCCCCCCCCC[C@@H](C)C(=O)[O-]
REMARK SMILES IDX 9 1 10 2 11 3 12 4 13 5 14 6 15 7 16 8 17 9 18 10 19 11 8 12
REMARK SMILES IDX 7 13 6 14 5 15 4 16 3 17 2 18 1 19
REMARK H PARENT
REMARK Flexibility Score: inf
ROOT
ATOM      1  C   UNL     1      -2.106   5.264   4.608  1.00  0.00     0.000 C 
ENDROOT
BRANCH   1   2
ATOM      2  C   UNL     1      -2.847   6.489   4.037  1.00  0.00     0.000 C 
BRANCH   2   3
ATOM      3  C   UNL     1      -4.167   6.813   4.768  1.00  0.00     0.000 C 
BRANCH   3   4
ATOM      4  C   UNL     1      -4.044   8.060   5.663  1.00  0.00     0.000 C 
BRANCH   4   5
ATOM      5  C   UNL     1      -4.538   7.808   7.097  1.00  0.00     0.001 C 
BRANCH   5   6
ATOM      6  C   UNL     1      -5.515   6.621   7.178  1.00  0.00     0.009 C 
BRANCH   6   7
ATOM      7  C   UNL     1      -6.288   6.578   8.515  1.00  0.00     0.032 C 
ATOM      8  C   UNL     1      -6.021   7.814   9.385  1.00  0.00     0.014 C 
BRANCH   7   9
ATOM      9  C   UNL     1      -7.765   6.455   8.257  1.00  0.00     0.044 C 
ATOM     10  O   UNL     1      -8.235   5.423   7.708  1.00  0.00    -0.550 OA
ATOM     11  O   UNL     1      -8.618   7.495   8.606  1.00  0.00    -0.550 OA
ENDBRANCH   7   9
ENDBRANCH   6   7
ENDBRANCH   5   6
ENDBRANCH   4   5
ENDBRANCH   3   4
ENDBRANCH   2   3
ENDBRANCH   1   2
BRANCH   1  12
ATOM     12  C   UNL     1      -2.905   4.434   5.627  1.00  0.00     0.000 C 
BRANCH  12  13
ATOM     13  C   UNL     1      -2.127   3.209   6.139  1.00  0.00    -0.000 C 
BRANCH  13  14
ATOM     14  C   UNL     1      -1.989   3.186   7.672  1.00  0.00    -0.000 C 
BRANCH  14  15
ATOM     15  C   UNL     1      -0.765   2.422   8.219  1.00  0.00    -0.000 C 
BRANCH  15  16
ATOM     16  C   UNL     1      -0.989   1.707   9.567  1.00  0.00    -0.000 C 
BRANCH  16  17
ATOM     17  C   UNL     1      -0.713   0.186   9.519  1.00  0.00    -0.000 C 
BRANCH  17  18
ATOM     18  C   UNL     1       0.069  -0.255   8.271  1.00  0.00    -0.003 C 
ATOM     19  C   UNL     1      -0.219  -1.700   7.870  1.00  0.00     0.004 C 
ENDBRANCH  17  18
ENDBRANCH  16  17
ENDBRANCH  15  16
ENDBRANCH  14  15
ENDBRANCH  13  14
ENDBRANCH  12  13
ENDBRANCH   1  12
TORSDOF 14
ENDMDL
MODEL 3
REMARK VINA RESULT:    -4.605     14.222     16.217
REMARK INTER + INTRA:          -9.487
REMARK INTER:                  -7.829
REMARK INTRA:                  -1.658
REMARK UNBOUND:                -1.113
REMARK SMILES CCCCCCCCCCCCCC[C@@H](C)C(=O)[O-]
REMARK SMILES IDX 9 1 10 2 11 3 12 4 13 5 14 6 15 7 16 8 17 9 18 10 19 11 8 12
REMARK SMILES IDX 7 13 6 14 5 15 4 16 3 17 2 18 1 19
REMARK H PARENT
REMARK Flexibility Score: inf
ROOT
ATOM      1  C   UNL     1       7.214   5.007  -2.868  1.00  0.00     0.000 C 
ENDROOT
BRANCH   1   2
ATOM      2  C   UNL     1       7.605   4.541  -1.452  1.00  0.00     0.000 C 
BRANCH   2   3
ATOM      3  C   UNL     1       9.095   4.161  -1.312  1.00  0.00     0.000 C 
BRANCH   3   4
ATOM      4  C   UNL     1       9.909   5.259  -0.603  1.00  0.00     0.000 C 
BRANCH   4   5
ATOM      5  C   UNL     1       9.023   6.233   0.189  1.00  0.00     0.001 C 
BRANCH   5   6
ATOM      6  C   UNL     1       9.286   6.160   1.705  1.00  0.00     0.009 C 
BRANCH   6   7
ATOM      7  C   UNL     1       9.681   7.528   2.306  1.00  0.00     0.032 C 
ATOM      8  C   UNL     1       9.033   8.702   1.561  1.00  0.00     0.014 C 
BRANCH   7   9
ATOM      9  C   UNL     1       9.303   7.584   3.760  1.00  0.00     0.044 C 
ATOM     10  O   UNL     1       9.031   8.686   4.309  1.00  0.00    -0.550 OA
ATOM     11  O   UNL     1       9.273   6.418   4.515  1.00  0.00    -0.550 OA
ENDBRANCH   7   9
ENDBRANCH   6   7
ENDBRANCH   5   6
ENDBRANCH   4   5
ENDBRANCH   3   4
ENDBRANCH   2   3
ENDBRANCH   1   2
BRANCH   1  12
ATOM     12  C   UNL     1       7.072   6.530  -3.040  1.00  0.00     0.000 C 
BRANCH  12  13
ATOM     13  C   UNL     1       8.408   7.219  -3.369  1.00  0.00    -0.000 C 
BRANCH  13  14
ATOM     14  C   UNL     1       8.419   8.710  -2.989  1.00  0.00    -0.000 C 
BRANCH  14  15
ATOM     15  C   UNL     1       7.537   9.097  -1.782  1.00  0.00    -0.000 C 
BRANCH  15  16
ATOM     16  C   UNL     1       7.024  10.551  -1.787  1.00  0.00    -0.000 C 
BRANCH  16  17
ATOM     17  C   UNL     1       5.666  10.735  -1.071  1.00  0.00    -0.000 C 
BRANCH  17  18
ATOM     18  C   UNL     1       4.544   9.859  -1.653  1.00  0.00    -0.003 C 
ATOM     19  C   UNL     1       3.628  10.623  -2.607  1.00  0.00     0.004 C 
ENDBRANCH  17  18
ENDBRANCH  16  17
ENDBRANCH  15  16
ENDBRANCH  14  15
ENDBRANCH  13  14
ENDBRANCH  12  13
ENDBRANCH   1  12
TORSDOF 14
ENDMDL
MODEL 4
REMARK VINA RESULT:    -4.547     15.901     17.844
REMARK INTER + INTRA:          -9.382
REMARK INTER:                  -7.519
REMARK INTRA:                  -1.862
REMARK UNBOUND:                -1.113
REMARK SMILES CCCCCCCCCCCCCC[C@@H](C)C(=O)[O-]
REMARK SMILES IDX 9 1 10 2 11 3 12 4 13 5 14 6 15 7 16 8 17 9 18 10 19 11 8 12
REMARK SMILES IDX 7 13 6 14 5 15 4 16 3 17 2 18 1 19
REMARK H PARENT
REMARK Flexibility Score: inf
ROOT
ATOM      1  C   UNL     1      -0.161  -4.346  -6.415  1.00  0.00     0.000 C 
ENDROOT
BRANCH   1   2
ATOM      2  C   UNL     1      -1.406  -4.771  -7.219  1.00  0.00     0.000 C 
BRANCH   2   3
ATOM      3  C   UNL     1      -2.624  -3.846  -7.012  1.00  0.00     0.000 C 
BRANCH   3   4
ATOM      4  C   UNL     1      -3.558  -3.834  -8.237  1.00  0.00     0.000 C 
BRANCH   4   5
ATOM      5  C   UNL     1      -5.034  -3.647  -7.852  1.00  0.00     0.001 C 
BRANCH   5   6
ATOM      6  C   UNL     1      -5.585  -4.843  -7.053  1.00  0.00     0.009 C 
BRANCH   6   7
ATOM      7  C   UNL     1      -6.113  -4.434  -5.660  1.00  0.00     0.032 C 
ATOM      8  C   UNL     1      -6.721  -3.025  -5.656  1.00  0.00     0.014 C 
BRANCH   7   9
ATOM      9  C   UNL     1      -7.138  -5.426  -5.182  1.00  0.00     0.044 C 
ATOM     10  O   UNL     1      -8.315  -5.056  -4.923  1.00  0.00    -0.550 OA
ATOM     11  O   UNL     1      -6.784  -6.757  -5.002  1.00  0.00    -0.550 OA
ENDBRANCH   7   9
ENDBRANCH   6   7
ENDBRANCH   5   6
ENDBRANCH   4   5
ENDBRANCH   3   4
ENDBRANCH   2   3
ENDBRANCH   1   2
BRANCH   1  12
ATOM     12  C   UNL     1       1.012  -5.341  -6.452  1.00  0.00     0.000 C 
BRANCH  12  13
ATOM     13  C   UNL     1       2.086  -4.957  -7.484  1.00  0.00    -0.000 C 
BRANCH  13  14
ATOM     14  C   UNL     1       1.802  -5.530  -8.884  1.00  0.00    -0.000 C 
BRANCH  14  15
ATOM     15  C   UNL     1       1.292  -4.514  -9.928  1.00  0.00    -0.000 C 
BRANCH  15  16
ATOM     16  C   UNL     1       1.321  -3.041  -9.476  1.00  0.00    -0.000 C 
BRANCH  16  17
ATOM     17  C   UNL     1      -0.039  -2.318  -9.616  1.00  0.00    -0.000 C 
BRANCH  17  18
ATOM     18  C   UNL     1      -0.279  -1.253  -8.533  1.00  0.00    -0.003 C 
ATOM     19  C   UNL     1      -1.632  -0.556  -8.676  1.00  0.00     0.004 C 
ENDBRANCH  17  18
ENDBRANCH  16  17
ENDBRANCH  15  16
ENDBRANCH  14  15
ENDBRANCH  13  14
ENDBRANCH  12  13
ENDBRANCH   1  12
TORSDOF 14
ENDMDL
MODEL 5
REMARK VINA RESULT:    -4.546     16.767     18.211
REMARK INTER + INTRA:          -9.381
REMARK INTER:                  -7.152
REMARK INTRA:                  -2.228
REMARK UNBOUND:                -1.113
REMARK SMILES CCCCCCCCCCCCCC[C@@H](C)C(=O)[O-]
REMARK SMILES IDX 9 1 10 2 11 3 12 4 13 5 14 6 15 7 16 8 17 9 18 10 19 11 8 12
REMARK SMILES IDX 7 13 6 14 5 15 4 16 3 17 2 18 1 19
REMARK H PARENT
REMARK Flexibility Score: inf
ROOT
ATOM      1  C   UNL     1      -1.393  -2.670  -7.243  1.00  0.00     0.000 C 
ENDROOT
BRANCH   1   2
ATOM      2  C   UNL     1      -2.272  -3.928  -7.103  1.00  0.00     0.000 C 
BRANCH   2   3
ATOM      3  C   UNL     1      -2.837  -4.444  -8.443  1.00  0.00     0.000 C 
BRANCH   3   4
ATOM      4  C   UNL     1      -2.933  -5.980  -8.480  1.00  0.00     0.000 C 
BRANCH   4   5
ATOM      5  C   UNL     1      -4.381  -6.478  -8.613  1.00  0.00     0.001 C 
BRANCH   5   6
ATOM      6  C   UNL     1      -5.409  -5.384  -8.266  1.00  0.00     0.009 C 
BRANCH   6   7
ATOM      7  C   UNL     1      -6.481  -5.872  -7.266  1.00  0.00     0.032 C 
ATOM      8  C   UNL     1      -6.355  -7.371  -6.959  1.00  0.00     0.014 C 
BRANCH   7   9
ATOM      9  C   UNL     1      -6.392  -5.088  -5.985  1.00  0.00     0.044 C 
ATOM     10  O   UNL     1      -5.548  -4.160  -5.860  1.00  0.00    -0.550 OA
ATOM     11  O   UNL     1      -7.229  -5.400  -4.922  1.00  0.00    -0.550 OA
ENDBRANCH   7   9
ENDBRANCH   6   7
ENDBRANCH   5   6
ENDBRANCH   4   5
ENDBRANCH   3   4
ENDBRANCH   2   3
ENDBRANCH   1   2
BRANCH   1  12
ATOM     12  C   UNL     1      -1.297  -2.095  -8.667  1.00  0.00     0.000 C 
BRANCH  12  13
ATOM     13  C   UNL     1       0.078  -1.474  -8.968  1.00  0.00    -0.000 C 
BRANCH  13  14
ATOM     14  C   UNL     1       1.150  -2.527  -9.298  1.00  0.00    -0.000 C 
BRANCH  14  15
ATOM     15  C   UNL     1       0.617  -3.877  -9.826  1.00  0.00    -0.000 C 
BRANCH  15  16
ATOM     16  C   UNL     1       0.987  -5.106  -8.972  1.00  0.00    -0.000 C 
BRANCH  16  17
ATOM     17  C   UNL     1       1.830  -4.765  -7.721  1.00  0.00    -0.000 C 
BRANCH  17  18
ATOM     18  C   UNL     1       1.194  -5.247  -6.406  1.00  0.00    -0.003 C 
ATOM     19  C   UNL     1       0.291  -6.465  -6.595  1.00  0.00     0.004 C 
ENDBRANCH  17  18
ENDBRANCH  16  17
ENDBRANCH  15  16
ENDBRANCH  14  15
ENDBRANCH  13  14
ENDBRANCH  12  13
ENDBRANCH   1  12
TORSDOF 14
ENDMDL
MODEL 6
REMARK VINA RESULT:    -4.430     16.591     19.200
REMARK INTER + INTRA:          -9.168
REMARK INTER:                  -7.179
REMARK INTRA:                  -1.990
REMARK UNBOUND:                -1.113
REMARK SMILES CCCCCCCCCCCCCC[C@@H](C)C(=O)[O-]
REMARK SMILES IDX 9 1 10 2 11 3 12 4 13 5 14 6 15 7 16 8 17 9 18 10 19 11 8 12
REMARK SMILES IDX 7 13 6 14 5 15 4 16 3 17 2 18 1 19
REMARK H PARENT
REMARK Flexibility Score: inf
ROOT
ATOM      1  C   UNL     1      -2.308  -3.924  -7.089  1.00  0.00     0.000 C 
ENDROOT
BRANCH   1   2
ATOM      2  C   UNL     1      -1.227  -2.825  -7.063  1.00  0.00     0.000 C 
BRANCH   2   3
ATOM      3  C   UNL     1      -1.024  -2.122  -8.423  1.00  0.00     0.000 C 
BRANCH   3   4
ATOM      4  C   UNL     1       0.461  -2.053  -8.823  1.00  0.00     0.000 C 
BRANCH   4   5
ATOM      5  C   UNL     1       0.896  -3.248  -9.687  1.00  0.00     0.001 C 
BRANCH   5   6
ATOM      6  C   UNL     1       1.700  -4.288  -8.883  1.00  0.00     0.009 C 
BRANCH   6   7
ATOM      7  C   UNL     1       0.828  -5.467  -8.397  1.00  0.00     0.032 C 
ATOM      8  C   UNL     1       1.049  -6.738  -9.227  1.00  0.00     0.014 C 
BRANCH   7   9
ATOM      9  C   UNL     1       1.109  -5.757  -6.948  1.00  0.00     0.044 C 
ATOM     10  O   UNL     1       0.261  -6.366  -6.241  1.00  0.00    -0.550 OA
ATOM     11  O   UNL     1       2.302  -5.334  -6.376  1.00  0.00    -0.550 OA
ENDBRANCH   7   9
ENDBRANCH   6   7
ENDBRANCH   5   6
ENDBRANCH   4   5
ENDBRANCH   3   4
ENDBRANCH   2   3
ENDBRANCH   1   2
BRANCH   1  12
ATOM     12  C   UNL     1      -2.649  -4.472  -8.486  1.00  0.00     0.000 C 
BRANCH  12  13
ATOM     13  C   UNL     1      -2.786  -6.004  -8.507  1.00  0.00    -0.000 C 
BRANCH  13  14
ATOM     14  C   UNL     1      -4.204  -6.472  -8.881  1.00  0.00    -0.000 C 
BRANCH  14  15
ATOM     15  C   UNL     1      -5.308  -5.398  -8.778  1.00  0.00    -0.000 C 
BRANCH  15  16
ATOM     16  C   UNL     1      -6.504  -5.773  -7.881  1.00  0.00    -0.000 C 
BRANCH  16  17
ATOM     17  C   UNL     1      -6.257  -5.522  -6.375  1.00  0.00    -0.000 C 
BRANCH  17  18
ATOM     18  C   UNL     1      -5.719  -4.114  -6.070  1.00  0.00    -0.003 C 
ATOM     19  C   UNL     1      -6.807  -3.153  -5.596  1.00  0.00     0.004 C 
ENDBRANCH  17  18
ENDBRANCH  16  17
ENDBRANCH  15  16
ENDBRANCH  14  15
ENDBRANCH  13  14
ENDBRANCH  12  13
ENDBRANCH   1  12
TORSDOF 14
ENDMDL
MODEL 7
REMARK VINA RESULT:    -4.398     16.469     18.990
REMARK INTER + INTRA:          -9.110
REMARK INTER:                  -6.814
REMARK INTRA:                  -2.296
REMARK UNBOUND:                -1.113
REMARK SMILES CCCCCCCCCCCCCC[C@@H](C)C(=O)[O-]
REMARK SMILES IDX 9 1 10 2 11 3 12 4 13 5 14 6 15 7 16 8 17 9 18 10 19 11 8 12
REMARK SMILES IDX 7 13 6 14 5 15 4 16 3 17 2 18 1 19
REMARK H PARENT
REMARK Flexibility Score: inf
ROOT
ATOM      1  C   UNL     1       1.546  -5.408  -6.853  1.00  0.00     0.000 C 
ENDROOT
BRANCH   1   2
ATOM      2  C   UNL     1       0.243  -6.080  -6.376  1.00  0.00     0.000 C 
BRANCH   2   3
ATOM      3  C   UNL     1      -0.143  -7.333  -7.190  1.00  0.00     0.000 C 
BRANCH   3   4
ATOM      4  C   UNL     1      -0.507  -6.990  -8.646  1.00  0.00     0.000 C 
BRANCH   4   5
ATOM      5  C   UNL     1      -1.958  -6.506  -8.794  1.00  0.00     0.001 C 
BRANCH   5   6
ATOM      6  C   UNL     1      -2.048  -4.981  -8.994  1.00  0.00     0.009 C 
BRANCH   6   7
ATOM      7  C   UNL     1      -2.937  -4.294  -7.933  1.00  0.00     0.032 C 
ATOM      8  C   UNL     1      -2.121  -3.448  -6.946  1.00  0.00     0.014 C 
BRANCH   7   9
ATOM      9  C   UNL     1      -3.968  -3.429  -8.602  1.00  0.00     0.044 C 
ATOM     10  O   UNL     1      -3.713  -2.858  -9.697  1.00  0.00    -0.550 OA
ATOM     11  O   UNL     1      -5.206  -3.236  -8.002  1.00  0.00    -0.550 OA
ENDBRANCH   7   9
ENDBRANCH   6   7
ENDBRANCH   5   6
ENDBRANCH   4   5
ENDBRANCH   3   4
ENDBRANCH   2   3
ENDBRANCH   1   2
BRANCH   1  12
ATOM     12  C   UNL     1       1.362  -4.055  -7.561  1.00  0.00     0.000 C 
BRANCH  12  13
ATOM     13  C   UNL     1       1.655  -4.126  -9.069  1.00  0.00    -0.000 C 
BRANCH  13  14
ATOM     14  C   UNL     1       1.069  -2.936  -9.849  1.00  0.00    -0.000 C 
BRANCH  14  15
ATOM     15  C   UNL     1       0.554  -1.764  -8.987  1.00  0.00    -0.000 C 
BRANCH  15  16
ATOM     16  C   UNL     1      -0.707  -1.060  -9.526  1.00  0.00    -0.000 C 
BRANCH  16  17
ATOM     17  C   UNL     1      -1.462  -0.230  -8.462  1.00  0.00    -0.000 C 
BRANCH  17  18
ATOM     18  C   UNL     1      -2.652   0.559  -9.032  1.00  0.00    -0.003 C 
ATOM     19  C   UNL     1      -2.993   1.798  -8.206  1.00  0.00     0.004 C 
ENDBRANCH  17  18
ENDBRANCH  16  17
ENDBRANCH  15  16
ENDBRANCH  14  15
ENDBRANCH  13  14
ENDBRANCH  12  13
ENDBRANCH   1  12
TORSDOF 14
ENDMDL
MODEL 8
REMARK VINA RESULT:    -4.395     16.558     18.635
REMARK INTER + INTRA:          -9.106
REMARK INTER:                  -6.835
REMARK INTRA:                  -2.271
REMARK UNBOUND:                -1.113
REMARK SMILES CCCCCCCCCCCCCC[C@@H](C)C(=O)[O-]
REMARK SMILES IDX 9 1 10 2 11 3 12 4 13 5 14 6 15 7 16 8 17 9 18 10 19 11 8 12
REMARK SMILES IDX 7 13 6 14 5 15 4 16 3 17 2 18 1 19
REMARK H PARENT
REMARK Flexibility Score: inf
ROOT
ATOM      1  C   UNL     1      -0.113  -5.716  -6.370  1.00  0.00     0.000 C 
ENDROOT
BRANCH   1   2
ATOM      2  C   UNL     1      -0.103  -7.045  -7.151  1.00  0.00     0.000 C 
BRANCH   2   3
ATOM      3  C   UNL     1      -1.171  -7.120  -8.262  1.00  0.00     0.000 C 
BRANCH   3   4
ATOM      4  C   UNL     1      -2.112  -5.901  -8.246  1.00  0.00     0.000 C 
BRANCH   4   5
ATOM      5  C   UNL     1      -3.372  -6.116  -9.100  1.00  0.00     0.001 C 
BRANCH   5   6
ATOM      6  C   UNL     1      -4.667  -5.947  -8.283  1.00  0.00     0.009 C 
BRANCH   6   7
ATOM      7  C   UNL     1      -4.702  -4.619  -7.494  1.00  0.00     0.032 C 
ATOM      8  C   UNL     1      -4.978  -3.409  -8.396  1.00  0.00     0.014 C 
BRANCH   7   9
ATOM      9  C   UNL     1      -5.744  -4.686  -6.411  1.00  0.00     0.044 C 
ATOM     10  O   UNL     1      -6.452  -5.719  -6.267  1.00  0.00    -0.550 OA
ATOM     11  O   UNL     1      -5.946  -3.596  -5.575  1.00  0.00    -0.550 OA
ENDBRANCH   7   9
ENDBRANCH   6   7
ENDBRANCH   5   6
ENDBRANCH   4   5
ENDBRANCH   3   4
ENDBRANCH   2   3
ENDBRANCH   1   2
BRANCH   1  12
ATOM     12  C   UNL     1       1.086  -4.790  -6.639  1.00  0.00     0.000 C 
BRANCH  12  13
ATOM     13  C   UNL     1       2.106  -5.404  -7.613  1.00  0.00    -0.000 C 
BRANCH  13  14
ATOM     14  C   UNL     1       2.154  -4.673  -8.967  1.00  0.00    -0.000 C 
BRANCH  14  15
ATOM     15  C   UNL     1       0.872  -3.906  -9.354  1.00  0.00    -0.000 C 
BRANCH  15  16
ATOM     16  C   UNL     1       1.023  -2.373  -9.424  1.00  0.00    -0.000 C 
BRANCH  16  17
ATOM     17  C   UNL     1      -0.039  -1.604  -8.605  1.00  0.00    -0.000 C 
BRANCH  17  18
ATOM     18  C   UNL     1      -1.316  -2.418  -8.341  1.00  0.00    -0.003 C 
ATOM     19  C   UNL     1      -1.655  -2.526  -6.856  1.00  0.00     0.004 C 
ENDBRANCH  17  18
ENDBRANCH  16  17
ENDBRANCH  15  16
ENDBRANCH  14  15
ENDBRANCH  13  14
ENDBRANCH  12  13
ENDBRANCH   1  12
TORSDOF 14
ENDMDL
MODEL 9
REMARK VINA RESULT:    -4.368     17.323     19.407
REMARK INTER + INTRA:          -9.056
REMARK INTER:                  -6.623
REMARK INTRA:                  -2.434
REMARK UNBOUND:                -1.113
REMARK SMILES CCCCCCCCCCCCCC[C@@H](C)C(=O)[O-]
REMARK SMILES IDX 9 1 10 2 11 3 12 4 13 5 14 6 15 7 16 8 17 9 18 10 19 11 8 12
REMARK SMILES IDX 7 13 6 14 5 15 4 16 3 17 2 18 1 19
REMARK H PARENT
REMARK Flexibility Score: inf
ROOT
ATOM      1  C   UNL     1       0.236  -5.845  -6.319  1.00  0.00     0.000 C 
ENDROOT
BRANCH   1   2
ATOM      2  C   UNL     1       1.493  -5.001  -6.606  1.00  0.00     0.000 C 
BRANCH   2   3
ATOM      3  C   UNL     1       2.186  -5.352  -7.940  1.00  0.00     0.000 C 
BRANCH   3   4
ATOM      4  C   UNL     1       1.662  -4.497  -9.108  1.00  0.00     0.000 C 
BRANCH   4   5
ATOM      5  C   UNL     1       1.023  -3.182  -8.637  1.00  0.00     0.001 C 
BRANCH   5   6
ATOM      6  C   UNL     1      -0.131  -2.732  -9.554  1.00  0.00     0.009 C 
BRANCH   6   7
ATOM      7  C   UNL     1      -1.357  -2.228  -8.761  1.00  0.00     0.032 C 
ATOM      8  C   UNL     1      -1.372  -2.745  -7.316  1.00  0.00     0.014 C 
BRANCH   7   9
ATOM      9  C   UNL     1      -1.390  -0.724  -8.756  1.00  0.00     0.044 C 
ATOM     10  O   UNL     1      -1.096  -0.080  -7.713  1.00  0.00    -0.550 OA
ATOM     11  O   UNL     1      -1.768  -0.036  -9.902  1.00  0.00    -0.550 OA
ENDBRANCH   7   9
ENDBRANCH   6   7
ENDBRANCH   5   6
ENDBRANCH   4   5
ENDBRANCH   3   4
ENDBRANCH   2   3
ENDBRANCH   1   2
BRANCH   1  12
ATOM     12  C   UNL     1       0.224  -7.241  -6.967  1.00  0.00     0.000 C 
BRANCH  12  13
ATOM     13  C   UNL     1      -0.673  -7.311  -8.215  1.00  0.00    -0.000 C 
BRANCH  13  14
ATOM     14  C   UNL     1      -1.627  -6.109  -8.333  1.00  0.00    -0.000 C 
BRANCH  14  15
ATOM     15  C   UNL     1      -2.358  -5.971  -9.686  1.00  0.00    -0.000 C 
BRANCH  15  16
ATOM     16  C   UNL     1      -3.581  -5.031  -9.675  1.00  0.00    -0.000 C 
BRANCH  16  17
ATOM     17  C   UNL     1      -4.546  -5.277  -8.492  1.00  0.00    -0.000 C 
BRANCH  17  18
ATOM     18  C   UNL     1      -4.826  -4.015  -7.660  1.00  0.00    -0.003 C 
ATOM     19  C   UNL     1      -5.520  -2.916  -8.463  1.00  0.00     0.004 C 
ENDBRANCH  17  18
ENDBRANCH  16  17
ENDBRANCH  15  16
ENDBRANCH  14  15
ENDBRANCH  13  14
ENDBRANCH  12  13
ENDBRANCH   1  12
TORSDOF 14
ENDMDL
