MODEL 1
REMARK VINA RESULT:    -3.880      0.000      0.000
REMARK INTER + INTRA:          -7.287
REMARK INTER:                  -6.148
REMARK INTRA:                  -1.139
REMARK UNBOUND:                -1.139
REMARK SMILES CCCCCCCCCCCC(=O)[O-]
REMARK SMILES IDX 7 1 8 2 9 3 10 4 11 5 12 6 13 7 14 8 6 9 5 10 4 11 3 12 2 13
REMARK SMILES IDX 1 14
REMARK H PARENT
REMARK Flexibility Score: inf
ROOT
ATOM      1  C   UNL     1     -10.348   3.372   6.265  1.00  0.00     0.000 C 
ENDROOT
BRANCH   1   2
ATOM      2  C   UNL     1      -8.926   3.950   6.351  1.00  0.00     0.000 C 
BRANCH   2   3
ATOM      3  C   UNL     1      -8.088   3.639   5.099  1.00  0.00     0.000 C 
BRANCH   3   4
ATOM      4  C   UNL     1      -6.967   2.624   5.377  1.00  0.00     0.006 C 
BRANCH   4   5
ATOM      5  C   UNL     1      -6.638   2.501   6.871  1.00  0.00     0.053 C 
BRANCH   5   6
ATOM      6  C   UNL     1      -5.157   2.445   7.075  1.00  0.00     0.041 C 
ATOM      7  O   UNL     1      -4.513   1.412   6.756  1.00  0.00    -0.550 OA
ATOM      8  O   UNL     1      -4.495   3.515   7.663  1.00  0.00    -0.550 OA
ENDBRANCH   5   6
ENDBRANCH   4   5
ENDBRANCH   3   4
ENDBRANCH   2   3
ENDBRANCH   1   2
BRANCH   1   9
ATOM      9  C   UNL     1     -10.680   2.818   4.869  1.00  0.00     0.000 C 
BRANCH   9  10
ATOM     10  C   UNL     1     -10.966   1.304   4.880  1.00  0.00    -0.000 C 
BRANCH  10  11
ATOM     11  C   UNL     1     -10.077   0.483   5.831  1.00  0.00    -0.000 C 
BRANCH  11  12
ATOM     12  C   UNL     1      -9.732  -0.936   5.340  1.00  0.00    -0.000 C 
BRANCH  12  13
ATOM     13  C   UNL     1      -9.491  -1.026   3.818  1.00  0.00    -0.003 C 
ATOM     14  C   UNL     1      -8.186  -0.358   3.387  1.00  0.00     0.004 C 
ENDBRANCH  12  13
ENDBRANCH  11  12
ENDBRANCH  10  11
ENDBRANCH   9  10
ENDBRANCH   1   9
TORSDOF 10
ENDMDL
MODEL 2
REMARK VINA RESULT:    -3.783      1.624      1.892
REMARK INTER + INTRA:          -7.134
REMARK INTER:                  -5.941
REMARK INTRA:                  -1.192
REMARK UNBOUND:                -1.139
REMARK SMILES CCCCCCCCCCCC(=O)[O-]
REMARK SMILES IDX 7 1 8 2 9 3 10 4 11 5 12 6 13 7 14 8 6 9 5 10 4 11 3 12 2 13
REMARK SMILES IDX 1 14
REMARK H PARENT
REMARK Flexibility Score: inf
ROOT
ATOM      1  C   UNL     1     -10.238   3.914   4.867  1.00  0.00     0.000 C 
ENDROOT
BRANCH   1   2
ATOM      2  C   UNL     1      -8.867   4.182   5.510  1.00  0.00     0.000 C 
BRANCH   2   3
ATOM      3  C   UNL     1      -7.793   3.185   5.041  1.00  0.00     0.000 C 
BRANCH   3   4
ATOM      4  C   UNL     1      -7.110   2.461   6.214  1.00  0.00     0.006 C 
BRANCH   4   5
ATOM      5  C   UNL     1      -7.949   2.492   7.498  1.00  0.00     0.053 C 
BRANCH   5   6
ATOM      6  C   UNL     1      -7.450   1.471   8.470  1.00  0.00     0.041 C 
ATOM      7  O   UNL     1      -6.557   1.773   9.305  1.00  0.00    -0.550 OA
ATOM      8  O   UNL     1      -7.936   0.170   8.423  1.00  0.00    -0.550 OA
ENDBRANCH   5   6
ENDBRANCH   4   5
ENDBRANCH   3   4
ENDBRANCH   2   3
ENDBRANCH   1   2
BRANCH   1   9
ATOM      9  C   UNL     1     -11.016   2.792   5.576  1.00  0.00     0.000 C 
BRANCH   9  10
ATOM     10  C   UNL     1     -10.960   1.454   4.816  1.00  0.00    -0.000 C 
BRANCH  10  11
ATOM     11  C   UNL     1     -10.852   0.204   5.708  1.00  0.00    -0.000 C 
BRANCH  11  12
ATOM     12  C   UNL     1      -9.677  -0.736   5.377  1.00  0.00    -0.000 C 
BRANCH  12  13
ATOM     13  C   UNL     1      -9.476  -0.971   3.865  1.00  0.00    -0.003 C 
ATOM     14  C   UNL     1      -8.207  -0.309   3.329  1.00  0.00     0.004 C 
ENDBRANCH  12  13
ENDBRANCH  11  12
ENDBRANCH  10  11
ENDBRANCH   9  10
ENDBRANCH   1   9
TORSDOF 10
ENDMDL
MODEL 3
REMARK VINA RESULT:    -3.712      1.428      2.032
REMARK INTER + INTRA:          -7.022
REMARK INTER:                  -5.829
REMARK INTRA:                  -1.193
REMARK UNBOUND:                -1.139
REMARK SMILES CCCCCCCCCCCC(=O)[O-]
REMARK SMILES IDX 7 1 8 2 9 3 10 4 11 5 12 6 13 7 14 8 6 9 5 10 4 11 3 12 2 13
REMARK SMILES IDX 1 14
REMARK H PARENT
REMARK Flexibility Score: inf
ROOT
ATOM      1  C   UNL     1     -11.367   2.907   6.534  1.00  0.00     0.000 C 
ENDROOT
BRANCH   1   2
ATOM      2  C   UNL     1     -10.699   3.260   5.195  1.00  0.00     0.000 C 
BRANCH   2   3
ATOM      3  C   UNL     1      -9.819   4.518   5.290  1.00  0.00     0.000 C 
BRANCH   3   4
ATOM      4  C   UNL     1      -8.325   4.207   5.108  1.00  0.00     0.006 C 
BRANCH   4   5
ATOM      5  C   UNL     1      -8.009   2.712   5.255  1.00  0.00     0.053 C 
BRANCH   5   6
ATOM      6  C   UNL     1      -7.256   2.461   6.522  1.00  0.00     0.041 C 
ATOM      7  O   UNL     1      -7.807   2.659   7.637  1.00  0.00    -0.550 OA
ATOM      8  O   UNL     1      -5.928   2.055   6.473  1.00  0.00    -0.550 OA
ENDBRANCH   5   6
ENDBRANCH   4   5
ENDBRANCH   3   4
ENDBRANCH   2   3
ENDBRANCH   1   2
BRANCH   1   9
ATOM      9  C   UNL     1     -11.735   1.416   6.639  1.00  0.00     0.000 C 
BRANCH   9  10
ATOM     10  C   UNL     1     -10.658   0.585   7.361  1.00  0.00    -0.000 C 
BRANCH  10  11
ATOM     11  C   UNL     1      -9.986  -0.497   6.497  1.00  0.00    -0.000 C 
BRANCH  11  12
ATOM     12  C   UNL     1     -10.199  -0.346   4.978  1.00  0.00    -0.000 C 
BRANCH  12  13
ATOM     13  C   UNL     1      -9.268  -1.235   4.128  1.00  0.00    -0.003 C 
ATOM     14  C   UNL     1      -8.242  -0.426   3.335  1.00  0.00     0.004 C 
ENDBRANCH  12  13
ENDBRANCH  11  12
ENDBRANCH  10  11
ENDBRANCH   9  10
ENDBRANCH   1   9
TORSDOF 10
ENDMDL
MODEL 4
REMARK VINA RESULT:    -3.648     14.332     15.986
REMARK INTER + INTRA:          -6.920
REMARK INTER:                  -6.113
REMARK INTRA:                  -0.807
REMARK UNBOUND:                -1.139
REMARK SMILES CCCCCCCCCCCC(=O)[O-]
REMARK SMILES IDX 7 1 8 2 9 3 10 4 11 5 12 6 13 7 14 8 6 9 5 10 4 11 3 12 2 13
REMARK SMILES IDX 1 14
REMARK H PARENT
REMARK Flexibility Score: inf
ROOT
ATOM      1  C   UNL     1      -2.193 -11.776   5.912  1.00  0.00     0.000 C 
ENDROOT
BRANCH   1   2
ATOM      2  C   UNL     1      -2.508 -10.527   6.751  1.00  0.00     0.000 C 
BRANCH   2   3
ATOM      3  C   UNL     1      -2.155  -9.222   6.018  1.00  0.00     0.000 C 
BRANCH   3   4
ATOM      4  C   UNL     1      -1.104  -8.390   6.771  1.00  0.00     0.006 C 
BRANCH   4   5
ATOM      5  C   UNL     1       0.289  -9.032   6.745  1.00  0.00     0.053 C 
BRANCH   5   6
ATOM      6  C   UNL     1       0.779  -9.272   8.138  1.00  0.00     0.041 C 
ATOM      7  O   UNL     1       1.338 -10.360   8.434  1.00  0.00    -0.550 OA
ATOM      8  O   UNL     1       0.574  -8.313   9.121  1.00  0.00    -0.550 OA
ENDBRANCH   5   6
ENDBRANCH   4   5
ENDBRANCH   3   4
ENDBRANCH   2   3
ENDBRANCH   1   2
BRANCH   1   9
ATOM      9  C   UNL     1      -1.049 -12.617   6.505  1.00  0.00     0.000 C 
BRANCH   9  10
ATOM     10  C   UNL     1       0.134 -12.786   5.534  1.00  0.00    -0.000 C 
BRANCH  10  11
ATOM     11  C   UNL     1       1.475 -13.143   6.200  1.00  0.00    -0.000 C 
BRANCH  11  12
ATOM     12  C   UNL     1       2.275 -14.259   5.502  1.00  0.00    -0.000 C 
BRANCH  12  13
ATOM     13  C   UNL     1       3.786 -14.228   5.811  1.00  0.00    -0.003 C 
ATOM     14  C   UNL     1       4.213 -12.955   6.543  1.00  0.00     0.004 C 
ENDBRANCH  12  13
ENDBRANCH  11  12
ENDBRANCH  10  11
ENDBRANCH   9  10
ENDBRANCH   1   9
TORSDOF 10
ENDMDL
MODEL 5
REMARK VINA RESULT:    -3.647     13.630     15.485
REMARK INTER + INTRA:          -6.918
REMARK INTER:                  -5.458
REMARK INTRA:                  -1.461
REMARK UNBOUND:                -1.139
REMARK SMILES CCCCCCCCCCCC(=O)[O-]
REMARK SMILES IDX 7 1 8 2 9 3 10 4 11 5 12 6 13 7 14 8 6 9 5 10 4 11 3 12 2 13
REMARK SMILES IDX 1 14
REMARK H PARENT
REMARK Flexibility Score: inf
ROOT
ATOM      1  C   UNL     1      -2.827 -10.689   7.787  1.00  0.00     0.000 C 
ENDROOT
BRANCH   1   2
ATOM      2  C   UNL     1      -2.205 -11.951   7.168  1.00  0.00     0.000 C 
BRANCH   2   3
ATOM      3  C   UNL     1      -1.782 -11.742   5.704  1.00  0.00     0.000 C 
BRANCH   3   4
ATOM      4  C   UNL     1      -0.300 -12.073   5.466  1.00  0.00     0.006 C 
BRANCH   4   5
ATOM      5  C   UNL     1       0.373 -12.695   6.697  1.00  0.00     0.053 C 
BRANCH   5   6
ATOM      6  C   UNL     1       1.853 -12.778   6.495  1.00  0.00     0.041 C 
ATOM      7  O   UNL     1       2.344 -13.686   5.776  1.00  0.00    -0.550 OA
ATOM      8  O   UNL     1       2.694 -11.880   7.141  1.00  0.00    -0.550 OA
ENDBRANCH   5   6
ENDBRANCH   4   5
ENDBRANCH   3   4
ENDBRANCH   2   3
ENDBRANCH   1   2
BRANCH   1   9
ATOM      9  C   UNL     1      -2.811  -9.488   6.825  1.00  0.00     0.000 C 
BRANCH   9  10
ATOM     10  C   UNL     1      -1.805  -8.400   7.245  1.00  0.00    -0.000 C 
BRANCH  10  11
ATOM     11  C   UNL     1      -0.426  -8.497   6.568  1.00  0.00    -0.000 C 
BRANCH  11  12
ATOM     12  C   UNL     1       0.767  -8.639   7.533  1.00  0.00    -0.000 C 
BRANCH  12  13
ATOM     13  C   UNL     1       0.485  -9.561   8.738  1.00  0.00    -0.003 C 
ATOM     14  C   UNL     1       0.526  -8.816  10.073  1.00  0.00     0.004 C 
ENDBRANCH  12  13
ENDBRANCH  11  12
ENDBRANCH  10  11
ENDBRANCH   9  10
ENDBRANCH   1   9
TORSDOF 10
ENDMDL
MODEL 6
REMARK VINA RESULT:    -3.640     12.869     14.376
REMARK INTER + INTRA:          -6.907
REMARK INTER:                  -5.698
REMARK INTRA:                  -1.209
REMARK UNBOUND:                -1.139
REMARK SMILES CCCCCCCCCCCC(=O)[O-]
REMARK SMILES IDX 7 1 8 2 9 3 10 4 11 5 12 6 13 7 14 8 6 9 5 10 4 11 3 12 2 13
REMARK SMILES IDX 1 14
REMARK H PARENT
REMARK Flexibility Score: inf
ROOT
ATOM      1  C   UNL     1      -2.824  -9.523   8.304  1.00  0.00     0.000 C 
ENDROOT
BRANCH   1   2
ATOM      2  C   UNL     1      -2.894  -8.876   6.912  1.00  0.00     0.000 C 
BRANCH   2   3
ATOM      3  C   UNL     1      -1.590  -8.153   6.532  1.00  0.00     0.000 C 
BRANCH   3   4
ATOM      4  C   UNL     1      -0.400  -9.117   6.397  1.00  0.00     0.006 C 
BRANCH   4   5
ATOM      5  C   UNL     1       0.845  -8.630   7.150  1.00  0.00     0.053 C 
BRANCH   5   6
ATOM      6  C   UNL     1       0.795  -9.072   8.579  1.00  0.00     0.041 C 
ATOM      7  O   UNL     1       1.063 -10.263   8.883  1.00  0.00    -0.550 OA
ATOM      8  O   UNL     1       0.404  -8.179   9.569  1.00  0.00    -0.550 OA
ENDBRANCH   5   6
ENDBRANCH   4   5
ENDBRANCH   3   4
ENDBRANCH   2   3
ENDBRANCH   1   2
BRANCH   1   9
ATOM      9  C   UNL     1      -3.215 -11.011   8.287  1.00  0.00     0.000 C 
BRANCH   9  10
ATOM     10  C   UNL     1      -3.485 -11.542   6.867  1.00  0.00    -0.000 C 
BRANCH  10  11
ATOM     11  C   UNL     1      -2.588 -12.714   6.431  1.00  0.00    -0.000 C 
BRANCH  11  12
ATOM     12  C   UNL     1      -1.106 -12.588   6.834  1.00  0.00    -0.000 C 
BRANCH  12  13
ATOM     13  C   UNL     1      -0.132 -12.611   5.638  1.00  0.00    -0.003 C 
ATOM     14  C   UNL     1       1.209 -13.259   5.982  1.00  0.00     0.004 C 
ENDBRANCH  12  13
ENDBRANCH  11  12
ENDBRANCH  10  11
ENDBRANCH   9  10
ENDBRANCH   1   9
TORSDOF 10
ENDMDL
MODEL 7
REMARK VINA RESULT:    -3.552      2.178      2.964
REMARK INTER + INTRA:          -6.767
REMARK INTER:                  -5.387
REMARK INTRA:                  -1.380
REMARK UNBOUND:                -1.139
REMARK SMILES CCCCCCCCCCCC(=O)[O-]
REMARK SMILES IDX 7 1 8 2 9 3 10 4 11 5 12 6 13 7 14 8 6 9 5 10 4 11 3 12 2 13
REMARK SMILES IDX 1 14
REMARK H PARENT
REMARK Flexibility Score: inf
ROOT
ATOM      1  C   UNL     1     -10.982   1.229   8.614  1.00  0.00     0.000 C 
ENDROOT
BRANCH   1   2
ATOM      2  C   UNL     1      -9.844   0.205   8.475  1.00  0.00     0.000 C 
BRANCH   2   3
ATOM      3  C   UNL     1      -8.511   0.859   8.074  1.00  0.00     0.000 C 
BRANCH   3   4
ATOM      4  C   UNL     1      -8.706   2.213   7.373  1.00  0.00     0.006 C 
BRANCH   4   5
ATOM      5  C   UNL     1      -7.382   2.948   7.126  1.00  0.00     0.053 C 
BRANCH   5   6
ATOM      6  C   UNL     1      -7.042   2.934   5.669  1.00  0.00     0.041 C 
ATOM      7  O   UNL     1      -6.777   4.008   5.070  1.00  0.00    -0.550 OA
ATOM      8  O   UNL     1      -7.064   1.738   4.962  1.00  0.00    -0.550 OA
ENDBRANCH   5   6
ENDBRANCH   4   5
ENDBRANCH   3   4
ENDBRANCH   2   3
ENDBRANCH   1   2
BRANCH   1   9
ATOM      9  C   UNL     1     -12.264   0.793   7.882  1.00  0.00     0.000 C 
BRANCH   9  10
ATOM     10  C   UNL     1     -11.989   0.242   6.471  1.00  0.00    -0.000 C 
BRANCH  10  11
ATOM     11  C   UNL     1     -11.634   1.306   5.417  1.00  0.00    -0.000 C 
BRANCH  11  12
ATOM     12  C   UNL     1     -10.497   0.916   4.452  1.00  0.00    -0.000 C 
BRANCH  12  13
ATOM     13  C   UNL     1      -9.865  -0.457   4.759  1.00  0.00    -0.003 C 
ATOM     14  C   UNL     1      -8.940  -0.943   3.644  1.00  0.00     0.004 C 
ENDBRANCH  12  13
ENDBRANCH  11  12
ENDBRANCH  10  11
ENDBRANCH   9  10
ENDBRANCH   1   9
TORSDOF 10
ENDMDL
MODEL 8
REMARK VINA RESULT:    -3.464      2.475      4.608
REMARK INTER + INTRA:          -6.628
REMARK INTER:                  -5.393
REMARK INTRA:                  -1.235
REMARK UNBOUND:                -1.139
REMARK SMILES CCCCCCCCCCCC(=O)[O-]
REMARK SMILES IDX 7 1 8 2 9 3 10 4 11 5 12 6 13 7 14 8 6 9 5 10 4 11 3 12 2 13
REMARK SMILES IDX 1 14
REMARK H PARENT
REMARK Flexibility Score: inf
ROOT
ATOM      1  C   UNL     1     -11.069   2.541   7.474  1.00  0.00     0.000 C 
ENDROOT
BRANCH   1   2
ATOM      2  C   UNL     1     -12.431   2.047   6.961  1.00  0.00     0.000 C 
BRANCH   2   3
ATOM      3  C   UNL     1     -12.294   0.979   5.862  1.00  0.00     0.000 C 
BRANCH   3   4
ATOM      4  C   UNL     1     -10.929   0.273   5.894  1.00  0.00     0.006 C 
BRANCH   4   5
ATOM      5  C   UNL     1     -10.194   0.345   4.548  1.00  0.00     0.053 C 
BRANCH   5   6
ATOM      6  C   UNL     1      -9.050  -0.619   4.529  1.00  0.00     0.041 C 
ATOM      7  O   UNL     1      -8.145  -0.509   3.661  1.00  0.00    -0.550 OA
ATOM      8  O   UNL     1      -9.007  -1.667   5.439  1.00  0.00    -0.550 OA
ENDBRANCH   5   6
ENDBRANCH   4   5
ENDBRANCH   3   4
ENDBRANCH   2   3
ENDBRANCH   1   2
BRANCH   1   9
ATOM      9  C   UNL     1     -10.741   3.969   7.003  1.00  0.00     0.000 C 
BRANCH   9  10
ATOM     10  C   UNL     1     -10.296   4.025   5.530  1.00  0.00    -0.000 C 
BRANCH  10  11
ATOM     11  C   UNL     1      -8.806   4.350   5.315  1.00  0.00    -0.000 C 
BRANCH  11  12
ATOM     12  C   UNL     1      -7.899   3.128   5.073  1.00  0.00    -0.000 C 
BRANCH  12  13
ATOM     13  C   UNL     1      -7.471   2.407   6.368  1.00  0.00    -0.003 C 
ATOM     14  C   UNL     1      -6.043   2.753   6.791  1.00  0.00     0.004 C 
ENDBRANCH  12  13
ENDBRANCH  11  12
ENDBRANCH  10  11
ENDBRANCH   9  10
ENDBRANCH   1   9
TORSDOF 10
ENDMDL
MODEL 9
REMARK VINA RESULT:    -3.448     13.212     14.971
REMARK INTER + INTRA:          -6.603
REMARK INTER:                  -5.263
REMARK INTRA:                  -1.340
REMARK UNBOUND:                -1.139
REMARK SMILES CCCCCCCCCCCC(=O)[O-]
REMARK SMILES IDX 7 1 8 2 9 3 10 4 11 5 12 6 13 7 14 8 6 9 5 10 4 11 3 12 2 13
REMARK SMILES IDX 1 14
REMARK H PARENT
REMARK Flexibility Score: inf
ROOT
ATOM      1  C   UNL     1      -0.228  -8.413   7.374  1.00  0.00     0.000 C 
ENDROOT
BRANCH   1   2
ATOM      2  C   UNL     1       0.869  -9.436   7.037  1.00  0.00     0.000 C 
BRANCH   2   3
ATOM      3  C   UNL     1       0.595 -10.818   7.653  1.00  0.00     0.000 C 
BRANCH   3   4
ATOM      4  C   UNL     1       0.724 -11.956   6.628  1.00  0.00     0.006 C 
BRANCH   4   5
ATOM      5  C   UNL     1      -0.287 -11.835   5.480  1.00  0.00     0.053 C 
BRANCH   5   6
ATOM      6  C   UNL     1      -0.881 -13.172   5.166  1.00  0.00     0.041 C 
ATOM      7  O   UNL     1      -0.930 -13.580   3.977  1.00  0.00    -0.550 OA
ATOM      8  O   UNL     1      -1.425 -13.946   6.183  1.00  0.00    -0.550 OA
ENDBRANCH   5   6
ENDBRANCH   4   5
ENDBRANCH   3   4
ENDBRANCH   2   3
ENDBRANCH   1   2
BRANCH   1   9
ATOM      9  C   UNL     1      -1.325  -8.342   6.297  1.00  0.00     0.000 C 
BRANCH   9  10
ATOM     10  C   UNL     1      -2.745  -8.465   6.881  1.00  0.00    -0.000 C 
BRANCH  10  11
ATOM     11  C   UNL     1      -2.821  -9.134   8.265  1.00  0.00    -0.000 C 
BRANCH  11  12
ATOM     12  C   UNL     1      -3.047 -10.657   8.243  1.00  0.00    -0.000 C 
BRANCH  12  13
ATOM     13  C   UNL     1      -3.612 -11.183   6.907  1.00  0.00    -0.003 C 
ATOM     14  C   UNL     1      -5.029 -11.740   7.044  1.00  0.00     0.004 C 
ENDBRANCH  12  13
ENDBRANCH  11  12
ENDBRANCH  10  11
ENDBRANCH   9  10
ENDBRANCH   1   9
TORSDOF 10
ENDMDL
