MODEL 1
REMARK VINA RESULT:    -2.802      0.000      0.000
REMARK INTER + INTRA:          -3.802
REMARK INTER:                  -3.785
REMARK INTRA:                  -0.018
REMARK UNBOUND:                -0.018
REMARK SMILES CC[C@@H](CC[C@H](C)[C@@H]1CC[C@@H]2[C@@H]3CC(=O)C4=CC(=O)CC[C@@]4(C)[C@H]3CC[C@@]21C)C(C)C
REMARK SMILES IDX 4 1 3 2 2 3 1 4 29 5 30 6 31 7 5 8 6 9 7 10 8 11 9 12 27 13
REMARK SMILES IDX 10 14 11 15 26 16 28 17 12 18 25 19 24 20 13 21 22 22 14 23
REMARK SMILES IDX 16 24 21 25 23 26 15 27 17 28 20 29 18 30 19 31
REMARK H PARENT
REMARK Flexibility Score: inf
ROOT
ATOM      1  C   UNL     1     -22.530  12.385 -29.916  1.00  0.00     0.004 C 
ENDROOT
BRANCH   1   2
ATOM      2  C   UNL     1     -23.900  12.412 -29.167  1.00  0.00    -0.009 C 
BRANCH   2   3
ATOM      3  C   UNL     1     -24.443  11.021 -28.704  1.00  0.00     0.000 C 
ATOM      4  C   UNL     1     -24.755  10.875 -27.213  1.00  0.00     0.004 C 
ENDBRANCH   2   3
BRANCH   2   5
ATOM      5  C   UNL     1     -24.969  13.389 -29.772  1.00  0.00    -0.014 C 
ATOM      6  C   UNL     1     -24.433  14.376 -30.835  1.00  0.00     0.007 C 
ATOM      7  C   UNL     1     -26.159  12.617 -30.371  1.00  0.00     0.007 C 
ENDBRANCH   2   5
ENDBRANCH   1   2
BRANCH   1   8
ATOM      8  C   UNL     1     -21.336  11.772 -29.145  1.00  0.00     0.004 C 
BRANCH   8   9
ATOM      9  C   UNL     1     -20.047  12.649 -29.021  1.00  0.00    -0.011 C 
ATOM     10  C   UNL     1     -20.391  14.002 -29.689  1.00  0.00     0.008 C 
BRANCH   9  11
ATOM     11  C   UNL     1     -18.767  11.999 -29.677  1.00  0.00    -0.002 C 
ATOM     12  C   UNL     1     -17.893  11.219 -28.673  1.00  0.00     0.005 C 
ATOM     13  C   UNL     1     -17.749  12.939 -30.422  1.00  0.00    -0.026 C 
ATOM     14  C   UNL     1     -16.432  11.422 -29.058  1.00  0.00     0.005 C 
ATOM     15  C   UNL     1     -16.453  12.094 -30.431  1.00  0.00    -0.001 C 
ATOM     16  C   UNL     1     -17.485  14.258 -29.631  1.00  0.00     0.007 C 
ATOM     17  C   UNL     1     -18.193  13.225 -31.885  1.00  0.00     0.012 C 
ATOM     18  C   UNL     1     -15.144  12.860 -30.820  1.00  0.00     0.004 C 
ATOM     19  C   UNL     1     -16.305  15.044 -30.201  1.00  0.00     0.005 C 
ATOM     20  C   UNL     1     -14.983  14.243 -30.134  1.00  0.00     0.003 C 
ATOM     21  C   UNL     1     -13.898  12.000 -30.520  1.00  0.00     0.085 C 
ATOM     22  C   UNL     1     -13.715  15.055 -30.676  1.00  0.00    -0.000 C 
ATOM     23  C   UNL     1     -12.643  12.685 -30.947  1.00  0.00     0.159 C 
ATOM     24  C   UNL     1     -12.651  14.124 -31.284  1.00  0.00     0.005 C 
ATOM     25  C   UNL     1     -14.114  16.109 -31.762  1.00  0.00     0.020 C 
ATOM     26  C   UNL     1     -13.070  15.784 -29.470  1.00  0.00     0.017 C 
ATOM     27  O   UNL     1     -11.579  12.014 -31.021  1.00  0.00    -0.295 OA
ATOM     28  C   UNL     1     -11.731  14.589 -32.154  1.00  0.00     0.055 C 
ATOM     29  C   UNL     1     -12.914  16.878 -32.341  1.00  0.00     0.081 C 
ATOM     30  C   UNL     1     -11.799  15.949 -32.708  1.00  0.00     0.156 C 
ATOM     31  O   UNL     1     -10.875  16.351 -33.464  1.00  0.00    -0.295 OA
ENDBRANCH   9  11
ENDBRANCH   8   9
ENDBRANCH   1   8
TORSDOF 6
ENDMDL
MODEL 2
REMARK VINA RESULT:    -2.762      1.382      1.831
REMARK INTER + INTRA:          -3.748
REMARK INTER:                  -3.736
REMARK INTRA:                  -0.012
REMARK UNBOUND:                -0.018
REMARK SMILES CC[C@@H](CC[C@H](C)[C@@H]1CC[C@@H]2[C@@H]3CC(=O)C4=CC(=O)CC[C@@]4(C)[C@H]3CC[C@@]21C)C(C)C
REMARK SMILES IDX 4 1 3 2 2 3 1 4 29 5 30 6 31 7 5 8 6 9 7 10 8 11 9 12 27 13
REMARK SMILES IDX 10 14 11 15 26 16 28 17 12 18 25 19 24 20 13 21 22 22 14 23
REMARK SMILES IDX 16 24 21 25 23 26 15 27 17 28 20 29 18 30 19 31
REMARK H PARENT
REMARK Flexibility Score: inf
ROOT
ATOM      1  C   UNL     1     -23.406  11.429 -29.718  1.00  0.00     0.004 C 
ENDROOT
BRANCH   1   2
ATOM      2  C   UNL     1     -24.635  12.033 -28.968  1.00  0.00    -0.009 C 
BRANCH   2   3
ATOM      3  C   UNL     1     -25.498  11.014 -28.156  1.00  0.00     0.000 C 
ATOM      4  C   UNL     1     -26.788  11.556 -27.537  1.00  0.00     0.004 C 
ENDBRANCH   2   3
BRANCH   2   5
ATOM      5  C   UNL     1     -25.442  13.112 -29.774  1.00  0.00    -0.014 C 
ATOM      6  C   UNL     1     -24.665  14.408 -30.100  1.00  0.00     0.007 C 
ATOM      7  C   UNL     1     -26.002  12.529 -31.085  1.00  0.00     0.007 C 
ENDBRANCH   2   5
ENDBRANCH   1   2
BRANCH   1   8
ATOM      8  C   UNL     1     -22.232  10.942 -28.834  1.00  0.00     0.004 C 
BRANCH   8   9
ATOM      9  C   UNL     1     -20.963  11.854 -28.776  1.00  0.00    -0.011 C 
ATOM     10  C   UNL     1     -21.071  12.806 -29.991  1.00  0.00     0.008 C 
BRANCH   9  11
ATOM     11  C   UNL     1     -19.602  11.055 -28.797  1.00  0.00    -0.002 C 
ATOM     12  C   UNL     1     -18.975  10.877 -27.399  1.00  0.00     0.005 C 
ATOM     13  C   UNL     1     -18.422  11.610 -29.678  1.00  0.00    -0.026 C 
ATOM     14  C   UNL     1     -17.460  10.970 -27.543  1.00  0.00     0.005 C 
ATOM     15  C   UNL     1     -17.182  10.936 -29.045  1.00  0.00    -0.001 C 
ATOM     16  C   UNL     1     -18.275  13.158 -29.549  1.00  0.00     0.007 C 
ATOM     17  C   UNL     1     -18.555  11.167 -31.163  1.00  0.00     0.012 C 
ATOM     18  C   UNL     1     -15.795  11.517 -29.481  1.00  0.00     0.004 C 
ATOM     19  C   UNL     1     -16.977  13.667 -30.176  1.00  0.00     0.005 C 
ATOM     20  C   UNL     1     -15.725  13.067 -29.493  1.00  0.00     0.003 C 
ATOM     21  C   UNL     1     -14.666  10.968 -28.585  1.00  0.00     0.085 C 
ATOM     22  C   UNL     1     -14.347  13.618 -30.091  1.00  0.00    -0.000 C 
ATOM     23  C   UNL     1     -13.327  11.457 -29.026  1.00  0.00     0.159 C 
ATOM     24  C   UNL     1     -13.216  12.578 -29.983  1.00  0.00     0.005 C 
ATOM     25  C   UNL     1     -14.482  14.031 -31.594  1.00  0.00     0.020 C 
ATOM     26  C   UNL     1     -13.929  14.856 -29.257  1.00  0.00     0.017 C 
ATOM     27  O   UNL     1     -12.294  10.892 -28.575  1.00  0.00    -0.295 OA
ATOM     28  C   UNL     1     -12.125  12.649 -30.772  1.00  0.00     0.055 C 
ATOM     29  C   UNL     1     -13.164  14.521 -32.217  1.00  0.00     0.081 C 
ATOM     30  C   UNL     1     -12.032  13.597 -31.892  1.00  0.00     0.156 C 
ATOM     31  O   UNL     1     -10.962  13.664 -32.553  1.00  0.00    -0.295 OA
ENDBRANCH   9  11
ENDBRANCH   8   9
ENDBRANCH   1   8
TORSDOF 6
ENDMDL
MODEL 3
REMARK VINA RESULT:    -2.451      1.387      1.757
REMARK INTER + INTRA:          -3.329
REMARK INTER:                  -3.085
REMARK INTRA:                  -0.244
REMARK UNBOUND:                -0.018
REMARK SMILES CC[C@@H](CC[C@H](C)[C@@H]1CC[C@@H]2[C@@H]3CC(=O)C4=CC(=O)CC[C@@]4(C)[C@H]3CC[C@@]21C)C(C)C
REMARK SMILES IDX 4 1 3 2 2 3 1 4 29 5 30 6 31 7 5 8 6 9 7 10 8 11 9 12 27 13
REMARK SMILES IDX 10 14 11 15 26 16 28 17 12 18 25 19 24 20 13 21 22 22 14 23
REMARK SMILES IDX 16 24 21 25 23 26 15 27 17 28 20 29 18 30 19 31
REMARK H PARENT
REMARK Flexibility Score: inf
ROOT
ATOM      1  C   UNL     1     -21.518  12.719 -30.250  1.00  0.00     0.004 C 
ENDROOT
BRANCH   1   2
ATOM      2  C   UNL     1     -22.912  13.003 -29.606  1.00  0.00    -0.009 C 
BRANCH   2   3
ATOM      3  C   UNL     1     -23.951  11.839 -29.705  1.00  0.00     0.000 C 
ATOM      4  C   UNL     1     -24.379  11.197 -28.384  1.00  0.00     0.004 C 
ENDBRANCH   2   3
BRANCH   2   5
ATOM      5  C   UNL     1     -23.482  14.443 -29.864  1.00  0.00    -0.014 C 
ATOM      6  C   UNL     1     -22.759  15.249 -30.968  1.00  0.00     0.007 C 
ATOM      7  C   UNL     1     -24.987  14.401 -30.189  1.00  0.00     0.007 C 
ENDBRANCH   2   5
ENDBRANCH   1   2
BRANCH   1   8
ATOM      8  C   UNL     1     -20.316  12.631 -29.278  1.00  0.00     0.004 C 
BRANCH   8   9
ATOM      9  C   UNL     1     -19.870  11.201 -28.830  1.00  0.00    -0.011 C 
ATOM     10  C   UNL     1     -20.656  10.901 -27.532  1.00  0.00     0.008 C 
BRANCH   9  11
ATOM     11  C   UNL     1     -18.315  11.061 -28.600  1.00  0.00    -0.002 C 
ATOM     12  C   UNL     1     -17.853  11.559 -27.214  1.00  0.00     0.005 C 
ATOM     13  C   UNL     1     -17.341  11.776 -29.608  1.00  0.00    -0.026 C 
ATOM     14  C   UNL     1     -16.489  12.220 -27.378  1.00  0.00     0.005 C 
ATOM     15  C   UNL     1     -16.029  11.879 -28.794  1.00  0.00    -0.001 C 
ATOM     16  C   UNL     1     -17.826  13.216 -29.966  1.00  0.00     0.007 C 
ATOM     17  C   UNL     1     -17.099  10.918 -30.882  1.00  0.00     0.012 C 
ATOM     18  C   UNL     1     -14.934  12.829 -29.388  1.00  0.00     0.004 C 
ATOM     19  C   UNL     1     -16.760  14.011 -30.718  1.00  0.00     0.005 C 
ATOM     20  C   UNL     1     -15.472  14.197 -29.881  1.00  0.00     0.003 C 
ATOM     21  C   UNL     1     -13.806  13.068 -28.363  1.00  0.00     0.085 C 
ATOM     22  C   UNL     1     -14.352  15.071 -30.618  1.00  0.00    -0.000 C 
ATOM     23  C   UNL     1     -12.718  13.916 -28.933  1.00  0.00     0.159 C 
ATOM     24  C   UNL     1     -12.930  14.663 -30.190  1.00  0.00     0.005 C 
ATOM     25  C   UNL     1     -14.443  14.948 -32.175  1.00  0.00     0.020 C 
ATOM     26  C   UNL     1     -14.561  16.551 -30.210  1.00  0.00     0.017 C 
ATOM     27  O   UNL     1     -11.614  13.978 -28.327  1.00  0.00    -0.295 OA
ATOM     28  C   UNL     1     -11.861  14.949 -30.961  1.00  0.00     0.055 C 
ATOM     29  C   UNL     1     -13.351  15.737 -32.918  1.00  0.00     0.081 C 
ATOM     30  C   UNL     1     -12.001  15.492 -32.320  1.00  0.00     0.156 C 
ATOM     31  O   UNL     1     -10.966  15.802 -32.968  1.00  0.00    -0.295 OA
ENDBRANCH   9  11
ENDBRANCH   8   9
ENDBRANCH   1   8
TORSDOF 6
ENDMDL
MODEL 4
REMARK VINA RESULT:    -2.402      2.939      5.449
REMARK INTER + INTRA:          -3.262
REMARK INTER:                  -2.636
REMARK INTRA:                  -0.626
REMARK UNBOUND:                -0.018
REMARK SMILES CC[C@@H](CC[C@H](C)[C@@H]1CC[C@@H]2[C@@H]3CC(=O)C4=CC(=O)CC[C@@]4(C)[C@H]3CC[C@@]21C)C(C)C
REMARK SMILES IDX 4 1 3 2 2 3 1 4 29 5 30 6 31 7 5 8 6 9 7 10 8 11 9 12 27 13
REMARK SMILES IDX 10 14 11 15 26 16 28 17 12 18 25 19 24 20 13 21 22 22 14 23
REMARK SMILES IDX 16 24 21 25 23 26 15 27 17 28 20 29 18 30 19 31
REMARK H PARENT
REMARK Flexibility Score: inf
ROOT
ATOM      1  C   UNL     1     -16.302  12.185 -26.930  1.00  0.00     0.004 C 
ENDROOT
BRANCH   1   2
ATOM      2  C   UNL     1     -15.081  11.313 -26.496  1.00  0.00    -0.009 C 
BRANCH   2   3
ATOM      3  C   UNL     1     -15.064  10.875 -24.996  1.00  0.00     0.000 C 
ATOM      4  C   UNL     1     -13.745  11.074 -24.245  1.00  0.00     0.004 C 
ENDBRANCH   2   3
BRANCH   2   5
ATOM      5  C   UNL     1     -13.698  11.766 -27.086  1.00  0.00    -0.014 C 
ATOM      6  C   UNL     1     -13.146  10.878 -28.225  1.00  0.00     0.007 C 
ATOM      7  C   UNL     1     -13.749  13.225 -27.577  1.00  0.00     0.007 C 
ENDBRANCH   2   5
ENDBRANCH   1   2
BRANCH   1   8
ATOM      8  C   UNL     1     -17.612  11.424 -27.249  1.00  0.00     0.004 C 
BRANCH   8   9
ATOM      9  C   UNL     1     -18.394  11.866 -28.528  1.00  0.00    -0.011 C 
ATOM     10  C   UNL     1     -19.581  10.882 -28.658  1.00  0.00     0.008 C 
BRANCH   9  11
ATOM     11  C   UNL     1     -17.518  11.878 -29.841  1.00  0.00    -0.002 C 
ATOM     12  C   UNL     1     -16.269  10.977 -29.751  1.00  0.00     0.005 C 
ATOM     13  C   UNL     1     -16.960  13.256 -30.356  1.00  0.00    -0.026 C 
ATOM     14  C   UNL     1     -15.134  11.662 -30.504  1.00  0.00     0.005 C 
ATOM     15  C   UNL     1     -15.778  12.826 -31.257  1.00  0.00    -0.001 C 
ATOM     16  C   UNL     1     -16.412  14.137 -29.191  1.00  0.00     0.007 C 
ATOM     17  C   UNL     1     -18.013  14.020 -31.209  1.00  0.00     0.012 C 
ATOM     18  C   UNL     1     -14.798  13.970 -31.684  1.00  0.00     0.004 C 
ATOM     19  C   UNL     1     -15.628  15.344 -29.703  1.00  0.00     0.005 C 
ATOM     20  C   UNL     1     -14.391  14.927 -30.533  1.00  0.00     0.003 C 
ATOM     21  C   UNL     1     -13.524  13.385 -32.330  1.00  0.00     0.085 C 
ATOM     22  C   UNL     1     -13.516  16.166 -31.042  1.00  0.00    -0.000 C 
ATOM     23  C   UNL     1     -12.607  14.461 -32.805  1.00  0.00     0.159 C 
ATOM     24  C   UNL     1     -12.803  15.861 -32.373  1.00  0.00     0.005 C 
ATOM     25  C   UNL     1     -14.383  17.453 -31.243  1.00  0.00     0.020 C 
ATOM     26  C   UNL     1     -12.425  16.446 -29.978  1.00  0.00     0.017 C 
ATOM     27  O   UNL     1     -11.666  14.157 -33.587  1.00  0.00    -0.295 OA
ATOM     28  C   UNL     1     -12.376  16.853 -33.180  1.00  0.00     0.055 C 
ATOM     29  C   UNL     1     -13.585  18.655 -31.778  1.00  0.00     0.081 C 
ATOM     30  C   UNL     1     -12.720  18.261 -32.935  1.00  0.00     0.156 C 
ATOM     31  O   UNL     1     -12.237  19.151 -33.684  1.00  0.00    -0.295 OA
ENDBRANCH   9  11
ENDBRANCH   8   9
ENDBRANCH   1   8
TORSDOF 6
ENDMDL
MODEL 5
REMARK VINA RESULT:    -1.262      8.003     11.833
REMARK INTER + INTRA:          -1.722
REMARK INTER:                  -1.499
REMARK INTRA:                  -0.223
REMARK UNBOUND:                -0.018
REMARK SMILES CC[C@@H](CC[C@H](C)[C@@H]1CC[C@@H]2[C@@H]3CC(=O)C4=CC(=O)CC[C@@]4(C)[C@H]3CC[C@@]21C)C(C)C
REMARK SMILES IDX 4 1 3 2 2 3 1 4 29 5 30 6 31 7 5 8 6 9 7 10 8 11 9 12 27 13
REMARK SMILES IDX 10 14 11 15 26 16 28 17 12 18 25 19 24 20 13 21 22 22 14 23
REMARK SMILES IDX 16 24 21 25 23 26 15 27 17 28 20 29 18 30 19 31
REMARK H PARENT
REMARK Flexibility Score: inf
ROOT
ATOM      1  C   UNL     1     -27.454  20.242 -34.099  1.00  0.00     0.004 C 
ENDROOT
BRANCH   1   2
ATOM      2  C   UNL     1     -28.903  20.681 -33.715  1.00  0.00    -0.009 C 
BRANCH   2   3
ATOM      3  C   UNL     1     -29.001  21.875 -32.711  1.00  0.00     0.000 C 
ATOM      4  C   UNL     1     -28.021  23.030 -32.929  1.00  0.00     0.004 C 
ENDBRANCH   2   3
BRANCH   2   5
ATOM      5  C   UNL     1     -29.911  19.504 -33.468  1.00  0.00    -0.014 C 
ATOM      6  C   UNL     1     -30.547  19.466 -32.059  1.00  0.00     0.007 C 
ATOM      7  C   UNL     1     -31.037  19.501 -34.518  1.00  0.00     0.007 C 
ENDBRANCH   2   5
ENDBRANCH   1   2
BRANCH   1   8
ATOM      8  C   UNL     1     -26.712  19.347 -33.078  1.00  0.00     0.004 C 
BRANCH   8   9
ATOM      9  C   UNL     1     -25.349  19.880 -32.527  1.00  0.00    -0.011 C 
ATOM     10  C   UNL     1     -24.535  20.317 -33.768  1.00  0.00     0.008 C 
BRANCH   9  11
ATOM     11  C   UNL     1     -24.552  18.824 -31.666  1.00  0.00    -0.002 C 
ATOM     12  C   UNL     1     -23.572  17.970 -32.497  1.00  0.00     0.005 C 
ATOM     13  C   UNL     1     -25.369  17.768 -30.833  1.00  0.00    -0.026 C 
ATOM     14  C   UNL     1     -23.566  16.558 -31.921  1.00  0.00     0.005 C 
ATOM     15  C   UNL     1     -24.330  16.645 -30.600  1.00  0.00    -0.001 C 
ATOM     16  C   UNL     1     -26.568  17.185 -31.644  1.00  0.00     0.007 C 
ATOM     17  C   UNL     1     -25.828  18.345 -29.463  1.00  0.00     0.012 C 
ATOM     18  C   UNL     1     -24.903  15.288 -30.070  1.00  0.00     0.004 C 
ATOM     19  C   UNL     1     -27.194  15.974 -30.954  1.00  0.00     0.005 C 
ATOM     20  C   UNL     1     -26.189  14.809 -30.794  1.00  0.00     0.003 C 
ATOM     21  C   UNL     1     -23.836  14.177 -30.147  1.00  0.00     0.085 C 
ATOM     22  C   UNL     1     -26.826  13.504 -30.121  1.00  0.00    -0.000 C 
ATOM     23  C   UNL     1     -24.341  12.891 -29.583  1.00  0.00     0.159 C 
ATOM     24  C   UNL     1     -25.783  12.700 -29.323  1.00  0.00     0.005 C 
ATOM     25  C   UNL     1     -28.005  13.858 -29.156  1.00  0.00     0.020 C 
ATOM     26  C   UNL     1     -27.353  12.593 -31.258  1.00  0.00     0.017 C 
ATOM     27  O   UNL     1     -23.515  11.973 -29.327  1.00  0.00    -0.295 OA
ATOM     28  C   UNL     1     -26.157  11.837 -28.357  1.00  0.00     0.055 C 
ATOM     29  C   UNL     1     -28.613  12.632 -28.452  1.00  0.00     0.081 C 
ATOM     30  C   UNL     1     -27.547  11.747 -27.886  1.00  0.00     0.156 C 
ATOM     31  O   UNL     1     -27.850  10.875 -27.028  1.00  0.00    -0.295 OA
ENDBRANCH   9  11
ENDBRANCH   8   9
ENDBRANCH   1   8
TORSDOF 6
ENDMDL
MODEL 6
REMARK VINA RESULT:    -0.285      1.773      3.590
REMARK INTER + INTRA:          -0.403
REMARK INTER:                   0.884
REMARK INTRA:                  -1.287
REMARK UNBOUND:                -0.018
REMARK SMILES CC[C@@H](CC[C@H](C)[C@@H]1CC[C@@H]2[C@@H]3CC(=O)C4=CC(=O)CC[C@@]4(C)[C@H]3CC[C@@]21C)C(C)C
REMARK SMILES IDX 4 1 3 2 2 3 1 4 29 5 30 6 31 7 5 8 6 9 7 10 8 11 9 12 27 13
REMARK SMILES IDX 10 14 11 15 26 16 28 17 12 18 25 19 24 20 13 21 22 22 14 23
REMARK SMILES IDX 16 24 21 25 23 26 15 27 17 28 20 29 18 30 19 31
REMARK H PARENT
REMARK Flexibility Score: inf
ROOT
ATOM      1  C   UNL     1     -24.130  11.312 -29.903  1.00  0.00     0.004 C 
ENDROOT
BRANCH   1   2
ATOM      2  C   UNL     1     -25.107  12.525 -30.015  1.00  0.00    -0.009 C 
BRANCH   2   3
ATOM      3  C   UNL     1     -24.585  13.871 -29.415  1.00  0.00     0.000 C 
ATOM      4  C   UNL     1     -24.823  15.127 -30.255  1.00  0.00     0.004 C 
ENDBRANCH   2   3
BRANCH   2   5
ATOM      5  C   UNL     1     -26.614  12.193 -29.723  1.00  0.00    -0.014 C 
ATOM      6  C   UNL     1     -27.161  10.936 -30.438  1.00  0.00     0.007 C 
ATOM      7  C   UNL     1     -26.875  12.055 -28.212  1.00  0.00     0.007 C 
ENDBRANCH   2   5
ENDBRANCH   1   2
BRANCH   1   8
ATOM      8  C   UNL     1     -22.659  11.575 -30.308  1.00  0.00     0.004 C 
BRANCH   8   9
ATOM      9  C   UNL     1     -21.568  11.321 -29.217  1.00  0.00    -0.011 C 
ATOM     10  C   UNL     1     -22.334  10.875 -27.949  1.00  0.00     0.008 C 
BRANCH   9  11
ATOM     11  C   UNL     1     -20.657  12.576 -28.921  1.00  0.00    -0.002 C 
ATOM     12  C   UNL     1     -20.852  13.726 -29.929  1.00  0.00     0.005 C 
ATOM     13  C   UNL     1     -19.097  12.372 -28.868  1.00  0.00    -0.026 C 
ATOM     14  C   UNL     1     -19.498  14.386 -30.165  1.00  0.00     0.005 C 
ATOM     15  C   UNL     1     -18.562  13.805 -29.106  1.00  0.00    -0.001 C 
ATOM     16  C   UNL     1     -18.590  11.447 -30.018  1.00  0.00     0.007 C 
ATOM     17  C   UNL     1     -18.629  11.866 -27.474  1.00  0.00     0.012 C 
ATOM     18  C   UNL     1     -17.034  13.914 -29.431  1.00  0.00     0.004 C 
ATOM     19  C   UNL     1     -17.067  11.465 -30.140  1.00  0.00     0.005 C 
ATOM     20  C   UNL     1     -16.524  12.877 -30.465  1.00  0.00     0.003 C 
ATOM     21  C   UNL     1     -16.681  15.333 -29.922  1.00  0.00     0.085 C 
ATOM     22  C   UNL     1     -14.935  12.923 -30.652  1.00  0.00    -0.000 C 
ATOM     23  C   UNL     1     -15.218  15.478 -30.173  1.00  0.00     0.159 C 
ATOM     24  C   UNL     1     -14.347  14.287 -30.247  1.00  0.00     0.005 C 
ATOM     25  C   UNL     1     -14.214  11.816 -29.813  1.00  0.00     0.020 C 
ATOM     26  C   UNL     1     -14.628  12.705 -32.155  1.00  0.00     0.017 C 
ATOM     27  O   UNL     1     -14.736  16.635 -30.314  1.00  0.00    -0.295 OA
ATOM     28  C   UNL     1     -13.044  14.416 -29.922  1.00  0.00     0.055 C 
ATOM     29  C   UNL     1     -12.681  11.859 -29.929  1.00  0.00     0.081 C 
ATOM     30  C   UNL     1     -12.161  13.252 -29.759  1.00  0.00     0.156 C 
ATOM     31  O   UNL     1     -10.938  13.438 -29.521  1.00  0.00    -0.295 OA
ENDBRANCH   9  11
ENDBRANCH   8   9
ENDBRANCH   1   8
TORSDOF 6
ENDMDL
