MODEL 1
REMARK VINA RESULT:    -4.608      0.000      0.000
REMARK INTER + INTRA:          -4.900
REMARK INTER:                  -4.877
REMARK INTRA:                  -0.023
REMARK UNBOUND:                -0.023
REMARK SMILES O=C([O-])c1cccnc1
REMARK SMILES IDX 4 1 5 2 9 3 6 4 8 5 7 6 2 7 1 8 3 9
REMARK H PARENT
REMARK Flexibility Score: inf
ROOT
ATOM      1  C   UNL     1     106.254 104.933 109.135  1.00  0.00     0.016 A 
ATOM      2  C   UNL     1     107.642 104.719 109.082  1.00  0.00     0.013 A 
ATOM      3  C   UNL     1     105.591 105.308 107.954  1.00  0.00     0.120 A 
ATOM      4  C   UNL     1     108.331 104.881 107.879  1.00  0.00     0.021 A 
ATOM      5  N   UNL     1     106.286 105.460 106.795  1.00  0.00    -0.264 NA
ATOM      6  C   UNL     1     107.629 105.255 106.733  1.00  0.00     0.111 A 
ENDROOT
BRANCH   1   7
ATOM      7  C   UNL     1     105.505 104.767 110.400  1.00  0.00     0.073 C 
ATOM      8  O   UNL     1     106.097 104.847 111.508  1.00  0.00    -0.545 OA
ATOM      9  O   UNL     1     104.137 104.520 110.381  1.00  0.00    -0.545 OA
ENDBRANCH   1   7
TORSDOF 1
ENDMDL
MODEL 2
REMARK VINA RESULT:    -4.551      3.364      4.526
REMARK INTER + INTRA:          -4.840
REMARK INTER:                  -4.817
REMARK INTRA:                  -0.023
REMARK UNBOUND:                -0.023
REMARK SMILES O=C([O-])c1cccnc1
REMARK SMILES IDX 4 1 5 2 9 3 6 4 8 5 7 6 2 7 1 8 3 9
REMARK H PARENT
REMARK Flexibility Score: inf
ROOT
ATOM      1  C   UNL     1     102.810 104.041 109.156  1.00  0.00     0.016 A 
ATOM      2  C   UNL     1     101.419 104.166 108.999  1.00  0.00     0.013 A 
ATOM      3  C   UNL     1     103.585 103.743 108.023  1.00  0.00     0.120 A 
ATOM      4  C   UNL     1     100.836 103.994 107.742  1.00  0.00     0.021 A 
ATOM      5  N   UNL     1     102.993 103.578 106.809  1.00  0.00    -0.264 NA
ATOM      6  C   UNL     1     101.648 103.697 106.647  1.00  0.00     0.111 A 
ENDROOT
BRANCH   1   7
ATOM      7  C   UNL     1     103.446 104.221 110.479  1.00  0.00     0.073 C 
ATOM      8  O   UNL     1     102.757 104.170 111.532  1.00  0.00    -0.545 OA
ATOM      9  O   UNL     1     104.814 104.449 110.577  1.00  0.00    -0.545 OA
ENDBRANCH   1   7
TORSDOF 1
ENDMDL
MODEL 3
REMARK VINA RESULT:    -4.439     10.313     11.298
REMARK INTER + INTRA:          -4.722
REMARK INTER:                  -4.700
REMARK INTRA:                  -0.021
REMARK UNBOUND:                -0.023
REMARK SMILES O=C([O-])c1cccnc1
REMARK SMILES IDX 4 1 5 2 9 3 6 4 8 5 7 6 2 7 1 8 3 9
REMARK H PARENT
REMARK Flexibility Score: inf
ROOT
ATOM      1  C   UNL     1     103.928 100.343  99.169  1.00  0.00     0.016 A 
ATOM      2  C   UNL     1     104.980 101.217  99.490  1.00  0.00     0.013 A 
ATOM      3  C   UNL     1     102.924 100.126 100.127  1.00  0.00     0.120 A 
ATOM      4  C   UNL     1     105.014 101.846 100.737  1.00  0.00     0.021 A 
ATOM      5  N   UNL     1     102.981 100.750 101.335  1.00  0.00    -0.264 NA
ATOM      6  C   UNL     1     103.994 101.597 101.656  1.00  0.00     0.111 A 
ENDROOT
BRANCH   1   7
ATOM      7  C   UNL     1     103.875  99.667  97.854  1.00  0.00     0.073 C 
ATOM      8  O   UNL     1     102.768  99.375  97.329  1.00  0.00    -0.545 OA
ATOM      9  O   UNL     1     105.048  99.346  97.180  1.00  0.00    -0.545 OA
ENDBRANCH   1   7
TORSDOF 1
ENDMDL
MODEL 4
REMARK VINA RESULT:    -4.421      9.777     10.971
REMARK INTER + INTRA:          -4.703
REMARK INTER:                  -4.680
REMARK INTRA:                  -0.023
REMARK UNBOUND:                -0.023
REMARK SMILES O=C([O-])c1cccnc1
REMARK SMILES IDX 4 1 5 2 9 3 6 4 8 5 7 6 2 7 1 8 3 9
REMARK H PARENT
REMARK Flexibility Score: inf
ROOT
ATOM      1  C   UNL     1     105.121 108.691  99.015  1.00  0.00     0.016 A 
ATOM      2  C   UNL     1     104.070 107.847  99.409  1.00  0.00     0.013 A 
ATOM      3  C   UNL     1     106.151 108.949  99.934  1.00  0.00     0.120 A 
ATOM      4  C   UNL     1     104.062 107.286 100.688  1.00  0.00     0.021 A 
ATOM      5  N   UNL     1     106.119 108.391 101.175  1.00  0.00    -0.264 NA
ATOM      6  C   UNL     1     105.107 107.573 101.567  1.00  0.00     0.111 A 
ENDROOT
BRANCH   1   7
ATOM      7  C   UNL     1     105.148 109.294  97.664  1.00  0.00     0.073 C 
ATOM      8  O   UNL     1     106.223 109.739  97.183  1.00  0.00    -0.545 OA
ATOM      9  O   UNL     1     103.984 109.376  96.907  1.00  0.00    -0.545 OA
ENDBRANCH   1   7
TORSDOF 1
ENDMDL
MODEL 5
REMARK VINA RESULT:    -4.359      9.322     10.506
REMARK INTER + INTRA:          -4.637
REMARK INTER:                  -4.613
REMARK INTRA:                  -0.024
REMARK UNBOUND:                -0.023
REMARK SMILES O=C([O-])c1cccnc1
REMARK SMILES IDX 4 1 5 2 9 3 6 4 8 5 7 6 2 7 1 8 3 9
REMARK H PARENT
REMARK Flexibility Score: inf
ROOT
ATOM      1  C   UNL     1     105.154 108.424  99.408  1.00  0.00     0.016 A 
ATOM      2  C   UNL     1     106.152 108.834 100.307  1.00  0.00     0.013 A 
ATOM      3  C   UNL     1     104.151 107.557  99.874  1.00  0.00     0.120 A 
ATOM      4  C   UNL     1     106.135 108.383 101.629  1.00  0.00     0.021 A 
ATOM      5  N   UNL     1     104.158 107.130 101.166  1.00  0.00    -0.264 NA
ATOM      6  C   UNL     1     105.119 107.522 102.044  1.00  0.00     0.111 A 
ENDROOT
BRANCH   1   7
ATOM      7  C   UNL     1     105.154 108.892  98.005  1.00  0.00     0.073 C 
ATOM      8  O   UNL     1     104.287 108.477  97.191  1.00  0.00    -0.545 OA
ATOM      9  O   UNL     1     106.114 109.797  97.565  1.00  0.00    -0.545 OA
ENDBRANCH   1   7
TORSDOF 1
ENDMDL
MODEL 6
REMARK VINA RESULT:    -4.347      9.817     10.754
REMARK INTER + INTRA:          -4.624
REMARK INTER:                  -4.600
REMARK INTRA:                  -0.024
REMARK UNBOUND:                -0.023
REMARK SMILES O=C([O-])c1cccnc1
REMARK SMILES IDX 4 1 5 2 9 3 6 4 8 5 7 6 2 7 1 8 3 9
REMARK H PARENT
REMARK Flexibility Score: inf
ROOT
ATOM      1  C   UNL     1     103.474 100.468 100.031  1.00  0.00     0.016 A 
ATOM      2  C   UNL     1     102.511  99.731 100.742  1.00  0.00     0.013 A 
ATOM      3  C   UNL     1     104.263 101.391 100.737  1.00  0.00     0.120 A 
ATOM      4  C   UNL     1     102.354  99.924 102.116  1.00  0.00     0.021 A 
ATOM      5  N   UNL     1     104.090 101.560 102.076  1.00  0.00    -0.264 NA
ATOM      6  C   UNL     1     103.162 100.853 102.773  1.00  0.00     0.111 A 
ENDROOT
BRANCH   1   7
ATOM      7  C   UNL     1     103.655 100.278  98.576  1.00  0.00     0.073 C 
ATOM      8  O   UNL     1     104.505 100.957  97.942  1.00  0.00    -0.545 OA
ATOM      9  O   UNL     1     102.887  99.346  97.887  1.00  0.00    -0.545 OA
ENDBRANCH   1   7
TORSDOF 1
ENDMDL
MODEL 7
REMARK VINA RESULT:    -4.322      2.626      3.568
REMARK INTER + INTRA:          -4.597
REMARK INTER:                  -4.578
REMARK INTRA:                  -0.019
REMARK UNBOUND:                -0.023
REMARK SMILES O=C([O-])c1cccnc1
REMARK SMILES IDX 4 1 5 2 9 3 6 4 8 5 7 6 2 7 1 8 3 9
REMARK H PARENT
REMARK Flexibility Score: inf
ROOT
ATOM      1  C   UNL     1     106.455 104.802 108.620  1.00  0.00     0.016 A 
ATOM      2  C   UNL     1     106.464 105.130 109.986  1.00  0.00     0.013 A 
ATOM      3  C   UNL     1     105.309 104.189 108.089  1.00  0.00     0.120 A 
ATOM      4  C   UNL     1     105.353 104.847 110.784  1.00  0.00     0.021 A 
ATOM      5  N   UNL     1     104.240 103.922 108.887  1.00  0.00    -0.264 NA
ATOM      6  C   UNL     1     104.238 104.236 110.210  1.00  0.00     0.111 A 
ENDROOT
BRANCH   1   7
ATOM      7  C   UNL     1     107.622 105.094 107.760  1.00  0.00     0.073 C 
ATOM      8  O   UNL     1     108.773 104.701 108.086  1.00  0.00    -0.545 OA
ATOM      9  O   UNL     1     107.463 105.808 106.577  1.00  0.00    -0.545 OA
ENDBRANCH   1   7
TORSDOF 1
ENDMDL
MODEL 8
REMARK VINA RESULT:    -4.303      3.828      4.792
REMARK INTER + INTRA:          -4.578
REMARK INTER:                  -4.558
REMARK INTRA:                  -0.020
REMARK UNBOUND:                -0.023
REMARK SMILES O=C([O-])c1cccnc1
REMARK SMILES IDX 4 1 5 2 9 3 6 4 8 5 7 6 2 7 1 8 3 9
REMARK H PARENT
REMARK Flexibility Score: inf
ROOT
ATOM      1  C   UNL     1     102.510 104.141 108.592  1.00  0.00     0.016 A 
ATOM      2  C   UNL     1     102.369 103.939 109.975  1.00  0.00     0.013 A 
ATOM      3  C   UNL     1     103.752 104.578 108.104  1.00  0.00     0.120 A 
ATOM      4  C   UNL     1     103.447 104.171 110.832  1.00  0.00     0.021 A 
ATOM      5  N   UNL     1     104.787 104.798 108.960  1.00  0.00    -0.264 NA
ATOM      6  C   UNL     1     104.662 104.606 110.300  1.00  0.00     0.111 A 
ENDROOT
BRANCH   1   7
ATOM      7  C   UNL     1     101.379 103.900 107.669  1.00  0.00     0.073 C 
ATOM      8  O   UNL     1     100.221 104.301 107.956  1.00  0.00    -0.545 OA
ATOM      9  O   UNL     1     101.582 103.226 106.470  1.00  0.00    -0.545 OA
ENDBRANCH   1   7
TORSDOF 1
ENDMDL
