MODEL 1
REMARK VINA RESULT:    -3.403      0.000      0.000
REMARK INTER + INTRA:          -3.403
REMARK INTER:                  -3.403
REMARK INTRA:                   0.000
REMARK UNBOUND:                 0.000
REMARK SMILES CC1=CC[C@]23C[C@H]1C(C)(C)[C@H]2CC[C@H]3C
REMARK SMILES IDX 15 1 14 2 13 3 12 4 11 5 5 6 4 7 3 8 2 9 7 10 6 11 8 12 9 13
REMARK SMILES IDX 10 14 1 15
REMARK H PARENT
REMARK Flexibility Score: inf
ROOT
ATOM      1  C   UNL     1     139.168 134.988 121.197  1.00  0.00     0.008 C 
ATOM      2  C   UNL     1     139.544 135.799 122.447  1.00  0.00    -0.007 C 
ATOM      3  C   UNL     1     140.162 134.916 123.542  1.00  0.00     0.004 C 
ATOM      4  C   UNL     1     139.154 134.875 124.676  1.00  0.00     0.005 C 
ATOM      5  C   UNL     1     138.425 136.225 124.614  1.00  0.00     0.002 C 
ATOM      6  C   UNL     1     138.364 136.566 123.115  1.00  0.00    -0.020 C 
ATOM      7  C   UNL     1     138.479 138.107 122.876  1.00  0.00     0.035 C 
ATOM      8  C   UNL     1     137.237 138.871 123.298  1.00  0.00    -0.027 C 
ATOM      9  C   UNL     1     136.115 138.235 123.702  1.00  0.00    -0.074 C 
ATOM     10  C   UNL     1     136.133 136.717 123.882  1.00  0.00     0.021 C 
ATOM     11  C   UNL     1     136.942 136.129 122.728  1.00  0.00     0.016 C 
ATOM     12  C   UNL     1     136.945 136.284 125.144  1.00  0.00    -0.025 C 
ATOM     13  C   UNL     1     136.834 137.291 126.317  1.00  0.00     0.012 C 
ATOM     14  C   UNL     1     136.390 134.931 125.662  1.00  0.00     0.012 C 
ATOM     15  C   UNL     1     134.876 139.027 124.012  1.00  0.00     0.039 C 
ENDROOT
TORSDOF 0
ENDMDL
MODEL 2
REMARK VINA RESULT:    -3.156      1.217      2.952
REMARK INTER + INTRA:          -3.156
REMARK INTER:                  -3.156
REMARK INTRA:                   0.000
REMARK UNBOUND:                 0.000
REMARK SMILES CC1=CC[C@]23C[C@H]1C(C)(C)[C@H]2CC[C@H]3C
REMARK SMILES IDX 15 1 14 2 13 3 12 4 11 5 5 6 4 7 3 8 2 9 7 10 6 11 8 12 9 13
REMARK SMILES IDX 10 14 1 15
REMARK H PARENT
REMARK Flexibility Score: inf
ROOT
ATOM      1  C   UNL     1     141.154 136.956 124.958  1.00  0.00     0.008 C 
ATOM      2  C   UNL     1     140.072 135.914 124.633  1.00  0.00    -0.007 C 
ATOM      3  C   UNL     1     140.499 134.978 123.492  1.00  0.00     0.004 C 
ATOM      4  C   UNL     1     139.603 135.310 122.312  1.00  0.00     0.005 C 
ATOM      5  C   UNL     1     138.279 135.778 122.932  1.00  0.00     0.002 C 
ATOM      6  C   UNL     1     138.689 136.504 124.225  1.00  0.00    -0.020 C 
ATOM      7  C   UNL     1     137.628 136.300 125.355  1.00  0.00     0.035 C 
ATOM      8  C   UNL     1     136.338 137.063 125.107  1.00  0.00    -0.027 C 
ATOM      9  C   UNL     1     136.213 137.930 124.078  1.00  0.00    -0.074 C 
ATOM     10  C   UNL     1     137.336 138.043 123.047  1.00  0.00     0.021 C 
ATOM     11  C   UNL     1     138.660 137.983 123.805  1.00  0.00     0.016 C 
ATOM     12  C   UNL     1     137.404 136.796 122.110  1.00  0.00    -0.025 C 
ATOM     13  C   UNL     1     136.013 136.184 121.806  1.00  0.00     0.012 C 
ATOM     14  C   UNL     1     138.014 137.219 120.748  1.00  0.00     0.012 C 
ATOM     15  C   UNL     1     134.955 138.739 123.930  1.00  0.00     0.039 C 
ENDROOT
TORSDOF 0
ENDMDL
MODEL 3
REMARK VINA RESULT:    -1.184      1.215      4.221
REMARK INTER + INTRA:          -1.184
REMARK INTER:                  -1.184
REMARK INTRA:                   0.000
REMARK UNBOUND:                 0.000
REMARK SMILES CC1=CC[C@]23C[C@H]1C(C)(C)[C@H]2CC[C@H]3C
REMARK SMILES IDX 15 1 14 2 13 3 12 4 11 5 5 6 4 7 3 8 2 9 7 10 6 11 8 12 9 13
REMARK SMILES IDX 10 14 1 15
REMARK H PARENT
REMARK Flexibility Score: inf
ROOT
ATOM      1  C   UNL     1     135.993 140.037 125.296  1.00  0.00     0.008 C 
ATOM      2  C   UNL     1     136.200 139.438 123.895  1.00  0.00    -0.007 C 
ATOM      3  C   UNL     1     134.876 139.000 123.254  1.00  0.00     0.004 C 
ATOM      4  C   UNL     1     134.914 137.484 123.190  1.00  0.00     0.005 C 
ATOM      5  C   UNL     1     136.399 137.126 123.032  1.00  0.00     0.002 C 
ATOM      6  C   UNL     1     137.146 138.201 123.841  1.00  0.00    -0.020 C 
ATOM      7  C   UNL     1     138.517 138.562 123.180  1.00  0.00     0.035 C 
ATOM      8  C   UNL     1     139.554 137.461 123.319  1.00  0.00    -0.027 C 
ATOM      9  C   UNL     1     139.324 136.358 124.065  1.00  0.00    -0.074 C 
ATOM     10  C   UNL     1     137.938 136.133 124.669  1.00  0.00     0.021 C 
ATOM     11  C   UNL     1     137.432 137.485 125.171  1.00  0.00     0.016 C 
ATOM     12  C   UNL     1     136.882 135.737 123.588  1.00  0.00    -0.025 C 
ATOM     13  C   UNL     1     137.475 134.876 122.443  1.00  0.00     0.012 C 
ATOM     14  C   UNL     1     135.770 134.887 124.256  1.00  0.00     0.012 C 
ATOM     15  C   UNL     1     140.415 135.343 124.258  1.00  0.00     0.039 C 
ENDROOT
TORSDOF 0
ENDMDL
MODEL 4
REMARK VINA RESULT:    -0.806     13.945     16.530
REMARK INTER + INTRA:          -0.806
REMARK INTER:                  -0.806
REMARK INTRA:                   0.000
REMARK UNBOUND:                 0.000
REMARK SMILES CC1=CC[C@]23C[C@H]1C(C)(C)[C@H]2CC[C@H]3C
REMARK SMILES IDX 15 1 14 2 13 3 12 4 11 5 5 6 4 7 3 8 2 9 7 10 6 11 8 12 9 13
REMARK SMILES IDX 10 14 1 15
REMARK H PARENT
REMARK Flexibility Score: inf
ROOT
ATOM      1  C   UNL     1     136.443 149.509 124.573  1.00  0.00     0.008 C 
ATOM      2  C   UNL     1     135.740 150.847 124.293  1.00  0.00    -0.007 C 
ATOM      3  C   UNL     1     134.876 150.789 123.025  1.00  0.00     0.004 C 
ATOM      4  C   UNL     1     135.555 151.685 122.005  1.00  0.00     0.005 C 
ATOM      5  C   UNL     1     136.249 152.778 122.830  1.00  0.00     0.002 C 
ATOM      6  C   UNL     1     136.691 152.070 124.122  1.00  0.00    -0.020 C 
ATOM      7  C   UNL     1     136.612 153.028 125.354  1.00  0.00     0.035 C 
ATOM      8  C   UNL     1     137.688 154.101 125.346  1.00  0.00    -0.027 C 
ATOM      9  C   UNL     1     138.678 154.105 124.426  1.00  0.00    -0.074 C 
ATOM     10  C   UNL     1     138.643 153.100 123.276  1.00  0.00     0.021 C 
ATOM     11  C   UNL     1     138.173 151.765 123.850  1.00  0.00     0.016 C 
ATOM     12  C   UNL     1     137.540 153.445 122.226  1.00  0.00    -0.025 C 
ATOM     13  C   UNL     1     137.323 154.969 122.046  1.00  0.00     0.012 C 
ATOM     14  C   UNL     1     137.967 152.888 120.842  1.00  0.00     0.012 C 
ATOM     15  C   UNL     1     139.779 155.125 124.517  1.00  0.00     0.039 C 
ENDROOT
TORSDOF 0
ENDMDL
