MODEL 1
REMARK VINA RESULT:    -4.105      0.000      0.000
REMARK INTER + INTRA:          -8.577
REMARK INTER:                  -7.464
REMARK INTRA:                  -1.113
REMARK UNBOUND:                -1.113
REMARK SMILES CCCCCC=CCC=CCCCCCCCC(=O)[O-]
REMARK SMILES IDX 11 1 12 2 13 3 14 4 15 5 16 6 17 7 18 8 19 9 20 10 10 11
REMARK SMILES IDX 9 12 8 13 7 14 6 15 5 16 4 17 3 18 2 19 1 20
REMARK H PARENT
REMARK Flexibility Score: inf
ROOT
ATOM      1  C   UNL     1      66.764  27.627  60.818  1.00  0.00     0.027 C 
ENDROOT
BRANCH   1   2
ATOM      2  C   UNL     1      67.774  28.779  60.908  1.00  0.00     0.004 C 
BRANCH   2   3
ATOM      3  C   UNL     1      68.645  28.686  62.173  1.00  0.00     0.000 C 
BRANCH   3   4
ATOM      4  C   UNL     1      69.778  29.725  62.186  1.00  0.00     0.000 C 
BRANCH   4   5
ATOM      5  C   UNL     1      71.040  29.236  61.454  1.00  0.00     0.000 C 
BRANCH   5   6
ATOM      6  C   UNL     1      71.532  30.235  60.396  1.00  0.00     0.006 C 
BRANCH   6   7
ATOM      7  C   UNL     1      71.268  31.694  60.794  1.00  0.00     0.053 C 
BRANCH   7   8
ATOM      8  C   UNL     1      70.418  32.371  59.766  1.00  0.00     0.041 C 
ATOM      9  O   UNL     1      69.654  31.692  59.031  1.00  0.00    -0.550 OA
ATOM     10  O   UNL     1      70.501  33.746  59.590  1.00  0.00    -0.550 OA
ENDBRANCH   7   8
ENDBRANCH   6   7
ENDBRANCH   5   6
ENDBRANCH   4   5
ENDBRANCH   3   4
ENDBRANCH   2   3
ENDBRANCH   1   2
BRANCH   1  11
ATOM     11  C   UNL     1      65.366  28.091  61.123  1.00  0.00    -0.031 C 
ATOM     12  C   UNL     1      64.964  29.343  60.854  1.00  0.00    -0.027 C 
BRANCH  12  13
ATOM     13  C   UNL     1      63.569  29.806  61.168  1.00  0.00     0.054 C 
BRANCH  13  14
ATOM     14  C   UNL     1      63.442  31.285  60.940  1.00  0.00    -0.027 C 
ATOM     15  C   UNL     1      63.956  31.873  59.849  1.00  0.00    -0.031 C 
BRANCH  15  16
ATOM     16  C   UNL     1      63.822  33.353  59.615  1.00  0.00     0.027 C 
BRANCH  16  17
ATOM     17  C   UNL     1      63.573  34.129  60.917  1.00  0.00     0.004 C 
BRANCH  17  18
ATOM     18  C   UNL     1      62.411  35.125  60.783  1.00  0.00     0.000 C 
BRANCH  18  19
ATOM     19  C   UNL     1      62.460  36.179  61.895  1.00  0.00    -0.003 C 
ATOM     20  C   UNL     1      63.670  35.969  62.802  1.00  0.00     0.004 C 
ENDBRANCH  18  19
ENDBRANCH  17  18
ENDBRANCH  16  17
ENDBRANCH  15  16
ENDBRANCH  13  14
ENDBRANCH  12  13
ENDBRANCH   1  11
TORSDOF 14
ENDMDL
MODEL 2
REMARK VINA RESULT:    -4.044      3.836      5.268
REMARK INTER + INTRA:          -8.467
REMARK INTER:                  -6.412
REMARK INTRA:                  -2.055
REMARK UNBOUND:                -1.113
REMARK SMILES CCCCCC=CCC=CCCCCCCCC(=O)[O-]
REMARK SMILES IDX 11 1 12 2 13 3 14 4 15 5 16 6 17 7 18 8 19 9 20 10 10 11
REMARK SMILES IDX 9 12 8 13 7 14 6 15 5 16 4 17 3 18 2 19 1 20
REMARK H PARENT
REMARK Flexibility Score: inf
ROOT
ATOM      1  C   UNL     1      60.607  28.882  59.319  1.00  0.00     0.027 C 
ENDROOT
BRANCH   1   2
ATOM      2  C   UNL     1      60.413  29.333  60.773  1.00  0.00     0.004 C 
BRANCH   2   3
ATOM      3  C   UNL     1      61.551  28.845  61.687  1.00  0.00     0.000 C 
BRANCH   3   4
ATOM      4  C   UNL     1      62.872  29.587  61.431  1.00  0.00     0.000 C 
BRANCH   4   5
ATOM      5  C   UNL     1      63.989  28.654  60.932  1.00  0.00     0.000 C 
BRANCH   5   6
ATOM      6  C   UNL     1      64.843  29.296  59.827  1.00  0.00     0.006 C 
BRANCH   6   7
ATOM      7  C   UNL     1      64.528  30.786  59.629  1.00  0.00     0.053 C 
BRANCH   7   8
ATOM      8  C   UNL     1      64.784  31.189  58.211  1.00  0.00     0.041 C 
ATOM      9  O   UNL     1      64.083  30.711  57.281  1.00  0.00    -0.550 OA
ATOM     10  O   UNL     1      65.825  32.059  57.912  1.00  0.00    -0.550 OA
ENDBRANCH   7   8
ENDBRANCH   6   7
ENDBRANCH   5   6
ENDBRANCH   4   5
ENDBRANCH   3   4
ENDBRANCH   2   3
ENDBRANCH   1   2
BRANCH   1  11
ATOM     11  C   UNL     1      60.822  30.054  58.400  1.00  0.00    -0.031 C 
ATOM     12  C   UNL     1      60.858  31.314  58.861  1.00  0.00    -0.027 C 
BRANCH  12  13
ATOM     13  C   UNL     1      61.064  32.484  57.939  1.00  0.00     0.054 C 
BRANCH  13  14
ATOM     14  C   UNL     1      61.548  33.680  58.707  1.00  0.00    -0.027 C 
ATOM     15  C   UNL     1      62.382  33.552  59.750  1.00  0.00    -0.031 C 
BRANCH  15  16
ATOM     16  C   UNL     1      62.876  34.750  60.516  1.00  0.00     0.027 C 
BRANCH  16  17
ATOM     17  C   UNL     1      61.737  35.708  60.895  1.00  0.00     0.004 C 
BRANCH  17  18
ATOM     18  C   UNL     1      62.134  36.654  62.039  1.00  0.00     0.000 C 
BRANCH  18  19
ATOM     19  C   UNL     1      63.320  36.092  62.830  1.00  0.00    -0.003 C 
ATOM     20  C   UNL     1      63.323  36.612  64.265  1.00  0.00     0.004 C 
ENDBRANCH  18  19
ENDBRANCH  17  18
ENDBRANCH  16  17
ENDBRANCH  15  16
ENDBRANCH  13  14
ENDBRANCH  12  13
ENDBRANCH   1  11
TORSDOF 14
ENDMDL
MODEL 3
REMARK VINA RESULT:    -4.034     12.773     14.695
REMARK INTER + INTRA:          -8.449
REMARK INTER:                  -6.261
REMARK INTRA:                  -2.188
REMARK UNBOUND:                -1.113
REMARK SMILES CCCCCC=CCC=CCCCCCCCC(=O)[O-]
REMARK SMILES IDX 11 1 12 2 13 3 14 4 15 5 16 6 17 7 18 8 19 9 20 10 10 11
REMARK SMILES IDX 9 12 8 13 7 14 6 15 5 16 4 17 3 18 2 19 1 20
REMARK H PARENT
REMARK Flexibility Score: inf
ROOT
ATOM      1  C   UNL     1      58.476  29.145  52.514  1.00  0.00     0.027 C 
ENDROOT
BRANCH   1   2
ATOM      2  C   UNL     1      58.823  30.069  51.339  1.00  0.00     0.004 C 
BRANCH   2   3
ATOM      3  C   UNL     1      58.407  29.465  49.986  1.00  0.00     0.000 C 
BRANCH   3   4
ATOM      4  C   UNL     1      59.402  28.409  49.481  1.00  0.00     0.000 C 
BRANCH   4   5
ATOM      5  C   UNL     1      58.941  26.970  49.775  1.00  0.00     0.000 C 
BRANCH   5   6
ATOM      6  C   UNL     1      60.085  26.075  50.275  1.00  0.00     0.006 C 
BRANCH   6   7
ATOM      7  C   UNL     1      59.589  24.931  51.172  1.00  0.00     0.053 C 
BRANCH   7   8
ATOM      8  C   UNL     1      60.437  23.713  50.981  1.00  0.00     0.041 C 
ATOM      9  O   UNL     1      60.022  22.588  51.364  1.00  0.00    -0.550 OA
ATOM     10  O   UNL     1      61.703  23.827  50.421  1.00  0.00    -0.550 OA
ENDBRANCH   7   8
ENDBRANCH   6   7
ENDBRANCH   5   6
ENDBRANCH   4   5
ENDBRANCH   3   4
ENDBRANCH   2   3
ENDBRANCH   1   2
BRANCH   1  11
ATOM     11  C   UNL     1      57.150  29.505  53.128  1.00  0.00    -0.031 C 
ATOM     12  C   UNL     1      56.638  30.741  53.026  1.00  0.00    -0.027 C 
BRANCH  12  13
ATOM     13  C   UNL     1      55.318  31.100  53.648  1.00  0.00     0.054 C 
BRANCH  13  14
ATOM     14  C   UNL     1      54.199  30.362  52.970  1.00  0.00    -0.027 C 
ATOM     15  C   UNL     1      54.103  30.312  51.633  1.00  0.00    -0.031 C 
BRANCH  15  16
ATOM     16  C   UNL     1      52.987  29.566  50.951  1.00  0.00     0.027 C 
BRANCH  16  17
ATOM     17  C   UNL     1      53.470  28.257  50.307  1.00  0.00     0.004 C 
BRANCH  17  18
ATOM     18  C   UNL     1      54.995  28.093  50.404  1.00  0.00     0.000 C 
BRANCH  18  19
ATOM     19  C   UNL     1      55.383  26.614  50.508  1.00  0.00    -0.003 C 
ATOM     20  C   UNL     1      55.923  26.282  51.896  1.00  0.00     0.004 C 
ENDBRANCH  18  19
ENDBRANCH  17  18
ENDBRANCH  16  17
ENDBRANCH  15  16
ENDBRANCH  13  14
ENDBRANCH  12  13
ENDBRANCH   1  11
TORSDOF 14
ENDMDL
MODEL 4
REMARK VINA RESULT:    -4.011      3.957      7.458
REMARK INTER + INTRA:          -8.406
REMARK INTER:                  -6.392
REMARK INTRA:                  -2.015
REMARK UNBOUND:                -1.113
REMARK SMILES CCCCCC=CCC=CCCCCCCCC(=O)[O-]
REMARK SMILES IDX 11 1 12 2 13 3 14 4 15 5 16 6 17 7 18 8 19 9 20 10 10 11
REMARK SMILES IDX 9 12 8 13 7 14 6 15 5 16 4 17 3 18 2 19 1 20
REMARK H PARENT
REMARK Flexibility Score: inf
ROOT
ATOM      1  C   UNL     1      62.401  36.387  62.008  1.00  0.00     0.027 C 
ENDROOT
BRANCH   1   2
ATOM      2  C   UNL     1      63.651  35.498  62.027  1.00  0.00     0.004 C 
BRANCH   2   3
ATOM      3  C   UNL     1      63.874  34.784  60.682  1.00  0.00     0.000 C 
BRANCH   3   4
ATOM      4  C   UNL     1      63.681  33.263  60.782  1.00  0.00     0.000 C 
BRANCH   4   5
ATOM      5  C   UNL     1      62.819  32.697  59.639  1.00  0.00     0.000 C 
BRANCH   5   6
ATOM      6  C   UNL     1      62.982  31.178  59.475  1.00  0.00     0.006 C 
BRANCH   6   7
ATOM      7  C   UNL     1      63.491  30.498  60.753  1.00  0.00     0.053 C 
BRANCH   7   8
ATOM      8  C   UNL     1      64.697  29.665  60.457  1.00  0.00     0.041 C 
ATOM      9  O   UNL     1      65.533  30.045  59.596  1.00  0.00    -0.550 OA
ATOM     10  O   UNL     1      64.876  28.445  61.098  1.00  0.00    -0.550 OA
ENDBRANCH   7   8
ENDBRANCH   6   7
ENDBRANCH   5   6
ENDBRANCH   4   5
ENDBRANCH   3   4
ENDBRANCH   2   3
ENDBRANCH   1   2
BRANCH   1  11
ATOM     11  C   UNL     1      61.441  35.970  60.926  1.00  0.00    -0.031 C 
ATOM     12  C   UNL     1      60.371  36.714  60.608  1.00  0.00    -0.027 C 
BRANCH  12  13
ATOM     13  C   UNL     1      59.409  36.291  59.533  1.00  0.00     0.054 C 
BRANCH  13  14
ATOM     14  C   UNL     1      59.900  35.048  58.849  1.00  0.00    -0.027 C 
ATOM     15  C   UNL     1      59.120  33.963  58.722  1.00  0.00    -0.031 C 
BRANCH  15  16
ATOM     16  C   UNL     1      59.607  32.719  58.029  1.00  0.00     0.027 C 
BRANCH  16  17
ATOM     17  C   UNL     1      59.122  31.437  58.723  1.00  0.00     0.004 C 
BRANCH  17  18
ATOM     18  C   UNL     1      59.568  30.171  57.976  1.00  0.00     0.000 C 
BRANCH  18  19
ATOM     19  C   UNL     1      60.034  29.090  58.957  1.00  0.00    -0.003 C 
ATOM     20  C   UNL     1      59.770  29.505  60.402  1.00  0.00     0.004 C 
ENDBRANCH  18  19
ENDBRANCH  17  18
ENDBRANCH  16  17
ENDBRANCH  15  16
ENDBRANCH  13  14
ENDBRANCH  12  13
ENDBRANCH   1  11
TORSDOF 14
ENDMDL
MODEL 5
REMARK VINA RESULT:    -3.985     12.514     14.239
REMARK INTER + INTRA:          -8.360
REMARK INTER:                  -6.020
REMARK INTRA:                  -2.340
REMARK UNBOUND:                -1.113
REMARK SMILES CCCCCC=CCC=CCCCCCCCC(=O)[O-]
REMARK SMILES IDX 11 1 12 2 13 3 14 4 15 5 16 6 17 7 18 8 19 9 20 10 10 11
REMARK SMILES IDX 9 12 8 13 7 14 6 15 5 16 4 17 3 18 2 19 1 20
REMARK H PARENT
REMARK Flexibility Score: inf
ROOT
ATOM      1  C   UNL     1      57.721  26.109  51.361  1.00  0.00     0.027 C 
ENDROOT
BRANCH   1   2
ATOM      2  C   UNL     1      58.468  26.362  50.045  1.00  0.00     0.004 C 
BRANCH   2   3
ATOM      3  C   UNL     1      59.652  27.327  50.229  1.00  0.00     0.000 C 
BRANCH   3   4
ATOM      4  C   UNL     1      59.508  28.605  49.389  1.00  0.00     0.000 C 
BRANCH   4   5
ATOM      5  C   UNL     1      58.431  29.558  49.939  1.00  0.00     0.000 C 
BRANCH   5   6
ATOM      6  C   UNL     1      58.699  29.974  51.394  1.00  0.00     0.006 C 
BRANCH   6   7
ATOM      7  C   UNL     1      57.423  29.990  52.247  1.00  0.00     0.053 C 
BRANCH   7   8
ATOM      8  C   UNL     1      57.560  30.964  53.374  1.00  0.00     0.041 C 
ATOM      9  O   UNL     1      57.388  30.584  54.562  1.00  0.00    -0.550 OA
ATOM     10  O   UNL     1      57.832  32.300  53.110  1.00  0.00    -0.550 OA
ENDBRANCH   7   8
ENDBRANCH   6   7
ENDBRANCH   5   6
ENDBRANCH   4   5
ENDBRANCH   3   4
ENDBRANCH   2   3
ENDBRANCH   1   2
BRANCH   1  11
ATOM     11  C   UNL     1      56.230  26.207  51.179  1.00  0.00    -0.031 C 
ATOM     12  C   UNL     1      55.672  27.176  50.438  1.00  0.00    -0.027 C 
BRANCH  12  13
ATOM     13  C   UNL     1      54.182  27.276  50.266  1.00  0.00     0.054 C 
BRANCH  13  14
ATOM     14  C   UNL     1      53.647  28.476  50.993  1.00  0.00    -0.027 C 
ATOM     15  C   UNL     1      54.070  29.716  50.704  1.00  0.00    -0.031 C 
BRANCH  15  16
ATOM     16  C   UNL     1      53.528  30.921  51.426  1.00  0.00     0.027 C 
BRANCH  16  17
ATOM     17  C   UNL     1      53.003  30.573  52.828  1.00  0.00     0.004 C 
BRANCH  17  18
ATOM     18  C   UNL     1      53.908  31.128  53.938  1.00  0.00     0.000 C 
BRANCH  18  19
ATOM     19  C   UNL     1      54.191  32.619  53.722  1.00  0.00    -0.003 C 
ATOM     20  C   UNL     1      54.925  33.220  54.919  1.00  0.00     0.004 C 
ENDBRANCH  18  19
ENDBRANCH  17  18
ENDBRANCH  16  17
ENDBRANCH  15  16
ENDBRANCH  13  14
ENDBRANCH  12  13
ENDBRANCH   1  11
TORSDOF 14
ENDMDL
MODEL 6
REMARK VINA RESULT:    -3.939     12.050     14.343
REMARK INTER + INTRA:          -8.276
REMARK INTER:                  -6.168
REMARK INTRA:                  -2.108
REMARK UNBOUND:                -1.113
REMARK SMILES CCCCCC=CCC=CCCCCCCCC(=O)[O-]
REMARK SMILES IDX 11 1 12 2 13 3 14 4 15 5 16 6 17 7 18 8 19 9 20 10 10 11
REMARK SMILES IDX 9 12 8 13 7 14 6 15 5 16 4 17 3 18 2 19 1 20
REMARK H PARENT
REMARK Flexibility Score: inf
ROOT
ATOM      1  C   UNL     1      53.244  26.685  50.156  1.00  0.00     0.027 C 
ENDROOT
BRANCH   1   2
ATOM      2  C   UNL     1      54.656  26.223  49.774  1.00  0.00     0.004 C 
BRANCH   2   3
ATOM      3  C   UNL     1      55.651  26.377  50.937  1.00  0.00     0.000 C 
BRANCH   3   4
ATOM      4  C   UNL     1      56.989  26.988  50.492  1.00  0.00     0.000 C 
BRANCH   4   5
ATOM      5  C   UNL     1      57.081  28.496  50.785  1.00  0.00     0.000 C 
BRANCH   5   6
ATOM      6  C   UNL     1      58.253  29.168  50.055  1.00  0.00     0.006 C 
BRANCH   6   7
ATOM      7  C   UNL     1      59.291  28.156  49.550  1.00  0.00     0.053 C 
BRANCH   7   8
ATOM      8  C   UNL     1      60.577  28.308  50.299  1.00  0.00     0.041 C 
ATOM      9  O   UNL     1      61.675  28.280  49.684  1.00  0.00    -0.550 OA
ATOM     10  O   UNL     1      60.566  28.436  51.682  1.00  0.00    -0.550 OA
ENDBRANCH   7   8
ENDBRANCH   6   7
ENDBRANCH   5   6
ENDBRANCH   4   5
ENDBRANCH   3   4
ENDBRANCH   2   3
ENDBRANCH   1   2
BRANCH   1  11
ATOM     11  C   UNL     1      53.278  27.949  50.972  1.00  0.00    -0.031 C 
ATOM     12  C   UNL     1      53.463  29.150  50.405  1.00  0.00    -0.027 C 
BRANCH  12  13
ATOM     13  C   UNL     1      53.505  30.410  51.224  1.00  0.00     0.054 C 
BRANCH  13  14
ATOM     14  C   UNL     1      54.236  30.174  52.514  1.00  0.00    -0.027 C 
ATOM     15  C   UNL     1      55.333  30.877  52.835  1.00  0.00    -0.031 C 
BRANCH  15  16
ATOM     16  C   UNL     1      56.062  30.648  54.132  1.00  0.00     0.027 C 
BRANCH  16  17
ATOM     17  C   UNL     1      57.578  30.502  53.930  1.00  0.00     0.004 C 
BRANCH  17  18
ATOM     18  C   UNL     1      58.168  31.664  53.117  1.00  0.00     0.000 C 
BRANCH  18  19
ATOM     19  C   UNL     1      58.355  32.909  53.992  1.00  0.00    -0.003 C 
ATOM     20  C   UNL     1      57.526  34.080  53.472  1.00  0.00     0.004 C 
ENDBRANCH  18  19
ENDBRANCH  17  18
ENDBRANCH  16  17
ENDBRANCH  15  16
ENDBRANCH  13  14
ENDBRANCH  12  13
ENDBRANCH   1  11
TORSDOF 14
ENDMDL
MODEL 7
REMARK VINA RESULT:    -3.938     12.054     14.196
REMARK INTER + INTRA:          -8.274
REMARK INTER:                  -5.454
REMARK INTRA:                  -2.820
REMARK UNBOUND:                -1.113
REMARK SMILES CCCCCC=CCC=CCCCCCCCC(=O)[O-]
REMARK SMILES IDX 11 1 12 2 13 3 14 4 15 5 16 6 17 7 18 8 19 9 20 10 10 11
REMARK SMILES IDX 9 12 8 13 7 14 6 15 5 16 4 17 3 18 2 19 1 20
REMARK H PARENT
REMARK Flexibility Score: inf
ROOT
ATOM      1  C   UNL     1      58.754  30.740  52.334  1.00  0.00     0.027 C 
ENDROOT
BRANCH   1   2
ATOM      2  C   UNL     1      59.695  29.950  51.416  1.00  0.00     0.004 C 
BRANCH   2   3
ATOM      3  C   UNL     1      59.102  29.753  50.010  1.00  0.00     0.000 C 
BRANCH   3   4
ATOM      4  C   UNL     1      59.202  28.299  49.525  1.00  0.00     0.000 C 
BRANCH   4   5
ATOM      5  C   UNL     1      58.218  27.363  50.248  1.00  0.00     0.000 C 
BRANCH   5   6
ATOM      6  C   UNL     1      58.844  26.004  50.597  1.00  0.00     0.006 C 
BRANCH   6   7
ATOM      7  C   UNL     1      60.252  26.139  51.193  1.00  0.00     0.053 C 
BRANCH   7   8
ATOM      8  C   UNL     1      61.147  25.062  50.666  1.00  0.00     0.041 C 
ATOM      9  O   UNL     1      62.388  25.256  50.584  1.00  0.00    -0.550 OA
ATOM     10  O   UNL     1      60.606  23.861  50.225  1.00  0.00    -0.550 OA
ENDBRANCH   7   8
ENDBRANCH   6   7
ENDBRANCH   5   6
ENDBRANCH   4   5
ENDBRANCH   3   4
ENDBRANCH   2   3
ENDBRANCH   1   2
BRANCH   1  11
ATOM     11  C   UNL     1      58.013  29.834  53.280  1.00  0.00    -0.031 C 
ATOM     12  C   UNL     1      58.496  28.631  53.628  1.00  0.00    -0.027 C 
BRANCH  12  13
ATOM     13  C   UNL     1      57.750  27.725  54.566  1.00  0.00     0.054 C 
BRANCH  13  14
ATOM     14  C   UNL     1      57.096  26.606  53.807  1.00  0.00    -0.027 C 
ATOM     15  C   UNL     1      55.938  26.785  53.155  1.00  0.00    -0.031 C 
BRANCH  15  16
ATOM     16  C   UNL     1      55.286  25.666  52.386  1.00  0.00     0.027 C 
BRANCH  16  17
ATOM     17  C   UNL     1      54.110  26.158  51.528  1.00  0.00     0.004 C 
BRANCH  17  18
ATOM     18  C   UNL     1      54.581  26.960  50.306  1.00  0.00     0.000 C 
BRANCH  18  19
ATOM     19  C   UNL     1      54.073  28.405  50.368  1.00  0.00    -0.003 C 
ATOM     20  C   UNL     1      55.185  29.363  50.791  1.00  0.00     0.004 C 
ENDBRANCH  18  19
ENDBRANCH  17  18
ENDBRANCH  16  17
ENDBRANCH  15  16
ENDBRANCH  13  14
ENDBRANCH  12  13
ENDBRANCH   1  11
TORSDOF 14
ENDMDL
MODEL 8
REMARK VINA RESULT:    -3.931     12.237     15.465
REMARK INTER + INTRA:          -8.261
REMARK INTER:                  -6.200
REMARK INTRA:                  -2.061
REMARK UNBOUND:                -1.113
REMARK SMILES CCCCCC=CCC=CCCCCCCCC(=O)[O-]
REMARK SMILES IDX 11 1 12 2 13 3 14 4 15 5 16 6 17 7 18 8 19 9 20 10 10 11
REMARK SMILES IDX 9 12 8 13 7 14 6 15 5 16 4 17 3 18 2 19 1 20
REMARK H PARENT
REMARK Flexibility Score: inf
ROOT
ATOM      1  C   UNL     1      55.199  31.366  53.792  1.00  0.00     0.027 C 
ENDROOT
BRANCH   1   2
ATOM      2  C   UNL     1      54.257  30.324  53.176  1.00  0.00     0.004 C 
BRANCH   2   3
ATOM      3  C   UNL     1      53.896  30.659  51.718  1.00  0.00     0.000 C 
BRANCH   3   4
ATOM      4  C   UNL     1      54.510  29.669  50.717  1.00  0.00     0.000 C 
BRANCH   4   5
ATOM      5  C   UNL     1      53.549  28.524  50.349  1.00  0.00     0.000 C 
BRANCH   5   6
ATOM      6  C   UNL     1      54.256  27.162  50.275  1.00  0.00     0.006 C 
BRANCH   6   7
ATOM      7  C   UNL     1      55.756  27.258  50.585  1.00  0.00     0.053 C 
BRANCH   7   8
ATOM      8  C   UNL     1      56.045  26.702  51.944  1.00  0.00     0.041 C 
ATOM      9  O   UNL     1      55.570  25.588  52.285  1.00  0.00    -0.550 OA
ATOM     10  O   UNL     1      56.803  27.435  52.849  1.00  0.00    -0.550 OA
ENDBRANCH   7   8
ENDBRANCH   6   7
ENDBRANCH   5   6
ENDBRANCH   4   5
ENDBRANCH   3   4
ENDBRANCH   2   3
ENDBRANCH   1   2
BRANCH   1  11
ATOM     11  C   UNL     1      56.618  30.866  53.844  1.00  0.00    -0.031 C 
ATOM     12  C   UNL     1      57.519  31.203  52.908  1.00  0.00    -0.027 C 
BRANCH  12  13
ATOM     13  C   UNL     1      58.933  30.696  52.959  1.00  0.00     0.054 C 
BRANCH  13  14
ATOM     14  C   UNL     1      59.220  29.818  51.774  1.00  0.00    -0.027 C 
ATOM     15  C   UNL     1      58.461  29.864  50.668  1.00  0.00    -0.031 C 
BRANCH  15  16
ATOM     16  C   UNL     1      58.752  28.992  49.477  1.00  0.00     0.027 C 
BRANCH  16  17
ATOM     17  C   UNL     1      59.873  27.979  49.756  1.00  0.00     0.004 C 
BRANCH  17  18
ATOM     18  C   UNL     1      59.327  26.563  49.994  1.00  0.00     0.000 C 
BRANCH  18  19
ATOM     19  C   UNL     1      60.444  25.610  50.435  1.00  0.00    -0.003 C 
ATOM     20  C   UNL     1      61.779  26.342  50.553  1.00  0.00     0.004 C 
ENDBRANCH  18  19
ENDBRANCH  17  18
ENDBRANCH  16  17
ENDBRANCH  15  16
ENDBRANCH  13  14
ENDBRANCH  12  13
ENDBRANCH   1  11
TORSDOF 14
ENDMDL
MODEL 9
REMARK VINA RESULT:    -3.885     12.870     16.040
REMARK INTER + INTRA:          -8.178
REMARK INTER:                  -6.447
REMARK INTRA:                  -1.732
REMARK UNBOUND:                -1.113
REMARK SMILES CCCCCC=CCC=CCCCCCCCC(=O)[O-]
REMARK SMILES IDX 11 1 12 2 13 3 14 4 15 5 16 6 17 7 18 8 19 9 20 10 10 11
REMARK SMILES IDX 9 12 8 13 7 14 6 15 5 16 4 17 3 18 2 19 1 20
REMARK H PARENT
REMARK Flexibility Score: inf
ROOT
ATOM      1  C   UNL     1      55.776  26.603  51.166  1.00  0.00     0.027 C 
ENDROOT
BRANCH   1   2
ATOM      2  C   UNL     1      54.940  26.233  49.934  1.00  0.00     0.004 C 
BRANCH   2   3
ATOM      3  C   UNL     1      53.499  26.764  50.030  1.00  0.00     0.000 C 
BRANCH   3   4
ATOM      4  C   UNL     1      53.354  27.892  51.063  1.00  0.00     0.000 C 
BRANCH   4   5
ATOM      5  C   UNL     1      53.342  29.290  50.418  1.00  0.00     0.000 C 
BRANCH   5   6
ATOM      6  C   UNL     1      54.054  30.343  51.280  1.00  0.00     0.006 C 
BRANCH   6   7
ATOM      7  C   UNL     1      54.504  29.787  52.639  1.00  0.00     0.053 C 
BRANCH   7   8
ATOM      8  C   UNL     1      55.385  30.772  53.340  1.00  0.00     0.041 C 
ATOM      9  O   UNL     1      56.567  30.954  52.948  1.00  0.00    -0.550 OA
ATOM     10  O   UNL     1      54.915  31.456  54.455  1.00  0.00    -0.550 OA
ENDBRANCH   7   8
ENDBRANCH   6   7
ENDBRANCH   5   6
ENDBRANCH   4   5
ENDBRANCH   3   4
ENDBRANCH   2   3
ENDBRANCH   1   2
BRANCH   1  11
ATOM     11  C   UNL     1      57.070  27.266  50.779  1.00  0.00    -0.031 C 
ATOM     12  C   UNL     1      57.118  28.553  50.401  1.00  0.00    -0.027 C 
BRANCH  12  13
ATOM     13  C   UNL     1      58.411  29.209  50.006  1.00  0.00     0.054 C 
BRANCH  13  14
ATOM     14  C   UNL     1      59.459  28.174  49.712  1.00  0.00    -0.027 C 
ATOM     15  C   UNL     1      60.535  28.024  50.498  1.00  0.00    -0.031 C 
BRANCH  15  16
ATOM     16  C   UNL     1      61.582  26.981  50.209  1.00  0.00     0.027 C 
BRANCH  16  17
ATOM     17  C   UNL     1      61.444  25.751  51.118  1.00  0.00     0.004 C 
BRANCH  17  18
ATOM     18  C   UNL     1      60.393  24.760  50.596  1.00  0.00     0.000 C 
BRANCH  18  19
ATOM     19  C   UNL     1      61.057  23.488  50.057  1.00  0.00    -0.003 C 
ATOM     20  C   UNL     1      60.453  22.238  50.694  1.00  0.00     0.004 C 
ENDBRANCH  18  19
ENDBRANCH  17  18
ENDBRANCH  16  17
ENDBRANCH  15  16
ENDBRANCH  13  14
ENDBRANCH  12  13
ENDBRANCH   1  11
TORSDOF 14
ENDMDL
