MODEL 1
REMARK VINA RESULT:    -3.859      0.000      0.000
REMARK INTER + INTRA:         -10.010
REMARK INTER:                  -7.468
REMARK INTRA:                  -2.542
REMARK UNBOUND:                -2.542
REMARK SMILES CCCCCCCCCCCCCCCCCC(=O)[O-]
REMARK SMILES IDX 10 1 11 2 12 3 13 4 14 5 15 6 16 7 17 8 18 9 19 10 20 11
REMARK SMILES IDX 9 12 8 13 7 14 6 15 5 16 4 17 3 18 2 19 1 20
REMARK H PARENT
REMARK Flexibility Score: inf
ROOT
ATOM      1  C   UNL     1     -12.036   7.008 -19.277  1.00  0.00     0.000 C 
ENDROOT
BRANCH   1   2
ATOM      2  C   UNL     1     -12.191   8.538 -19.356  1.00  0.00     0.000 C 
BRANCH   2   3
ATOM      3  C   UNL     1     -10.936   9.292 -18.884  1.00  0.00     0.000 C 
BRANCH   3   4
ATOM      4  C   UNL     1      -9.783   8.352 -18.482  1.00  0.00     0.000 C 
BRANCH   4   5
ATOM      5  C   UNL     1      -9.037   8.739 -17.191  1.00  0.00     0.000 C 
BRANCH   5   6
ATOM      6  C   UNL     1      -8.207  10.023 -17.337  1.00  0.00     0.000 C 
BRANCH   6   7
ATOM      7  C   UNL     1      -8.569  11.038 -16.242  1.00  0.00     0.006 C 
BRANCH   7   8
ATOM      8  C   UNL     1      -7.867  10.732 -14.911  1.00  0.00     0.053 C 
BRANCH   8   9
ATOM      9  C   UNL     1      -6.416  11.101 -14.952  1.00  0.00     0.041 C 
ATOM     10  O   UNL     1      -6.063  12.303 -14.827  1.00  0.00    -0.550 OA
ATOM     11  O   UNL     1      -5.450  10.113 -15.101  1.00  0.00    -0.550 OA
ENDBRANCH   8   9
ENDBRANCH   7   8
ENDBRANCH   6   7
ENDBRANCH   5   6
ENDBRANCH   4   5
ENDBRANCH   3   4
ENDBRANCH   2   3
ENDBRANCH   1   2
BRANCH   1  12
ATOM     12  C   UNL     1     -12.278   6.254 -20.598  1.00  0.00     0.000 C 
BRANCH  12  13
ATOM     13  C   UNL     1     -12.505   7.193 -21.792  1.00  0.00    -0.000 C 
BRANCH  13  14
ATOM     14  C   UNL     1     -11.317   7.142 -22.764  1.00  0.00    -0.000 C 
BRANCH  14  15
ATOM     15  C   UNL     1     -10.569   8.484 -22.850  1.00  0.00    -0.000 C 
BRANCH  15  16
ATOM     16  C   UNL     1      -9.227   8.456 -22.101  1.00  0.00    -0.000 C 
BRANCH  16  17
ATOM     17  C   UNL     1      -8.747   7.028 -21.789  1.00  0.00    -0.000 C 
BRANCH  17  18
ATOM     18  C   UNL     1      -7.478   6.977 -20.912  1.00  0.00    -0.000 C 
BRANCH  18  19
ATOM     19  C   UNL     1      -7.471   5.763 -19.972  1.00  0.00    -0.003 C 
ATOM     20  C   UNL     1      -8.842   5.093 -19.928  1.00  0.00     0.004 C 
ENDBRANCH  18  19
ENDBRANCH  17  18
ENDBRANCH  16  17
ENDBRANCH  15  16
ENDBRANCH  14  15
ENDBRANCH  13  14
ENDBRANCH  12  13
ENDBRANCH   1  12
TORSDOF 16
ENDMDL
MODEL 2
REMARK VINA RESULT:    -3.850      3.032      5.102
REMARK INTER + INTRA:          -9.993
REMARK INTER:                  -7.207
REMARK INTRA:                  -2.786
REMARK UNBOUND:                -2.542
REMARK SMILES CCCCCCCCCCCCCCCCCC(=O)[O-]
REMARK SMILES IDX 10 1 11 2 12 3 13 4 14 5 15 6 16 7 17 8 18 9 19 10 20 11
REMARK SMILES IDX 9 12 8 13 7 14 6 15 5 16 4 17 3 18 2 19 1 20
REMARK H PARENT
REMARK Flexibility Score: inf
ROOT
ATOM      1  C   UNL     1     -11.961   6.991 -19.566  1.00  0.00     0.000 C 
ENDROOT
BRANCH   1   2
ATOM      2  C   UNL     1     -12.847   7.933 -20.403  1.00  0.00     0.000 C 
BRANCH   2   3
ATOM      3  C   UNL     1     -12.621   7.779 -21.917  1.00  0.00     0.000 C 
BRANCH   3   4
ATOM      4  C   UNL     1     -11.346   6.984 -22.259  1.00  0.00     0.000 C 
BRANCH   4   5
ATOM      5  C   UNL     1     -10.129   7.836 -22.666  1.00  0.00     0.000 C 
BRANCH   5   6
ATOM      6  C   UNL     1     -10.478   9.314 -22.896  1.00  0.00     0.000 C 
BRANCH   6   7
ATOM      7  C   UNL     1      -9.568  10.228 -22.060  1.00  0.00     0.006 C 
BRANCH   7   8
ATOM      8  C   UNL     1     -10.324  11.438 -21.493  1.00  0.00     0.053 C 
BRANCH   8   9
ATOM      9  C   UNL     1      -9.698  12.732 -21.915  1.00  0.00     0.041 C 
ATOM     10  O   UNL     1      -8.451  12.888 -21.837  1.00  0.00    -0.550 OA
ATOM     11  O   UNL     1     -10.488  13.756 -22.421  1.00  0.00    -0.550 OA
ENDBRANCH   8   9
ENDBRANCH   7   8
ENDBRANCH   6   7
ENDBRANCH   5   6
ENDBRANCH   4   5
ENDBRANCH   3   4
ENDBRANCH   2   3
ENDBRANCH   1   2
BRANCH   1  12
ATOM     12  C   UNL     1     -10.861   7.684 -18.743  1.00  0.00     0.000 C 
BRANCH  12  13
ATOM     13  C   UNL     1     -10.939   9.217 -18.805  1.00  0.00    -0.000 C 
BRANCH  13  14
ATOM     14  C   UNL     1      -9.752   9.858 -18.070  1.00  0.00    -0.000 C 
BRANCH  14  15
ATOM     15  C   UNL     1      -8.839   8.813 -17.405  1.00  0.00    -0.000 C 
BRANCH  15  16
ATOM     16  C   UNL     1      -7.420   8.814 -17.997  1.00  0.00    -0.000 C 
BRANCH  16  17
ATOM     17  C   UNL     1      -7.032   7.463 -18.621  1.00  0.00    -0.000 C 
BRANCH  17  18
ATOM     18  C   UNL     1      -7.440   7.323 -20.102  1.00  0.00    -0.000 C 
BRANCH  18  19
ATOM     19  C   UNL     1      -7.603   5.855 -20.523  1.00  0.00    -0.003 C 
ATOM     20  C   UNL     1      -8.410   5.073 -19.490  1.00  0.00     0.004 C 
ENDBRANCH  18  19
ENDBRANCH  17  18
ENDBRANCH  16  17
ENDBRANCH  15  16
ENDBRANCH  14  15
ENDBRANCH  13  14
ENDBRANCH  12  13
ENDBRANCH   1  12
TORSDOF 16
ENDMDL
MODEL 3
REMARK VINA RESULT:    -3.824      1.741      2.137
REMARK INTER + INTRA:          -9.943
REMARK INTER:                  -6.930
REMARK INTRA:                  -3.014
REMARK UNBOUND:                -2.542
REMARK SMILES CCCCCCCCCCCCCCCCCC(=O)[O-]
REMARK SMILES IDX 10 1 11 2 12 3 13 4 14 5 15 6 16 7 17 8 18 9 19 10 20 11
REMARK SMILES IDX 9 12 8 13 7 14 6 15 5 16 4 17 3 18 2 19 1 20
REMARK H PARENT
REMARK Flexibility Score: inf
ROOT
ATOM      1  C   UNL     1     -12.818   7.916 -20.456  1.00  0.00     0.000 C 
ENDROOT
BRANCH   1   2
ATOM      2  C   UNL     1     -11.976   6.977 -19.573  1.00  0.00     0.000 C 
BRANCH   2   3
ATOM      3  C   UNL     1     -10.892   7.720 -18.773  1.00  0.00     0.000 C 
BRANCH   3   4
ATOM      4  C   UNL     1     -10.955   9.249 -18.948  1.00  0.00     0.000 C 
BRANCH   4   5
ATOM      5  C   UNL     1      -9.821  10.037 -18.266  1.00  0.00     0.000 C 
BRANCH   5   6
ATOM      6  C   UNL     1      -9.042   9.203 -17.237  1.00  0.00     0.000 C 
BRANCH   6   7
ATOM      7  C   UNL     1      -7.667   9.828 -16.953  1.00  0.00     0.006 C 
BRANCH   7   8
ATOM      8  C   UNL     1      -6.920  10.198 -18.242  1.00  0.00     0.053 C 
BRANCH   8   9
ATOM      9  C   UNL     1      -5.580   9.533 -18.318  1.00  0.00     0.041 C 
ATOM     10  O   UNL     1      -4.638  10.074 -18.955  1.00  0.00    -0.550 OA
ATOM     11  O   UNL     1      -5.364   8.327 -17.662  1.00  0.00    -0.550 OA
ENDBRANCH   8   9
ENDBRANCH   7   8
ENDBRANCH   6   7
ENDBRANCH   5   6
ENDBRANCH   4   5
ENDBRANCH   3   4
ENDBRANCH   2   3
ENDBRANCH   1   2
BRANCH   1  12
ATOM     12  C   UNL     1     -12.984   7.468 -21.920  1.00  0.00     0.000 C 
BRANCH  12  13
ATOM     13  C   UNL     1     -11.981   6.380 -22.332  1.00  0.00    -0.000 C 
BRANCH  13  14
ATOM     14  C   UNL     1     -10.886   6.958 -23.241  1.00  0.00    -0.000 C 
BRANCH  14  15
ATOM     15  C   UNL     1      -9.498   6.934 -22.578  1.00  0.00    -0.000 C 
BRANCH  15  16
ATOM     16  C   UNL     1      -9.049   8.328 -22.107  1.00  0.00    -0.000 C 
BRANCH  16  17
ATOM     17  C   UNL     1      -7.942   8.270 -21.040  1.00  0.00    -0.000 C 
BRANCH  17  18
ATOM     18  C   UNL     1      -7.372   6.854 -20.813  1.00  0.00    -0.000 C 
BRANCH  18  19
ATOM     19  C   UNL     1      -7.652   6.337 -19.395  1.00  0.00    -0.003 C 
ATOM     20  C   UNL     1      -8.487   5.061 -19.428  1.00  0.00     0.004 C 
ENDBRANCH  18  19
ENDBRANCH  17  18
ENDBRANCH  16  17
ENDBRANCH  15  16
ENDBRANCH  14  15
ENDBRANCH  13  14
ENDBRANCH  12  13
ENDBRANCH   1  12
TORSDOF 16
ENDMDL
MODEL 4
REMARK VINA RESULT:    -3.783      1.084      3.520
REMARK INTER + INTRA:          -9.864
REMARK INTER:                  -7.078
REMARK INTRA:                  -2.786
REMARK UNBOUND:                -2.542
REMARK SMILES CCCCCCCCCCCCCCCCCC(=O)[O-]
REMARK SMILES IDX 10 1 11 2 12 3 13 4 14 5 15 6 16 7 17 8 18 9 19 10 20 11
REMARK SMILES IDX 9 12 8 13 7 14 6 15 5 16 4 17 3 18 2 19 1 20
REMARK H PARENT
REMARK Flexibility Score: inf
ROOT
ATOM      1  C   UNL     1      -8.220   7.022 -22.164  1.00  0.00     0.000 C 
ENDROOT
BRANCH   1   2
ATOM      2  C   UNL     1      -7.461   6.956 -20.826  1.00  0.00     0.000 C 
BRANCH   2   3
ATOM      3  C   UNL     1      -8.191   6.116 -19.764  1.00  0.00     0.000 C 
BRANCH   3   4
ATOM      4  C   UNL     1      -9.070   6.964 -18.825  1.00  0.00     0.000 C 
BRANCH   4   5
ATOM      5  C   UNL     1      -8.344   8.113 -18.101  1.00  0.00     0.000 C 
BRANCH   5   6
ATOM      6  C   UNL     1      -9.263   8.911 -17.164  1.00  0.00     0.000 C 
BRANCH   6   7
ATOM      7  C   UNL     1      -8.713  10.328 -16.933  1.00  0.00     0.006 C 
BRANCH   7   8
ATOM      8  C   UNL     1      -8.385  10.589 -15.456  1.00  0.00     0.053 C 
BRANCH   8   9
ATOM      9  C   UNL     1      -6.997  11.126 -15.283  1.00  0.00     0.041 C 
ATOM     10  O   UNL     1      -6.000  10.391 -15.509  1.00  0.00    -0.550 OA
ATOM     11  O   UNL     1      -6.804  12.447 -14.899  1.00  0.00    -0.550 OA
ENDBRANCH   8   9
ENDBRANCH   7   8
ENDBRANCH   6   7
ENDBRANCH   5   6
ENDBRANCH   4   5
ENDBRANCH   3   4
ENDBRANCH   2   3
ENDBRANCH   1   2
BRANCH   1  12
ATOM     12  C   UNL     1      -8.986   8.333 -22.420  1.00  0.00     0.000 C 
BRANCH  12  13
ATOM     13  C   UNL     1      -8.428   9.520 -21.622  1.00  0.00    -0.000 C 
BRANCH  13  14
ATOM     14  C   UNL     1      -9.532  10.187 -20.786  1.00  0.00    -0.000 C 
BRANCH  14  15
ATOM     15  C   UNL     1     -10.933   9.654 -21.131  1.00  0.00    -0.000 C 
BRANCH  15  16
ATOM     16  C   UNL     1     -11.729   9.246 -19.879  1.00  0.00    -0.000 C 
BRANCH  16  17
ATOM     17  C   UNL     1     -12.808   8.192 -20.176  1.00  0.00    -0.000 C 
BRANCH  17  18
ATOM     18  C   UNL     1     -12.811   7.700 -21.639  1.00  0.00    -0.000 C 
BRANCH  18  19
ATOM     19  C   UNL     1     -12.085   6.357 -21.800  1.00  0.00    -0.003 C 
ATOM     20  C   UNL     1     -12.121   5.553 -20.503  1.00  0.00     0.004 C 
ENDBRANCH  18  19
ENDBRANCH  17  18
ENDBRANCH  16  17
ENDBRANCH  15  16
ENDBRANCH  14  15
ENDBRANCH  13  14
ENDBRANCH  12  13
ENDBRANCH   1  12
TORSDOF 16
ENDMDL
MODEL 5
REMARK VINA RESULT:    -3.764      1.413      3.142
REMARK INTER + INTRA:          -9.826
REMARK INTER:                  -6.625
REMARK INTRA:                  -3.201
REMARK UNBOUND:                -2.542
REMARK SMILES CCCCCCCCCCCCCCCCCC(=O)[O-]
REMARK SMILES IDX 10 1 11 2 12 3 13 4 14 5 15 6 16 7 17 8 18 9 19 10 20 11
REMARK SMILES IDX 9 12 8 13 7 14 6 15 5 16 4 17 3 18 2 19 1 20
REMARK H PARENT
REMARK Flexibility Score: inf
ROOT
ATOM      1  C   UNL     1     -10.018   6.870 -19.118  1.00  0.00     0.000 C 
ENDROOT
BRANCH   1   2
ATOM      2  C   UNL     1      -9.335   5.698 -19.847  1.00  0.00     0.000 C 
BRANCH   2   3
ATOM      3  C   UNL     1      -7.799   5.787 -19.817  1.00  0.00     0.000 C 
BRANCH   3   4
ATOM      4  C   UNL     1      -7.277   6.881 -18.866  1.00  0.00     0.000 C 
BRANCH   4   5
ATOM      5  C   UNL     1      -6.422   7.977 -19.529  1.00  0.00     0.000 C 
BRANCH   5   6
ATOM      6  C   UNL     1      -6.232   9.214 -18.638  1.00  0.00     0.000 C 
BRANCH   6   7
ATOM      7  C   UNL     1      -7.418   9.384 -17.676  1.00  0.00     0.006 C 
BRANCH   7   8
ATOM      8  C   UNL     1      -7.438  10.771 -17.018  1.00  0.00     0.053 C 
BRANCH   8   9
ATOM      9  C   UNL     1      -7.197  10.687 -15.542  1.00  0.00     0.041 C 
ATOM     10  O   UNL     1      -8.168  10.617 -14.743  1.00  0.00    -0.550 OA
ATOM     11  O   UNL     1      -5.898  10.659 -15.049  1.00  0.00    -0.550 OA
ENDBRANCH   8   9
ENDBRANCH   7   8
ENDBRANCH   6   7
ENDBRANCH   5   6
ENDBRANCH   4   5
ENDBRANCH   3   4
ENDBRANCH   2   3
ENDBRANCH   1   2
BRANCH   1  12
ATOM     12  C   UNL     1     -11.519   7.042 -19.413  1.00  0.00     0.000 C 
BRANCH  12  13
ATOM     13  C   UNL     1     -12.001   8.491 -19.253  1.00  0.00    -0.000 C 
BRANCH  13  14
ATOM     14  C   UNL     1     -10.819   9.436 -18.984  1.00  0.00    -0.000 C 
BRANCH  14  15
ATOM     15  C   UNL     1     -10.566  10.407 -20.150  1.00  0.00    -0.000 C 
BRANCH  15  16
ATOM     16  C   UNL     1      -9.174  10.219 -20.777  1.00  0.00    -0.000 C 
BRANCH  16  17
ATOM     17  C   UNL     1      -9.154   9.143 -21.875  1.00  0.00    -0.000 C 
BRANCH  17  18
ATOM     18  C   UNL     1     -10.464   9.060 -22.687  1.00  0.00    -0.000 C 
BRANCH  18  19
ATOM     19  C   UNL     1     -10.883   7.609 -22.965  1.00  0.00    -0.003 C 
ATOM     20  C   UNL     1      -9.674   6.745 -23.314  1.00  0.00     0.004 C 
ENDBRANCH  18  19
ENDBRANCH  17  18
ENDBRANCH  16  17
ENDBRANCH  15  16
ENDBRANCH  14  15
ENDBRANCH  13  14
ENDBRANCH  12  13
ENDBRANCH   1  12
TORSDOF 16
ENDMDL
MODEL 6
REMARK VINA RESULT:    -3.763      4.155      5.792
REMARK INTER + INTRA:          -9.824
REMARK INTER:                  -6.668
REMARK INTRA:                  -3.157
REMARK UNBOUND:                -2.542
REMARK SMILES CCCCCCCCCCCCCCCCCC(=O)[O-]
REMARK SMILES IDX 10 1 11 2 12 3 13 4 14 5 15 6 16 7 17 8 18 9 19 10 20 11
REMARK SMILES IDX 9 12 8 13 7 14 6 15 5 16 4 17 3 18 2 19 1 20
REMARK H PARENT
REMARK Flexibility Score: inf
ROOT
ATOM      1  C   UNL     1     -11.526   9.130 -19.227  1.00  0.00     0.000 C 
ENDROOT
BRANCH   1   2
ATOM      2  C   UNL     1     -10.103   9.003 -18.651  1.00  0.00     0.000 C 
BRANCH   2   3
ATOM      3  C   UNL     1      -9.624   7.544 -18.555  1.00  0.00     0.000 C 
BRANCH   3   4
ATOM      4  C   UNL     1      -8.089   7.411 -18.572  1.00  0.00     0.000 C 
BRANCH   4   5
ATOM      5  C   UNL     1      -7.514   6.561 -19.720  1.00  0.00     0.000 C 
BRANCH   5   6
ATOM      6  C   UNL     1      -8.005   5.106 -19.697  1.00  0.00     0.000 C 
BRANCH   6   7
ATOM      7  C   UNL     1      -7.153   4.224 -20.623  1.00  0.00     0.006 C 
BRANCH   7   8
ATOM      8  C   UNL     1      -6.508   5.030 -21.760  1.00  0.00     0.053 C 
BRANCH   8   9
ATOM      9  C   UNL     1      -6.633   4.328 -23.077  1.00  0.00     0.041 C 
ATOM     10  O   UNL     1      -5.605   4.057 -23.751  1.00  0.00    -0.550 OA
ATOM     11  O   UNL     1      -7.884   3.950 -23.549  1.00  0.00    -0.550 OA
ENDBRANCH   8   9
ENDBRANCH   7   8
ENDBRANCH   6   7
ENDBRANCH   5   6
ENDBRANCH   4   5
ENDBRANCH   3   4
ENDBRANCH   2   3
ENDBRANCH   1   2
BRANCH   1  12
ATOM     12  C   UNL     1     -12.212   7.798 -19.580  1.00  0.00     0.000 C 
BRANCH  12  13
ATOM     13  C   UNL     1     -13.169   7.915 -20.777  1.00  0.00    -0.000 C 
BRANCH  13  14
ATOM     14  C   UNL     1     -12.649   7.106 -21.975  1.00  0.00    -0.000 C 
BRANCH  14  15
ATOM     15  C   UNL     1     -11.743   5.939 -21.549  1.00  0.00    -0.000 C 
BRANCH  15  16
ATOM     16  C   UNL     1     -10.419   5.909 -22.332  1.00  0.00    -0.000 C 
BRANCH  16  17
ATOM     17  C   UNL     1     -10.118   7.238 -23.046  1.00  0.00    -0.000 C 
BRANCH  17  18
ATOM     18  C   UNL     1      -8.738   7.832 -22.694  1.00  0.00    -0.000 C 
BRANCH  18  19
ATOM     19  C   UNL     1      -8.842   9.279 -22.190  1.00  0.00    -0.003 C 
ATOM     20  C   UNL     1     -10.186   9.897 -22.564  1.00  0.00     0.004 C 
ENDBRANCH  18  19
ENDBRANCH  17  18
ENDBRANCH  16  17
ENDBRANCH  15  16
ENDBRANCH  14  15
ENDBRANCH  13  14
ENDBRANCH  12  13
ENDBRANCH   1  12
TORSDOF 16
ENDMDL
MODEL 7
REMARK VINA RESULT:    -3.755      1.472      2.682
REMARK INTER + INTRA:          -9.810
REMARK INTER:                  -6.754
REMARK INTRA:                  -3.056
REMARK UNBOUND:                -2.542
REMARK SMILES CCCCCCCCCCCCCCCCCC(=O)[O-]
REMARK SMILES IDX 10 1 11 2 12 3 13 4 14 5 15 6 16 7 17 8 18 9 19 10 20 11
REMARK SMILES IDX 9 12 8 13 7 14 6 15 5 16 4 17 3 18 2 19 1 20
REMARK H PARENT
REMARK Flexibility Score: inf
ROOT
ATOM      1  C   UNL     1     -11.768   7.141 -19.092  1.00  0.00     0.000 C 
ENDROOT
BRANCH   1   2
ATOM      2  C   UNL     1     -10.307   7.506 -18.771  1.00  0.00     0.000 C 
BRANCH   2   3
ATOM      3  C   UNL     1      -9.294   6.546 -19.417  1.00  0.00     0.000 C 
BRANCH   3   4
ATOM      4  C   UNL     1      -7.841   7.053 -19.327  1.00  0.00     0.000 C 
BRANCH   4   5
ATOM      5  C   UNL     1      -7.571   8.080 -18.212  1.00  0.00     0.000 C 
BRANCH   5   6
ATOM      6  C   UNL     1      -6.332   8.949 -18.481  1.00  0.00     0.000 C 
BRANCH   6   7
ATOM      7  C   UNL     1      -6.602  10.417 -18.115  1.00  0.00     0.006 C 
BRANCH   7   8
ATOM      8  C   UNL     1      -7.844  10.574 -17.226  1.00  0.00     0.053 C 
BRANCH   8   9
ATOM      9  C   UNL     1      -7.475  10.916 -15.815  1.00  0.00     0.041 C 
ATOM     10  O   UNL     1      -6.475  11.644 -15.578  1.00  0.00    -0.550 OA
ATOM     11  O   UNL     1      -8.253  10.453 -14.760  1.00  0.00    -0.550 OA
ENDBRANCH   8   9
ENDBRANCH   7   8
ENDBRANCH   6   7
ENDBRANCH   5   6
ENDBRANCH   4   5
ENDBRANCH   3   4
ENDBRANCH   2   3
ENDBRANCH   1   2
BRANCH   1  12
ATOM     12  C   UNL     1     -12.605   8.273 -19.716  1.00  0.00     0.000 C 
BRANCH  12  13
ATOM     13  C   UNL     1     -12.880   8.062 -21.213  1.00  0.00    -0.000 C 
BRANCH  13  14
ATOM     14  C   UNL     1     -12.630   6.600 -21.616  1.00  0.00    -0.000 C 
BRANCH  14  15
ATOM     15  C   UNL     1     -11.533   6.465 -22.686  1.00  0.00    -0.000 C 
BRANCH  15  16
ATOM     16  C   UNL     1     -10.870   7.812 -23.018  1.00  0.00    -0.000 C 
BRANCH  16  17
ATOM     17  C   UNL     1      -9.343   7.787 -22.833  1.00  0.00    -0.000 C 
BRANCH  17  18
ATOM     18  C   UNL     1      -8.766   9.098 -22.259  1.00  0.00    -0.000 C 
BRANCH  18  19
ATOM     19  C   UNL     1      -9.867  10.098 -21.878  1.00  0.00    -0.003 C 
ATOM     20  C   UNL     1      -9.671  10.617 -20.456  1.00  0.00     0.004 C 
ENDBRANCH  18  19
ENDBRANCH  17  18
ENDBRANCH  16  17
ENDBRANCH  15  16
ENDBRANCH  14  15
ENDBRANCH  13  14
ENDBRANCH  12  13
ENDBRANCH   1  12
TORSDOF 16
ENDMDL
MODEL 8
REMARK VINA RESULT:    -3.713      1.677      3.324
REMARK INTER + INTRA:          -9.729
REMARK INTER:                  -6.902
REMARK INTRA:                  -2.826
REMARK UNBOUND:                -2.542
REMARK SMILES CCCCCCCCCCCCCCCCCC(=O)[O-]
REMARK SMILES IDX 10 1 11 2 12 3 13 4 14 5 15 6 16 7 17 8 18 9 19 10 20 11
REMARK SMILES IDX 9 12 8 13 7 14 6 15 5 16 4 17 3 18 2 19 1 20
REMARK H PARENT
REMARK Flexibility Score: inf
ROOT
ATOM      1  C   UNL     1      -9.354   8.494 -17.576  1.00  0.00     0.000 C 
ENDROOT
BRANCH   1   2
ATOM      2  C   UNL     1      -8.623   7.495 -18.492  1.00  0.00     0.000 C 
BRANCH   2   3
ATOM      3  C   UNL     1      -7.098   7.695 -18.501  1.00  0.00     0.000 C 
BRANCH   3   4
ATOM      4  C   UNL     1      -6.576   8.295 -19.821  1.00  0.00     0.000 C 
BRANCH   4   5
ATOM      5  C   UNL     1      -5.803   9.619 -19.683  1.00  0.00     0.000 C 
BRANCH   5   6
ATOM      6  C   UNL     1      -6.708  10.812 -19.335  1.00  0.00     0.000 C 
BRANCH   6   7
ATOM      7  C   UNL     1      -6.198  11.539 -18.081  1.00  0.00     0.006 C 
BRANCH   7   8
ATOM      8  C   UNL     1      -7.000  11.166 -16.827  1.00  0.00     0.053 C 
BRANCH   8   9
ATOM      9  C   UNL     1      -6.141  10.502 -15.795  1.00  0.00     0.041 C 
ATOM     10  O   UNL     1      -6.371  10.679 -14.569  1.00  0.00    -0.550 OA
ATOM     11  O   UNL     1      -5.102   9.668 -16.187  1.00  0.00    -0.550 OA
ENDBRANCH   8   9
ENDBRANCH   7   8
ENDBRANCH   6   7
ENDBRANCH   5   6
ENDBRANCH   4   5
ENDBRANCH   3   4
ENDBRANCH   2   3
ENDBRANCH   1   2
BRANCH   1  12
ATOM     12  C   UNL     1     -10.125   9.611 -18.304  1.00  0.00     0.000 C 
BRANCH  12  13
ATOM     13  C   UNL     1     -10.144   9.431 -19.829  1.00  0.00    -0.000 C 
BRANCH  13  14
ATOM     14  C   UNL     1     -11.566   9.604 -20.384  1.00  0.00    -0.000 C 
BRANCH  14  15
ATOM     15  C   UNL     1     -12.510   8.470 -19.948  1.00  0.00    -0.000 C 
BRANCH  15  16
ATOM     16  C   UNL     1     -13.120   7.723 -21.146  1.00  0.00    -0.000 C 
BRANCH  16  17
ATOM     17  C   UNL     1     -12.280   6.512 -21.585  1.00  0.00    -0.000 C 
BRANCH  17  18
ATOM     18  C   UNL     1     -11.563   5.798 -20.420  1.00  0.00    -0.000 C 
BRANCH  18  19
ATOM     19  C   UNL     1     -10.211   5.208 -20.845  1.00  0.00    -0.003 C 
ATOM     20  C   UNL     1      -9.490   6.133 -21.821  1.00  0.00     0.004 C 
ENDBRANCH  18  19
ENDBRANCH  17  18
ENDBRANCH  16  17
ENDBRANCH  15  16
ENDBRANCH  14  15
ENDBRANCH  13  14
ENDBRANCH  12  13
ENDBRANCH   1  12
TORSDOF 16
ENDMDL
MODEL 9
REMARK VINA RESULT:    -3.699      1.346      2.739
REMARK INTER + INTRA:          -9.701
REMARK INTER:                  -6.880
REMARK INTRA:                  -2.821
REMARK UNBOUND:                -2.542
REMARK SMILES CCCCCCCCCCCCCCCCCC(=O)[O-]
REMARK SMILES IDX 10 1 11 2 12 3 13 4 14 5 15 6 16 7 17 8 18 9 19 10 20 11
REMARK SMILES IDX 9 12 8 13 7 14 6 15 5 16 4 17 3 18 2 19 1 20
REMARK H PARENT
REMARK Flexibility Score: inf
ROOT
ATOM      1  C   UNL     1     -12.525   7.427 -21.996  1.00  0.00     0.000 C 
ENDROOT
BRANCH   1   2
ATOM      2  C   UNL     1     -12.686   7.581 -20.473  1.00  0.00     0.000 C 
BRANCH   2   3
ATOM      3  C   UNL     1     -11.948   8.809 -19.913  1.00  0.00     0.000 C 
BRANCH   3   4
ATOM      4  C   UNL     1     -10.878   8.443 -18.866  1.00  0.00     0.000 C 
BRANCH   4   5
ATOM      5  C   UNL     1     -10.127   9.637 -18.247  1.00  0.00     0.000 C 
BRANCH   5   6
ATOM      6  C   UNL     1      -8.950   9.212 -17.356  1.00  0.00     0.000 C 
BRANCH   6   7
ATOM      7  C   UNL     1      -8.029  10.405 -17.058  1.00  0.00     0.006 C 
BRANCH   7   8
ATOM      8  C   UNL     1      -6.688  10.303 -17.800  1.00  0.00     0.053 C 
BRANCH   8   9
ATOM      9  C   UNL     1      -5.655   9.589 -16.983  1.00  0.00     0.041 C 
ATOM     10  O   UNL     1      -5.023   8.615 -17.470  1.00  0.00    -0.550 OA
ATOM     11  O   UNL     1      -5.371  10.017 -15.692  1.00  0.00    -0.550 OA
ENDBRANCH   8   9
ENDBRANCH   7   8
ENDBRANCH   6   7
ENDBRANCH   5   6
ENDBRANCH   4   5
ENDBRANCH   3   4
ENDBRANCH   2   3
ENDBRANCH   1   2
BRANCH   1  12
ATOM     12  C   UNL     1     -11.673   6.227 -22.449  1.00  0.00     0.000 C 
BRANCH  12  13
ATOM     13  C   UNL     1     -11.433   5.205 -21.328  1.00  0.00    -0.000 C 
BRANCH  13  14
ATOM     14  C   UNL     1      -9.931   4.940 -21.139  1.00  0.00    -0.000 C 
BRANCH  14  15
ATOM     15  C   UNL     1      -9.454   5.256 -19.711  1.00  0.00    -0.000 C 
BRANCH  15  16
ATOM     16  C   UNL     1      -7.922   5.198 -19.579  1.00  0.00    -0.000 C 
BRANCH  16  17
ATOM     17  C   UNL     1      -7.290   6.581 -19.350  1.00  0.00    -0.000 C 
BRANCH  17  18
ATOM     18  C   UNL     1      -6.888   7.304 -20.653  1.00  0.00    -0.000 C 
BRANCH  18  19
ATOM     19  C   UNL     1      -7.683   8.599 -20.867  1.00  0.00    -0.003 C 
ATOM     20  C   UNL     1      -8.749   8.420 -21.944  1.00  0.00     0.004 C 
ENDBRANCH  18  19
ENDBRANCH  17  18
ENDBRANCH  16  17
ENDBRANCH  15  16
ENDBRANCH  14  15
ENDBRANCH  13  14
ENDBRANCH  12  13
ENDBRANCH   1  12
TORSDOF 16
ENDMDL
