MODEL 1
REMARK VINA RESULT:    -7.795      0.000      0.000
REMARK INTER + INTRA:         -10.304
REMARK INTER:                  -9.846
REMARK INTRA:                  -0.459
REMARK UNBOUND:                -0.459
REMARK SMILES COc1cc(O)c2c(=O)c(OC)c(-c3ccc(O)c(O)c3)oc2c1
REMARK SMILES IDX 3 1 4 2 5 3 7 4 23 5 24 6 22 7 13 8 10 9 8 10 9 11 2 12 1 13
REMARK SMILES IDX 6 14 14 16 21 17 15 18 19 19 16 20 17 21 20 22 18 24 11 26
REMARK SMILES IDX 12 27
REMARK H PARENT 6 15 20 23 18 25
REMARK Flexibility Score: inf
ROOT
ATOM      1  C   UNL     1      18.052  12.817  35.045  1.00  0.00     0.126 A 
ATOM      2  C   UNL     1      18.361  11.464  34.889  1.00  0.00     0.093 A 
ATOM      3  C   UNL     1      18.054  10.784  33.702  1.00  0.00     0.134 A 
ATOM      4  C   UNL     1      17.419  11.473  32.640  1.00  0.00     0.111 A 
ATOM      5  C   UNL     1      17.106  12.840  32.803  1.00  0.00     0.146 A 
ATOM      6  C   UNL     1      17.422  13.503  33.993  1.00  0.00     0.094 A 
ATOM      7  O   UNL     1      16.506  13.515  31.832  1.00  0.00    -0.452 OA
ATOM      8  C   UNL     1      16.163  12.974  30.668  1.00  0.00     0.180 A 
ATOM      9  C   UNL     1      16.460  11.621  30.398  1.00  0.00     0.210 A 
ATOM     10  C   UNL     1      17.087  10.861  31.413  1.00  0.00     0.239 A 
ATOM     11  O   UNL     1      17.355   9.644  31.222  1.00  0.00    -0.285 OA
ENDROOT
BRANCH   1  12
ATOM     12  O   UNL     1      18.387  13.441  36.256  1.00  0.00    -0.496 OA
ATOM     13  C   UNL     1      19.708  13.829  36.623  1.00  0.00     0.278 C 
ENDBRANCH   1  12
BRANCH   3  14
ATOM     14  O   UNL     1      18.381   9.432  33.588  1.00  0.00    -0.507 OA
ATOM     15  H   UNL     1      17.854   8.804  32.992  1.00  0.00     0.293 HD
ENDBRANCH   3  14
BRANCH   8  16
ATOM     16  C   UNL     1      15.484  13.840  29.678  1.00  0.00     0.025 A 
ATOM     17  C   UNL     1      14.084  13.815  29.582  1.00  0.00     0.062 A 
ATOM     18  C   UNL     1      16.217  14.644  28.786  1.00  0.00     0.016 A 
ATOM     19  C   UNL     1      13.418  14.606  28.639  1.00  0.00     0.158 A 
ATOM     20  C   UNL     1      15.555  15.434  27.843  1.00  0.00     0.051 A 
ATOM     21  C   UNL     1      14.156  15.422  27.766  1.00  0.00     0.157 A 
BRANCH  19  22
ATOM     22  O   UNL     1      12.024  14.566  28.583  1.00  0.00    -0.504 OA
ATOM     23  H   UNL     1      11.479  13.970  29.194  1.00  0.00     0.293 HD
ENDBRANCH  19  22
BRANCH  21  24
ATOM     24  O   UNL     1      13.499  16.214  26.825  1.00  0.00    -0.504 OA
ATOM     25  H   UNL     1      12.574  16.590  27.001  1.00  0.00     0.293 HD
ENDBRANCH  21  24
ENDBRANCH   8  16
BRANCH   9  26
ATOM     26  O   UNL     1      16.142  11.110  29.124  1.00  0.00    -0.490 OA
ATOM     27  C   UNL     1      15.011  10.313  28.788  1.00  0.00     0.278 C 
ENDBRANCH   9  26
TORSDOF 6
ENDMDL
MODEL 2
REMARK VINA RESULT:    -7.702     10.811     12.494
REMARK INTER + INTRA:         -10.186
REMARK INTER:                  -9.711
REMARK INTRA:                  -0.475
REMARK UNBOUND:                -0.459
REMARK SMILES COc1cc(O)c2c(=O)c(OC)c(-c3ccc(O)c(O)c3)oc2c1
REMARK SMILES IDX 3 1 4 2 5 3 7 4 23 5 24 6 22 7 13 8 10 9 8 10 9 11 2 12 1 13
REMARK SMILES IDX 6 14 14 16 21 17 15 18 19 19 16 20 17 21 20 22 18 24 11 26
REMARK SMILES IDX 12 27
REMARK H PARENT 6 15 20 23 18 25
REMARK Flexibility Score: inf
ROOT
ATOM      1  C   UNL     1      18.366  23.521  34.630  1.00  0.00     0.126 A 
ATOM      2  C   UNL     1      18.391  24.878  34.962  1.00  0.00     0.093 A 
ATOM      3  C   UNL     1      17.207  25.578  35.231  1.00  0.00     0.134 A 
ATOM      4  C   UNL     1      15.962  24.907  35.167  1.00  0.00     0.111 A 
ATOM      5  C   UNL     1      15.941  23.536  34.828  1.00  0.00     0.146 A 
ATOM      6  C   UNL     1      17.133  22.853  34.565  1.00  0.00     0.094 A 
ATOM      7  O   UNL     1      14.792  22.877  34.752  1.00  0.00    -0.452 OA
ATOM      8  C   UNL     1      13.610  23.438  34.981  1.00  0.00     0.180 A 
ATOM      9  C   UNL     1      13.528  24.796  35.354  1.00  0.00     0.210 A 
ATOM     10  C   UNL     1      14.729  25.540  35.433  1.00  0.00     0.239 A 
ATOM     11  O   UNL     1      14.702  26.761  35.745  1.00  0.00    -0.285 OA
ENDROOT
BRANCH   1  12
ATOM     12  O   UNL     1      19.586  22.876  34.374  1.00  0.00    -0.496 OA
ATOM     13  C   UNL     1      20.529  22.510  35.377  1.00  0.00     0.278 C 
ENDBRANCH   1  12
BRANCH   3  14
ATOM     14  O   UNL     1      17.277  26.933  35.559  1.00  0.00    -0.507 OA
ATOM     15  H   UNL     1      17.166  27.257  36.513  1.00  0.00     0.293 HD
ENDBRANCH   3  14
BRANCH   8  16
ATOM     16  C   UNL     1      12.406  22.589  34.846  1.00  0.00     0.025 A 
ATOM     17  C   UNL     1      11.720  22.550  33.622  1.00  0.00     0.062 A 
ATOM     18  C   UNL     1      11.896  21.865  35.939  1.00  0.00     0.016 A 
ATOM     19  C   UNL     1      10.564  21.774  33.474  1.00  0.00     0.158 A 
ATOM     20  C   UNL     1      10.742  21.089  35.795  1.00  0.00     0.051 A 
ATOM     21  C   UNL     1      10.074  21.037  34.565  1.00  0.00     0.157 A 
BRANCH  19  22
ATOM     22  O   UNL     1       9.919  21.749  32.238  1.00  0.00    -0.504 OA
ATOM     23  H   UNL     1      10.102  21.029  31.550  1.00  0.00     0.293 HD
ENDBRANCH  19  22
BRANCH  21  24
ATOM     24  O   UNL     1       8.925  20.260  34.424  1.00  0.00    -0.504 OA
ATOM     25  H   UNL     1       8.028  20.675  34.199  1.00  0.00     0.293 HD
ENDBRANCH  21  24
ENDBRANCH   8  16
BRANCH   9  26
ATOM     26  O   UNL     1      12.259  25.330  35.656  1.00  0.00    -0.490 OA
ATOM     27  C   UNL     1      11.448  26.126  34.799  1.00  0.00     0.278 C 
ENDBRANCH   9  26
TORSDOF 6
ENDMDL
MODEL 3
REMARK VINA RESULT:    -7.652     10.819     13.496
REMARK INTER + INTRA:         -10.124
REMARK INTER:                  -9.676
REMARK INTRA:                  -0.448
REMARK UNBOUND:                -0.459
REMARK SMILES COc1cc(O)c2c(=O)c(OC)c(-c3ccc(O)c(O)c3)oc2c1
REMARK SMILES IDX 3 1 4 2 5 3 7 4 23 5 24 6 22 7 13 8 10 9 8 10 9 11 2 12 1 13
REMARK SMILES IDX 6 14 14 16 21 17 15 18 19 19 16 20 17 21 20 22 18 24 11 26
REMARK SMILES IDX 12 27
REMARK H PARENT 6 15 20 23 18 25
REMARK Flexibility Score: inf
ROOT
ATOM      1  C   UNL     1      11.985  21.997  35.872  1.00  0.00     0.126 A 
ATOM      2  C   UNL     1      11.500  23.182  36.433  1.00  0.00     0.093 A 
ATOM      3  C   UNL     1      12.368  24.231  36.768  1.00  0.00     0.134 A 
ATOM      4  C   UNL     1      13.759  24.095  36.537  1.00  0.00     0.111 A 
ATOM      5  C   UNL     1      14.244  22.896  35.972  1.00  0.00     0.146 A 
ATOM      6  C   UNL     1      13.363  21.860  35.642  1.00  0.00     0.094 A 
ATOM      7  O   UNL     1      15.541  22.731  35.748  1.00  0.00    -0.452 OA
ATOM      8  C   UNL     1      16.455  23.653  36.030  1.00  0.00     0.180 A 
ATOM      9  C   UNL     1      16.066  24.897  36.571  1.00  0.00     0.210 A 
ATOM     10  C   UNL     1      14.693  25.109  36.839  1.00  0.00     0.239 A 
ATOM     11  O   UNL     1      14.303  26.198  37.338  1.00  0.00    -0.285 OA
ENDROOT
BRANCH   1  12
ATOM     12  O   UNL     1      11.065  20.985  35.557  1.00  0.00    -0.496 OA
ATOM     13  C   UNL     1      10.405  20.860  34.301  1.00  0.00     0.278 C 
ENDBRANCH   1  12
BRANCH   3  14
ATOM     14  O   UNL     1      11.842  25.396  37.327  1.00  0.00    -0.507 OA
ATOM     15  H   UNL     1      11.889  26.287  36.845  1.00  0.00     0.293 HD
ENDBRANCH   3  14
BRANCH   8  16
ATOM     16  C   UNL     1      17.871  23.332  35.742  1.00  0.00     0.025 A 
ATOM     17  C   UNL     1      18.707  22.899  36.783  1.00  0.00     0.062 A 
ATOM     18  C   UNL     1      18.414  23.510  34.457  1.00  0.00     0.016 A 
ATOM     19  C   UNL     1      20.056  22.612  36.543  1.00  0.00     0.158 A 
ATOM     20  C   UNL     1      19.760  23.225  34.215  1.00  0.00     0.051 A 
ATOM     21  C   UNL     1      20.585  22.772  35.252  1.00  0.00     0.157 A 
BRANCH  19  22
ATOM     22  O   UNL     1      20.853  22.170  37.600  1.00  0.00    -0.504 OA
ATOM     23  H   UNL     1      20.490  22.067  38.540  1.00  0.00     0.293 HD
ENDBRANCH  19  22
BRANCH  21  24
ATOM     24  O   UNL     1      21.927  22.485  35.006  1.00  0.00    -0.504 OA
ATOM     25  H   UNL     1      22.562  22.233  35.755  1.00  0.00     0.293 HD
ENDBRANCH  21  24
ENDBRANCH   8  16
BRANCH   9  26
ATOM     26  O   UNL     1      17.062  25.871  36.787  1.00  0.00    -0.490 OA
ATOM     27  C   UNL     1      17.632  26.237  38.039  1.00  0.00     0.278 C 
ENDBRANCH   9  26
TORSDOF 6
ENDMDL
MODEL 4
REMARK VINA RESULT:    -7.619      1.676      7.122
REMARK INTER + INTRA:         -10.082
REMARK INTER:                  -9.627
REMARK INTRA:                  -0.456
REMARK UNBOUND:                -0.459
REMARK SMILES COc1cc(O)c2c(=O)c(OC)c(-c3ccc(O)c(O)c3)oc2c1
REMARK SMILES IDX 3 1 4 2 5 3 7 4 23 5 24 6 22 7 13 8 10 9 8 10 9 11 2 12 1 13
REMARK SMILES IDX 6 14 14 16 21 17 15 18 19 19 16 20 17 21 20 22 18 24 11 26
REMARK SMILES IDX 12 27
REMARK H PARENT 6 15 20 23 18 25
REMARK Flexibility Score: inf
ROOT
ATOM      1  C   UNL     1      16.203  14.338  28.749  1.00  0.00     0.126 A 
ATOM      2  C   UNL     1      16.408  13.135  28.069  1.00  0.00     0.093 A 
ATOM      3  C   UNL     1      17.061  12.058  28.686  1.00  0.00     0.134 A 
ATOM      4  C   UNL     1      17.523  12.186  30.019  1.00  0.00     0.111 A 
ATOM      5  C   UNL     1      17.316  13.405  30.701  1.00  0.00     0.146 A 
ATOM      6  C   UNL     1      16.661  14.467  30.070  1.00  0.00     0.094 A 
ATOM      7  O   UNL     1      17.742  13.562  31.947  1.00  0.00    -0.452 OA
ATOM      8  C   UNL     1      18.377  12.615  32.628  1.00  0.00     0.180 A 
ATOM      9  C   UNL     1      18.606  11.351  32.044  1.00  0.00     0.210 A 
ATOM     10  C   UNL     1      18.180  11.146  30.710  1.00  0.00     0.239 A 
ATOM     11  O   UNL     1      18.380  10.039  30.142  1.00  0.00    -0.285 OA
ENDROOT
BRANCH   1  12
ATOM     12  O   UNL     1      15.541  15.378  28.077  1.00  0.00    -0.496 OA
ATOM     13  C   UNL     1      14.125  15.516  28.006  1.00  0.00     0.278 C 
ENDBRANCH   1  12
BRANCH   3  14
ATOM     14  O   UNL     1      17.244  10.874  27.972  1.00  0.00    -0.507 OA
ATOM     15  H   UNL     1      17.321  10.867  26.961  1.00  0.00     0.293 HD
ENDBRANCH   3  14
BRANCH   8  16
ATOM     16  C   UNL     1      18.810  12.930  34.008  1.00  0.00     0.025 A 
ATOM     17  C   UNL     1      20.153  13.258  34.253  1.00  0.00     0.062 A 
ATOM     18  C   UNL     1      17.918  12.848  35.091  1.00  0.00     0.016 A 
ATOM     19  C   UNL     1      20.595  13.538  35.551  1.00  0.00     0.158 A 
ATOM     20  C   UNL     1      18.356  13.125  36.389  1.00  0.00     0.051 A 
ATOM     21  C   UNL     1      19.692  13.474  36.625  1.00  0.00     0.157 A 
BRANCH  19  22
ATOM     22  O   UNL     1      21.933  13.875  35.753  1.00  0.00    -0.504 OA
ATOM     23  H   UNL     1      22.642  13.175  35.939  1.00  0.00     0.293 HD
ENDBRANCH  19  22
BRANCH  21  24
ATOM     24  O   UNL     1      20.125  13.753  37.921  1.00  0.00    -0.504 OA
ATOM     25  H   UNL     1      20.900  14.382  38.097  1.00  0.00     0.293 HD
ENDBRANCH  21  24
ENDBRANCH   8  16
BRANCH   9  26
ATOM     26  O   UNL     1      19.219  10.354  32.829  1.00  0.00    -0.490 OA
ATOM     27  C   UNL     1      18.560   9.319  33.551  1.00  0.00     0.278 C 
ENDBRANCH   9  26
TORSDOF 6
ENDMDL
MODEL 5
REMARK VINA RESULT:    -6.721      2.555      4.198
REMARK INTER + INTRA:          -8.948
REMARK INTER:                  -8.483
REMARK INTRA:                  -0.465
REMARK UNBOUND:                -0.459
REMARK SMILES COc1cc(O)c2c(=O)c(OC)c(-c3ccc(O)c(O)c3)oc2c1
REMARK SMILES IDX 3 1 4 2 5 3 7 4 23 5 24 6 22 7 13 8 10 9 8 10 9 11 2 12 1 13
REMARK SMILES IDX 6 14 14 16 21 17 15 18 19 19 16 20 17 21 20 22 18 24 11 26
REMARK SMILES IDX 12 27
REMARK H PARENT 6 15 20 23 18 25
REMARK Flexibility Score: inf
ROOT
ATOM      1  C   UNL     1      18.664   9.509  35.718  1.00  0.00     0.126 A 
ATOM      2  C   UNL     1      18.633  10.716  36.420  1.00  0.00     0.093 A 
ATOM      3  C   UNL     1      18.180  11.895  35.812  1.00  0.00     0.134 A 
ATOM      4  C   UNL     1      17.744  11.870  34.465  1.00  0.00     0.111 A 
ATOM      5  C   UNL     1      17.780  10.648  33.758  1.00  0.00     0.146 A 
ATOM      6  C   UNL     1      18.234   9.481  34.382  1.00  0.00     0.094 A 
ATOM      7  O   UNL     1      17.386  10.588  32.493  1.00  0.00    -0.452 OA
ATOM      8  C   UNL     1      16.943  11.641  31.814  1.00  0.00     0.180 A 
ATOM      9  C   UNL     1      16.843  12.900  32.441  1.00  0.00     0.210 A 
ATOM     10  C   UNL     1      17.266  13.011  33.787  1.00  0.00     0.239 A 
ATOM     11  O   UNL     1      17.211  14.121  34.382  1.00  0.00    -0.285 OA
ENDROOT
BRANCH   1  12
ATOM     12  O   UNL     1      19.128   8.364  36.384  1.00  0.00    -0.496 OA
ATOM     13  C   UNL     1      18.607   7.886  37.620  1.00  0.00     0.278 C 
ENDBRANCH   1  12
BRANCH   3  14
ATOM     14  O   UNL     1      18.165  13.080  36.550  1.00  0.00    -0.507 OA
ATOM     15  H   UNL     1      18.877  13.286  37.241  1.00  0.00     0.293 HD
ENDBRANCH   3  14
BRANCH   8  16
ATOM     16  C   UNL     1      16.550  11.435  30.402  1.00  0.00     0.025 A 
ATOM     17  C   UNL     1      17.479  11.692  29.381  1.00  0.00     0.062 A 
ATOM     18  C   UNL     1      15.243  11.046  30.056  1.00  0.00     0.016 A 
ATOM     19  C   UNL     1      17.126  11.528  28.036  1.00  0.00     0.158 A 
ATOM     20  C   UNL     1      14.888  10.883  28.715  1.00  0.00     0.051 A 
ATOM     21  C   UNL     1      15.825  11.119  27.700  1.00  0.00     0.157 A 
BRANCH  19  22
ATOM     22  O   UNL     1      18.080  11.778  27.050  1.00  0.00    -0.504 OA
ATOM     23  H   UNL     1      17.926  12.454  26.312  1.00  0.00     0.293 HD
ENDBRANCH  19  22
BRANCH  21  24
ATOM     24  O   UNL     1      15.467  10.952  26.363  1.00  0.00    -0.504 OA
ATOM     25  H   UNL     1      14.520  10.714  26.093  1.00  0.00     0.293 HD
ENDBRANCH  21  24
ENDBRANCH   8  16
BRANCH   9  26
ATOM     26  O   UNL     1      16.300  13.972  31.704  1.00  0.00    -0.490 OA
ATOM     27  C   UNL     1      17.029  14.978  31.010  1.00  0.00     0.278 C 
ENDBRANCH   9  26
TORSDOF 6
ENDMDL
MODEL 6
REMARK VINA RESULT:    -6.628      2.254      7.647
REMARK INTER + INTRA:          -8.831
REMARK INTER:                  -8.368
REMARK INTRA:                  -0.463
REMARK UNBOUND:                -0.459
REMARK SMILES COc1cc(O)c2c(=O)c(OC)c(-c3ccc(O)c(O)c3)oc2c1
REMARK SMILES IDX 3 1 4 2 5 3 7 4 23 5 24 6 22 7 13 8 10 9 8 10 9 11 2 12 1 13
REMARK SMILES IDX 6 14 14 16 21 17 15 18 19 19 16 20 17 21 20 22 18 24 11 26
REMARK SMILES IDX 12 27
REMARK H PARENT 6 15 20 23 18 25
REMARK Flexibility Score: inf
ROOT
ATOM      1  C   UNL     1      16.509  12.304  26.493  1.00  0.00     0.126 A 
ATOM      2  C   UNL     1      16.073  13.619  26.678  1.00  0.00     0.093 A 
ATOM      3  C   UNL     1      16.207  14.258  27.918  1.00  0.00     0.134 A 
ATOM      4  C   UNL     1      16.793  13.566  29.007  1.00  0.00     0.111 A 
ATOM      5  C   UNL     1      17.231  12.237  28.816  1.00  0.00     0.146 A 
ATOM      6  C   UNL     1      17.091  11.617  27.571  1.00  0.00     0.094 A 
ATOM      7  O   UNL     1      17.778  11.558  29.815  1.00  0.00    -0.452 OA
ATOM      8  C   UNL     1      17.951  12.058  31.033  1.00  0.00     0.180 A 
ATOM      9  C   UNL     1      17.573  13.388  31.315  1.00  0.00     0.210 A 
ATOM     10  C   UNL     1      16.972  14.144  30.282  1.00  0.00     0.239 A 
ATOM     11  O   UNL     1      16.601  15.330  30.494  1.00  0.00    -0.285 OA
ENDROOT
BRANCH   1  12
ATOM     12  O   UNL     1      16.348  11.721  25.227  1.00  0.00    -0.496 OA
ATOM     13  C   UNL     1      15.443  10.659  24.939  1.00  0.00     0.278 C 
ENDBRANCH   1  12
BRANCH   3  14
ATOM     14  O   UNL     1      15.757  15.571  28.059  1.00  0.00    -0.507 OA
ATOM     15  H   UNL     1      16.011  16.296  27.397  1.00  0.00     0.293 HD
ENDBRANCH   3  14
BRANCH   8  16
ATOM     16  C   UNL     1      18.563  11.183  32.058  1.00  0.00     0.025 A 
ATOM     17  C   UNL     1      17.737  10.496  32.962  1.00  0.00     0.062 A 
ATOM     18  C   UNL     1      19.959  11.073  32.186  1.00  0.00     0.016 A 
ATOM     19  C   UNL     1      18.290   9.681  33.957  1.00  0.00     0.158 A 
ATOM     20  C   UNL     1      20.514  10.260  33.179  1.00  0.00     0.051 A 
ATOM     21  C   UNL     1      19.685   9.559  34.065  1.00  0.00     0.157 A 
BRANCH  19  22
ATOM     22  O   UNL     1      17.438   9.002  34.828  1.00  0.00    -0.504 OA
ATOM     23  H   UNL     1      16.677   9.468  35.307  1.00  0.00     0.293 HD
ENDBRANCH  19  22
BRANCH  21  24
ATOM     24  O   UNL     1      20.242   8.747  35.051  1.00  0.00    -0.504 OA
ATOM     25  H   UNL     1      21.091   9.010  35.538  1.00  0.00     0.293 HD
ENDBRANCH  21  24
ENDBRANCH   8  16
BRANCH   9  26
ATOM     26  O   UNL     1      17.841  13.899  32.601  1.00  0.00    -0.490 OA
ATOM     27  C   UNL     1      16.907  14.050  33.665  1.00  0.00     0.278 C 
ENDBRANCH   9  26
TORSDOF 6
ENDMDL
MODEL 7
REMARK VINA RESULT:    -6.563     11.953     13.259
REMARK INTER + INTRA:          -8.748
REMARK INTER:                  -8.279
REMARK INTRA:                  -0.469
REMARK UNBOUND:                -0.459
REMARK SMILES COc1cc(O)c2c(=O)c(OC)c(-c3ccc(O)c(O)c3)oc2c1
REMARK SMILES IDX 3 1 4 2 5 3 7 4 23 5 24 6 22 7 13 8 10 9 8 10 9 11 2 12 1 13
REMARK SMILES IDX 6 14 14 16 21 17 15 18 19 19 16 20 17 21 20 22 18 24 11 26
REMARK SMILES IDX 12 27
REMARK H PARENT 6 15 20 23 18 25
REMARK Flexibility Score: inf
ROOT
ATOM      1  C   UNL     1      19.228  26.496  34.913  1.00  0.00     0.126 A 
ATOM      2  C   UNL     1      19.753  25.262  34.524  1.00  0.00     0.093 A 
ATOM      3  C   UNL     1      18.924  24.141  34.366  1.00  0.00     0.134 A 
ATOM      4  C   UNL     1      17.533  24.256  34.603  1.00  0.00     0.111 A 
ATOM      5  C   UNL     1      17.007  25.505  34.999  1.00  0.00     0.146 A 
ATOM      6  C   UNL     1      17.848  26.612  35.150  1.00  0.00     0.094 A 
ATOM      7  O   UNL     1      15.710  25.647  35.237  1.00  0.00    -0.452 OA
ATOM      8  C   UNL     1      14.833  24.656  35.125  1.00  0.00     0.180 A 
ATOM      9  C   UNL     1      15.256  23.376  34.706  1.00  0.00     0.210 A 
ATOM     10  C   UNL     1      16.634  23.178  34.456  1.00  0.00     0.239 A 
ATOM     11  O   UNL     1      17.059  22.047  34.098  1.00  0.00    -0.285 OA
ENDROOT
BRANCH   1  12
ATOM     12  O   UNL     1      20.109  27.580  35.052  1.00  0.00    -0.496 OA
ATOM     13  C   UNL     1      20.887  28.125  33.991  1.00  0.00     0.278 C 
ENDBRANCH   1  12
BRANCH   3  14
ATOM     14  O   UNL     1      19.489  22.927  33.975  1.00  0.00    -0.507 OA
ATOM     15  H   UNL     1      20.424  22.874  33.585  1.00  0.00     0.293 HD
ENDBRANCH   3  14
BRANCH   8  16
ATOM     16  C   UNL     1      13.416  24.950  35.435  1.00  0.00     0.025 A 
ATOM     17  C   UNL     1      12.934  24.736  36.736  1.00  0.00     0.062 A 
ATOM     18  C   UNL     1      12.524  25.382  34.437  1.00  0.00     0.016 A 
ATOM     19  C   UNL     1      11.592  24.983  37.051  1.00  0.00     0.158 A 
ATOM     20  C   UNL     1      11.184  25.629  34.748  1.00  0.00     0.051 A 
ATOM     21  C   UNL     1      10.713  25.435  36.053  1.00  0.00     0.157 A 
BRANCH  19  22
ATOM     22  O   UNL     1      11.154  24.773  38.358  1.00  0.00    -0.504 OA
ATOM     23  H   UNL     1      11.054  23.845  38.749  1.00  0.00     0.293 HD
ENDBRANCH  19  22
BRANCH  21  24
ATOM     24  O   UNL     1       9.376  25.686  36.360  1.00  0.00    -0.504 OA
ATOM     25  H   UNL     1       8.888  26.491  35.986  1.00  0.00     0.293 HD
ENDBRANCH  21  24
ENDBRANCH   8  16
BRANCH   9  26
ATOM     26  O   UNL     1      14.280  22.374  34.533  1.00  0.00    -0.490 OA
ATOM     27  C   UNL     1      13.911  21.377  35.479  1.00  0.00     0.278 C 
ENDBRANCH   9  26
TORSDOF 6
ENDMDL
MODEL 8
REMARK VINA RESULT:    -6.485     11.910     13.845
REMARK INTER + INTRA:          -8.650
REMARK INTER:                  -8.165
REMARK INTRA:                  -0.485
REMARK UNBOUND:                -0.459
REMARK SMILES COc1cc(O)c2c(=O)c(OC)c(-c3ccc(O)c(O)c3)oc2c1
REMARK SMILES IDX 3 1 4 2 5 3 7 4 23 5 24 6 22 7 13 8 10 9 8 10 9 11 2 12 1 13
REMARK SMILES IDX 6 14 14 16 21 17 15 18 19 19 16 20 17 21 20 22 18 24 11 26
REMARK SMILES IDX 12 27
REMARK H PARENT 6 15 20 23 18 25
REMARK Flexibility Score: inf
ROOT
ATOM      1  C   UNL     1      10.190  24.365  37.452  1.00  0.00     0.126 A 
ATOM      2  C   UNL     1      10.021  23.047  37.020  1.00  0.00     0.093 A 
ATOM      3  C   UNL     1      11.098  22.310  36.507  1.00  0.00     0.134 A 
ATOM      4  C   UNL     1      12.381  22.905  36.422  1.00  0.00     0.111 A 
ATOM      5  C   UNL     1      12.546  24.239  36.857  1.00  0.00     0.146 A 
ATOM      6  C   UNL     1      11.460  24.957  37.368  1.00  0.00     0.094 A 
ATOM      7  O   UNL     1      13.731  24.830  36.786  1.00  0.00    -0.452 OA
ATOM      8  C   UNL     1      14.819  24.233  36.313  1.00  0.00     0.180 A 
ATOM      9  C   UNL     1      14.763  22.891  35.881  1.00  0.00     0.210 A 
ATOM     10  C   UNL     1      13.515  22.227  35.927  1.00  0.00     0.239 A 
ATOM     11  O   UNL     1      13.414  21.034  35.534  1.00  0.00    -0.285 OA
ENDROOT
BRANCH   1  12
ATOM     12  O   UNL     1       9.072  25.048  37.957  1.00  0.00    -0.496 OA
ATOM     13  C   UNL     1       8.002  24.427  38.662  1.00  0.00     0.278 C 
ENDBRANCH   1  12
BRANCH   3  14
ATOM     14  O   UNL     1      10.886  20.997  36.087  1.00  0.00    -0.507 OA
ATOM     15  H   UNL     1      11.451  20.571  35.360  1.00  0.00     0.293 HD
ENDBRANCH   3  14
BRANCH   8  16
ATOM     16  C   UNL     1      16.075  25.016  36.277  1.00  0.00     0.025 A 
ATOM     17  C   UNL     1      16.909  25.038  37.406  1.00  0.00     0.062 A 
ATOM     18  C   UNL     1      16.421  25.789  35.155  1.00  0.00     0.016 A 
ATOM     19  C   UNL     1      18.091  25.789  37.406  1.00  0.00     0.158 A 
ATOM     20  C   UNL     1      17.600  26.541  35.153  1.00  0.00     0.051 A 
ATOM     21  C   UNL     1      18.440  26.542  36.273  1.00  0.00     0.157 A 
BRANCH  19  22
ATOM     22  O   UNL     1      18.902  25.774  38.541  1.00  0.00    -0.504 OA
ATOM     23  H   UNL     1      18.753  25.121  39.300  1.00  0.00     0.293 HD
ENDBRANCH  19  22
BRANCH  21  24
ATOM     24  O   UNL     1      19.616  27.290  36.267  1.00  0.00    -0.504 OA
ATOM     25  H   UNL     1      20.041  27.620  37.126  1.00  0.00     0.293 HD
ENDBRANCH  21  24
ENDBRANCH   8  16
BRANCH   9  26
ATOM     26  O   UNL     1      15.958  22.277  35.454  1.00  0.00    -0.490 OA
ATOM     27  C   UNL     1      16.431  22.181  34.116  1.00  0.00     0.278 C 
ENDBRANCH   9  26
TORSDOF 6
ENDMDL
MODEL 9
REMARK VINA RESULT:    -5.264      2.435      3.948
REMARK INTER + INTRA:          -7.108
REMARK INTER:                  -6.669
REMARK INTRA:                  -0.440
REMARK UNBOUND:                -0.459
REMARK SMILES COc1cc(O)c2c(=O)c(OC)c(-c3ccc(O)c(O)c3)oc2c1
REMARK SMILES IDX 3 1 4 2 5 3 7 4 23 5 24 6 22 7 13 8 10 9 8 10 9 11 2 12 1 13
REMARK SMILES IDX 6 14 14 16 21 17 15 18 19 19 16 20 17 21 20 22 18 24 11 26
REMARK SMILES IDX 12 27
REMARK H PARENT 6 15 20 23 18 25
REMARK Flexibility Score: inf
ROOT
ATOM      1  C   UNL     1      18.708   9.451  35.669  1.00  0.00     0.126 A 
ATOM      2  C   UNL     1      18.621  10.629  36.416  1.00  0.00     0.093 A 
ATOM      3  C   UNL     1      18.156  11.819  35.838  1.00  0.00     0.134 A 
ATOM      4  C   UNL     1      17.768  11.836  34.476  1.00  0.00     0.111 A 
ATOM      5  C   UNL     1      17.860  10.644  33.724  1.00  0.00     0.146 A 
ATOM      6  C   UNL     1      18.324   9.465  34.318  1.00  0.00     0.094 A 
ATOM      7  O   UNL     1      17.511  10.625  32.445  1.00  0.00    -0.452 OA
ATOM      8  C   UNL     1      17.063  11.691  31.793  1.00  0.00     0.180 A 
ATOM      9  C   UNL     1      16.907  12.922  32.465  1.00  0.00     0.210 A 
ATOM     10  C   UNL     1      17.281  12.990  33.827  1.00  0.00     0.239 A 
ATOM     11  O   UNL     1      17.177  14.074  34.462  1.00  0.00    -0.285 OA
ENDROOT
BRANCH   1  12
ATOM     12  O   UNL     1      19.179   8.293  36.305  1.00  0.00    -0.496 OA
ATOM     13  C   UNL     1      18.786   7.875  37.609  1.00  0.00     0.278 C 
ENDBRANCH   1  12
BRANCH   3  14
ATOM     14  O   UNL     1      18.085  12.972  36.620  1.00  0.00    -0.507 OA
ATOM     15  H   UNL     1      17.766  13.856  36.240  1.00  0.00     0.293 HD
ENDBRANCH   3  14
BRANCH   8  16
ATOM     16  C   UNL     1      16.723  11.532  30.361  1.00  0.00     0.025 A 
ATOM     17  C   UNL     1      15.396  11.261  29.991  1.00  0.00     0.062 A 
ATOM     18  C   UNL     1      17.714  11.585  29.364  1.00  0.00     0.016 A 
ATOM     19  C   UNL     1      15.052  11.082  28.645  1.00  0.00     0.158 A 
ATOM     20  C   UNL     1      17.374  11.407  28.021  1.00  0.00     0.051 A 
ATOM     21  C   UNL     1      16.044  11.158  27.655  1.00  0.00     0.157 A 
BRANCH  19  22
ATOM     22  O   UNL     1      13.720  10.829  28.315  1.00  0.00    -0.504 OA
ATOM     23  H   UNL     1      13.461  10.338  27.469  1.00  0.00     0.293 HD
ENDBRANCH  19  22
BRANCH  21  24
ATOM     24  O   UNL     1      15.708  10.983  26.313  1.00  0.00    -0.504 OA
ATOM     25  H   UNL     1      15.662  11.766  25.671  1.00  0.00     0.293 HD
ENDBRANCH  21  24
ENDBRANCH   8  16
BRANCH   9  26
ATOM     26  O   UNL     1      16.361  14.008  31.750  1.00  0.00    -0.490 OA
ATOM     27  C   UNL     1      17.082  14.971  30.990  1.00  0.00     0.278 C 
ENDBRANCH   9  26
TORSDOF 6
ENDMDL
