MODEL 1
REMARK VINA RESULT:    83.807      0.000      0.000
REMARK INTER + INTRA:         134.140
REMARK INTER:                 132.801
REMARK INTRA:                   1.340
REMARK UNBOUND:                 1.340
REMARK SMILES C[C@H]1O[C@@H](O[C@H]2CC[C@]3(C)[C@@H](CC[C@]4(C)[C@H]3C=C[C@@]35OC[C@]6(CCC(C)(C)C[C@@H]63)[C@@H](O)C[C@]45C)[C@]2(C)CO)[C@H](O)[C@@H](O[C@@H]2O[C@@H](CO)[C@H](O)[C@H](O)[C@H]2O)[C@H]1O
REMARK SMILES IDX 1 1 2 2 54 3 41 4 39 5 4 6 3 7 55 8 42 10 43 11 52 12 44 13
REMARK SMILES IDX 50 14 45 15 48 16 53 17 51 19 46 21 47 22 49 24 5 26 6 27
REMARK SMILES IDX 7 28 35 29 8 30 11 31 36 32 9 33 12 34 10 35 16 36 13 37
REMARK SMILES IDX 14 38 17 39 15 40 33 41 18 42 19 43 32 44 34 45 29 46 20 47
REMARK SMILES IDX 30 48 22 49 28 50 21 51 23 52 25 53 24 54 26 55 27 56 37 57
REMARK SMILES IDX 38 58 31 60 40 62
REMARK H PARENT 55 9 53 18 51 20 47 23 49 25 38 59 31 61 40 63
REMARK Flexibility Score: inf
ROOT
ATOM      1  C   UNL     1      15.618  29.777   5.989  1.00  0.00     0.041 C 
ATOM      2  C   UNL     1      15.757  28.422   6.686  1.00  0.00     0.150 C 
ATOM      3  C   UNL     1      17.097  27.759   6.337  1.00  0.00     0.175 C 
ATOM      4  C   UNL     1      17.257  26.606   7.340  1.00  0.00     0.186 C 
ATOM      5  C   UNL     1      16.013  25.685   7.383  1.00  0.00     0.202 C 
ATOM      6  C   UNL     1      14.655  26.310   6.872  1.00  0.00     0.282 C 
ATOM      7  O   UNL     1      14.707  27.595   6.256  1.00  0.00    -0.344 OA
ENDROOT
BRANCH   3   8
ATOM      8  O   UNL     1      17.031  27.279   5.018  1.00  0.00    -0.388 OA
ATOM      9  H   UNL     1      16.847  28.056   4.433  1.00  0.00     0.211 HD
ENDBRANCH   3   8
BRANCH   4  10
ATOM     10  O   UNL     1      18.492  25.879   7.379  1.00  0.00    -0.341 OA
BRANCH  10  11
ATOM     11  C   UNL     1      18.818  25.056   8.503  1.00  0.00     0.282 C 
ATOM     12  C   UNL     1      19.824  25.706   9.475  1.00  0.00     0.202 C 
ATOM     13  O   UNL     1      17.650  24.575   9.156  1.00  0.00    -0.341 OA
ATOM     14  C   UNL     1      20.240  24.651  10.506  1.00  0.00     0.179 C 
ATOM     15  C   UNL     1      17.931  23.628  10.187  1.00  0.00     0.178 C 
ATOM     16  C   UNL     1      18.989  24.121  11.216  1.00  0.00     0.177 C 
BRANCH  12  17
ATOM     17  O   UNL     1      20.955  26.141   8.771  1.00  0.00    -0.385 OA
ATOM     18  H   UNL     1      21.124  25.476   8.055  1.00  0.00     0.211 HD
ENDBRANCH  12  17
BRANCH  14  19
ATOM     19  O   UNL     1      21.120  25.214  11.443  1.00  0.00    -0.387 OA
ATOM     20  H   UNL     1      21.103  26.199  11.316  1.00  0.00     0.211 HD
ENDBRANCH  14  19
BRANCH  15  21
ATOM     21  C   UNL     1      18.246  22.231   9.609  1.00  0.00     0.191 C 
BRANCH  21  22
ATOM     22  O   UNL     1      18.439  21.302  10.643  1.00  0.00    -0.394 OA
ATOM     23  H   UNL     1      19.407  21.336  10.878  1.00  0.00     0.210 HD
ENDBRANCH  21  22
ENDBRANCH  15  21
BRANCH  16  24
ATOM     24  O   UNL     1      18.423  25.154  11.995  1.00  0.00    -0.387 OA
ATOM     25  H   UNL     1      18.976  25.258  12.810  1.00  0.00     0.211 HD
ENDBRANCH  16  24
ENDBRANCH  10  11
ENDBRANCH   4  10
BRANCH   6  26
ATOM     26  O   UNL     1      14.187  25.421   5.875  1.00  0.00    -0.346 OA
BRANCH  26  27
ATOM     27  C   UNL     1      13.839  24.112   6.295  1.00  0.00     0.130 C 
ATOM     28  C   UNL     1      12.303  23.945   6.378  1.00  0.00     0.033 C 
ATOM     29  C   UNL     1      14.477  23.108   5.257  1.00  0.00     0.020 C 
ATOM     30  C   UNL     1      11.608  24.077   5.022  1.00  0.00     0.010 C 
ATOM     31  C   UNL     1      13.719  23.247   3.837  1.00  0.00     0.006 C 
ATOM     32  C   UNL     1      15.999  23.467   5.111  1.00  0.00     0.017 C 
ATOM     33  C   UNL     1      12.137  23.135   3.896  1.00  0.00    -0.022 C 
ATOM     34  C   UNL     1      14.096  24.567   3.113  1.00  0.00     0.005 C 
ATOM     35  C   UNL     1      11.726  21.676   4.275  1.00  0.00     0.012 C 
ATOM     36  C   UNL     1      11.389  23.541   2.515  1.00  0.00     0.024 C 
ATOM     37  C   UNL     1      13.705  24.532   1.659  1.00  0.00     0.008 C 
ATOM     38  C   UNL     1      12.167  24.433   1.402  1.00  0.00    -0.017 C 
ATOM     39  C   UNL     1      10.514  22.415   1.921  1.00  0.00    -0.024 C 
ATOM     40  C   UNL     1      11.653  25.908   1.510  1.00  0.00     0.013 C 
ATOM     41  C   UNL     1      11.901  23.850  -0.089  1.00  0.00     0.009 C 
ATOM     42  C   UNL     1      10.784  21.802   0.765  1.00  0.00     0.005 C 
ATOM     43  C   UNL     1      11.959  22.270  -0.021  1.00  0.00     0.096 C 
ATOM     44  C   UNL     1      12.917  24.374  -1.183  1.00  0.00     0.043 C 
ATOM     45  C   UNL     1      10.471  24.327  -0.559  1.00  0.00     0.015 C 
ATOM     46  C   UNL     1      12.120  21.566  -1.374  1.00  0.00     0.037 C 
ATOM     47  O   UNL     1      13.104  21.860   0.714  1.00  0.00    -0.369 OA
ATOM     48  C   UNL     1      13.935  23.356  -1.804  1.00  0.00     0.124 C 
ATOM     49  C   UNL     1      13.593  21.816  -1.604  1.00  0.00     0.026 C 
ATOM     50  C   UNL     1      11.311  21.870  -2.640  1.00  0.00     0.014 C 
ATOM     51  C   UNL     1      14.072  21.403  -0.211  1.00  0.00     0.171 C 
ATOM     52  C   UNL     1      14.152  20.898  -2.747  1.00  0.00     0.013 C 
ATOM     53  C   UNL     1      11.732  20.917  -3.818  1.00  0.00    -0.035 C 
ATOM     54  C   UNL     1      13.056  20.120  -3.519  1.00  0.00     0.007 C 
ATOM     55  C   UNL     1      11.913  21.735  -5.113  1.00  0.00     0.011 C 
ATOM     56  C   UNL     1      10.603  19.890  -4.056  1.00  0.00     0.011 C 
BRANCH  29  57
ATOM     57  C   UNL     1      14.508  21.611   5.763  1.00  0.00     0.165 C 
BRANCH  57  58
ATOM     58  O   UNL     1      14.123  21.467   7.104  1.00  0.00    -0.396 OA
ATOM     59  H   UNL     1      14.358  20.540   7.372  1.00  0.00     0.210 HD
ENDBRANCH  57  58
ENDBRANCH  29  57
BRANCH  48  60
ATOM     60  O   UNL     1      14.086  23.664  -3.169  1.00  0.00    -0.392 OA
ATOM     61  H   UNL     1      14.768  23.046  -3.536  1.00  0.00     0.210 HD
ENDBRANCH  48  60
ENDBRANCH  26  27
ENDBRANCH   6  26
BRANCH   5  62
ATOM     62  O   UNL     1      15.830  25.207   8.695  1.00  0.00    -0.385 OA
ATOM     63  H   UNL     1      14.911  24.843   8.749  1.00  0.00     0.211 HD
ENDBRANCH   5  62
TORSDOF 14
ENDMDL
MODEL 2
REMARK VINA RESULT:    84.126      0.672      1.595
REMARK INTER + INTRA:         134.645
REMARK INTER:                 130.390
REMARK INTRA:                   4.255
REMARK UNBOUND:                 1.340
REMARK SMILES C[C@H]1O[C@@H](O[C@H]2CC[C@]3(C)[C@@H](CC[C@]4(C)[C@H]3C=C[C@@]35OC[C@]6(CCC(C)(C)C[C@@H]63)[C@@H](O)C[C@]45C)[C@]2(C)CO)[C@H](O)[C@@H](O[C@@H]2O[C@@H](CO)[C@H](O)[C@H](O)[C@H]2O)[C@H]1O
REMARK SMILES IDX 1 1 2 2 54 3 41 4 39 5 4 6 3 7 55 8 42 10 43 11 52 12 44 13
REMARK SMILES IDX 50 14 45 15 48 16 53 17 51 19 46 21 47 22 49 24 5 26 6 27
REMARK SMILES IDX 7 28 35 29 8 30 11 31 36 32 9 33 12 34 10 35 16 36 13 37
REMARK SMILES IDX 14 38 17 39 15 40 33 41 18 42 19 43 32 44 34 45 29 46 20 47
REMARK SMILES IDX 30 48 22 49 28 50 21 51 23 52 25 53 24 54 26 55 27 56 37 57
REMARK SMILES IDX 38 58 31 60 40 62
REMARK H PARENT 55 9 53 18 51 20 47 23 49 25 38 59 31 61 40 63
REMARK Flexibility Score: inf
ROOT
ATOM      1  C   UNL     1      15.615  29.657   6.082  1.00  0.00     0.041 C 
ATOM      2  C   UNL     1      15.744  28.292   6.761  1.00  0.00     0.150 C 
ATOM      3  C   UNL     1      17.039  27.586   6.335  1.00  0.00     0.175 C 
ATOM      4  C   UNL     1      17.211  26.418   7.318  1.00  0.00     0.186 C 
ATOM      5  C   UNL     1      15.940  25.540   7.420  1.00  0.00     0.202 C 
ATOM      6  C   UNL     1      14.579  26.216   6.988  1.00  0.00     0.282 C 
ATOM      7  O   UNL     1      14.644  27.505   6.380  1.00  0.00    -0.344 OA
ENDROOT
BRANCH   3   8
ATOM      8  O   UNL     1      16.887  27.122   5.018  1.00  0.00    -0.388 OA
ATOM      9  H   UNL     1      17.275  27.809   4.419  1.00  0.00     0.211 HD
ENDBRANCH   3   8
BRANCH   4  10
ATOM     10  O   UNL     1      18.420  25.649   7.286  1.00  0.00    -0.341 OA
BRANCH  10  11
ATOM     11  C   UNL     1      19.013  25.172   8.497  1.00  0.00     0.282 C 
ATOM     12  C   UNL     1      18.400  23.853   9.010  1.00  0.00     0.202 C 
ATOM     13  O   UNL     1      20.432  25.122   8.401  1.00  0.00    -0.341 OA
ATOM     14  C   UNL     1      18.974  23.569  10.402  1.00  0.00     0.179 C 
ATOM     15  C   UNL     1      21.068  24.798   9.638  1.00  0.00     0.178 C 
ATOM     16  C   UNL     1      20.504  23.515  10.313  1.00  0.00     0.177 C 
BRANCH  12  17
ATOM     17  O   UNL     1      17.006  23.976   9.097  1.00  0.00    -0.385 OA
ATOM     18  H   UNL     1      16.623  23.468   8.336  1.00  0.00     0.211 HD
ENDBRANCH  12  17
BRANCH  14  19
ATOM     19  O   UNL     1      18.480  22.349  10.888  1.00  0.00    -0.387 OA
ATOM     20  H   UNL     1      17.656  22.133  10.375  1.00  0.00     0.211 HD
ENDBRANCH  14  19
BRANCH  15  21
ATOM     21  C   UNL     1      21.124  26.015  10.587  1.00  0.00     0.191 C 
BRANCH  21  22
ATOM     22  O   UNL     1      20.312  25.801  11.710  1.00  0.00    -0.394 OA
ATOM     23  H   UNL     1      19.412  26.165  11.484  1.00  0.00     0.210 HD
ENDBRANCH  21  22
ENDBRANCH  15  21
BRANCH  16  24
ATOM     24  O   UNL     1      20.886  22.390   9.551  1.00  0.00    -0.387 OA
ATOM     25  H   UNL     1      20.828  22.637   8.594  1.00  0.00     0.211 HD
ENDBRANCH  16  24
ENDBRANCH  10  11
ENDBRANCH   4  10
BRANCH   6  26
ATOM     26  O   UNL     1      14.029  25.354   6.009  1.00  0.00    -0.346 OA
BRANCH  26  27
ATOM     27  C   UNL     1      13.882  23.990   6.367  1.00  0.00     0.130 C 
ATOM     28  C   UNL     1      12.388  23.603   6.482  1.00  0.00     0.033 C 
ATOM     29  C   UNL     1      14.619  23.140   5.259  1.00  0.00     0.020 C 
ATOM     30  C   UNL     1      11.636  23.703   5.154  1.00  0.00     0.010 C 
ATOM     31  C   UNL     1      13.801  23.241   3.870  1.00  0.00     0.006 C 
ATOM     32  C   UNL     1      16.069  23.717   5.093  1.00  0.00     0.017 C 
ATOM     33  C   UNL     1      12.253  22.903   3.964  1.00  0.00    -0.022 C 
ATOM     34  C   UNL     1      13.964  24.636   3.208  1.00  0.00     0.005 C 
ATOM     35  C   UNL     1      12.064  21.383   4.275  1.00  0.00     0.012 C 
ATOM     36  C   UNL     1      11.409  23.268   2.627  1.00  0.00     0.024 C 
ATOM     37  C   UNL     1      13.533  24.618   1.766  1.00  0.00     0.008 C 
ATOM     38  C   UNL     1      12.017  24.315   1.544  1.00  0.00    -0.017 C 
ATOM     39  C   UNL     1      10.681  22.060   1.997  1.00  0.00    -0.024 C 
ATOM     40  C   UNL     1      11.305  25.695   1.747  1.00  0.00     0.013 C 
ATOM     41  C   UNL     1      11.784  23.775   0.032  1.00  0.00     0.009 C 
ATOM     42  C   UNL     1      10.994  21.550   0.802  1.00  0.00     0.005 C 
ATOM     43  C   UNL     1      12.065  22.218   0.013  1.00  0.00     0.096 C 
ATOM     44  C   UNL     1      12.679  24.492  -1.059  1.00  0.00     0.043 C 
ATOM     45  C   UNL     1      10.286  24.068  -0.374  1.00  0.00     0.015 C 
ATOM     46  C   UNL     1      12.276  21.613  -1.381  1.00  0.00     0.037 C 
ATOM     47  O   UNL     1      13.281  21.938   0.693  1.00  0.00    -0.369 OA
ATOM     48  C   UNL     1      13.808  23.661  -1.761  1.00  0.00     0.124 C 
ATOM     49  C   UNL     1      13.691  22.080  -1.635  1.00  0.00     0.026 C 
ATOM     50  C   UNL     1      11.391  21.862  -2.606  1.00  0.00     0.014 C 
ATOM     51  C   UNL     1      14.271  21.670  -0.281  1.00  0.00     0.171 C 
ATOM     52  C   UNL     1      14.334  21.309  -2.841  1.00  0.00     0.013 C 
ATOM     53  C   UNL     1      11.901  21.038  -3.845  1.00  0.00    -0.035 C 
ATOM     54  C   UNL     1      13.333  20.422  -3.625  1.00  0.00     0.007 C 
ATOM     55  C   UNL     1      11.921  21.937  -5.098  1.00  0.00     0.011 C 
ATOM     56  C   UNL     1      10.919  19.875  -4.108  1.00  0.00     0.011 C 
BRANCH  29  57
ATOM     57  C   UNL     1      14.876  21.639   5.682  1.00  0.00     0.165 C 
BRANCH  57  58
ATOM     58  O   UNL     1      13.886  21.120   6.529  1.00  0.00    -0.396 OA
ATOM     59  H   UNL     1      13.099  20.916   5.959  1.00  0.00     0.210 HD
ENDBRANCH  57  58
ENDBRANCH  29  57
BRANCH  48  60
ATOM     60  O   UNL     1      13.868  24.055  -3.111  1.00  0.00    -0.392 OA
ATOM     61  H   UNL     1      13.001  23.818  -3.526  1.00  0.00     0.210 HD
ENDBRANCH  48  60
ENDBRANCH  26  27
ENDBRANCH   6  26
BRANCH   5  62
ATOM     62  O   UNL     1      15.810  25.056   8.736  1.00  0.00    -0.385 OA
ATOM     63  H   UNL     1      14.903  25.299   9.051  1.00  0.00     0.211 HD
ENDBRANCH   5  62
TORSDOF 14
ENDMDL
MODEL 3
REMARK VINA RESULT:    84.185      2.353      4.388
REMARK INTER + INTRA:         134.739
REMARK INTER:                 135.490
REMARK INTRA:                  -0.751
REMARK UNBOUND:                 1.340
REMARK SMILES C[C@H]1O[C@@H](O[C@H]2CC[C@]3(C)[C@@H](CC[C@]4(C)[C@H]3C=C[C@@]35OC[C@]6(CCC(C)(C)C[C@@H]63)[C@@H](O)C[C@]45C)[C@]2(C)CO)[C@H](O)[C@@H](O[C@@H]2O[C@@H](CO)[C@H](O)[C@H](O)[C@H]2O)[C@H]1O
REMARK SMILES IDX 1 1 2 2 54 3 41 4 39 5 4 6 3 7 55 8 42 10 43 11 52 12 44 13
REMARK SMILES IDX 50 14 45 15 48 16 53 17 51 19 46 21 47 22 49 24 5 26 6 27
REMARK SMILES IDX 7 28 35 29 8 30 11 31 36 32 9 33 12 34 10 35 16 36 13 37
REMARK SMILES IDX 14 38 17 39 15 40 33 41 18 42 19 43 32 44 34 45 29 46 20 47
REMARK SMILES IDX 30 48 22 49 28 50 21 51 23 52 25 53 24 54 26 55 27 56 37 57
REMARK SMILES IDX 38 58 31 60 40 62
REMARK H PARENT 55 9 53 18 51 20 47 23 49 25 38 59 31 61 40 63
REMARK Flexibility Score: inf
ROOT
ATOM      1  C   UNL     1      11.845  20.502   9.724  1.00  0.00     0.041 C 
ATOM      2  C   UNL     1      13.278  20.647   9.211  1.00  0.00     0.150 C 
ATOM      3  C   UNL     1      13.923  21.938   9.737  1.00  0.00     0.175 C 
ATOM      4  C   UNL     1      15.424  21.797   9.440  1.00  0.00     0.186 C 
ATOM      5  C   UNL     1      15.701  21.431   7.962  1.00  0.00     0.202 C 
ATOM      6  C   UNL     1      14.515  20.754   7.168  1.00  0.00     0.282 C 
ATOM      7  O   UNL     1      13.242  20.689   7.808  1.00  0.00    -0.344 OA
ENDROOT
BRANCH   3   8
ATOM      8  O   UNL     1      13.370  23.031   9.048  1.00  0.00    -0.388 OA
ATOM      9  H   UNL     1      13.158  22.722   8.131  1.00  0.00     0.211 HD
ENDBRANCH   3   8
BRANCH   4  10
ATOM     10  O   UNL     1      16.334  22.778   9.954  1.00  0.00    -0.341 OA
BRANCH  10  11
ATOM     11  C   UNL     1      17.730  22.488  10.069  1.00  0.00     0.282 C 
ATOM     12  C   UNL     1      18.639  23.545   9.408  1.00  0.00     0.202 C 
ATOM     13  O   UNL     1      18.097  22.207  11.414  1.00  0.00    -0.341 OA
ATOM     14  C   UNL     1      20.075  23.013   9.421  1.00  0.00     0.179 C 
ATOM     15  C   UNL     1      19.447  21.763  11.548  1.00  0.00     0.178 C 
ATOM     16  C   UNL     1      20.484  22.703  10.866  1.00  0.00     0.177 C 
BRANCH  12  17
ATOM     17  O   UNL     1      18.234  23.761   8.083  1.00  0.00    -0.385 OA
ATOM     18  H   UNL     1      18.525  22.971   7.559  1.00  0.00     0.211 HD
ENDBRANCH  12  17
BRANCH  14  19
ATOM     19  O   UNL     1      20.947  23.966   8.873  1.00  0.00    -0.387 OA
ATOM     20  H   UNL     1      20.468  24.417   8.127  1.00  0.00     0.211 HD
ENDBRANCH  14  19
BRANCH  15  21
ATOM     21  C   UNL     1      19.605  20.282  11.140  1.00  0.00     0.191 C 
BRANCH  21  22
ATOM     22  O   UNL     1      20.888  20.047  10.624  1.00  0.00    -0.394 OA
ATOM     23  H   UNL     1      20.815  20.131   9.633  1.00  0.00     0.210 HD
ENDBRANCH  21  22
ENDBRANCH  15  21
BRANCH  16  24
ATOM     24  O   UNL     1      20.559  23.908  11.597  1.00  0.00    -0.387 OA
ATOM     25  H   UNL     1      19.944  24.559  11.175  1.00  0.00     0.211 HD
ENDBRANCH  16  24
ENDBRANCH  10  11
ENDBRANCH   4  10
BRANCH   6  26
ATOM     26  O   UNL     1      14.330  21.557   6.017  1.00  0.00    -0.346 OA
BRANCH  26  27
ATOM     27  C   UNL     1      14.346  22.963   6.207  1.00  0.00     0.130 C 
ATOM     28  C   UNL     1      15.657  23.581   5.667  1.00  0.00     0.033 C 
ATOM     29  C   UNL     1      13.080  23.543   5.463  1.00  0.00     0.020 C 
ATOM     30  C   UNL     1      15.819  23.427   4.154  1.00  0.00     0.010 C 
ATOM     31  C   UNL     1      13.276  23.390   3.866  1.00  0.00     0.006 C 
ATOM     32  C   UNL     1      11.823  22.737   5.947  1.00  0.00     0.017 C 
ATOM     33  C   UNL     1      14.637  23.967   3.289  1.00  0.00    -0.022 C 
ATOM     34  C   UNL     1      13.130  21.913   3.410  1.00  0.00     0.005 C 
ATOM     35  C   UNL     1      14.643  25.524   3.409  1.00  0.00     0.012 C 
ATOM     36  C   UNL     1      14.928  23.565   1.743  1.00  0.00     0.024 C 
ATOM     37  C   UNL     1      12.935  21.811   1.920  1.00  0.00     0.008 C 
ATOM     38  C   UNL     1      14.148  22.308   1.071  1.00  0.00    -0.017 C 
ATOM     39  C   UNL     1      15.099  24.779   0.803  1.00  0.00    -0.024 C 
ATOM     40  C   UNL     1      15.130  21.089   1.032  1.00  0.00     0.013 C 
ATOM     41  C   UNL     1      13.649  22.680  -0.427  1.00  0.00     0.009 C 
ATOM     42  C   UNL     1      14.243  25.079  -0.179  1.00  0.00     0.005 C 
ATOM     43  C   UNL     1      13.094  24.161  -0.413  1.00  0.00     0.096 C 
ATOM     44  C   UNL     1      12.546  21.703  -1.006  1.00  0.00     0.043 C 
ATOM     45  C   UNL     1      14.884  22.567  -1.404  1.00  0.00     0.015 C 
ATOM     46  C   UNL     1      12.231  24.545  -1.622  1.00  0.00     0.037 C 
ATOM     47  O   UNL     1      12.223  24.340   0.697  1.00  0.00    -0.369 OA
ATOM     48  C   UNL     1      11.095  22.258  -1.218  1.00  0.00     0.124 C 
ATOM     49  C   UNL     1      10.949  23.842  -1.238  1.00  0.00     0.026 C 
ATOM     50  C   UNL     1      12.582  24.277  -3.089  1.00  0.00     0.014 C 
ATOM     51  C   UNL     1      10.894  24.329   0.211  1.00  0.00     0.171 C 
ATOM     52  C   UNL     1       9.744  24.347  -2.105  1.00  0.00     0.013 C 
ATOM     53  C   UNL     1      11.472  24.851  -4.045  1.00  0.00    -0.035 C 
ATOM     54  C   UNL     1      10.159  25.266  -3.282  1.00  0.00     0.007 C 
ATOM     55  C   UNL     1      11.123  23.806  -5.125  1.00  0.00     0.011 C 
ATOM     56  C   UNL     1      12.026  26.105  -4.756  1.00  0.00     0.011 C 
BRANCH  29  57
ATOM     57  C   UNL     1      12.734  25.029   5.872  1.00  0.00     0.165 C 
BRANCH  57  58
ATOM     58  O   UNL     1      12.049  25.126   7.093  1.00  0.00    -0.396 OA
ATOM     59  H   UNL     1      11.669  26.043   7.136  1.00  0.00     0.210 HD
ENDBRANCH  57  58
ENDBRANCH  29  57
BRANCH  48  60
ATOM     60  O   UNL     1      10.575  21.690  -2.396  1.00  0.00    -0.392 OA
ATOM     61  H   UNL     1      10.450  20.722  -2.225  1.00  0.00     0.210 HD
ENDBRANCH  48  60
ENDBRANCH  26  27
ENDBRANCH   6  26
BRANCH   5  62
ATOM     62  O   UNL     1      16.833  20.595   7.891  1.00  0.00    -0.385 OA
ATOM     63  H   UNL     1      17.198  20.673   6.974  1.00  0.00     0.211 HD
ENDBRANCH   5  62
TORSDOF 14
ENDMDL
