MODEL 1
REMARK VINA RESULT:    -3.097      0.000      0.000
REMARK INTER + INTRA:          -3.962
REMARK INTER:                  -3.822
REMARK INTRA:                  -0.140
REMARK UNBOUND:                -0.140
REMARK SMILES CCCCCC(=O)[O-]
REMARK SMILES IDX 4 1 5 2 6 3 7 4 8 5 3 6 2 7 1 8
REMARK H PARENT
REMARK Flexibility Score: inf
ROOT
ATOM      1  C   UNL     1       9.912  13.625  31.734  1.00  0.00     0.006 C 
ENDROOT
BRANCH   1   2
ATOM      2  C   UNL     1       9.116  13.255  30.472  1.00  0.00     0.053 C 
BRANCH   2   3
ATOM      3  C   UNL     1       7.710  12.850  30.795  1.00  0.00     0.041 C 
ATOM      4  O   UNL     1       6.739  13.497  30.322  1.00  0.00    -0.550 OA
ATOM      5  O   UNL     1       7.474  11.778  31.646  1.00  0.00    -0.550 OA
ENDBRANCH   2   3
ENDBRANCH   1   2
BRANCH   1   6
ATOM      6  C   UNL     1       9.670  15.060  32.236  1.00  0.00     0.000 C 
BRANCH   6   7
ATOM      7  C   UNL     1      10.969  15.865  32.384  1.00  0.00    -0.003 C 
ATOM      8  C   UNL     1      11.792  15.822  31.099  1.00  0.00     0.004 C 
ENDBRANCH   6   7
ENDBRANCH   1   6
TORSDOF 4
ENDMDL
MODEL 2
REMARK VINA RESULT:    -3.073     13.136     14.409
REMARK INTER + INTRA:          -3.932
REMARK INTER:                  -3.810
REMARK INTRA:                  -0.121
REMARK UNBOUND:                -0.140
REMARK SMILES CCCCCC(=O)[O-]
REMARK SMILES IDX 4 1 5 2 6 3 7 4 8 5 3 6 2 7 1 8
REMARK H PARENT
REMARK Flexibility Score: inf
ROOT
ATOM      1  C   UNL     1      14.818  20.975  21.479  1.00  0.00     0.006 C 
ENDROOT
BRANCH   1   2
ATOM      2  C   UNL     1      16.329  20.698  21.533  1.00  0.00     0.053 C 
BRANCH   2   3
ATOM      3  C   UNL     1      16.868  20.797  22.927  1.00  0.00     0.041 C 
ATOM      4  O   UNL     1      16.487  19.988  23.813  1.00  0.00    -0.550 OA
ATOM      5  O   UNL     1      17.766  21.805  23.255  1.00  0.00    -0.550 OA
ENDBRANCH   2   3
ENDBRANCH   1   2
BRANCH   1   6
ATOM      6  C   UNL     1      14.454  22.447  21.215  1.00  0.00     0.000 C 
BRANCH   6   7
ATOM      7  C   UNL     1      13.797  22.660  19.844  1.00  0.00    -0.003 C 
ATOM      8  C   UNL     1      14.764  23.326  18.869  1.00  0.00     0.004 C 
ENDBRANCH   6   7
ENDBRANCH   1   6
TORSDOF 4
ENDMDL
MODEL 3
REMARK VINA RESULT:    -3.059      1.327      1.853
REMARK INTER + INTRA:          -3.914
REMARK INTER:                  -3.685
REMARK INTRA:                  -0.229
REMARK UNBOUND:                -0.140
REMARK SMILES CCCCCC(=O)[O-]
REMARK SMILES IDX 4 1 5 2 6 3 7 4 8 5 3 6 2 7 1 8
REMARK H PARENT
REMARK Flexibility Score: inf
ROOT
ATOM      1  C   UNL     1       9.593  15.525  31.976  1.00  0.00     0.006 C 
ENDROOT
BRANCH   1   2
ATOM      2  C   UNL     1       9.370  14.032  32.268  1.00  0.00     0.053 C 
BRANCH   2   3
ATOM      3  C   UNL     1       9.040  13.262  31.026  1.00  0.00     0.041 C 
ATOM      4  O   UNL     1       9.813  13.299  30.033  1.00  0.00    -0.550 OA
ATOM      5  O   UNL     1       7.862  12.530  30.955  1.00  0.00    -0.550 OA
ENDBRANCH   2   3
ENDBRANCH   1   2
BRANCH   1   6
ATOM      6  C   UNL     1      10.993  16.042  32.355  1.00  0.00     0.000 C 
BRANCH   6   7
ATOM      7  C   UNL     1      12.014  15.882  31.220  1.00  0.00    -0.003 C 
ATOM      8  C   UNL     1      11.443  16.379  29.894  1.00  0.00     0.004 C 
ENDBRANCH   6   7
ENDBRANCH   1   6
TORSDOF 4
ENDMDL
MODEL 4
REMARK VINA RESULT:    -3.036     10.717     12.317
REMARK INTER + INTRA:          -3.887
REMARK INTER:                  -3.802
REMARK INTRA:                  -0.084
REMARK UNBOUND:                -0.140
REMARK SMILES CCCCCC(=O)[O-]
REMARK SMILES IDX 4 1 5 2 6 3 7 4 8 5 3 6 2 7 1 8
REMARK H PARENT
REMARK Flexibility Score: inf
ROOT
ATOM      1  C   UNL     1      15.205  20.150  23.978  1.00  0.00     0.006 C 
ENDROOT
BRANCH   1   2
ATOM      2  C   UNL     1      16.580  20.569  23.431  1.00  0.00     0.053 C 
BRANCH   2   3
ATOM      3  C   UNL     1      16.625  20.521  21.934  1.00  0.00     0.041 C 
ATOM      4  O   UNL     1      17.486  19.814  21.349  1.00  0.00    -0.550 OA
ATOM      5  O   UNL     1      15.736  21.284  21.188  1.00  0.00    -0.550 OA
ENDBRANCH   2   3
ENDBRANCH   1   2
BRANCH   1   6
ATOM      6  C   UNL     1      15.113  18.669  24.390  1.00  0.00     0.000 C 
BRANCH   6   7
ATOM      7  C   UNL     1      14.562  18.480  25.810  1.00  0.00    -0.003 C 
ATOM      8  C   UNL     1      15.443  17.533  26.620  1.00  0.00     0.004 C 
ENDBRANCH   6   7
ENDBRANCH   1   6
TORSDOF 4
ENDMDL
MODEL 5
REMARK VINA RESULT:    -2.973     13.643     14.517
REMARK INTER + INTRA:          -3.808
REMARK INTER:                  -3.689
REMARK INTRA:                  -0.120
REMARK UNBOUND:                -0.140
REMARK SMILES CCCCCC(=O)[O-]
REMARK SMILES IDX 4 1 5 2 6 3 7 4 8 5 3 6 2 7 1 8
REMARK H PARENT
REMARK Flexibility Score: inf
ROOT
ATOM      1  C   UNL     1      15.377  21.712  22.628  1.00  0.00     0.006 C 
ENDROOT
BRANCH   1   2
ATOM      2  C   UNL     1      14.888  23.073  23.151  1.00  0.00     0.053 C 
BRANCH   2   3
ATOM      3  C   UNL     1      15.873  23.699  24.090  1.00  0.00     0.041 C 
ATOM      4  O   UNL     1      15.697  24.877  24.500  1.00  0.00    -0.550 OA
ATOM      5  O   UNL     1      17.001  22.993  24.486  1.00  0.00    -0.550 OA
ENDBRANCH   2   3
ENDBRANCH   1   2
BRANCH   1   6
ATOM      6  C   UNL     1      15.134  21.487  21.125  1.00  0.00     0.000 C 
BRANCH   6   7
ATOM      7  C   UNL     1      13.987  22.345  20.573  1.00  0.00    -0.003 C 
ATOM      8  C   UNL     1      14.376  23.000  19.251  1.00  0.00     0.004 C 
ENDBRANCH   6   7
ENDBRANCH   1   6
TORSDOF 4
ENDMDL
MODEL 6
REMARK VINA RESULT:    -2.953     13.298     13.736
REMARK INTER + INTRA:          -3.784
REMARK INTER:                  -3.718
REMARK INTRA:                  -0.065
REMARK UNBOUND:                -0.140
REMARK SMILES CCCCCC(=O)[O-]
REMARK SMILES IDX 4 1 5 2 6 3 7 4 8 5 3 6 2 7 1 8
REMARK H PARENT
REMARK Flexibility Score: inf
ROOT
ATOM      1  C   UNL     1      16.324  22.105  23.717  1.00  0.00     0.006 C 
ENDROOT
BRANCH   1   2
ATOM      2  C   UNL     1      17.504  21.231  23.259  1.00  0.00     0.053 C 
BRANCH   2   3
ATOM      3  C   UNL     1      17.125  20.329  22.124  1.00  0.00     0.041 C 
ATOM      4  O   UNL     1      16.167  20.633  21.366  1.00  0.00    -0.550 OA
ATOM      5  O   UNL     1      17.810  19.137  21.925  1.00  0.00    -0.550 OA
ENDBRANCH   2   3
ENDBRANCH   1   2
BRANCH   1   6
ATOM      6  C   UNL     1      16.730  23.501  24.222  1.00  0.00     0.000 C 
BRANCH   6   7
ATOM      7  C   UNL     1      15.527  24.434  24.420  1.00  0.00    -0.003 C 
ATOM      8  C   UNL     1      14.858  24.189  25.770  1.00  0.00     0.004 C 
ENDBRANCH   6   7
ENDBRANCH   1   6
TORSDOF 4
ENDMDL
MODEL 7
REMARK VINA RESULT:    -2.947     13.509     14.024
REMARK INTER + INTRA:          -3.776
REMARK INTER:                  -3.683
REMARK INTRA:                  -0.093
REMARK UNBOUND:                -0.140
REMARK SMILES CCCCCC(=O)[O-]
REMARK SMILES IDX 4 1 5 2 6 3 7 4 8 5 3 6 2 7 1 8
REMARK H PARENT
REMARK Flexibility Score: inf
ROOT
ATOM      1  C   UNL     1      17.255  21.939  23.700  1.00  0.00     0.006 C 
ENDROOT
BRANCH   1   2
ATOM      2  C   UNL     1      15.814  22.275  23.282  1.00  0.00     0.053 C 
BRANCH   2   3
ATOM      3  C   UNL     1      15.397  23.635  23.751  1.00  0.00     0.041 C 
ATOM      4  O   UNL     1      16.265  24.507  24.019  1.00  0.00    -0.550 OA
ATOM      5  O   UNL     1      14.051  23.928  23.924  1.00  0.00    -0.550 OA
ENDBRANCH   2   3
ENDBRANCH   1   2
BRANCH   1   6
ATOM      6  C   UNL     1      17.753  20.568  23.208  1.00  0.00     0.000 C 
BRANCH   6   7
ATOM      7  C   UNL     1      17.287  20.242  21.782  1.00  0.00    -0.003 C 
ATOM      8  C   UNL     1      17.384  18.746  21.501  1.00  0.00     0.004 C 
ENDBRANCH   6   7
ENDBRANCH   1   6
TORSDOF 4
ENDMDL
MODEL 8
REMARK VINA RESULT:    -2.945      3.148      4.355
REMARK INTER + INTRA:          -3.774
REMARK INTER:                  -3.602
REMARK INTRA:                  -0.173
REMARK UNBOUND:                -0.140
REMARK SMILES CCCCCC(=O)[O-]
REMARK SMILES IDX 4 1 5 2 6 3 7 4 8 5 3 6 2 7 1 8
REMARK H PARENT
REMARK Flexibility Score: inf
ROOT
ATOM      1  C   UNL     1      11.733  16.679  31.693  1.00  0.00     0.006 C 
ENDROOT
BRANCH   1   2
ATOM      2  C   UNL     1      11.891  15.632  30.578  1.00  0.00     0.053 C 
BRANCH   2   3
ATOM      3  C   UNL     1      11.454  16.162  29.246  1.00  0.00     0.041 C 
ATOM      4  O   UNL     1      12.291  16.309  28.317  1.00  0.00    -0.550 OA
ATOM      5  O   UNL     1      10.129  16.525  29.043  1.00  0.00    -0.550 OA
ENDBRANCH   2   3
ENDBRANCH   1   2
BRANCH   1   6
ATOM      6  C   UNL     1      10.652  16.336  32.733  1.00  0.00     0.000 C 
BRANCH   6   7
ATOM      7  C   UNL     1       9.957  14.997  32.450  1.00  0.00    -0.003 C 
ATOM      8  C   UNL     1       8.485  15.046  32.852  1.00  0.00     0.004 C 
ENDBRANCH   6   7
ENDBRANCH   1   6
TORSDOF 4
ENDMDL
MODEL 9
REMARK VINA RESULT:    -2.862      1.507      2.187
REMARK INTER + INTRA:          -3.672
REMARK INTER:                  -3.566
REMARK INTRA:                  -0.105
REMARK UNBOUND:                -0.140
REMARK SMILES CCCCCC(=O)[O-]
REMARK SMILES IDX 4 1 5 2 6 3 7 4 8 5 3 6 2 7 1 8
REMARK H PARENT
REMARK Flexibility Score: inf
ROOT
ATOM      1  C   UNL     1       8.136  12.873  31.006  1.00  0.00     0.006 C 
ENDROOT
BRANCH   1   2
ATOM      2  C   UNL     1       6.958  13.085  31.971  1.00  0.00     0.053 C 
BRANCH   2   3
ATOM      3  C   UNL     1       6.069  11.881  32.043  1.00  0.00     0.041 C 
ATOM      4  O   UNL     1       4.824  12.019  32.170  1.00  0.00    -0.550 OA
ATOM      5  O   UNL     1       6.621  10.607  32.004  1.00  0.00    -0.550 OA
ENDBRANCH   2   3
ENDBRANCH   1   2
BRANCH   1   6
ATOM      6  C   UNL     1       9.513  13.211  31.605  1.00  0.00     0.000 C 
BRANCH   6   7
ATOM      7  C   UNL     1       9.492  14.484  32.464  1.00  0.00    -0.003 C 
ATOM      8  C   UNL     1      10.622  15.431  32.070  1.00  0.00     0.004 C 
ENDBRANCH   6   7
ENDBRANCH   1   6
TORSDOF 4
ENDMDL
