MODEL 1
REMARK VINA RESULT:    -4.618      0.000      0.000
REMARK INTER + INTRA:          -6.834
REMARK INTER:                  -6.238
REMARK INTRA:                  -0.596
REMARK UNBOUND:                -0.596
REMARK SMILES CC(=O)CCC=C(C)CCC=C(C)C
REMARK SMILES IDX 7 1 6 2 8 3 9 4 10 5 11 6 13 7 12 8 14 9 5 10 4 11 2 12 3 13
REMARK SMILES IDX 1 14
REMARK H PARENT
REMARK Flexibility Score: inf
ROOT
ATOM      1  C   UNL     1     -18.992  -3.550   9.335  1.00  0.00    -0.077 C 
ATOM      2  C   UNL     1     -17.788  -3.112   9.768  1.00  0.00    -0.028 C 
ATOM      3  C   UNL     1     -20.140  -2.604   9.074  1.00  0.00     0.039 C 
ENDROOT
BRANCH   1   4
ATOM      4  C   UNL     1     -19.181  -5.024   9.043  1.00  0.00     0.034 C 
BRANCH   4   5
ATOM      5  C   UNL     1     -19.359  -5.285   7.539  1.00  0.00     0.032 C 
BRANCH   5   6
ATOM      6  C   UNL     1     -18.093  -5.015   6.759  1.00  0.00    -0.028 C 
ATOM      7  C   UNL     1     -16.369  -5.364   5.046  1.00  0.00     0.039 C 
ATOM      8  C   UNL     1     -17.689  -5.720   5.680  1.00  0.00    -0.080 C 
ATOM      9  C   UNL     1     -18.525  -6.829   5.088  1.00  0.00     0.039 C 
ENDBRANCH   5   6
ENDBRANCH   4   5
ENDBRANCH   1   4
BRANCH   2  10
ATOM     10  C   UNL     1     -17.431  -1.663   9.972  1.00  0.00     0.035 C 
BRANCH  10  11
ATOM     11  C   UNL     1     -16.867  -1.444  11.379  1.00  0.00     0.079 C 
BRANCH  11  12
ATOM     12  C   UNL     1     -17.433  -0.192  11.992  1.00  0.00     0.130 C 
ATOM     13  O   UNL     1     -16.837   0.350  12.911  1.00  0.00    -0.300 OA
ATOM     14  C   UNL     1     -18.723   0.401  11.509  1.00  0.00     0.087 C 
ENDBRANCH  11  12
ENDBRANCH  10  11
ENDBRANCH   2  10
TORSDOF 6
ENDMDL
MODEL 2
REMARK VINA RESULT:    -4.510      3.305      4.997
REMARK INTER + INTRA:          -6.688
REMARK INTER:                  -5.425
REMARK INTRA:                  -1.263
REMARK UNBOUND:                -0.596
REMARK SMILES CC(=O)CCC=C(C)CCC=C(C)C
REMARK SMILES IDX 7 1 6 2 8 3 9 4 10 5 11 6 13 7 12 8 14 9 5 10 4 11 2 12 3 13
REMARK SMILES IDX 1 14
REMARK H PARENT
REMARK Flexibility Score: inf
ROOT
ATOM      1  C   UNL     1     -17.702  -0.834  10.820  1.00  0.00    -0.077 C 
ATOM      2  C   UNL     1     -18.542   0.199  10.588  1.00  0.00    -0.028 C 
ATOM      3  C   UNL     1     -16.944  -0.971  12.119  1.00  0.00     0.039 C 
ENDROOT
BRANCH   1   4
ATOM      4  C   UNL     1     -17.561  -1.922   9.776  1.00  0.00     0.034 C 
BRANCH   4   5
ATOM      5  C   UNL     1     -18.300  -3.204  10.190  1.00  0.00     0.032 C 
BRANCH   5   6
ATOM      6  C   UNL     1     -19.738  -3.209   9.726  1.00  0.00    -0.028 C 
ATOM      7  C   UNL     1     -22.180  -3.027   9.914  1.00  0.00     0.039 C 
ATOM      8  C   UNL     1     -20.800  -2.921  10.510  1.00  0.00    -0.080 C 
ATOM      9  C   UNL     1     -20.641  -2.481  11.946  1.00  0.00     0.039 C 
ENDBRANCH   5   6
ENDBRANCH   4   5
ENDBRANCH   1   4
BRANCH   2  10
ATOM     10  C   UNL     1     -18.869   1.274  11.591  1.00  0.00     0.035 C 
BRANCH  10  11
ATOM     11  C   UNL     1     -20.176   1.978  11.213  1.00  0.00     0.079 C 
BRANCH  11  12
ATOM     12  C   UNL     1     -21.365   1.143  11.608  1.00  0.00     0.130 C 
ATOM     13  O   UNL     1     -21.528   0.847  12.782  1.00  0.00    -0.300 OA
ATOM     14  C   UNL     1     -22.349   0.653  10.588  1.00  0.00     0.087 C 
ENDBRANCH  11  12
ENDBRANCH  10  11
ENDBRANCH   2  10
TORSDOF 6
ENDMDL
MODEL 3
REMARK VINA RESULT:    -4.501      3.974      7.473
REMARK INTER + INTRA:          -6.676
REMARK INTER:                  -6.301
REMARK INTRA:                  -0.375
REMARK UNBOUND:                -0.596
REMARK SMILES CC(=O)CCC=C(C)CCC=C(C)C
REMARK SMILES IDX 7 1 6 2 8 3 9 4 10 5 11 6 13 7 12 8 14 9 5 10 4 11 2 12 3 13
REMARK SMILES IDX 1 14
REMARK H PARENT
REMARK Flexibility Score: inf
ROOT
ATOM      1  C   UNL     1     -19.212  -5.123   8.587  1.00  0.00    -0.077 C 
ATOM      2  C   UNL     1     -20.014  -6.178   8.855  1.00  0.00    -0.028 C 
ATOM      3  C   UNL     1     -18.489  -4.982   7.269  1.00  0.00     0.039 C 
ENDROOT
BRANCH   1   4
ATOM      4  C   UNL     1     -19.082  -4.015   9.612  1.00  0.00     0.034 C 
BRANCH   4   5
ATOM      5  C   UNL     1     -17.910  -3.077   9.287  1.00  0.00     0.032 C 
BRANCH   5   6
ATOM      6  C   UNL     1     -17.337  -2.430  10.526  1.00  0.00    -0.028 C 
ATOM      7  C   UNL     1     -16.941  -0.660  12.182  1.00  0.00     0.039 C 
ATOM      8  C   UNL     1     -17.643  -1.187  10.957  1.00  0.00    -0.080 C 
ATOM      9  C   UNL     1     -18.674  -0.329  10.263  1.00  0.00     0.039 C 
ENDBRANCH   5   6
ENDBRANCH   4   5
ENDBRANCH   1   4
BRANCH   2  10
ATOM     10  C   UNL     1     -20.330  -7.279   7.875  1.00  0.00     0.035 C 
BRANCH  10  11
ATOM     11  C   UNL     1     -20.829  -8.524   8.613  1.00  0.00     0.079 C 
BRANCH  11  12
ATOM     12  C   UNL     1     -20.487  -9.773   7.845  1.00  0.00     0.130 C 
ATOM     13  O   UNL     1     -19.399  -9.860   7.294  1.00  0.00    -0.300 OA
ATOM     14  C   UNL     1     -21.457 -10.910   7.728  1.00  0.00     0.087 C 
ENDBRANCH  11  12
ENDBRANCH  10  11
ENDBRANCH   2  10
TORSDOF 6
ENDMDL
MODEL 4
REMARK VINA RESULT:    -4.457      2.248      3.867
REMARK INTER + INTRA:          -6.617
REMARK INTER:                  -5.610
REMARK INTRA:                  -1.006
REMARK UNBOUND:                -0.596
REMARK SMILES CC(=O)CCC=C(C)CCC=C(C)C
REMARK SMILES IDX 7 1 6 2 8 3 9 4 10 5 11 6 13 7 12 8 14 9 5 10 4 11 2 12 3 13
REMARK SMILES IDX 1 14
REMARK H PARENT
REMARK Flexibility Score: inf
ROOT
ATOM      1  C   UNL     1     -17.790  -1.146  10.624  1.00  0.00    -0.077 C 
ATOM      2  C   UNL     1     -18.759  -0.342  10.131  1.00  0.00    -0.028 C 
ATOM      3  C   UNL     1     -17.193  -0.930  11.994  1.00  0.00     0.039 C 
ENDROOT
BRANCH   1   4
ATOM      4  C   UNL     1     -17.330  -2.335   9.807  1.00  0.00     0.034 C 
BRANCH   4   5
ATOM      5  C   UNL     1     -18.307  -3.514   9.923  1.00  0.00     0.032 C 
BRANCH   5   6
ATOM      6  C   UNL     1     -18.653  -4.103   8.575  1.00  0.00    -0.028 C 
ATOM      7  C   UNL     1     -20.010  -4.549   6.578  1.00  0.00     0.039 C 
ATOM      8  C   UNL     1     -19.783  -3.834   7.885  1.00  0.00    -0.080 C 
ATOM      9  C   UNL     1     -20.802  -2.833   8.374  1.00  0.00     0.039 C 
ENDBRANCH   5   6
ENDBRANCH   4   5
ENDBRANCH   1   4
BRANCH   2  10
ATOM     10  C   UNL     1     -19.395   0.793  10.891  1.00  0.00     0.035 C 
BRANCH  10  11
ATOM     11  C   UNL     1     -20.922   0.686  10.833  1.00  0.00     0.079 C 
BRANCH  11  12
ATOM     12  C   UNL     1     -21.450  -0.062  12.027  1.00  0.00     0.130 C 
ATOM     13  O   UNL     1     -21.839   0.562  13.003  1.00  0.00    -0.300 OA
ATOM     14  C   UNL     1     -21.498  -1.560  12.052  1.00  0.00     0.087 C 
ENDBRANCH  11  12
ENDBRANCH  10  11
ENDBRANCH   2  10
TORSDOF 6
ENDMDL
MODEL 5
REMARK VINA RESULT:    -4.421     17.896     19.372
REMARK INTER + INTRA:          -6.569
REMARK INTER:                  -5.983
REMARK INTRA:                  -0.586
REMARK UNBOUND:                -0.596
REMARK SMILES CC(=O)CCC=C(C)CCC=C(C)C
REMARK SMILES IDX 7 1 6 2 8 3 9 4 10 5 11 6 13 7 12 8 14 9 5 10 4 11 2 12 3 13
REMARK SMILES IDX 1 14
REMARK H PARENT
REMARK Flexibility Score: inf
ROOT
ATOM      1  C   UNL     1      -5.359 -12.318  18.086  1.00  0.00    -0.077 C 
ATOM      2  C   UNL     1      -4.845 -11.067  18.050  1.00  0.00    -0.028 C 
ATOM      3  C   UNL     1      -5.276 -13.250  16.901  1.00  0.00     0.039 C 
ENDROOT
BRANCH   1   4
ATOM      4  C   UNL     1      -5.982 -12.825  19.370  1.00  0.00     0.034 C 
BRANCH   4   5
ATOM      5  C   UNL     1      -5.014 -13.724  20.153  1.00  0.00     0.032 C 
BRANCH   5   6
ATOM      6  C   UNL     1      -4.859 -13.281  21.589  1.00  0.00    -0.028 C 
ATOM      7  C   UNL     1      -4.389 -13.500  23.990  1.00  0.00     0.039 C 
ATOM      8  C   UNL     1      -4.434 -14.075  22.597  1.00  0.00    -0.080 C 
ATOM      9  C   UNL     1      -3.991 -15.500  22.365  1.00  0.00     0.039 C 
ENDBRANCH   5   6
ENDBRANCH   4   5
ENDBRANCH   1   4
BRANCH   2  10
ATOM     10  C   UNL     1      -4.088 -10.490  16.883  1.00  0.00     0.035 C 
BRANCH  10  11
ATOM     11  C   UNL     1      -4.779  -9.222  16.372  1.00  0.00     0.079 C 
BRANCH  11  12
ATOM     12  C   UNL     1      -5.324  -9.434  14.985  1.00  0.00     0.130 C 
ATOM     13  O   UNL     1      -6.077  -8.602  14.501  1.00  0.00    -0.300 OA
ATOM     14  C   UNL     1      -4.976 -10.654  14.186  1.00  0.00     0.087 C 
ENDBRANCH  11  12
ENDBRANCH  10  11
ENDBRANCH   2  10
TORSDOF 6
ENDMDL
MODEL 6
REMARK VINA RESULT:    -4.339      3.699      7.029
REMARK INTER + INTRA:          -6.457
REMARK INTER:                  -5.596
REMARK INTRA:                  -0.861
REMARK UNBOUND:                -0.596
REMARK SMILES CC(=O)CCC=C(C)CCC=C(C)C
REMARK SMILES IDX 7 1 6 2 8 3 9 4 10 5 11 6 13 7 12 8 14 9 5 10 4 11 2 12 3 13
REMARK SMILES IDX 1 14
REMARK H PARENT
REMARK Flexibility Score: inf
ROOT
ATOM      1  C   UNL     1     -19.178  -4.382   8.514  1.00  0.00    -0.077 C 
ATOM      2  C   UNL     1     -19.286  -5.615   9.058  1.00  0.00    -0.028 C 
ATOM      3  C   UNL     1     -20.310  -3.748   7.741  1.00  0.00     0.039 C 
ENDROOT
BRANCH   1   4
ATOM      4  C   UNL     1     -17.910  -3.584   8.737  1.00  0.00     0.034 C 
BRANCH   4   5
ATOM      5  C   UNL     1     -17.785  -3.114  10.194  1.00  0.00     0.032 C 
BRANCH   5   6
ATOM      6  C   UNL     1     -18.265  -1.692  10.377  1.00  0.00    -0.028 C 
ATOM      7  C   UNL     1     -19.814   0.118  10.972  1.00  0.00     0.039 C 
ATOM      8  C   UNL     1     -19.456  -1.345  10.911  1.00  0.00    -0.080 C 
ATOM      9  C   UNL     1     -20.418  -2.371  11.462  1.00  0.00     0.039 C 
ENDBRANCH   5   6
ENDBRANCH   4   5
ENDBRANCH   1   4
BRANCH   2  10
ATOM     10  C   UNL     1     -20.535  -6.457   9.022  1.00  0.00     0.035 C 
BRANCH  10  11
ATOM     11  C   UNL     1     -20.484  -7.439   7.847  1.00  0.00     0.079 C 
BRANCH  11  12
ATOM     12  C   UNL     1     -20.848  -8.828   8.296  1.00  0.00     0.130 C 
ATOM     13  O   UNL     1     -21.767  -8.982   9.088  1.00  0.00    -0.300 OA
ATOM     14  C   UNL     1     -20.100 -10.031   7.805  1.00  0.00     0.087 C 
ENDBRANCH  11  12
ENDBRANCH  10  11
ENDBRANCH   2  10
TORSDOF 6
ENDMDL
MODEL 7
REMARK VINA RESULT:    -4.331      3.199      6.795
REMARK INTER + INTRA:          -6.447
REMARK INTER:                  -5.629
REMARK INTRA:                  -0.817
REMARK UNBOUND:                -0.596
REMARK SMILES CC(=O)CCC=C(C)CCC=C(C)C
REMARK SMILES IDX 7 1 6 2 8 3 9 4 10 5 11 6 13 7 12 8 14 9 5 10 4 11 2 12 3 13
REMARK SMILES IDX 1 14
REMARK H PARENT
REMARK Flexibility Score: inf
ROOT
ATOM      1  C   UNL     1     -19.174  -3.929   9.061  1.00  0.00    -0.077 C 
ATOM      2  C   UNL     1     -18.771  -4.345   7.839  1.00  0.00    -0.028 C 
ATOM      3  C   UNL     1     -20.635  -3.858   9.439  1.00  0.00     0.039 C 
ENDROOT
BRANCH   1   4
ATOM      4  C   UNL     1     -18.133  -3.582  10.105  1.00  0.00     0.034 C 
BRANCH   4   5
ATOM      5  C   UNL     1     -17.401  -2.276   9.763  1.00  0.00     0.032 C 
BRANCH   5   6
ATOM      6  C   UNL     1     -18.198  -1.055  10.160  1.00  0.00    -0.028 C 
ATOM      7  C   UNL     1     -18.942   0.800  11.588  1.00  0.00     0.039 C 
ATOM      8  C   UNL     1     -18.026  -0.364  11.308  1.00  0.00    -0.080 C 
ATOM      9  C   UNL     1     -16.939  -0.711  12.298  1.00  0.00     0.039 C 
ENDBRANCH   5   6
ENDBRANCH   4   5
ENDBRANCH   1   4
BRANCH   2  10
ATOM     10  C   UNL     1     -19.696  -4.840   6.758  1.00  0.00     0.035 C 
BRANCH  10  11
ATOM     11  C   UNL     1     -19.637  -6.368   6.663  1.00  0.00     0.079 C 
BRANCH  11  12
ATOM     12  C   UNL     1     -20.775  -6.993   7.424  1.00  0.00     0.130 C 
ATOM     13  O   UNL     1     -21.926  -6.762   7.082  1.00  0.00    -0.300 OA
ATOM     14  C   UNL     1     -20.530  -7.886   8.603  1.00  0.00     0.087 C 
ENDBRANCH  11  12
ENDBRANCH  10  11
ENDBRANCH   2  10
TORSDOF 6
ENDMDL
MODEL 8
REMARK VINA RESULT:    -4.297      2.007      3.001
REMARK INTER + INTRA:          -6.400
REMARK INTER:                  -5.379
REMARK INTRA:                  -1.021
REMARK UNBOUND:                -0.596
REMARK SMILES CC(=O)CCC=C(C)CCC=C(C)C
REMARK SMILES IDX 7 1 6 2 8 3 9 4 10 5 11 6 13 7 12 8 14 9 5 10 4 11 2 12 3 13
REMARK SMILES IDX 1 14
REMARK H PARENT
REMARK Flexibility Score: inf
ROOT
ATOM      1  C   UNL     1     -18.285  -2.601  10.090  1.00  0.00    -0.077 C 
ATOM      2  C   UNL     1     -19.573  -2.732  10.479  1.00  0.00    -0.028 C 
ATOM      3  C   UNL     1     -17.349  -1.612  10.743  1.00  0.00     0.039 C 
ENDROOT
BRANCH   1   4
ATOM      4  C   UNL     1     -17.744  -3.513   9.009  1.00  0.00     0.034 C 
BRANCH   4   5
ATOM      5  C   UNL     1     -18.727  -4.646   8.679  1.00  0.00     0.032 C 
BRANCH   5   6
ATOM      6  C   UNL     1     -18.904  -4.832   7.190  1.00  0.00    -0.028 C 
ATOM      7  C   UNL     1     -19.970  -4.608   4.989  1.00  0.00     0.039 C 
ATOM      8  C   UNL     1     -19.895  -4.278   6.458  1.00  0.00    -0.080 C 
ATOM      9  C   UNL     1     -20.906  -3.332   7.062  1.00  0.00     0.039 C 
ENDBRANCH   5   6
ENDBRANCH   4   5
ENDBRANCH   1   4
BRANCH   2  10
ATOM     10  C   UNL     1     -20.198  -1.980  11.626  1.00  0.00     0.035 C 
BRANCH  10  11
ATOM     11  C   UNL     1     -21.157  -0.907  11.101  1.00  0.00     0.079 C 
BRANCH  11  12
ATOM     12  C   UNL     1     -20.450   0.414  10.953  1.00  0.00     0.130 C 
ATOM     13  O   UNL     1     -20.262   1.109  11.940  1.00  0.00    -0.300 OA
ATOM     14  C   UNL     1     -19.981   0.904   9.615  1.00  0.00     0.087 C 
ENDBRANCH  11  12
ENDBRANCH  10  11
ENDBRANCH   2  10
TORSDOF 6
ENDMDL
MODEL 9
REMARK VINA RESULT:    -4.272      2.282      3.427
REMARK INTER + INTRA:          -6.367
REMARK INTER:                  -5.425
REMARK INTRA:                  -0.942
REMARK UNBOUND:                -0.596
REMARK SMILES CC(=O)CCC=C(C)CCC=C(C)C
REMARK SMILES IDX 7 1 6 2 8 3 9 4 10 5 11 6 13 7 12 8 14 9 5 10 4 11 2 12 3 13
REMARK SMILES IDX 1 14
REMARK H PARENT
REMARK Flexibility Score: inf
ROOT
ATOM      1  C   UNL     1     -18.446  -2.795   9.921  1.00  0.00    -0.077 C 
ATOM      2  C   UNL     1     -19.699  -2.766  10.430  1.00  0.00    -0.028 C 
ATOM      3  C   UNL     1     -17.346  -1.910  10.455  1.00  0.00     0.039 C 
ENDROOT
BRANCH   1   4
ATOM      4  C   UNL     1     -18.117  -3.787   8.825  1.00  0.00     0.034 C 
BRANCH   4   5
ATOM      5  C   UNL     1     -19.373  -4.207   8.046  1.00  0.00     0.032 C 
BRANCH   5   6
ATOM      6  C   UNL     1     -19.550  -5.708   8.016  1.00  0.00    -0.028 C 
ATOM      7  C   UNL     1     -20.525  -7.887   8.594  1.00  0.00     0.039 C 
ATOM      8  C   UNL     1     -20.517  -6.382   8.676  1.00  0.00    -0.080 C 
ATOM      9  C   UNL     1     -21.591  -5.674   9.468  1.00  0.00     0.039 C 
ENDBRANCH   5   6
ENDBRANCH   4   5
ENDBRANCH   1   4
BRANCH   2  10
ATOM     10  C   UNL     1     -20.122  -1.922  11.604  1.00  0.00     0.035 C 
BRANCH  10  11
ATOM     11  C   UNL     1     -21.095  -0.828  11.153  1.00  0.00     0.079 C 
BRANCH  11  12
ATOM     12  C   UNL     1     -20.394   0.501  11.054  1.00  0.00     0.130 C 
ATOM     13  O   UNL     1     -20.408   1.260  12.012  1.00  0.00    -0.300 OA
ATOM     14  C   UNL     1     -19.689   0.921   9.800  1.00  0.00     0.087 C 
ENDBRANCH  11  12
ENDBRANCH  10  11
ENDBRANCH   2  10
TORSDOF 6
ENDMDL
