MODEL 1
REMARK VINA RESULT:    -3.758      0.000      0.000
REMARK INTER + INTRA:          -8.641
REMARK INTER:                  -6.613
REMARK INTRA:                  -2.028
REMARK UNBOUND:                -2.028
REMARK SMILES CCCCCCCCCCCCCCC(=O)[O-]
REMARK SMILES IDX 9 1 10 2 11 3 12 4 13 5 14 6 15 7 16 8 17 9 8 10 7 11 6 12
REMARK SMILES IDX 5 13 4 14 3 15 2 16 1 17
REMARK H PARENT
REMARK Flexibility Score: inf
ROOT
ATOM      1  C   UNL     1      76.600 -72.736  -3.549  1.00  0.00     0.000 C 
ENDROOT
BRANCH   1   2
ATOM      2  C   UNL     1      75.284 -73.451  -3.932  1.00  0.00     0.000 C 
BRANCH   2   3
ATOM      3  C   UNL     1      74.107 -73.049  -3.028  1.00  0.00     0.000 C 
BRANCH   3   4
ATOM      4  C   UNL     1      74.397 -71.791  -2.188  1.00  0.00     0.000 C 
BRANCH   4   5
ATOM      5  C   UNL     1      74.049 -71.914  -0.694  1.00  0.00     0.006 C 
BRANCH   5   6
ATOM      6  C   UNL     1      72.641 -71.403  -0.362  1.00  0.00     0.053 C 
BRANCH   6   7
ATOM      7  C   UNL     1      72.707 -70.337   0.685  1.00  0.00     0.041 C 
ATOM      8  O   UNL     1      73.811 -69.813   0.989  1.00  0.00    -0.550 OA
ATOM      9  O   UNL     1      71.555 -69.957   1.364  1.00  0.00    -0.550 OA
ENDBRANCH   6   7
ENDBRANCH   5   6
ENDBRANCH   4   5
ENDBRANCH   3   4
ENDBRANCH   2   3
ENDBRANCH   1   2
BRANCH   1  10
ATOM     10  C   UNL     1      77.800 -73.690  -3.404  1.00  0.00     0.000 C 
BRANCH  10  11
ATOM     11  C   UNL     1      77.527 -75.135  -3.858  1.00  0.00    -0.000 C 
BRANCH  11  12
ATOM     12  C   UNL     1      78.168 -76.204  -2.944  1.00  0.00    -0.000 C 
BRANCH  12  13
ATOM     13  C   UNL     1      78.368 -75.707  -1.501  1.00  0.00    -0.000 C 
BRANCH  13  14
ATOM     14  C   UNL     1      77.227 -76.135  -0.564  1.00  0.00    -0.000 C 
BRANCH  14  15
ATOM     15  C   UNL     1      76.152 -75.049  -0.409  1.00  0.00    -0.000 C 
BRANCH  15  16
ATOM     16  C   UNL     1      74.747 -75.644  -0.559  1.00  0.00    -0.003 C 
ATOM     17  C   UNL     1      74.728 -76.757  -1.604  1.00  0.00     0.004 C 
ENDBRANCH  15  16
ENDBRANCH  14  15
ENDBRANCH  13  14
ENDBRANCH  12  13
ENDBRANCH  11  12
ENDBRANCH  10  11
ENDBRANCH   1  10
TORSDOF 13
ENDMDL
MODEL 2
REMARK VINA RESULT:    -3.610      0.961      2.139
REMARK INTER + INTRA:          -8.381
REMARK INTER:                  -6.466
REMARK INTRA:                  -1.914
REMARK UNBOUND:                -2.028
REMARK SMILES CCCCCCCCCCCCCCC(=O)[O-]
REMARK SMILES IDX 9 1 10 2 11 3 12 4 13 5 14 6 15 7 16 8 17 9 8 10 7 11 6 12
REMARK SMILES IDX 5 13 4 14 3 15 2 16 1 17
REMARK H PARENT
REMARK Flexibility Score: inf
ROOT
ATOM      1  C   UNL     1      77.602 -74.748  -4.110  1.00  0.00     0.000 C 
ENDROOT
BRANCH   1   2
ATOM      2  C   UNL     1      77.577 -73.382  -3.386  1.00  0.00     0.000 C 
BRANCH   2   3
ATOM      3  C   UNL     1      76.368 -72.520  -3.788  1.00  0.00     0.000 C 
BRANCH   3   4
ATOM      4  C   UNL     1      75.089 -72.878  -3.008  1.00  0.00     0.000 C 
BRANCH   4   5
ATOM      5  C   UNL     1      74.472 -71.717  -2.208  1.00  0.00     0.006 C 
BRANCH   5   6
ATOM      6  C   UNL     1      74.100 -72.108  -0.772  1.00  0.00     0.053 C 
BRANCH   6   7
ATOM      7  C   UNL     1      73.411 -70.974  -0.084  1.00  0.00     0.041 C 
ATOM      8  O   UNL     1      74.067 -69.968   0.294  1.00  0.00    -0.550 OA
ATOM      9  O   UNL     1      72.050 -71.048   0.187  1.00  0.00    -0.550 OA
ENDBRANCH   6   7
ENDBRANCH   5   6
ENDBRANCH   4   5
ENDBRANCH   3   4
ENDBRANCH   2   3
ENDBRANCH   1   2
BRANCH   1  10
ATOM     10  C   UNL     1      77.863 -75.939  -3.171  1.00  0.00     0.000 C 
BRANCH  10  11
ATOM     11  C   UNL     1      78.345 -75.549  -1.762  1.00  0.00    -0.000 C 
BRANCH  11  12
ATOM     12  C   UNL     1      77.433 -76.070  -0.628  1.00  0.00    -0.000 C 
BRANCH  12  13
ATOM     13  C   UNL     1      76.097 -75.309  -0.545  1.00  0.00    -0.000 C 
BRANCH  13  14
ATOM     14  C   UNL     1      74.884 -76.250  -0.483  1.00  0.00    -0.000 C 
BRANCH  14  15
ATOM     15  C   UNL     1      74.594 -76.929  -1.830  1.00  0.00    -0.000 C 
BRANCH  15  16
ATOM     16  C   UNL     1      73.573 -76.124  -2.641  1.00  0.00    -0.003 C 
ATOM     17  C   UNL     1      72.577 -75.416  -1.726  1.00  0.00     0.004 C 
ENDBRANCH  15  16
ENDBRANCH  14  15
ENDBRANCH  13  14
ENDBRANCH  12  13
ENDBRANCH  11  12
ENDBRANCH  10  11
ENDBRANCH   1  10
TORSDOF 13
ENDMDL
MODEL 3
REMARK VINA RESULT:    -3.592      1.328      2.550
REMARK INTER + INTRA:          -8.351
REMARK INTER:                  -6.612
REMARK INTRA:                  -1.739
REMARK UNBOUND:                -2.028
REMARK SMILES CCCCCCCCCCCCCCC(=O)[O-]
REMARK SMILES IDX 9 1 10 2 11 3 12 4 13 5 14 6 15 7 16 8 17 9 8 10 7 11 6 12
REMARK SMILES IDX 5 13 4 14 3 15 2 16 1 17
REMARK H PARENT
REMARK Flexibility Score: inf
ROOT
ATOM      1  C   UNL     1      74.000 -75.202  -2.410  1.00  0.00     0.000 C 
ENDROOT
BRANCH   1   2
ATOM      2  C   UNL     1      74.324 -75.190  -0.898  1.00  0.00     0.000 C 
BRANCH   2   3
ATOM      3  C   UNL     1      75.032 -73.899  -0.454  1.00  0.00     0.000 C 
BRANCH   3   4
ATOM      4  C   UNL     1      74.589 -72.663  -1.261  1.00  0.00     0.000 C 
BRANCH   4   5
ATOM      5  C   UNL     1      73.448 -71.849  -0.625  1.00  0.00     0.006 C 
BRANCH   5   6
ATOM      6  C   UNL     1      73.878 -70.434  -0.215  1.00  0.00     0.053 C 
BRANCH   6   7
ATOM      7  C   UNL     1      72.881 -69.840   0.729  1.00  0.00     0.041 C 
ATOM      8  O   UNL     1      71.814 -70.454   0.995  1.00  0.00    -0.550 OA
ATOM      9  O   UNL     1      73.106 -68.583   1.277  1.00  0.00    -0.550 OA
ENDBRANCH   6   7
ENDBRANCH   5   6
ENDBRANCH   4   5
ENDBRANCH   3   4
ENDBRANCH   2   3
ENDBRANCH   1   2
BRANCH   1  10
ATOM     10  C   UNL     1      75.114 -75.819  -3.274  1.00  0.00     0.000 C 
BRANCH  10  11
ATOM     11  C   UNL     1      75.965 -74.796  -4.047  1.00  0.00    -0.000 C 
BRANCH  11  12
ATOM     12  C   UNL     1      77.483 -74.931  -3.790  1.00  0.00    -0.000 C 
BRANCH  12  13
ATOM     13  C   UNL     1      77.896 -74.421  -2.398  1.00  0.00    -0.000 C 
BRANCH  13  14
ATOM     14  C   UNL     1      78.674 -75.472  -1.590  1.00  0.00    -0.000 C 
BRANCH  14  15
ATOM     15  C   UNL     1      77.759 -76.329  -0.701  1.00  0.00    -0.000 C 
BRANCH  15  16
ATOM     16  C   UNL     1      77.729 -77.782  -1.185  1.00  0.00    -0.003 C 
ATOM     17  C   UNL     1      78.971 -78.115  -2.008  1.00  0.00     0.004 C 
ENDBRANCH  15  16
ENDBRANCH  14  15
ENDBRANCH  13  14
ENDBRANCH  12  13
ENDBRANCH  11  12
ENDBRANCH  10  11
ENDBRANCH   1  10
TORSDOF 13
ENDMDL
MODEL 4
REMARK VINA RESULT:    -3.562      4.378      6.551
REMARK INTER + INTRA:          -8.297
REMARK INTER:                  -6.376
REMARK INTRA:                  -1.920
REMARK UNBOUND:                -2.028
REMARK SMILES CCCCCCCCCCCCCCC(=O)[O-]
REMARK SMILES IDX 9 1 10 2 11 3 12 4 13 5 14 6 15 7 16 8 17 9 8 10 7 11 6 12
REMARK SMILES IDX 5 13 4 14 3 15 2 16 1 17
REMARK H PARENT
REMARK Flexibility Score: inf
ROOT
ATOM      1  C   UNL     1      77.153 -73.268  -3.573  1.00  0.00     0.000 C 
ENDROOT
BRANCH   1   2
ATOM      2  C   UNL     1      77.565 -74.714  -3.217  1.00  0.00     0.000 C 
BRANCH   2   3
ATOM      3  C   UNL     1      78.312 -74.804  -1.875  1.00  0.00     0.000 C 
BRANCH   3   4
ATOM      4  C   UNL     1      77.994 -76.093  -1.096  1.00  0.00     0.000 C 
BRANCH   4   5
ATOM      5  C   UNL     1      78.413 -77.397  -1.800  1.00  0.00     0.006 C 
BRANCH   5   6
ATOM      6  C   UNL     1      77.862 -78.653  -1.112  1.00  0.00     0.053 C 
BRANCH   6   7
ATOM      7  C   UNL     1      78.979 -79.577  -0.742  1.00  0.00     0.041 C 
ATOM      8  O   UNL     1      79.071 -80.022   0.432  1.00  0.00    -0.550 OA
ATOM      9  O   UNL     1      79.948 -79.908  -1.681  1.00  0.00    -0.550 OA
ENDBRANCH   6   7
ENDBRANCH   5   6
ENDBRANCH   4   5
ENDBRANCH   3   4
ENDBRANCH   2   3
ENDBRANCH   1   2
BRANCH   1  10
ATOM     10  C   UNL     1      75.711 -73.150  -4.099  1.00  0.00     0.000 C 
BRANCH  10  11
ATOM     11  C   UNL     1      74.994 -71.845  -3.709  1.00  0.00    -0.000 C 
BRANCH  11  12
ATOM     12  C   UNL     1      74.547 -71.800  -2.230  1.00  0.00    -0.000 C 
BRANCH  12  13
ATOM     13  C   UNL     1      73.970 -73.141  -1.744  1.00  0.00    -0.000 C 
BRANCH  13  14
ATOM     14  C   UNL     1      74.832 -73.795  -0.652  1.00  0.00    -0.000 C 
BRANCH  14  15
ATOM     15  C   UNL     1      74.560 -75.300  -0.508  1.00  0.00    -0.000 C 
BRANCH  15  16
ATOM     16  C   UNL     1      73.750 -75.827  -1.697  1.00  0.00    -0.003 C 
ATOM     17  C   UNL     1      74.604 -76.721  -2.593  1.00  0.00     0.004 C 
ENDBRANCH  15  16
ENDBRANCH  14  15
ENDBRANCH  13  14
ENDBRANCH  12  13
ENDBRANCH  11  12
ENDBRANCH  10  11
ENDBRANCH   1  10
TORSDOF 13
ENDMDL
MODEL 5
REMARK VINA RESULT:    -3.532      1.845      3.194
REMARK INTER + INTRA:          -8.245
REMARK INTER:                  -6.143
REMARK INTRA:                  -2.102
REMARK UNBOUND:                -2.028
REMARK SMILES CCCCCCCCCCCCCCC(=O)[O-]
REMARK SMILES IDX 9 1 10 2 11 3 12 4 13 5 14 6 15 7 16 8 17 9 8 10 7 11 6 12
REMARK SMILES IDX 5 13 4 14 3 15 2 16 1 17
REMARK H PARENT
REMARK Flexibility Score: inf
ROOT
ATOM      1  C   UNL     1      76.828 -74.903  -1.478  1.00  0.00     0.000 C 
ENDROOT
BRANCH   1   2
ATOM      2  C   UNL     1      77.807 -74.037  -2.304  1.00  0.00     0.000 C 
BRANCH   2   3
ATOM      3  C   UNL     1      77.105 -73.262  -3.432  1.00  0.00     0.000 C 
BRANCH   3   4
ATOM      4  C   UNL     1      75.754 -73.880  -3.835  1.00  0.00     0.000 C 
BRANCH   4   5
ATOM      5  C   UNL     1      74.531 -72.974  -3.603  1.00  0.00     0.006 C 
BRANCH   5   6
ATOM      6  C   UNL     1      74.827 -71.796  -2.665  1.00  0.00     0.053 C 
BRANCH   6   7
ATOM      7  C   UNL     1      74.154 -71.998  -1.345  1.00  0.00     0.041 C 
ATOM      8  O   UNL     1      73.835 -73.156  -0.966  1.00  0.00    -0.550 OA
ATOM      9  O   UNL     1      73.833 -70.902  -0.553  1.00  0.00    -0.550 OA
ENDBRANCH   6   7
ENDBRANCH   5   6
ENDBRANCH   4   5
ENDBRANCH   3   4
ENDBRANCH   2   3
ENDBRANCH   1   2
BRANCH   1  10
ATOM     10  C   UNL     1      77.513 -76.053  -0.719  1.00  0.00     0.000 C 
BRANCH  10  11
ATOM     11  C   UNL     1      78.509 -76.871  -1.561  1.00  0.00    -0.000 C 
BRANCH  11  12
ATOM     12  C   UNL     1      78.303 -78.399  -1.454  1.00  0.00    -0.000 C 
BRANCH  12  13
ATOM     13  C   UNL     1      76.980 -78.864  -2.088  1.00  0.00    -0.000 C 
BRANCH  13  14
ATOM     14  C   UNL     1      76.804 -78.359  -3.529  1.00  0.00    -0.000 C 
BRANCH  14  15
ATOM     15  C   UNL     1      75.501 -77.568  -3.722  1.00  0.00    -0.000 C 
BRANCH  15  16
ATOM     16  C   UNL     1      74.590 -77.706  -2.498  1.00  0.00    -0.003 C 
ATOM     17  C   UNL     1      73.603 -76.544  -2.411  1.00  0.00     0.004 C 
ENDBRANCH  15  16
ENDBRANCH  14  15
ENDBRANCH  13  14
ENDBRANCH  12  13
ENDBRANCH  11  12
ENDBRANCH  10  11
ENDBRANCH   1  10
TORSDOF 13
ENDMDL
MODEL 6
REMARK VINA RESULT:    -3.465      2.419      4.361
REMARK INTER + INTRA:          -8.126
REMARK INTER:                  -5.771
REMARK INTRA:                  -2.355
REMARK UNBOUND:                -2.028
REMARK SMILES CCCCCCCCCCCCCCC(=O)[O-]
REMARK SMILES IDX 9 1 10 2 11 3 12 4 13 5 14 6 15 7 16 8 17 9 8 10 7 11 6 12
REMARK SMILES IDX 5 13 4 14 3 15 2 16 1 17
REMARK H PARENT
REMARK Flexibility Score: inf
ROOT
ATOM      1  C   UNL     1      77.884 -77.601  -0.853  1.00  0.00     0.000 C 
ENDROOT
BRANCH   1   2
ATOM      2  C   UNL     1      77.738 -76.065  -0.751  1.00  0.00     0.000 C 
BRANCH   2   3
ATOM      3  C   UNL     1      78.193 -75.340  -2.029  1.00  0.00     0.000 C 
BRANCH   3   4
ATOM      4  C   UNL     1      77.537 -73.957  -2.201  1.00  0.00     0.000 C 
BRANCH   4   5
ATOM      5  C   UNL     1      76.960 -73.683  -3.601  1.00  0.00     0.006 C 
BRANCH   5   6
ATOM      6  C   UNL     1      76.351 -72.281  -3.735  1.00  0.00     0.053 C 
BRANCH   6   7
ATOM      7  C   UNL     1      74.928 -72.285  -3.275  1.00  0.00     0.041 C 
ATOM      8  O   UNL     1      74.028 -72.786  -4.000  1.00  0.00    -0.550 OA
ATOM      9  O   UNL     1      74.586 -71.690  -2.067  1.00  0.00    -0.550 OA
ENDBRANCH   6   7
ENDBRANCH   5   6
ENDBRANCH   4   5
ENDBRANCH   3   4
ENDBRANCH   2   3
ENDBRANCH   1   2
BRANCH   1  10
ATOM     10  C   UNL     1      78.549 -78.071  -2.158  1.00  0.00     0.000 C 
BRANCH  10  11
ATOM     11  C   UNL     1      77.585 -78.713  -3.171  1.00  0.00    -0.000 C 
BRANCH  11  12
ATOM     12  C   UNL     1      76.323 -79.329  -2.523  1.00  0.00    -0.000 C 
BRANCH  12  13
ATOM     13  C   UNL     1      75.024 -78.652  -2.997  1.00  0.00    -0.000 C 
BRANCH  13  14
ATOM     14  C   UNL     1      75.278 -77.310  -3.701  1.00  0.00    -0.000 C 
BRANCH  14  15
ATOM     15  C   UNL     1      74.447 -76.164  -3.105  1.00  0.00    -0.000 C 
BRANCH  15  16
ATOM     16  C   UNL     1      74.181 -76.397  -1.614  1.00  0.00    -0.003 C 
ATOM     17  C   UNL     1      74.198 -75.082  -0.839  1.00  0.00     0.004 C 
ENDBRANCH  15  16
ENDBRANCH  14  15
ENDBRANCH  13  14
ENDBRANCH  12  13
ENDBRANCH  11  12
ENDBRANCH  10  11
ENDBRANCH   1  10
TORSDOF 13
ENDMDL
MODEL 7
REMARK VINA RESULT:    -3.454      3.730      5.319
REMARK INTER + INTRA:          -8.106
REMARK INTER:                  -5.947
REMARK INTRA:                  -2.160
REMARK UNBOUND:                -2.028
REMARK SMILES CCCCCCCCCCCCCCC(=O)[O-]
REMARK SMILES IDX 9 1 10 2 11 3 12 4 13 5 14 6 15 7 16 8 17 9 8 10 7 11 6 12
REMARK SMILES IDX 5 13 4 14 3 15 2 16 1 17
REMARK H PARENT
REMARK Flexibility Score: inf
ROOT
ATOM      1  C   UNL     1      73.940 -72.989  -2.943  1.00  0.00     0.000 C 
ENDROOT
BRANCH   1   2
ATOM      2  C   UNL     1      74.576 -72.770  -1.552  1.00  0.00     0.000 C 
BRANCH   2   3
ATOM      3  C   UNL     1      74.847 -74.090  -0.810  1.00  0.00     0.000 C 
BRANCH   3   4
ATOM      4  C   UNL     1      73.840 -75.199  -1.168  1.00  0.00     0.000 C 
BRANCH   4   5
ATOM      5  C   UNL     1      74.434 -76.389  -1.944  1.00  0.00     0.006 C 
BRANCH   5   6
ATOM      6  C   UNL     1      74.444 -77.689  -1.130  1.00  0.00     0.053 C 
BRANCH   6   7
ATOM      7  C   UNL     1      74.502 -78.874  -2.041  1.00  0.00     0.041 C 
ATOM      8  O   UNL     1      73.704 -78.967  -3.012  1.00  0.00    -0.550 OA
ATOM      9  O   UNL     1      75.404 -79.901  -1.791  1.00  0.00    -0.550 OA
ENDBRANCH   6   7
ENDBRANCH   5   6
ENDBRANCH   4   5
ENDBRANCH   3   4
ENDBRANCH   2   3
ENDBRANCH   1   2
BRANCH   1  10
ATOM     10  C   UNL     1      74.958 -72.963  -4.097  1.00  0.00     0.000 C 
BRANCH  10  11
ATOM     11  C   UNL     1      76.304 -72.305  -3.747  1.00  0.00    -0.000 C 
BRANCH  11  12
ATOM     12  C   UNL     1      77.492 -73.294  -3.728  1.00  0.00    -0.000 C 
BRANCH  12  13
ATOM     13  C   UNL     1      77.060 -74.744  -4.011  1.00  0.00    -0.000 C 
BRANCH  13  14
ATOM     14  C   UNL     1      77.912 -75.774  -3.253  1.00  0.00    -0.000 C 
BRANCH  14  15
ATOM     15  C   UNL     1      78.322 -75.287  -1.855  1.00  0.00    -0.000 C 
BRANCH  15  16
ATOM     16  C   UNL     1      77.849 -76.264  -0.773  1.00  0.00    -0.003 C 
ATOM     17  C   UNL     1      78.221 -77.702  -1.129  1.00  0.00     0.004 C 
ENDBRANCH  15  16
ENDBRANCH  14  15
ENDBRANCH  13  14
ENDBRANCH  12  13
ENDBRANCH  11  12
ENDBRANCH  10  11
ENDBRANCH   1  10
TORSDOF 13
ENDMDL
MODEL 8
REMARK VINA RESULT:    -3.415      1.173      2.241
REMARK INTER + INTRA:          -8.038
REMARK INTER:                  -6.146
REMARK INTRA:                  -1.891
REMARK UNBOUND:                -2.028
REMARK SMILES CCCCCCCCCCCCCCC(=O)[O-]
REMARK SMILES IDX 9 1 10 2 11 3 12 4 13 5 14 6 15 7 16 8 17 9 8 10 7 11 6 12
REMARK SMILES IDX 5 13 4 14 3 15 2 16 1 17
REMARK H PARENT
REMARK Flexibility Score: inf
ROOT
ATOM      1  C   UNL     1      77.441 -74.160  -2.170  1.00  0.00     0.000 C 
ENDROOT
BRANCH   1   2
ATOM      2  C   UNL     1      77.507 -73.243  -3.413  1.00  0.00     0.000 C 
BRANCH   2   3
ATOM      3  C   UNL     1      76.144 -72.623  -3.765  1.00  0.00     0.000 C 
BRANCH   3   4
ATOM      4  C   UNL     1      75.052 -72.944  -2.726  1.00  0.00     0.000 C 
BRANCH   4   5
ATOM      5  C   UNL     1      74.432 -71.715  -2.038  1.00  0.00     0.006 C 
BRANCH   5   6
ATOM      6  C   UNL     1      73.492 -72.086  -0.884  1.00  0.00     0.053 C 
BRANCH   6   7
ATOM      7  C   UNL     1      73.251 -70.899  -0.005  1.00  0.00     0.041 C 
ATOM      8  O   UNL     1      72.215 -70.837   0.708  1.00  0.00    -0.550 OA
ATOM      9  O   UNL     1      74.147 -69.837  -0.010  1.00  0.00    -0.550 OA
ENDBRANCH   6   7
ENDBRANCH   5   6
ENDBRANCH   4   5
ENDBRANCH   3   4
ENDBRANCH   2   3
ENDBRANCH   1   2
BRANCH   1  10
ATOM     10  C   UNL     1      78.035 -75.560  -2.405  1.00  0.00     0.000 C 
BRANCH  10  11
ATOM     11  C   UNL     1      77.823 -76.114  -3.825  1.00  0.00    -0.000 C 
BRANCH  11  12
ATOM     12  C   UNL     1      77.351 -77.586  -3.853  1.00  0.00    -0.000 C 
BRANCH  12  13
ATOM     13  C   UNL     1      76.071 -77.813  -3.030  1.00  0.00    -0.000 C 
BRANCH  13  14
ATOM     14  C   UNL     1      74.882 -76.987  -3.546  1.00  0.00    -0.000 C 
BRANCH  14  15
ATOM     15  C   UNL     1      74.033 -76.399  -2.408  1.00  0.00    -0.000 C 
BRANCH  15  16
ATOM     16  C   UNL     1      74.737 -76.567  -1.057  1.00  0.00    -0.003 C 
ATOM     17  C   UNL     1      74.153 -75.621  -0.010  1.00  0.00     0.004 C 
ENDBRANCH  15  16
ENDBRANCH  14  15
ENDBRANCH  13  14
ENDBRANCH  12  13
ENDBRANCH  11  12
ENDBRANCH  10  11
ENDBRANCH   1  10
TORSDOF 13
ENDMDL
MODEL 9
REMARK VINA RESULT:    -3.383      4.202      6.744
REMARK INTER + INTRA:          -7.981
REMARK INTER:                  -6.091
REMARK INTRA:                  -1.890
REMARK UNBOUND:                -2.028
REMARK SMILES CCCCCCCCCCCCCCC(=O)[O-]
REMARK SMILES IDX 9 1 10 2 11 3 12 4 13 5 14 6 15 7 16 8 17 9 8 10 7 11 6 12
REMARK SMILES IDX 5 13 4 14 3 15 2 16 1 17
REMARK H PARENT
REMARK Flexibility Score: inf
ROOT
ATOM      1  C   UNL     1      75.753 -75.811  -0.753  1.00  0.00     0.000 C 
ENDROOT
BRANCH   1   2
ATOM      2  C   UNL     1      75.059 -76.433  -1.986  1.00  0.00     0.000 C 
BRANCH   2   3
ATOM      3  C   UNL     1      75.195 -77.964  -2.033  1.00  0.00     0.000 C 
BRANCH   3   4
ATOM      4  C   UNL     1      75.977 -78.461  -3.263  1.00  0.00     0.000 C 
BRANCH   4   5
ATOM      5  C   UNL     1      77.072 -79.499  -2.960  1.00  0.00     0.006 C 
BRANCH   5   6
ATOM      6  C   UNL     1      77.188 -79.830  -1.466  1.00  0.00     0.053 C 
BRANCH   6   7
ATOM      7  C   UNL     1      78.557 -79.497  -0.963  1.00  0.00     0.041 C 
ATOM      8  O   UNL     1      78.873 -79.748   0.230  1.00  0.00    -0.550 OA
ATOM      9  O   UNL     1      79.470 -78.865  -1.798  1.00  0.00    -0.550 OA
ENDBRANCH   6   7
ENDBRANCH   5   6
ENDBRANCH   4   5
ENDBRANCH   3   4
ENDBRANCH   2   3
ENDBRANCH   1   2
BRANCH   1  10
ATOM     10  C   UNL     1      77.278 -76.021  -0.732  1.00  0.00     0.000 C 
BRANCH  10  11
ATOM     11  C   UNL     1      78.007 -75.541  -1.999  1.00  0.00    -0.000 C 
BRANCH  11  12
ATOM     12  C   UNL     1      77.895 -74.018  -2.240  1.00  0.00    -0.000 C 
BRANCH  12  13
ATOM     13  C   UNL     1      77.476 -73.676  -3.681  1.00  0.00    -0.000 C 
BRANCH  13  14
ATOM     14  C   UNL     1      76.459 -72.526  -3.745  1.00  0.00    -0.000 C 
BRANCH  14  15
ATOM     15  C   UNL     1      75.083 -72.924  -3.190  1.00  0.00    -0.000 C 
BRANCH  15  16
ATOM     16  C   UNL     1      74.543 -71.849  -2.240  1.00  0.00    -0.003 C 
ATOM     17  C   UNL     1      74.173 -72.445  -0.884  1.00  0.00     0.004 C 
ENDBRANCH  15  16
ENDBRANCH  14  15
ENDBRANCH  13  14
ENDBRANCH  12  13
ENDBRANCH  11  12
ENDBRANCH  10  11
ENDBRANCH   1  10
TORSDOF 13
ENDMDL
