MODEL 1
REMARK VINA RESULT:    -2.071      0.000      0.000
REMARK INTER + INTRA:          -2.573
REMARK INTER:                  -2.435
REMARK INTRA:                  -0.138
REMARK UNBOUND:                -0.138
REMARK SMILES O=C([O-])CCC(=O)[O-]
REMARK SMILES IDX 4 1 2 2 1 3 3 4 5 5 6 6 7 7 8 8
REMARK H PARENT
REMARK Flexibility Score: inf
ROOT
ATOM      1  C   UNL     1       5.379  11.970   6.697  1.00  0.00     0.059 C 
ENDROOT
BRANCH   1   2
ATOM      2  C   UNL     1       4.047  12.541   6.320  1.00  0.00     0.042 C 
ATOM      3  O   UNL     1       3.712  13.685   6.725  1.00  0.00    -0.550 OA
ATOM      4  O   UNL     1       3.158  11.794   5.557  1.00  0.00    -0.550 OA
ENDBRANCH   1   2
BRANCH   1   5
ATOM      5  C   UNL     1       5.454  11.649   8.193  1.00  0.00     0.059 C 
BRANCH   5   6
ATOM      6  C   UNL     1       4.856  10.311   8.501  1.00  0.00     0.042 C 
ATOM      7  O   UNL     1       4.147  10.155   9.531  1.00  0.00    -0.550 OA
ATOM      8  O   UNL     1       5.048   9.245   7.631  1.00  0.00    -0.550 OA
ENDBRANCH   5   6
ENDBRANCH   1   5
TORSDOF 3
ENDMDL
MODEL 2
REMARK VINA RESULT:    -2.053      0.143      1.626
REMARK INTER + INTRA:          -2.551
REMARK INTER:                  -2.404
REMARK INTRA:                  -0.147
REMARK UNBOUND:                -0.138
REMARK SMILES O=C([O-])CCC(=O)[O-]
REMARK SMILES IDX 4 1 2 2 1 3 3 4 5 5 6 6 7 7 8 8
REMARK H PARENT
REMARK Flexibility Score: inf
ROOT
ATOM      1  C   UNL     1       5.422  12.011   6.553  1.00  0.00     0.059 C 
ENDROOT
BRANCH   1   2
ATOM      2  C   UNL     1       4.041  12.530   6.297  1.00  0.00     0.042 C 
ATOM      3  O   UNL     1       3.229  11.858   5.608  1.00  0.00    -0.550 OA
ATOM      4  O   UNL     1       3.663  13.776   6.784  1.00  0.00    -0.550 OA
ENDBRANCH   1   2
BRANCH   1   5
ATOM      5  C   UNL     1       5.607  11.595   8.016  1.00  0.00     0.059 C 
BRANCH   5   6
ATOM      6  C   UNL     1       4.904  10.308   8.318  1.00  0.00     0.042 C 
ATOM      7  O   UNL     1       5.022   9.324   7.541  1.00  0.00    -0.550 OA
ATOM      8  O   UNL     1       4.150  10.182   9.478  1.00  0.00    -0.550 OA
ENDBRANCH   5   6
ENDBRANCH   1   5
TORSDOF 3
ENDMDL
MODEL 3
REMARK VINA RESULT:    -2.037      0.589      3.560
REMARK INTER + INTRA:          -2.532
REMARK INTER:                  -2.372
REMARK INTRA:                  -0.161
REMARK UNBOUND:                -0.138
REMARK SMILES O=C([O-])CCC(=O)[O-]
REMARK SMILES IDX 4 1 2 2 1 3 3 4 5 5 6 6 7 7 8 8
REMARK H PARENT
REMARK Flexibility Score: inf
ROOT
ATOM      1  C   UNL     1       5.763  11.255   7.446  1.00  0.00     0.059 C 
ENDROOT
BRANCH   1   2
ATOM      2  C   UNL     1       5.032  10.099   8.055  1.00  0.00     0.042 C 
ATOM      3  O   UNL     1       5.114   8.954   7.536  1.00  0.00    -0.550 OA
ATOM      4  O   UNL     1       4.226  10.293   9.170  1.00  0.00    -0.550 OA
ENDBRANCH   1   2
BRANCH   1   5
ATOM      5  C   UNL     1       5.293  11.530   6.013  1.00  0.00     0.059 C 
BRANCH   5   6
ATOM      6  C   UNL     1       3.922  12.133   5.989  1.00  0.00     0.042 C 
ATOM      7  O   UNL     1       3.685  13.196   6.622  1.00  0.00    -0.550 OA
ATOM      8  O   UNL     1       2.915  11.543   5.235  1.00  0.00    -0.550 OA
ENDBRANCH   5   6
ENDBRANCH   1   5
TORSDOF 3
ENDMDL
MODEL 4
REMARK VINA RESULT:    -2.031      0.773      1.381
REMARK INTER + INTRA:          -2.525
REMARK INTER:                  -2.367
REMARK INTRA:                  -0.158
REMARK UNBOUND:                -0.138
REMARK SMILES O=C([O-])CCC(=O)[O-]
REMARK SMILES IDX 4 1 2 2 1 3 3 4 5 5 6 6 7 7 8 8
REMARK H PARENT
REMARK Flexibility Score: inf
ROOT
ATOM      1  C   UNL     1       5.176  11.288   5.808  1.00  0.00     0.059 C 
ENDROOT
BRANCH   1   2
ATOM      2  C   UNL     1       3.844  11.971   5.843  1.00  0.00     0.042 C 
ATOM      3  O   UNL     1       2.871  11.495   5.200  1.00  0.00    -0.550 OA
ATOM      4  O   UNL     1       3.687  13.156   6.551  1.00  0.00    -0.550 OA
ENDBRANCH   1   2
BRANCH   1   5
ATOM      5  C   UNL     1       5.752  11.099   7.216  1.00  0.00     0.059 C 
BRANCH   5   6
ATOM      6  C   UNL     1       5.022  10.032   7.972  1.00  0.00     0.042 C 
ATOM      7  O   UNL     1       4.300  10.334   8.958  1.00  0.00    -0.550 OA
ATOM      8  O   UNL     1       5.109   8.707   7.563  1.00  0.00    -0.550 OA
ENDBRANCH   5   6
ENDBRANCH   1   5
TORSDOF 3
ENDMDL
MODEL 5
REMARK VINA RESULT:    -1.976      8.424      8.891
REMARK INTER + INTRA:          -2.460
REMARK INTER:                  -2.328
REMARK INTRA:                  -0.132
REMARK UNBOUND:                -0.138
REMARK SMILES O=C([O-])CCC(=O)[O-]
REMARK SMILES IDX 4 1 2 2 1 3 3 4 5 5 6 6 7 7 8 8
REMARK H PARENT
REMARK Flexibility Score: inf
ROOT
ATOM      1  C   UNL     1      -3.893  13.955  11.214  1.00  0.00     0.059 C 
ENDROOT
BRANCH   1   2
ATOM      2  C   UNL     1      -3.079  13.543  10.027  1.00  0.00     0.042 C 
ATOM      3  O   UNL     1      -2.611  14.414   9.247  1.00  0.00    -0.550 OA
ATOM      4  O   UNL     1      -2.872  12.196   9.756  1.00  0.00    -0.550 OA
ENDBRANCH   1   2
BRANCH   1   5
ATOM      5  C   UNL     1      -3.010  14.244  12.432  1.00  0.00     0.059 C 
BRANCH   5   6
ATOM      6  C   UNL     1      -2.698  12.994  13.196  1.00  0.00     0.042 C 
ATOM      7  O   UNL     1      -1.641  12.912  13.875  1.00  0.00    -0.550 OA
ATOM      8  O   UNL     1      -3.596  11.933  13.190  1.00  0.00    -0.550 OA
ENDBRANCH   5   6
ENDBRANCH   1   5
TORSDOF 3
ENDMDL
MODEL 6
REMARK VINA RESULT:    -1.922      8.098      8.524
REMARK INTER + INTRA:          -2.398
REMARK INTER:                  -2.290
REMARK INTRA:                  -0.108
REMARK UNBOUND:                -0.138
REMARK SMILES O=C([O-])CCC(=O)[O-]
REMARK SMILES IDX 4 1 2 2 1 3 3 4 5 5 6 6 7 7 8 8
REMARK H PARENT
REMARK Flexibility Score: inf
ROOT
ATOM      1  C   UNL     1      -3.981  12.894  10.795  1.00  0.00     0.059 C 
ENDROOT
BRANCH   1   2
ATOM      2  C   UNL     1      -3.251  13.126   9.508  1.00  0.00     0.042 C 
ATOM      3  O   UNL     1      -3.117  12.188   8.678  1.00  0.00    -0.550 OA
ATOM      4  O   UNL     1      -2.683  14.365   9.242  1.00  0.00    -0.550 OA
ENDBRANCH   1   2
BRANCH   1   5
ATOM      5  C   UNL     1      -3.039  12.974  12.001  1.00  0.00     0.059 C 
BRANCH   5   6
ATOM      6  C   UNL     1      -2.637  11.612  12.478  1.00  0.00     0.042 C 
ATOM      7  O   UNL     1      -3.178  10.584  11.992  1.00  0.00    -0.550 OA
ATOM      8  O   UNL     1      -1.637  11.476  13.434  1.00  0.00    -0.550 OA
ENDBRANCH   5   6
ENDBRANCH   1   5
TORSDOF 3
ENDMDL
MODEL 7
REMARK VINA RESULT:    -1.851      8.503      9.546
REMARK INTER + INTRA:          -2.313
REMARK INTER:                  -2.125
REMARK INTRA:                  -0.189
REMARK UNBOUND:                -0.138
REMARK SMILES O=C([O-])CCC(=O)[O-]
REMARK SMILES IDX 4 1 2 2 1 3 3 4 5 5 6 6 7 7 8 8
REMARK H PARENT
REMARK Flexibility Score: inf
ROOT
ATOM      1  C   UNL     1      -3.142  14.058  10.265  1.00  0.00     0.059 C 
ENDROOT
BRANCH   1   2
ATOM      2  C   UNL     1      -3.471  12.601  10.156  1.00  0.00     0.042 C 
ATOM      3  O   UNL     1      -2.748  11.839   9.461  1.00  0.00    -0.550 OA
ATOM      4  O   UNL     1      -4.598  12.091  10.788  1.00  0.00    -0.550 OA
ENDBRANCH   1   2
BRANCH   1   5
ATOM      5  C   UNL     1      -3.183  14.750   8.899  1.00  0.00     0.059 C 
BRANCH   5   6
ATOM      6  C   UNL     1      -4.531  14.627   8.259  1.00  0.00     0.042 C 
ATOM      7  O   UNL     1      -5.535  15.180   8.781  1.00  0.00    -0.550 OA
ATOM      8  O   UNL     1      -4.672  13.932   7.063  1.00  0.00    -0.550 OA
ENDBRANCH   5   6
ENDBRANCH   1   5
TORSDOF 3
ENDMDL
MODEL 8
REMARK VINA RESULT:    -1.847      8.429      9.737
REMARK INTER + INTRA:          -2.309
REMARK INTER:                  -2.195
REMARK INTRA:                  -0.114
REMARK UNBOUND:                -0.138
REMARK SMILES O=C([O-])CCC(=O)[O-]
REMARK SMILES IDX 4 1 2 2 1 3 3 4 5 5 6 6 7 7 8 8
REMARK H PARENT
REMARK Flexibility Score: inf
ROOT
ATOM      1  C   UNL     1      -3.104  14.452   9.261  1.00  0.00     0.059 C 
ENDROOT
BRANCH   1   2
ATOM      2  C   UNL     1      -3.576  13.058   8.989  1.00  0.00     0.042 C 
ATOM      3  O   UNL     1      -4.682  12.864   8.417  1.00  0.00    -0.550 OA
ATOM      4  O   UNL     1      -2.818  11.970   9.404  1.00  0.00    -0.550 OA
ENDBRANCH   1   2
BRANCH   1   5
ATOM      5  C   UNL     1      -4.266  15.451   9.273  1.00  0.00     0.059 C 
BRANCH   5   6
ATOM      6  C   UNL     1      -4.197  16.390   8.109  1.00  0.00     0.042 C 
ATOM      7  O   UNL     1      -4.708  17.539   8.190  1.00  0.00    -0.550 OA
ATOM      8  O   UNL     1      -3.535  16.012   6.947  1.00  0.00    -0.550 OA
ENDBRANCH   5   6
ENDBRANCH   1   5
TORSDOF 3
ENDMDL
MODEL 9
REMARK VINA RESULT:    -1.847      8.494      9.009
REMARK INTER + INTRA:          -2.309
REMARK INTER:                  -2.122
REMARK INTRA:                  -0.187
REMARK UNBOUND:                -0.138
REMARK SMILES O=C([O-])CCC(=O)[O-]
REMARK SMILES IDX 4 1 2 2 1 3 3 4 5 5 6 6 7 7 8 8
REMARK H PARENT
REMARK Flexibility Score: inf
ROOT
ATOM      1  C   UNL     1      -3.172  14.750   8.902  1.00  0.00     0.059 C 
ENDROOT
BRANCH   1   2
ATOM      2  C   UNL     1      -4.511  14.634   8.243  1.00  0.00     0.042 C 
ATOM      3  O   UNL     1      -5.527  15.153   8.778  1.00  0.00    -0.550 OA
ATOM      4  O   UNL     1      -4.647  13.918   7.061  1.00  0.00    -0.550 OA
ENDBRANCH   1   2
BRANCH   1   5
ATOM      5  C   UNL     1      -3.148  14.045  10.263  1.00  0.00     0.059 C 
BRANCH   5   6
ATOM      6  C   UNL     1      -3.487  12.591  10.137  1.00  0.00     0.042 C 
ATOM      7  O   UNL     1      -2.750  11.825   9.463  1.00  0.00    -0.550 OA
ATOM      8  O   UNL     1      -4.596  12.076  10.797  1.00  0.00    -0.550 OA
ENDBRANCH   5   6
ENDBRANCH   1   5
TORSDOF 3
ENDMDL
