MODEL 1
REMARK VINA RESULT:    23.423      0.000      0.000
REMARK INTER + INTRA:          36.524
REMARK INTER:                  31.639
REMARK INTRA:                   4.884
REMARK UNBOUND:                 4.884
REMARK SMILES C=C1C(=O)O[C@@H]2[C@H]3O[C@@]3(C)CCC=C(C)CC[C@@H]12
REMARK SMILES IDX 6 1 18 2 2 3 1 4 3 5 4 6 5 7 17 8 16 9 14 10 15 11 13 12
REMARK SMILES IDX 7 14 9 15 8 16 10 17 11 18 12 19
REMARK H PARENT
REMARK Flexibility Score: 70.00
ROOT
ATOM      1  C   UNL     1      14.161  52.792  61.925  1.00  0.00     0.216 C 
ATOM      2  C   UNL     1      15.389  53.589  61.364  1.00  0.00     0.070 C 
ATOM      3  C   UNL     1      15.810  54.419  62.544  1.00  0.00     0.037 C 
ATOM      4  C   UNL     1      16.949  55.101  62.658  1.00  0.00     0.021 C 
ATOM      5  C   UNL     1      14.773  54.332  63.539  1.00  0.00     0.334 C 
ATOM      6  O   UNL     1      14.739  54.970  64.624  1.00  0.00    -0.247 OA
ATOM      7  O   UNL     1      13.800  53.444  63.143  1.00  0.00    -0.455 OA
ENDROOT
BRANCH   2   8
ATOM      8  C   UNL     1      15.015  54.520  60.185  1.00  0.00     0.017 C 
BRANCH   8   9
ATOM      9  C   UNL     1      15.255  53.900  58.794  1.00  0.00     0.031 C 
BRANCH   9  10
ATOM     10  C   UNL     1      14.776  52.461  58.699  1.00  0.00    -0.077 C 
ATOM     11  C   UNL     1      13.370  52.217  58.211  1.00  0.00     0.039 C 
ATOM     12  C   UNL     1      15.529  51.382  59.016  1.00  0.00    -0.028 CG0
ATOM     13  G   UNL     1      16.916  51.403  59.609  1.00  0.00     0.000 G0
ENDBRANCH   9  10
ENDBRANCH   8   9
ENDBRANCH   2   8
BRANCH   1  14
ATOM     14  C   UNL     1      14.577  51.348  62.268  1.00  0.00     0.192 C 
ATOM     15  C   UNL     1      15.903  50.798  61.858  1.00  0.00     0.096 C 
ATOM     16  O   UNL     1      14.740  50.577  61.094  1.00  0.00    -0.362 OA
ATOM     17  C   UNL     1      16.378  49.525  62.560  1.00  0.00     0.045 C 
BRANCH  15  18
ATOM     18  C   UNL     1      16.939  51.648  61.106  1.00  0.00     0.042 C 
BRANCH  18  19
ATOM     19  C   UNL     1      16.927  51.341  59.597  1.00  0.00     0.030 CG0
ATOM     20  G   UNL     1      15.518  51.392  59.058  1.00  0.00     0.000 G0
ENDBRANCH  18  19
ENDBRANCH  15  18
ENDBRANCH   1  14
TORSDOF 0
ENDMDL
MODEL 2
REMARK VINA RESULT:    26.093      1.588      3.525
REMARK INTER + INTRA:          40.129
REMARK INTER:                  37.727
REMARK INTRA:                   2.403
REMARK UNBOUND:                 4.884
REMARK SMILES C=C1C(=O)O[C@@H]2[C@H]3O[C@@]3(C)CCC=C(C)CC[C@@H]12
REMARK SMILES IDX 6 1 18 2 2 3 1 4 3 5 4 6 5 7 17 8 16 9 14 10 15 11 13 12
REMARK SMILES IDX 7 14 9 15 8 16 10 17 11 18 12 19
REMARK H PARENT
REMARK Flexibility Score: 70.00
ROOT
ATOM      1  C   UNL     1      15.210  53.301  61.207  1.00  0.00     0.216 C 
ATOM      2  C   UNL     1      14.156  53.367  62.366  1.00  0.00     0.070 C 
ATOM      3  C   UNL     1      14.812  54.287  63.356  1.00  0.00     0.037 C 
ATOM      4  C   UNL     1      14.228  54.849  64.413  1.00  0.00     0.021 C 
ATOM      5  C   UNL     1      16.182  54.470  62.951  1.00  0.00     0.334 C 
ATOM      6  O   UNL     1      17.060  55.105  63.591  1.00  0.00    -0.247 OA
ATOM      7  O   UNL     1      16.414  53.844  61.748  1.00  0.00    -0.455 OA
ENDROOT
BRANCH   2   8
ATOM      8  C   UNL     1      13.903  51.990  63.028  1.00  0.00     0.017 C 
BRANCH   8   9
ATOM      9  C   UNL     1      13.947  50.802  62.046  1.00  0.00     0.031 C 
BRANCH   9  10
ATOM     10  C   UNL     1      15.325  50.584  61.446  1.00  0.00    -0.077 C 
ATOM     11  C   UNL     1      16.437  50.158  62.371  1.00  0.00     0.039 C 
ATOM     12  C   UNL     1      15.622  50.740  60.135  1.00  0.00    -0.028 CG0
ATOM     13  G   UNL     1      14.690  51.249  59.062  1.00  0.00     0.000 G0
ENDBRANCH   9  10
ENDBRANCH   8   9
ENDBRANCH   2   8
BRANCH   1  14
ATOM     14  C   UNL     1      14.769  54.202  60.037  1.00  0.00     0.192 C 
ATOM     15  C   UNL     1      14.870  53.747  58.619  1.00  0.00     0.096 C 
ATOM     16  O   UNL     1      15.870  54.538  59.216  1.00  0.00    -0.362 OA
ATOM     17  C   UNL     1      14.067  54.527  57.576  1.00  0.00     0.045 C 
BRANCH  15  18
ATOM     18  C   UNL     1      15.381  52.345  58.249  1.00  0.00     0.042 C 
BRANCH  18  19
ATOM     19  C   UNL     1      14.676  51.255  59.077  1.00  0.00     0.030 CG0
ATOM     20  G   UNL     1      15.609  50.701  60.126  1.00  0.00     0.000 G0
ENDBRANCH  18  19
ENDBRANCH  15  18
ENDBRANCH   1  14
TORSDOF 0
ENDMDL
