MODEL 1
REMARK VINA RESULT:    -4.286      0.000      0.000
REMARK INTER + INTRA:          -9.858
REMARK INTER:                  -7.544
REMARK INTRA:                  -2.314
REMARK UNBOUND:                -2.314
REMARK SMILES CCCCCCC=CCCCCCCCC(=O)[O-]
REMARK SMILES IDX 10 1 11 2 12 3 13 4 14 5 15 6 16 7 17 8 18 9 9 10 8 11 7 12
REMARK SMILES IDX 6 13 5 14 4 15 3 16 2 17 1 18
REMARK H PARENT
REMARK Flexibility Score: inf
ROOT
ATOM      1  C   UNL     1      -7.371  26.136  23.992  1.00  0.00     0.004 C 
ENDROOT
BRANCH   1   2
ATOM      2  C   UNL     1      -8.472  25.241  24.578  1.00  0.00     0.000 C 
BRANCH   2   3
ATOM      3  C   UNL     1      -9.593  26.041  25.268  1.00  0.00     0.000 C 
BRANCH   3   4
ATOM      4  C   UNL     1     -10.914  26.122  24.482  1.00  0.00     0.000 C 
BRANCH   4   5
ATOM      5  C   UNL     1     -11.060  27.428  23.688  1.00  0.00     0.006 C 
BRANCH   5   6
ATOM      6  C   UNL     1     -10.432  28.602  24.446  1.00  0.00     0.053 C 
BRANCH   6   7
ATOM      7  C   UNL     1      -9.423  29.298  23.588  1.00  0.00     0.041 C 
ATOM      8  O   UNL     1      -9.402  29.097  22.345  1.00  0.00    -0.550 OA
ATOM      9  O   UNL     1      -8.538  30.207  24.153  1.00  0.00    -0.550 OA
ENDBRANCH   6   7
ENDBRANCH   5   6
ENDBRANCH   4   5
ENDBRANCH   3   4
ENDBRANCH   2   3
ENDBRANCH   1   2
BRANCH   1  10
ATOM     10  C   UNL     1      -7.194  25.876  22.490  1.00  0.00     0.027 C 
BRANCH  10  11
ATOM     11  C   UNL     1      -8.524  25.758  21.798  1.00  0.00    -0.031 C 
ATOM     12  C   UNL     1      -8.728  26.272  20.576  1.00  0.00    -0.031 C 
BRANCH  12  13
ATOM     13  C   UNL     1     -10.058  26.154  19.884  1.00  0.00     0.027 C 
BRANCH  13  14
ATOM     14  C   UNL     1     -10.918  25.052  20.517  1.00  0.00     0.004 C 
BRANCH  14  15
ATOM     15  C   UNL     1     -10.886  23.775  19.665  1.00  0.00     0.000 C 
BRANCH  15  16
ATOM     16  C   UNL     1     -10.678  22.500  20.505  1.00  0.00    -0.000 C 
BRANCH  16  17
ATOM     17  C   UNL     1     -10.301  22.748  21.975  1.00  0.00    -0.003 C 
ATOM     18  C   UNL     1      -8.919  22.207  22.338  1.00  0.00     0.004 C 
ENDBRANCH  16  17
ENDBRANCH  15  16
ENDBRANCH  14  15
ENDBRANCH  13  14
ENDBRANCH  12  13
ENDBRANCH  10  11
ENDBRANCH   1  10
TORSDOF 13
ENDMDL
MODEL 2
REMARK VINA RESULT:    -4.141      1.934      3.201
REMARK INTER + INTRA:          -9.603
REMARK INTER:                  -7.716
REMARK INTRA:                  -1.887
REMARK UNBOUND:                -2.314
REMARK SMILES CCCCCCC=CCCCCCCCC(=O)[O-]
REMARK SMILES IDX 10 1 11 2 12 3 13 4 14 5 15 6 16 7 17 8 18 9 9 10 8 11 7 12
REMARK SMILES IDX 6 13 5 14 4 15 3 16 2 17 1 18
REMARK H PARENT
REMARK Flexibility Score: inf
ROOT
ATOM      1  C   UNL     1      -8.384  26.759  21.287  1.00  0.00     0.004 C 
ENDROOT
BRANCH   1   2
ATOM      2  C   UNL     1      -9.881  26.767  21.630  1.00  0.00     0.000 C 
BRANCH   2   3
ATOM      3  C   UNL     1     -10.372  28.133  22.145  1.00  0.00     0.000 C 
BRANCH   3   4
ATOM      4  C   UNL     1     -10.630  28.203  23.661  1.00  0.00     0.000 C 
BRANCH   4   5
ATOM      5  C   UNL     1      -9.510  28.920  24.428  1.00  0.00     0.006 C 
BRANCH   5   6
ATOM      6  C   UNL     1      -8.457  27.922  24.920  1.00  0.00     0.053 C 
BRANCH   6   7
ATOM      7  C   UNL     1      -9.095  26.865  25.767  1.00  0.00     0.041 C 
ATOM      8  O   UNL     1      -9.065  25.660  25.403  1.00  0.00    -0.550 OA
ATOM      9  O   UNL     1      -9.678  27.204  26.980  1.00  0.00    -0.550 OA
ENDBRANCH   6   7
ENDBRANCH   5   6
ENDBRANCH   4   5
ENDBRANCH   3   4
ENDBRANCH   2   3
ENDBRANCH   1   2
BRANCH   1  10
ATOM     10  C   UNL     1      -7.633  25.724  22.134  1.00  0.00     0.027 C 
BRANCH  10  11
ATOM     11  C   UNL     1      -8.010  24.322  21.740  1.00  0.00    -0.031 C 
ATOM     12  C   UNL     1      -8.828  23.576  22.498  1.00  0.00    -0.031 C 
BRANCH  12  13
ATOM     13  C   UNL     1      -9.204  22.174  22.105  1.00  0.00     0.027 C 
BRANCH  13  14
ATOM     14  C   UNL     1     -10.589  22.135  21.447  1.00  0.00     0.004 C 
BRANCH  14  15
ATOM     15  C   UNL     1     -10.531  21.421  20.088  1.00  0.00     0.000 C 
BRANCH  15  16
ATOM     16  C   UNL     1     -10.899  22.343  18.911  1.00  0.00    -0.000 C 
BRANCH  16  17
ATOM     17  C   UNL     1     -10.764  23.848  19.201  1.00  0.00    -0.003 C 
ATOM     18  C   UNL     1      -9.580  24.493  18.480  1.00  0.00     0.004 C 
ENDBRANCH  16  17
ENDBRANCH  15  16
ENDBRANCH  14  15
ENDBRANCH  13  14
ENDBRANCH  12  13
ENDBRANCH  10  11
ENDBRANCH   1  10
TORSDOF 13
ENDMDL
MODEL 3
REMARK VINA RESULT:    -4.135      0.980      2.297
REMARK INTER + INTRA:          -9.592
REMARK INTER:                  -7.736
REMARK INTRA:                  -1.856
REMARK UNBOUND:                -2.314
REMARK SMILES CCCCCCC=CCCCCCCCC(=O)[O-]
REMARK SMILES IDX 10 1 11 2 12 3 13 4 14 5 15 6 16 7 17 8 18 9 9 10 8 11 7 12
REMARK SMILES IDX 6 13 5 14 4 15 3 16 2 17 1 18
REMARK H PARENT
REMARK Flexibility Score: inf
ROOT
ATOM      1  C   UNL     1      -7.596  26.075  23.936  1.00  0.00     0.004 C 
ENDROOT
BRANCH   1   2
ATOM      2  C   UNL     1      -8.502  25.381  24.963  1.00  0.00     0.000 C 
BRANCH   2   3
ATOM      3  C   UNL     1      -9.580  26.316  25.543  1.00  0.00     0.000 C 
BRANCH   3   4
ATOM      4  C   UNL     1     -10.894  26.370  24.743  1.00  0.00     0.000 C 
BRANCH   4   5
ATOM      5  C   UNL     1     -11.093  27.702  24.007  1.00  0.00     0.006 C 
BRANCH   5   6
ATOM      6  C   UNL     1     -10.217  28.801  24.616  1.00  0.00     0.053 C 
BRANCH   6   7
ATOM      7  C   UNL     1      -9.297  29.371  23.583  1.00  0.00     0.041 C 
ATOM      8  O   UNL     1      -8.496  30.293  23.888  1.00  0.00    -0.550 OA
ATOM      9  O   UNL     1      -9.291  28.851  22.295  1.00  0.00    -0.550 OA
ENDBRANCH   6   7
ENDBRANCH   5   6
ENDBRANCH   4   5
ENDBRANCH   3   4
ENDBRANCH   2   3
ENDBRANCH   1   2
BRANCH   1  10
ATOM     10  C   UNL     1      -7.882  25.562  22.518  1.00  0.00     0.027 C 
BRANCH  10  11
ATOM     11  C   UNL     1      -8.768  24.347  22.548  1.00  0.00    -0.031 C 
ATOM     12  C   UNL     1      -8.359  23.168  22.055  1.00  0.00    -0.031 C 
BRANCH  12  13
ATOM     13  C   UNL     1      -9.245  21.953  22.084  1.00  0.00     0.027 C 
BRANCH  13  14
ATOM     14  C   UNL     1     -10.587  22.227  21.392  1.00  0.00     0.004 C 
BRANCH  14  15
ATOM     15  C   UNL     1     -10.682  21.471  20.059  1.00  0.00     0.000 C 
BRANCH  15  16
ATOM     16  C   UNL     1     -10.777  22.410  18.843  1.00  0.00    -0.000 C 
BRANCH  16  17
ATOM     17  C   UNL     1     -10.673  23.909  19.173  1.00  0.00    -0.003 C 
ATOM     18  C   UNL     1      -9.361  24.537  18.701  1.00  0.00     0.004 C 
ENDBRANCH  16  17
ENDBRANCH  15  16
ENDBRANCH  14  15
ENDBRANCH  13  14
ENDBRANCH  12  13
ENDBRANCH  10  11
ENDBRANCH   1  10
TORSDOF 13
ENDMDL
MODEL 4
REMARK VINA RESULT:    -3.789      3.066      6.025
REMARK INTER + INTRA:          -8.982
REMARK INTER:                  -7.088
REMARK INTRA:                  -1.894
REMARK UNBOUND:                -2.314
REMARK SMILES CCCCCCC=CCCCCCCCC(=O)[O-]
REMARK SMILES IDX 10 1 11 2 12 3 13 4 14 5 15 6 16 7 17 8 18 9 9 10 8 11 7 12
REMARK SMILES IDX 6 13 5 14 4 15 3 16 2 17 1 18
REMARK H PARENT
REMARK Flexibility Score: inf
ROOT
ATOM      1  C   UNL     1      -7.385  25.652  22.423  1.00  0.00     0.004 C 
ENDROOT
BRANCH   1   2
ATOM      2  C   UNL     1      -7.880  26.896  21.672  1.00  0.00     0.000 C 
BRANCH   2   3
ATOM      3  C   UNL     1      -9.081  26.605  20.752  1.00  0.00     0.000 C 
BRANCH   3   4
ATOM      4  C   UNL     1     -10.259  25.881  21.428  1.00  0.00     0.000 C 
BRANCH   4   5
ATOM      5  C   UNL     1     -10.859  24.768  20.556  1.00  0.00     0.006 C 
BRANCH   5   6
ATOM      6  C   UNL     1     -10.761  23.410  21.257  1.00  0.00     0.053 C 
BRANCH   6   7
ATOM      7  C   UNL     1     -10.647  22.309  20.250  1.00  0.00     0.041 C 
ATOM      8  O   UNL     1     -10.525  21.114  20.629  1.00  0.00    -0.550 OA
ATOM      9  O   UNL     1     -10.725  22.596  18.893  1.00  0.00    -0.550 OA
ENDBRANCH   6   7
ENDBRANCH   5   6
ENDBRANCH   4   5
ENDBRANCH   3   4
ENDBRANCH   2   3
ENDBRANCH   1   2
BRANCH   1  10
ATOM     10  C   UNL     1      -7.201  25.949  23.917  1.00  0.00     0.027 C 
BRANCH  10  11
ATOM     11  C   UNL     1      -8.528  26.091  24.610  1.00  0.00    -0.031 C 
ATOM     12  C   UNL     1      -8.654  26.788  25.750  1.00  0.00    -0.031 C 
BRANCH  12  13
ATOM     13  C   UNL     1      -9.981  26.929  26.444  1.00  0.00     0.027 C 
BRANCH  13  14
ATOM     14  C   UNL     1     -11.068  27.407  25.472  1.00  0.00     0.004 C 
BRANCH  14  15
ATOM     15  C   UNL     1     -11.022  28.933  25.305  1.00  0.00     0.000 C 
BRANCH  15  16
ATOM     16  C   UNL     1     -11.125  29.377  23.834  1.00  0.00    -0.000 C 
BRANCH  16  17
ATOM     17  C   UNL     1      -9.789  29.400  23.070  1.00  0.00    -0.003 C 
ATOM     18  C   UNL     1      -8.610  29.837  23.939  1.00  0.00     0.004 C 
ENDBRANCH  16  17
ENDBRANCH  15  16
ENDBRANCH  14  15
ENDBRANCH  13  14
ENDBRANCH  12  13
ENDBRANCH  10  11
ENDBRANCH   1  10
TORSDOF 13
ENDMDL
MODEL 5
REMARK VINA RESULT:    -3.490      2.487      6.062
REMARK INTER + INTRA:          -8.457
REMARK INTER:                  -6.897
REMARK INTRA:                  -1.560
REMARK UNBOUND:                -2.314
REMARK SMILES CCCCCCC=CCCCCCCCC(=O)[O-]
REMARK SMILES IDX 10 1 11 2 12 3 13 4 14 5 15 6 16 7 17 8 18 9 9 10 8 11 7 12
REMARK SMILES IDX 6 13 5 14 4 15 3 16 2 17 1 18
REMARK H PARENT
REMARK Flexibility Score: inf
ROOT
ATOM      1  C   UNL     1      -8.184  23.678  21.952  1.00  0.00     0.004 C 
ENDROOT
BRANCH   1   2
ATOM      2  C   UNL     1      -8.863  22.414  22.500  1.00  0.00     0.000 C 
BRANCH   2   3
ATOM      3  C   UNL     1     -10.309  22.242  21.998  1.00  0.00     0.000 C 
BRANCH   3   4
ATOM      4  C   UNL     1     -10.447  21.543  20.634  1.00  0.00     0.000 C 
BRANCH   4   5
ATOM      5  C   UNL     1     -11.125  22.424  19.574  1.00  0.00     0.006 C 
BRANCH   5   6
ATOM      6  C   UNL     1     -10.083  23.177  18.741  1.00  0.00     0.053 C 
BRANCH   6   7
ATOM      7  C   UNL     1     -10.504  24.598  18.537  1.00  0.00     0.041 C 
ATOM      8  O   UNL     1     -11.096  25.221  19.457  1.00  0.00    -0.550 OA
ATOM      9  O   UNL     1     -10.200  25.250  17.349  1.00  0.00    -0.550 OA
ENDBRANCH   6   7
ENDBRANCH   5   6
ENDBRANCH   4   5
ENDBRANCH   3   4
ENDBRANCH   2   3
ENDBRANCH   1   2
BRANCH   1  10
ATOM     10  C   UNL     1      -8.966  24.936  22.351  1.00  0.00     0.027 C 
BRANCH  10  11
ATOM     11  C   UNL     1      -8.825  25.221  23.821  1.00  0.00    -0.031 C 
ATOM     12  C   UNL     1      -9.802  25.820  24.518  1.00  0.00    -0.031 C 
BRANCH  12  13
ATOM     13  C   UNL     1      -9.660  26.106  25.987  1.00  0.00     0.027 C 
BRANCH  13  14
ATOM     14  C   UNL     1     -10.369  27.412  26.370  1.00  0.00     0.004 C 
BRANCH  14  15
ATOM     15  C   UNL     1     -10.872  28.150  25.121  1.00  0.00     0.000 C 
BRANCH  15  16
ATOM     16  C   UNL     1     -10.378  29.607  25.047  1.00  0.00    -0.000 C 
BRANCH  16  17
ATOM     17  C   UNL     1      -9.233  29.852  24.049  1.00  0.00    -0.003 C 
ATOM     18  C   UNL     1      -9.247  28.879  22.871  1.00  0.00     0.004 C 
ENDBRANCH  16  17
ENDBRANCH  15  16
ENDBRANCH  14  15
ENDBRANCH  13  14
ENDBRANCH  12  13
ENDBRANCH  10  11
ENDBRANCH   1  10
TORSDOF 13
ENDMDL
MODEL 6
REMARK VINA RESULT:    -3.476      1.438      1.602
REMARK INTER + INTRA:          -8.432
REMARK INTER:                  -6.813
REMARK INTRA:                  -1.619
REMARK UNBOUND:                -2.314
REMARK SMILES CCCCCCC=CCCCCCCCC(=O)[O-]
REMARK SMILES IDX 10 1 11 2 12 3 13 4 14 5 15 6 16 7 17 8 18 9 9 10 8 11 7 12
REMARK SMILES IDX 6 13 5 14 4 15 3 16 2 17 1 18
REMARK H PARENT
REMARK Flexibility Score: inf
ROOT
ATOM      1  C   UNL     1      -7.394  25.928  24.065  1.00  0.00     0.004 C 
ENDROOT
BRANCH   1   2
ATOM      2  C   UNL     1      -8.718  25.353  24.589  1.00  0.00     0.000 C 
BRANCH   2   3
ATOM      3  C   UNL     1      -9.211  26.050  25.871  1.00  0.00     0.000 C 
BRANCH   3   4
ATOM      4  C   UNL     1     -10.720  26.352  25.909  1.00  0.00     0.000 C 
BRANCH   4   5
ATOM      5  C   UNL     1     -11.125  27.504  24.977  1.00  0.00     0.006 C 
BRANCH   5   6
ATOM      6  C   UNL     1     -10.096  28.637  25.029  1.00  0.00     0.053 C 
BRANCH   6   7
ATOM      7  C   UNL     1     -10.060  29.371  23.725  1.00  0.00     0.041 C 
ATOM      8  O   UNL     1     -11.114  29.520  23.053  1.00  0.00    -0.550 OA
ATOM      9  O   UNL     1      -8.872  29.932  23.276  1.00  0.00    -0.550 OA
ENDBRANCH   6   7
ENDBRANCH   5   6
ENDBRANCH   4   5
ENDBRANCH   3   4
ENDBRANCH   2   3
ENDBRANCH   1   2
BRANCH   1  10
ATOM     10  C   UNL     1      -7.446  26.125  22.544  1.00  0.00     0.027 C 
BRANCH  10  11
ATOM     11  C   UNL     1      -8.865  26.211  22.055  1.00  0.00    -0.031 C 
ATOM     12  C   UNL     1      -9.217  27.042  21.062  1.00  0.00    -0.031 C 
BRANCH  12  13
ATOM     13  C   UNL     1     -10.636  27.129  20.573  1.00  0.00     0.027 C 
BRANCH  13  14
ATOM     14  C   UNL     1     -11.066  25.829  19.882  1.00  0.00     0.004 C 
BRANCH  14  15
ATOM     15  C   UNL     1     -10.033  25.397  18.832  1.00  0.00     0.000 C 
BRANCH  15  16
ATOM     16  C   UNL     1      -9.825  23.872  18.786  1.00  0.00    -0.000 C 
BRANCH  16  17
ATOM     17  C   UNL     1     -11.087  23.038  19.068  1.00  0.00    -0.003 C 
ATOM     18  C   UNL     1     -10.788  21.556  19.293  1.00  0.00     0.004 C 
ENDBRANCH  16  17
ENDBRANCH  15  16
ENDBRANCH  14  15
ENDBRANCH  13  14
ENDBRANCH  12  13
ENDBRANCH  10  11
ENDBRANCH   1  10
TORSDOF 13
ENDMDL
MODEL 7
REMARK VINA RESULT:    -3.343      2.070      5.251
REMARK INTER + INTRA:          -8.197
REMARK INTER:                  -6.547
REMARK INTRA:                  -1.651
REMARK UNBOUND:                -2.314
REMARK SMILES CCCCCCC=CCCCCCCCC(=O)[O-]
REMARK SMILES IDX 10 1 11 2 12 3 13 4 14 5 15 6 16 7 17 8 18 9 9 10 8 11 7 12
REMARK SMILES IDX 6 13 5 14 4 15 3 16 2 17 1 18
REMARK H PARENT
REMARK Flexibility Score: inf
ROOT
ATOM      1  C   UNL     1      -9.658  24.366  18.839  1.00  0.00     0.004 C 
ENDROOT
BRANCH   1   2
ATOM      2  C   UNL     1     -10.412  23.048  19.063  1.00  0.00     0.000 C 
BRANCH   2   3
ATOM      3  C   UNL     1     -10.891  22.868  20.516  1.00  0.00     0.000 C 
BRANCH   3   4
ATOM      4  C   UNL     1     -10.108  21.828  21.336  1.00  0.00     0.000 C 
BRANCH   4   5
ATOM      5  C   UNL     1      -9.067  22.461  22.271  1.00  0.00     0.006 C 
BRANCH   5   6
ATOM      6  C   UNL     1      -9.430  23.915  22.590  1.00  0.00     0.053 C 
BRANCH   6   7
ATOM      7  C   UNL     1      -8.210  24.780  22.551  1.00  0.00     0.041 C 
ATOM      8  O   UNL     1      -7.622  24.997  21.459  1.00  0.00    -0.550 OA
ATOM      9  O   UNL     1      -7.751  25.386  23.713  1.00  0.00    -0.550 OA
ENDBRANCH   6   7
ENDBRANCH   5   6
ENDBRANCH   4   5
ENDBRANCH   3   4
ENDBRANCH   2   3
ENDBRANCH   1   2
BRANCH   1  10
ATOM     10  C   UNL     1     -10.635  25.518  18.572  1.00  0.00     0.027 C 
BRANCH  10  11
ATOM     11  C   UNL     1     -10.475  26.615  19.589  1.00  0.00    -0.031 C 
ATOM     12  C   UNL     1     -11.125  26.585  20.762  1.00  0.00    -0.031 C 
BRANCH  12  13
ATOM     13  C   UNL     1     -10.965  27.682  21.779  1.00  0.00     0.027 C 
BRANCH  13  14
ATOM     14  C   UNL     1      -9.484  27.962  22.065  1.00  0.00     0.004 C 
BRANCH  14  15
ATOM     15  C   UNL     1      -9.329  29.007  23.180  1.00  0.00     0.000 C 
BRANCH  15  16
ATOM     16  C   UNL     1      -8.884  28.393  24.520  1.00  0.00    -0.000 C 
BRANCH  16  17
ATOM     17  C   UNL     1     -10.031  27.904  25.420  1.00  0.00    -0.003 C 
ATOM     18  C   UNL     1      -9.619  26.763  26.349  1.00  0.00     0.004 C 
ENDBRANCH  16  17
ENDBRANCH  15  16
ENDBRANCH  14  15
ENDBRANCH  13  14
ENDBRANCH  12  13
ENDBRANCH  10  11
ENDBRANCH   1  10
TORSDOF 13
ENDMDL
MODEL 8
REMARK VINA RESULT:    -3.056      2.524      5.059
REMARK INTER + INTRA:          -7.692
REMARK INTER:                  -6.204
REMARK INTRA:                  -1.489
REMARK UNBOUND:                -2.314
REMARK SMILES CCCCCCC=CCCCCCCCC(=O)[O-]
REMARK SMILES IDX 10 1 11 2 12 3 13 4 14 5 15 6 16 7 17 8 18 9 9 10 8 11 7 12
REMARK SMILES IDX 6 13 5 14 4 15 3 16 2 17 1 18
REMARK H PARENT
REMARK Flexibility Score: inf
ROOT
ATOM      1  C   UNL     1      -7.745  24.433  22.209  1.00  0.00     0.004 C 
ENDROOT
BRANCH   1   2
ATOM      2  C   UNL     1      -9.199  24.304  22.684  1.00  0.00     0.000 C 
BRANCH   2   3
ATOM      3  C   UNL     1      -9.799  22.912  22.414  1.00  0.00     0.000 C 
BRANCH   3   4
ATOM      4  C   UNL     1     -11.075  22.908  21.554  1.00  0.00     0.000 C 
BRANCH   4   5
ATOM      5  C   UNL     1     -11.109  24.048  20.525  1.00  0.00     0.006 C 
BRANCH   5   6
ATOM      6  C   UNL     1     -10.576  23.577  19.168  1.00  0.00     0.053 C 
BRANCH   6   7
ATOM      7  C   UNL     1      -9.639  24.592  18.593  1.00  0.00     0.041 C 
ATOM      8  O   UNL     1      -8.444  24.645  18.987  1.00  0.00    -0.550 OA
ATOM      9  O   UNL     1     -10.072  25.446  17.587  1.00  0.00    -0.550 OA
ENDBRANCH   6   7
ENDBRANCH   5   6
ENDBRANCH   4   5
ENDBRANCH   3   4
ENDBRANCH   2   3
ENDBRANCH   1   2
BRANCH   1  10
ATOM     10  C   UNL     1      -7.259  25.884  22.315  1.00  0.00     0.027 C 
BRANCH  10  11
ATOM     11  C   UNL     1      -8.348  26.851  21.936  1.00  0.00    -0.031 C 
ATOM     12  C   UNL     1      -8.689  27.872  22.736  1.00  0.00    -0.031 C 
BRANCH  12  13
ATOM     13  C   UNL     1      -9.778  28.838  22.359  1.00  0.00     0.027 C 
BRANCH  13  14
ATOM     14  C   UNL     1     -11.125  28.422  22.965  1.00  0.00     0.004 C 
BRANCH  14  15
ATOM     15  C   UNL     1     -10.936  27.321  24.019  1.00  0.00     0.000 C 
BRANCH  15  16
ATOM     16  C   UNL     1     -10.741  27.880  25.441  1.00  0.00    -0.000 C 
BRANCH  16  17
ATOM     17  C   UNL     1     -10.297  26.843  26.487  1.00  0.00    -0.003 C 
ATOM     18  C   UNL     1      -9.009  26.117  26.101  1.00  0.00     0.004 C 
ENDBRANCH  16  17
ENDBRANCH  15  16
ENDBRANCH  14  15
ENDBRANCH  13  14
ENDBRANCH  12  13
ENDBRANCH  10  11
ENDBRANCH   1  10
TORSDOF 13
ENDMDL
MODEL 9
REMARK VINA RESULT:    -2.958      1.677      3.206
REMARK INTER + INTRA:          -7.521
REMARK INTER:                  -6.369
REMARK INTRA:                  -1.152
REMARK UNBOUND:                -2.314
REMARK SMILES CCCCCCC=CCCCCCCCC(=O)[O-]
REMARK SMILES IDX 10 1 11 2 12 3 13 4 14 5 15 6 16 7 17 8 18 9 9 10 8 11 7 12
REMARK SMILES IDX 6 13 5 14 4 15 3 16 2 17 1 18
REMARK H PARENT
REMARK Flexibility Score: inf
ROOT
ATOM      1  C   UNL     1      -8.857  26.713  25.580  1.00  0.00     0.004 C 
ENDROOT
BRANCH   1   2
ATOM      2  C   UNL     1     -10.358  26.428  25.422  1.00  0.00     0.000 C 
BRANCH   2   3
ATOM      3  C   UNL     1     -11.125  27.593  24.770  1.00  0.00     0.000 C 
BRANCH   3   4
ATOM      4  C   UNL     1     -10.432  28.965  24.866  1.00  0.00     0.000 C 
BRANCH   4   5
ATOM      5  C   UNL     1      -9.669  29.342  23.588  1.00  0.00     0.006 C 
BRANCH   5   6
ATOM      6  C   UNL     1     -10.574  29.229  22.357  1.00  0.00     0.053 C 
BRANCH   6   7
ATOM      7  C   UNL     1     -10.018  28.231  21.390  1.00  0.00     0.041 C 
ATOM      8  O   UNL     1      -8.858  27.768  21.554  1.00  0.00    -0.550 OA
ATOM      9  O   UNL     1     -10.799  27.775  20.336  1.00  0.00    -0.550 OA
ENDBRANCH   6   7
ENDBRANCH   5   6
ENDBRANCH   4   5
ENDBRANCH   3   4
ENDBRANCH   2   3
ENDBRANCH   1   2
BRANCH   1  10
ATOM     10  C   UNL     1      -8.066  26.170  24.383  1.00  0.00     0.027 C 
BRANCH  10  11
ATOM     11  C   UNL     1      -8.571  24.816  23.966  1.00  0.00    -0.031 C 
ATOM     12  C   UNL     1      -8.710  24.486  22.673  1.00  0.00    -0.031 C 
BRANCH  12  13
ATOM     13  C   UNL     1      -9.216  23.133  22.256  1.00  0.00     0.027 C 
BRANCH  13  14
ATOM     14  C   UNL     1     -10.106  23.232  21.011  1.00  0.00     0.004 C 
BRANCH  14  15
ATOM     15  C   UNL     1      -9.827  24.529  20.238  1.00  0.00     0.000 C 
BRANCH  15  16
ATOM     16  C   UNL     1      -9.693  24.306  18.720  1.00  0.00    -0.000 C 
BRANCH  16  17
ATOM     17  C   UNL     1     -10.659  25.135  17.857  1.00  0.00    -0.003 C 
ATOM     18  C   UNL     1     -10.179  25.303  16.416  1.00  0.00     0.004 C 
ENDBRANCH  16  17
ENDBRANCH  15  16
ENDBRANCH  14  15
ENDBRANCH  13  14
ENDBRANCH  12  13
ENDBRANCH  10  11
ENDBRANCH   1  10
TORSDOF 13
ENDMDL
