MODEL 1
REMARK VINA RESULT:    -3.333      0.000      0.000
REMARK INTER + INTRA:          -4.034
REMARK INTER:                  -3.917
REMARK INTRA:                  -0.117
REMARK UNBOUND:                -0.117
REMARK SMILES O=C([O-])CCC(=O)[O-]
REMARK SMILES IDX 4 1 2 2 1 3 3 4 5 5 6 6 7 7 8 8
REMARK H PARENT
REMARK Flexibility Score: inf
ROOT
ATOM      1  C   UNL     1      -3.467   5.344  31.251  1.00  0.00     0.059 C 
ENDROOT
BRANCH   1   2
ATOM      2  C   UNL     1      -4.228   5.581  32.520  1.00  0.00     0.042 C 
ATOM      3  O   UNL     1      -4.868   4.641  33.061  1.00  0.00    -0.550 OA
ATOM      4  O   UNL     1      -4.264   6.851  33.082  1.00  0.00    -0.550 OA
ENDBRANCH   1   2
BRANCH   1   5
ATOM      5  C   UNL     1      -3.232   3.850  31.006  1.00  0.00     0.059 C 
BRANCH   5   6
ATOM      6  C   UNL     1      -1.846   3.438  31.399  1.00  0.00     0.042 C 
ATOM      7  O   UNL     1      -0.953   3.298  30.522  1.00  0.00    -0.550 OA
ATOM      8  O   UNL     1      -1.553   3.170  32.731  1.00  0.00    -0.550 OA
ENDBRANCH   5   6
ENDBRANCH   1   5
TORSDOF 3
ENDMDL
MODEL 2
REMARK VINA RESULT:    -3.304     17.191     17.829
REMARK INTER + INTRA:          -4.000
REMARK INTER:                  -3.877
REMARK INTRA:                  -0.123
REMARK UNBOUND:                -0.117
REMARK SMILES O=C([O-])CCC(=O)[O-]
REMARK SMILES IDX 4 1 2 2 1 3 3 4 5 5 6 6 7 7 8 8
REMARK H PARENT
REMARK Flexibility Score: inf
ROOT
ATOM      1  C   UNL     1       5.429   0.564  17.582  1.00  0.00     0.059 C 
ENDROOT
BRANCH   1   2
ATOM      2  C   UNL     1       5.155  -0.904  17.471  1.00  0.00     0.042 C 
ATOM      3  O   UNL     1       4.319  -1.332  16.632  1.00  0.00    -0.550 OA
ATOM      4  O   UNL     1       5.793  -1.797  18.322  1.00  0.00    -0.550 OA
ENDBRANCH   1   2
BRANCH   1   5
ATOM      5  C   UNL     1       5.430   1.243  16.208  1.00  0.00     0.059 C 
BRANCH   5   6
ATOM      6  C   UNL     1       4.313   2.234  16.083  1.00  0.00     0.042 C 
ATOM      7  O   UNL     1       4.561   3.437  15.808  1.00  0.00    -0.550 OA
ATOM      8  O   UNL     1       3.001   1.834  16.309  1.00  0.00    -0.550 OA
ENDBRANCH   5   6
ENDBRANCH   1   5
TORSDOF 3
ENDMDL
MODEL 3
REMARK VINA RESULT:    -3.283     17.165     17.579
REMARK INTER + INTRA:          -3.975
REMARK INTER:                  -3.853
REMARK INTRA:                  -0.122
REMARK UNBOUND:                -0.117
REMARK SMILES O=C([O-])CCC(=O)[O-]
REMARK SMILES IDX 4 1 2 2 1 3 3 4 5 5 6 6 7 7 8 8
REMARK H PARENT
REMARK Flexibility Score: inf
ROOT
ATOM      1  C   UNL     1       5.435   1.227  16.234  1.00  0.00     0.059 C 
ENDROOT
BRANCH   1   2
ATOM      2  C   UNL     1       4.291   2.186  16.110  1.00  0.00     0.042 C 
ATOM      3  O   UNL     1       4.504   3.394  15.824  1.00  0.00    -0.550 OA
ATOM      4  O   UNL     1       2.993   1.755  16.350  1.00  0.00    -0.550 OA
ENDBRANCH   1   2
BRANCH   1   5
ATOM      5  C   UNL     1       5.461   0.555  17.611  1.00  0.00     0.059 C 
BRANCH   5   6
ATOM      6  C   UNL     1       5.164  -0.910  17.514  1.00  0.00     0.042 C 
ATOM      7  O   UNL     1       4.349  -1.337  16.654  1.00  0.00    -0.550 OA
ATOM      8  O   UNL     1       5.758  -1.799  18.401  1.00  0.00    -0.550 OA
ENDBRANCH   5   6
ENDBRANCH   1   5
TORSDOF 3
ENDMDL
MODEL 4
REMARK VINA RESULT:    -3.262      0.923      3.917
REMARK INTER + INTRA:          -3.950
REMARK INTER:                  -3.863
REMARK INTRA:                  -0.087
REMARK UNBOUND:                -0.117
REMARK SMILES O=C([O-])CCC(=O)[O-]
REMARK SMILES IDX 4 1 2 2 1 3 3 4 5 5 6 6 7 7 8 8
REMARK H PARENT
REMARK Flexibility Score: inf
ROOT
ATOM      1  C   UNL     1      -3.138   3.890  30.876  1.00  0.00     0.059 C 
ENDROOT
BRANCH   1   2
ATOM      2  C   UNL     1      -1.811   3.384  31.355  1.00  0.00     0.042 C 
ATOM      3  O   UNL     1      -0.900   3.112  30.530  1.00  0.00    -0.550 OA
ATOM      4  O   UNL     1      -1.596   3.175  32.711  1.00  0.00    -0.550 OA
ENDBRANCH   1   2
BRANCH   1   5
ATOM      5  C   UNL     1      -4.071   4.221  32.045  1.00  0.00     0.059 C 
BRANCH   5   6
ATOM      6  C   UNL     1      -4.274   5.699  32.187  1.00  0.00     0.042 C 
ATOM      7  O   UNL     1      -4.979   6.154  33.125  1.00  0.00    -0.550 OA
ATOM      8  O   UNL     1      -3.715   6.569  31.259  1.00  0.00    -0.550 OA
ENDBRANCH   5   6
ENDBRANCH   1   5
TORSDOF 3
ENDMDL
MODEL 5
REMARK VINA RESULT:    -3.254     16.499     17.790
REMARK INTER + INTRA:          -3.941
REMARK INTER:                  -3.837
REMARK INTRA:                  -0.104
REMARK UNBOUND:                -0.117
REMARK SMILES O=C([O-])CCC(=O)[O-]
REMARK SMILES IDX 4 1 2 2 1 3 3 4 5 5 6 6 7 7 8 8
REMARK H PARENT
REMARK Flexibility Score: inf
ROOT
ATOM      1  C   UNL     1       2.865   0.843  14.798  1.00  0.00     0.059 C 
ENDROOT
BRANCH   1   2
ATOM      2  C   UNL     1       1.957  -0.309  15.102  1.00  0.00     0.042 C 
ATOM      3  O   UNL     1       0.710  -0.182  14.981  1.00  0.00    -0.550 OA
ATOM      4  O   UNL     1       2.485  -1.510  15.557  1.00  0.00    -0.550 OA
ENDBRANCH   1   2
BRANCH   1   5
ATOM      5  C   UNL     1       2.915   1.844  15.956  1.00  0.00     0.059 C 
BRANCH   5   6
ATOM      6  C   UNL     1       4.092   1.595  16.850  1.00  0.00     0.042 C 
ATOM      7  O   UNL     1       4.023   1.863  18.078  1.00  0.00    -0.550 OA
ATOM      8  O   UNL     1       5.277   1.105  16.316  1.00  0.00    -0.550 OA
ENDBRANCH   5   6
ENDBRANCH   1   5
TORSDOF 3
ENDMDL
MODEL 6
REMARK VINA RESULT:    -3.225     16.531     17.815
REMARK INTER + INTRA:          -3.907
REMARK INTER:                  -3.849
REMARK INTRA:                  -0.058
REMARK UNBOUND:                -0.117
REMARK SMILES O=C([O-])CCC(=O)[O-]
REMARK SMILES IDX 4 1 2 2 1 3 3 4 5 5 6 6 7 7 8 8
REMARK H PARENT
REMARK Flexibility Score: inf
ROOT
ATOM      1  C   UNL     1       2.878   1.684  15.894  1.00  0.00     0.059 C 
ENDROOT
BRANCH   1   2
ATOM      2  C   UNL     1       4.115   1.677  16.739  1.00  0.00     0.042 C 
ATOM      3  O   UNL     1       5.238   1.442  16.220  1.00  0.00    -0.550 OA
ATOM      4  O   UNL     1       4.022   1.891  18.109  1.00  0.00    -0.550 OA
ENDBRANCH   1   2
BRANCH   1   5
ATOM      5  C   UNL     1       2.922   0.589  14.823  1.00  0.00     0.059 C 
BRANCH   5   6
ATOM      6  C   UNL     1       1.897  -0.474  15.080  1.00  0.00     0.042 C 
ATOM      7  O   UNL     1       2.256  -1.630  15.428  1.00  0.00    -0.550 OA
ATOM      8  O   UNL     1       0.548  -0.197  14.896  1.00  0.00    -0.550 OA
ENDBRANCH   5   6
ENDBRANCH   1   5
TORSDOF 3
ENDMDL
MODEL 7
REMARK VINA RESULT:    -3.195     16.947     17.518
REMARK INTER + INTRA:          -3.872
REMARK INTER:                  -3.752
REMARK INTRA:                  -0.120
REMARK UNBOUND:                -0.117
REMARK SMILES O=C([O-])CCC(=O)[O-]
REMARK SMILES IDX 4 1 2 2 1 3 3 4 5 5 6 6 7 7 8 8
REMARK H PARENT
REMARK Flexibility Score: inf
ROOT
ATOM      1  C   UNL     1       4.159   1.776  16.971  1.00  0.00     0.059 C 
ENDROOT
BRANCH   1   2
ATOM      2  C   UNL     1       3.210   1.826  15.813  1.00  0.00     0.042 C 
ATOM      3  O   UNL     1       3.109   2.872  15.119  1.00  0.00    -0.550 OA
ATOM      4  O   UNL     1       2.408   0.729  15.524  1.00  0.00    -0.550 OA
ENDBRANCH   1   2
BRANCH   1   5
ATOM      5  C   UNL     1       5.361   0.872  16.677  1.00  0.00     0.059 C 
BRANCH   5   6
ATOM      6  C   UNL     1       5.277  -0.419  17.431  1.00  0.00     0.042 C 
ATOM      7  O   UNL     1       4.565  -1.363  16.996  1.00  0.00    -0.550 OA
ATOM      8  O   UNL     1       5.955  -0.566  18.635  1.00  0.00    -0.550 OA
ENDBRANCH   5   6
ENDBRANCH   1   5
TORSDOF 3
ENDMDL
MODEL 8
REMARK VINA RESULT:    -3.157     17.073     18.077
REMARK INTER + INTRA:          -3.828
REMARK INTER:                  -3.647
REMARK INTRA:                  -0.180
REMARK UNBOUND:                -0.117
REMARK SMILES O=C([O-])CCC(=O)[O-]
REMARK SMILES IDX 4 1 2 2 1 3 3 4 5 5 6 6 7 7 8 8
REMARK H PARENT
REMARK Flexibility Score: inf
ROOT
ATOM      1  C   UNL     1       3.994   1.813  17.101  1.00  0.00     0.059 C 
ENDROOT
BRANCH   1   2
ATOM      2  C   UNL     1       5.136   0.858  16.932  1.00  0.00     0.042 C 
ATOM      3  O   UNL     1       6.120   1.167  16.209  1.00  0.00    -0.550 OA
ATOM      4  O   UNL     1       5.096  -0.390  17.541  1.00  0.00    -0.550 OA
ENDBRANCH   1   2
BRANCH   1   5
ATOM      5  C   UNL     1       3.380   2.201  15.753  1.00  0.00     0.059 C 
BRANCH   5   6
ATOM      6  C   UNL     1       2.735   1.027  15.082  1.00  0.00     0.042 C 
ATOM      7  O   UNL     1       1.703   0.502  15.576  1.00  0.00    -0.550 OA
ATOM      8  O   UNL     1       3.299   0.488  13.932  1.00  0.00    -0.550 OA
ENDBRANCH   5   6
ENDBRANCH   1   5
TORSDOF 3
ENDMDL
MODEL 9
REMARK VINA RESULT:    -3.148     16.879     18.219
REMARK INTER + INTRA:          -3.817
REMARK INTER:                  -3.700
REMARK INTRA:                  -0.118
REMARK UNBOUND:                -0.117
REMARK SMILES O=C([O-])CCC(=O)[O-]
REMARK SMILES IDX 4 1 2 2 1 3 3 4 5 5 6 6 7 7 8 8
REMARK H PARENT
REMARK Flexibility Score: inf
ROOT
ATOM      1  C   UNL     1       4.021   2.009  16.909  1.00  0.00     0.059 C 
ENDROOT
BRANCH   1   2
ATOM      2  C   UNL     1       5.131   1.009  17.011  1.00  0.00     0.042 C 
ATOM      3  O   UNL     1       5.239   0.283  18.035  1.00  0.00    -0.550 OA
ATOM      4  O   UNL     1       6.071   0.906  15.993  1.00  0.00    -0.550 OA
ENDBRANCH   1   2
BRANCH   1   5
ATOM      5  C   UNL     1       3.239   1.853  15.602  1.00  0.00     0.059 C 
BRANCH   5   6
ATOM      6  C   UNL     1       3.476   3.006  14.675  1.00  0.00     0.042 C 
ATOM      7  O   UNL     1       2.698   3.995  14.682  1.00  0.00    -0.550 OA
ATOM      8  O   UNL     1       4.536   2.968  13.777  1.00  0.00    -0.550 OA
ENDBRANCH   5   6
ENDBRANCH   1   5
TORSDOF 3
ENDMDL
