MODEL 1
REMARK VINA RESULT:    -3.182      0.000      0.000
REMARK INTER + INTRA:          -4.338
REMARK INTER:                  -3.926
REMARK INTRA:                  -0.412
REMARK UNBOUND:                -0.412
REMARK SMILES C=CC[C@H](C)C(=O)CC
REMARK SMILES IDX 4 1 5 2 6 3 7 4 8 5 9 6 3 7 2 8 1 9
REMARK H PARENT
REMARK Flexibility Score: inf
ROOT
ATOM      1  C   UNL     1       8.172 -30.437  16.839  1.00  0.00     0.057 C 
ATOM      2  C   UNL     1       7.906 -31.928  17.094  1.00  0.00     0.016 C 
ENDROOT
BRANCH   1   3
ATOM      3  C   UNL     1       7.931 -29.628  18.097  1.00  0.00     0.135 C 
ATOM      4  O   UNL     1       6.811 -29.608  18.584  1.00  0.00    -0.299 OA
BRANCH   3   5
ATOM      5  C   UNL     1       9.039 -28.866  18.783  1.00  0.00     0.072 C 
ATOM      6  C   UNL     1      10.008 -28.278  17.762  1.00  0.00     0.012 C 
ENDBRANCH   3   5
ENDBRANCH   1   3
BRANCH   1   7
ATOM      7  C   UNL     1       7.325 -29.892  15.669  1.00  0.00     0.038 C 
BRANCH   7   8
ATOM      8  C   UNL     1       8.109 -29.804  14.387  1.00  0.00    -0.034 C 
ATOM      9  C   UNL     1       9.438 -29.670  14.383  1.00  0.00     0.004 C 
ENDBRANCH   7   8
ENDBRANCH   1   7
TORSDOF 4
ENDMDL
MODEL 2
REMARK VINA RESULT:    -3.108      1.717      3.326
REMARK INTER + INTRA:          -4.247
REMARK INTER:                  -3.947
REMARK INTRA:                  -0.300
REMARK UNBOUND:                -0.412
REMARK SMILES C=CC[C@H](C)C(=O)CC
REMARK SMILES IDX 4 1 5 2 6 3 7 4 8 5 9 6 3 7 2 8 1 9
REMARK H PARENT
REMARK Flexibility Score: inf
ROOT
ATOM      1  C   UNL     1       8.510 -29.852  17.332  1.00  0.00     0.057 C 
ATOM      2  C   UNL     1       8.678 -29.074  18.645  1.00  0.00     0.016 C 
ENDROOT
BRANCH   1   3
ATOM      3  C   UNL     1       9.296 -29.194  16.216  1.00  0.00     0.135 C 
ATOM      4  O   UNL     1      10.147 -28.364  16.499  1.00  0.00    -0.299 OA
BRANCH   3   5
ATOM      5  C   UNL     1       9.079 -29.552  14.766  1.00  0.00     0.072 C 
ATOM      6  C   UNL     1      10.397 -29.537  13.999  1.00  0.00     0.012 C 
ENDBRANCH   3   5
ENDBRANCH   1   3
BRANCH   1   7
ATOM      7  C   UNL     1       7.025 -30.003  16.937  1.00  0.00     0.038 C 
BRANCH   7   8
ATOM      8  C   UNL     1       6.597 -31.445  16.864  1.00  0.00    -0.034 C 
ATOM      9  C   UNL     1       7.414 -32.441  17.218  1.00  0.00     0.004 C 
ENDBRANCH   7   8
ENDBRANCH   1   7
TORSDOF 4
ENDMDL
MODEL 3
REMARK VINA RESULT:    -3.057      1.920      3.619
REMARK INTER + INTRA:          -4.184
REMARK INTER:                  -3.952
REMARK INTRA:                  -0.232
REMARK UNBOUND:                -0.412
REMARK SMILES C=CC[C@H](C)C(=O)CC
REMARK SMILES IDX 4 1 5 2 6 3 7 4 8 5 9 6 3 7 2 8 1 9
REMARK H PARENT
REMARK Flexibility Score: inf
ROOT
ATOM      1  C   UNL     1       7.606 -29.821  15.818  1.00  0.00     0.057 C 
ATOM      2  C   UNL     1       6.939 -30.547  14.642  1.00  0.00     0.016 C 
ENDROOT
BRANCH   1   3
ATOM      3  C   UNL     1       9.042 -29.470  15.486  1.00  0.00     0.135 C 
ATOM      4  O   UNL     1       9.672 -28.758  16.253  1.00  0.00    -0.299 OA
BRANCH   3   5
ATOM      5  C   UNL     1       9.728 -29.997  14.249  1.00  0.00     0.072 C 
ATOM      6  C   UNL     1      10.914 -29.116  13.867  1.00  0.00     0.012 C 
ENDBRANCH   3   5
ENDBRANCH   1   3
BRANCH   1   7
ATOM      7  C   UNL     1       7.534 -30.646  17.121  1.00  0.00     0.038 C 
BRANCH   7   8
ATOM      8  C   UNL     1       6.948 -29.860  18.264  1.00  0.00    -0.034 C 
ATOM      9  C   UNL     1       5.889 -29.062  18.099  1.00  0.00     0.004 C 
ENDBRANCH   7   8
ENDBRANCH   1   7
TORSDOF 4
ENDMDL
MODEL 4
REMARK VINA RESULT:    -3.043      1.791      3.600
REMARK INTER + INTRA:          -4.166
REMARK INTER:                  -3.908
REMARK INTRA:                  -0.258
REMARK UNBOUND:                -0.412
REMARK SMILES C=CC[C@H](C)C(=O)CC
REMARK SMILES IDX 4 1 5 2 6 3 7 4 8 5 9 6 3 7 2 8 1 9
REMARK H PARENT
REMARK Flexibility Score: inf
ROOT
ATOM      1  C   UNL     1       7.199 -29.885  16.197  1.00  0.00     0.057 C 
ATOM      2  C   UNL     1       5.916 -30.675  15.899  1.00  0.00     0.016 C 
ENDROOT
BRANCH   1   3
ATOM      3  C   UNL     1       8.051 -29.758  14.951  1.00  0.00     0.135 C 
ATOM      4  O   UNL     1       7.521 -29.877  13.856  1.00  0.00    -0.299 OA
BRANCH   3   5
ATOM      5  C   UNL     1       9.529 -29.464  15.018  1.00  0.00     0.072 C 
ATOM      6  C   UNL     1      10.180 -29.625  13.648  1.00  0.00     0.012 C 
ENDBRANCH   3   5
ENDBRANCH   1   3
BRANCH   1   7
ATOM      7  C   UNL     1       8.010 -30.514  17.350  1.00  0.00     0.038 C 
BRANCH   7   8
ATOM      8  C   UNL     1       8.070 -29.621  18.560  1.00  0.00    -0.034 C 
ATOM      9  C   UNL     1       9.145 -28.876  18.832  1.00  0.00     0.004 C 
ENDBRANCH   7   8
ENDBRANCH   1   7
TORSDOF 4
ENDMDL
MODEL 5
REMARK VINA RESULT:    -3.032      1.563      2.799
REMARK INTER + INTRA:          -4.153
REMARK INTER:                  -3.836
REMARK INTRA:                  -0.317
REMARK UNBOUND:                -0.412
REMARK SMILES C=CC[C@H](C)C(=O)CC
REMARK SMILES IDX 4 1 5 2 6 3 7 4 8 5 9 6 3 7 2 8 1 9
REMARK H PARENT
REMARK Flexibility Score: inf
ROOT
ATOM      1  C   UNL     1       6.985 -29.872  15.859  1.00  0.00     0.057 C 
ATOM      2  C   UNL     1       7.416 -30.194  14.421  1.00  0.00     0.016 C 
ENDROOT
BRANCH   1   3
ATOM      3  C   UNL     1       8.192 -29.571  16.724  1.00  0.00     0.135 C 
ATOM      4  O   UNL     1       9.230 -29.211  16.190  1.00  0.00    -0.299 OA
BRANCH   3   5
ATOM      5  C   UNL     1       8.144 -29.676  18.229  1.00  0.00     0.072 C 
ATOM      6  C   UNL     1       9.268 -28.866  18.867  1.00  0.00     0.012 C 
ENDBRANCH   3   5
ENDBRANCH   1   3
BRANCH   1   7
ATOM      7  C   UNL     1       6.141 -31.008  16.476  1.00  0.00     0.038 C 
BRANCH   7   8
ATOM      8  C   UNL     1       6.698 -32.370  16.161  1.00  0.00    -0.034 C 
ATOM      9  C   UNL     1       7.176 -33.174  17.116  1.00  0.00     0.004 C 
ENDBRANCH   7   8
ENDBRANCH   1   7
TORSDOF 4
ENDMDL
MODEL 6
REMARK VINA RESULT:    -2.962      1.229      1.654
REMARK INTER + INTRA:          -4.066
REMARK INTER:                  -3.840
REMARK INTRA:                  -0.226
REMARK UNBOUND:                -0.412
REMARK SMILES C=CC[C@H](C)C(=O)CC
REMARK SMILES IDX 4 1 5 2 6 3 7 4 8 5 9 6 3 7 2 8 1 9
REMARK H PARENT
REMARK Flexibility Score: inf
ROOT
ATOM      1  C   UNL     1       8.496 -30.477  15.997  1.00  0.00     0.057 C 
ATOM      2  C   UNL     1       8.081 -31.874  15.514  1.00  0.00     0.016 C 
ENDROOT
BRANCH   1   3
ATOM      3  C   UNL     1       7.433 -29.886  16.900  1.00  0.00     0.135 C 
ATOM      4  O   UNL     1       6.326 -29.652  16.439  1.00  0.00    -0.299 OA
BRANCH   3   5
ATOM      5  C   UNL     1       7.690 -29.603  18.360  1.00  0.00     0.072 C 
ATOM      6  C   UNL     1       9.094 -29.043  18.566  1.00  0.00     0.012 C 
ENDBRANCH   3   5
ENDBRANCH   1   3
BRANCH   1   7
ATOM      7  C   UNL     1       8.801 -29.527  14.819  1.00  0.00     0.038 C 
BRANCH   7   8
ATOM      8  C   UNL     1      10.034 -29.936  14.059  1.00  0.00    -0.034 C 
ATOM      9  C   UNL     1      11.043 -29.086  13.845  1.00  0.00     0.004 C 
ENDBRANCH   7   8
ENDBRANCH   1   7
TORSDOF 4
ENDMDL
MODEL 7
REMARK VINA RESULT:    -2.940      1.452      2.200
REMARK INTER + INTRA:          -4.039
REMARK INTER:                  -3.833
REMARK INTRA:                  -0.206
REMARK UNBOUND:                -0.412
REMARK SMILES C=CC[C@H](C)C(=O)CC
REMARK SMILES IDX 4 1 5 2 6 3 7 4 8 5 9 6 3 7 2 8 1 9
REMARK H PARENT
REMARK Flexibility Score: inf
ROOT
ATOM      1  C   UNL     1       8.164 -29.576  15.608  1.00  0.00     0.057 C 
ATOM      2  C   UNL     1       9.576 -29.502  15.009  1.00  0.00     0.016 C 
ENDROOT
BRANCH   1   3
ATOM      3  C   UNL     1       8.179 -30.331  16.922  1.00  0.00     0.135 C 
ATOM      4  O   UNL     1       8.431 -31.526  16.916  1.00  0.00    -0.299 OA
BRANCH   3   5
ATOM      5  C   UNL     1       7.919 -29.646  18.241  1.00  0.00     0.072 C 
ATOM      6  C   UNL     1       9.172 -28.935  18.742  1.00  0.00     0.012 C 
ENDBRANCH   3   5
ENDBRANCH   1   3
BRANCH   1   7
ATOM      7  C   UNL     1       7.154 -30.209  14.627  1.00  0.00     0.038 C 
BRANCH   7   8
ATOM      8  C   UNL     1       7.667 -30.229  13.212  1.00  0.00    -0.034 C 
ATOM      9  C   UNL     1       7.100 -29.500  12.247  1.00  0.00     0.004 C 
ENDBRANCH   7   8
ENDBRANCH   1   7
TORSDOF 4
ENDMDL
MODEL 8
REMARK VINA RESULT:    -2.898      2.319      3.943
REMARK INTER + INTRA:          -3.988
REMARK INTER:                  -3.509
REMARK INTRA:                  -0.478
REMARK UNBOUND:                -0.412
REMARK SMILES C=CC[C@H](C)C(=O)CC
REMARK SMILES IDX 4 1 5 2 6 3 7 4 8 5 9 6 3 7 2 8 1 9
REMARK H PARENT
REMARK Flexibility Score: inf
ROOT
ATOM      1  C   UNL     1       8.144 -30.382  16.043  1.00  0.00     0.057 C 
ATOM      2  C   UNL     1       9.157 -29.472  15.333  1.00  0.00     0.016 C 
ENDROOT
BRANCH   1   3
ATOM      3  C   UNL     1       8.346 -31.827  15.635  1.00  0.00     0.135 C 
ATOM      4  O   UNL     1       9.320 -32.122  14.959  1.00  0.00    -0.299 OA
BRANCH   3   5
ATOM      5  C   UNL     1       7.396 -32.920  16.062  1.00  0.00     0.072 C 
ATOM      6  C   UNL     1       7.480 -33.157  17.566  1.00  0.00     0.012 C 
ENDBRANCH   3   5
ENDBRANCH   1   3
BRANCH   1   7
ATOM      7  C   UNL     1       6.689 -29.940  15.781  1.00  0.00     0.038 C 
BRANCH   7   8
ATOM      8  C   UNL     1       5.965 -29.575  17.050  1.00  0.00    -0.034 C 
ATOM      9  C   UNL     1       6.596 -29.506  18.225  1.00  0.00     0.004 C 
ENDBRANCH   7   8
ENDBRANCH   1   7
TORSDOF 4
ENDMDL
MODEL 9
REMARK VINA RESULT:    -2.850      1.983      3.919
REMARK INTER + INTRA:          -3.928
REMARK INTER:                  -3.570
REMARK INTRA:                  -0.357
REMARK UNBOUND:                -0.412
REMARK SMILES C=CC[C@H](C)C(=O)CC
REMARK SMILES IDX 4 1 5 2 6 3 7 4 8 5 9 6 3 7 2 8 1 9
REMARK H PARENT
REMARK Flexibility Score: inf
ROOT
ATOM      1  C   UNL     1       7.005 -29.913  16.192  1.00  0.00     0.057 C 
ATOM      2  C   UNL     1       5.884 -29.560  17.180  1.00  0.00     0.016 C 
ENDROOT
BRANCH   1   3
ATOM      3  C   UNL     1       6.772 -31.281  15.584  1.00  0.00     0.135 C 
ATOM      4  O   UNL     1       5.876 -31.422  14.766  1.00  0.00    -0.299 OA
BRANCH   3   5
ATOM      5  C   UNL     1       7.631 -32.471  15.938  1.00  0.00     0.072 C 
ATOM      6  C   UNL     1       7.001 -33.281  17.067  1.00  0.00     0.012 C 
ENDBRANCH   3   5
ENDBRANCH   1   3
BRANCH   1   7
ATOM      7  C   UNL     1       8.399 -29.840  16.852  1.00  0.00     0.038 C 
BRANCH   7   8
ATOM      8  C   UNL     1       8.319 -29.528  18.323  1.00  0.00    -0.034 C 
ATOM      9  C   UNL     1       9.204 -28.726  18.921  1.00  0.00     0.004 C 
ENDBRANCH   7   8
ENDBRANCH   1   7
TORSDOF 4
ENDMDL
