MODEL 1
REMARK VINA RESULT:    -3.325      0.000      0.000
REMARK INTER + INTRA:          -6.695
REMARK INTER:                  -5.366
REMARK INTRA:                  -1.329
REMARK UNBOUND:                -1.329
REMARK SMILES CCCCCCCCCCCCO
REMARK SMILES IDX 7 1 6 2 5 3 4 4 3 5 2 6 1 7 8 8 9 9 10 10 11 11 12 12 13 13
REMARK H PARENT 13 14
REMARK Flexibility Score: inf
ROOT
ATOM      1  C   UNL     1     176.164 177.504 167.885  1.00  0.00     0.000 C 
ENDROOT
BRANCH   1   2
ATOM      2  C   UNL     1     177.633 177.343 168.310  1.00  0.00    -0.000 C 
BRANCH   2   3
ATOM      3  C   UNL     1     177.805 176.278 169.414  1.00  0.00    -0.000 C 
BRANCH   3   4
ATOM      4  C   UNL     1     176.485 175.616 169.842  1.00  0.00    -0.000 C 
BRANCH   4   5
ATOM      5  C   UNL     1     176.528 174.082 169.746  1.00  0.00    -0.000 C 
BRANCH   5   6
ATOM      6  C   UNL     1     176.397 173.579 168.299  1.00  0.00    -0.003 C 
ATOM      7  C   UNL     1     175.064 173.964 167.656  1.00  0.00     0.004 C 
ENDBRANCH   5   6
ENDBRANCH   4   5
ENDBRANCH   3   4
ENDBRANCH   2   3
ENDBRANCH   1   2
BRANCH   1   8
ATOM      8  C   UNL     1     175.678 178.962 167.946  1.00  0.00     0.000 C 
BRANCH   8   9
ATOM      9  C   UNL     1     175.988 179.660 169.286  1.00  0.00     0.000 C 
BRANCH   9  10
ATOM     10  C   UNL     1     175.152 179.090 170.446  1.00  0.00     0.002 C 
BRANCH  10  11
ATOM     11  C   UNL     1     176.008 178.717 171.668  1.00  0.00     0.028 C 
BRANCH  11  12
ATOM     12  C   UNL     1     177.429 179.288 171.620  1.00  0.00     0.156 C 
BRANCH  12  13
ATOM     13  O   UNL     1     178.302 178.482 172.362  1.00  0.00    -0.396 OA
ATOM     14  H   UNL     1     179.200 178.603 171.956  1.00  0.00     0.210 HD
ENDBRANCH  12  13
ENDBRANCH  11  12
ENDBRANCH  10  11
ENDBRANCH   9  10
ENDBRANCH   8   9
ENDBRANCH   1   8
TORSDOF 11
ENDMDL
MODEL 2
REMARK VINA RESULT:    -3.323     12.683     14.042
REMARK INTER + INTRA:          -6.692
REMARK INTER:                  -5.664
REMARK INTRA:                  -1.028
REMARK UNBOUND:                -1.329
REMARK SMILES CCCCCCCCCCCCO
REMARK SMILES IDX 7 1 6 2 5 3 4 4 3 5 2 6 1 7 8 8 9 9 10 10 11 11 12 12 13 13
REMARK H PARENT 13 14
REMARK Flexibility Score: inf
ROOT
ATOM      1  C   UNL     1     163.333 178.464 168.635  1.00  0.00     0.000 C 
ENDROOT
BRANCH   1   2
ATOM      2  C   UNL     1     162.802 177.848 169.940  1.00  0.00    -0.000 C 
BRANCH   2   3
ATOM      3  C   UNL     1     161.280 177.597 169.886  1.00  0.00    -0.000 C 
BRANCH   3   4
ATOM      4  C   UNL     1     160.594 178.230 168.664  1.00  0.00    -0.000 C 
BRANCH   4   5
ATOM      5  C   UNL     1     159.930 177.189 167.747  1.00  0.00    -0.000 C 
BRANCH   5   6
ATOM      6  C   UNL     1     160.723 176.955 166.452  1.00  0.00    -0.003 C 
ATOM      7  C   UNL     1     161.152 178.257 165.775  1.00  0.00     0.004 C 
ENDBRANCH   5   6
ENDBRANCH   4   5
ENDBRANCH   3   4
ENDBRANCH   2   3
ENDBRANCH   1   2
BRANCH   1   8
ATOM      8  C   UNL     1     164.773 178.031 168.310  1.00  0.00     0.000 C 
BRANCH   8   9
ATOM      9  C   UNL     1     165.363 178.732 167.068  1.00  0.00     0.000 C 
BRANCH   9  10
ATOM     10  C   UNL     1     165.001 178.003 165.762  1.00  0.00     0.002 C 
BRANCH  10  11
ATOM     11  C   UNL     1     164.945 176.476 165.930  1.00  0.00     0.028 C 
BRANCH  11  12
ATOM     12  C   UNL     1     166.252 175.769 165.557  1.00  0.00     0.156 C 
BRANCH  12  13
ATOM     13  O   UNL     1     166.837 175.197 166.695  1.00  0.00    -0.396 OA
ATOM     14  H   UNL     1     166.231 174.463 166.976  1.00  0.00     0.210 HD
ENDBRANCH  12  13
ENDBRANCH  11  12
ENDBRANCH  10  11
ENDBRANCH   9  10
ENDBRANCH   8   9
ENDBRANCH   1   8
TORSDOF 11
ENDMDL
MODEL 3
REMARK VINA RESULT:    -3.251      2.026      2.746
REMARK INTER + INTRA:          -6.576
REMARK INTER:                  -5.820
REMARK INTRA:                  -0.755
REMARK UNBOUND:                -1.329
REMARK SMILES CCCCCCCCCCCCO
REMARK SMILES IDX 7 1 6 2 5 3 4 4 3 5 2 6 1 7 8 8 9 9 10 10 11 11 12 12 13 13
REMARK H PARENT 13 14
REMARK Flexibility Score: inf
ROOT
ATOM      1  C   UNL     1     178.161 178.309 170.427  1.00  0.00     0.000 C 
ENDROOT
BRANCH   1   2
ATOM      2  C   UNL     1     177.813 177.143 169.488  1.00  0.00    -0.000 C 
BRANCH   2   3
ATOM      3  C   UNL     1     177.992 175.771 170.174  1.00  0.00    -0.000 C 
BRANCH   3   4
ATOM      4  C   UNL     1     176.721 174.906 170.164  1.00  0.00    -0.000 C 
BRANCH   4   5
ATOM      5  C   UNL     1     176.853 173.662 169.270  1.00  0.00    -0.000 C 
BRANCH   5   6
ATOM      6  C   UNL     1     176.465 173.943 167.810  1.00  0.00    -0.003 C 
ATOM      7  C   UNL     1     174.954 173.899 167.579  1.00  0.00     0.004 C 
ENDBRANCH   5   6
ENDBRANCH   4   5
ENDBRANCH   3   4
ENDBRANCH   2   3
ENDBRANCH   1   2
BRANCH   1   8
ATOM      8  C   UNL     1     177.622 178.111 171.855  1.00  0.00     0.000 C 
BRANCH   8   9
ATOM      9  C   UNL     1     176.209 178.693 172.067  1.00  0.00     0.000 C 
BRANCH   9  10
ATOM     10  C   UNL     1     176.146 180.198 171.751  1.00  0.00     0.002 C 
BRANCH  10  11
ATOM     11  C   UNL     1     175.107 180.535 170.668  1.00  0.00     0.028 C 
BRANCH  11  12
ATOM     12  C   UNL     1     174.639 179.316 169.867  1.00  0.00     0.156 C 
BRANCH  12  13
ATOM     13  O   UNL     1     173.351 179.535 169.359  1.00  0.00    -0.396 OA
ATOM     14  H   UNL     1     173.371 180.432 168.936  1.00  0.00     0.210 HD
ENDBRANCH  12  13
ENDBRANCH  11  12
ENDBRANCH  10  11
ENDBRANCH   9  10
ENDBRANCH   8   9
ENDBRANCH   1   8
TORSDOF 11
ENDMDL
MODEL 4
REMARK VINA RESULT:    -3.195     12.998     14.132
REMARK INTER + INTRA:          -6.485
REMARK INTER:                  -5.161
REMARK INTRA:                  -1.324
REMARK UNBOUND:                -1.329
REMARK SMILES CCCCCCCCCCCCO
REMARK SMILES IDX 7 1 6 2 5 3 4 4 3 5 2 6 1 7 8 8 9 9 10 10 11 11 12 12 13 13
REMARK H PARENT 13 14
REMARK Flexibility Score: inf
ROOT
ATOM      1  C   UNL     1     165.626 178.559 167.553  1.00  0.00     0.000 C 
ENDROOT
BRANCH   1   2
ATOM      2  C   UNL     1     165.914 177.829 166.230  1.00  0.00    -0.000 C 
BRANCH   2   3
ATOM      3  C   UNL     1     165.073 176.542 166.083  1.00  0.00    -0.000 C 
BRANCH   3   4
ATOM      4  C   UNL     1     164.011 176.623 164.975  1.00  0.00    -0.000 C 
BRANCH   4   5
ATOM      5  C   UNL     1     162.577 176.480 165.511  1.00  0.00    -0.000 C 
BRANCH   5   6
ATOM      6  C   UNL     1     161.733 177.744 165.281  1.00  0.00    -0.003 C 
ATOM      7  C   UNL     1     162.577 178.956 164.883  1.00  0.00     0.004 C 
ENDBRANCH   5   6
ENDBRANCH   4   5
ENDBRANCH   3   4
ENDBRANCH   2   3
ENDBRANCH   1   2
BRANCH   1   8
ATOM      8  C   UNL     1     164.547 177.863 168.400  1.00  0.00     0.000 C 
BRANCH   8   9
ATOM      9  C   UNL     1     163.253 178.689 168.552  1.00  0.00     0.000 C 
BRANCH   9  10
ATOM     10  C   UNL     1     162.280 178.064 169.569  1.00  0.00     0.002 C 
BRANCH  10  11
ATOM     11  C   UNL     1     160.901 177.757 168.961  1.00  0.00     0.028 C 
BRANCH  11  12
ATOM     12  C   UNL     1     159.731 178.106 169.885  1.00  0.00     0.156 C 
BRANCH  12  13
ATOM     13  O   UNL     1     160.191 178.318 171.192  1.00  0.00    -0.396 OA
ATOM     14  H   UNL     1     161.082 177.884 171.243  1.00  0.00     0.210 HD
ENDBRANCH  12  13
ENDBRANCH  11  12
ENDBRANCH  10  11
ENDBRANCH   9  10
ENDBRANCH   8   9
ENDBRANCH   1   8
TORSDOF 11
ENDMDL
MODEL 5
REMARK VINA RESULT:    -3.135     15.013     15.762
REMARK INTER + INTRA:          -6.388
REMARK INTER:                  -5.546
REMARK INTRA:                  -0.842
REMARK UNBOUND:                -1.329
REMARK SMILES CCCCCCCCCCCCO
REMARK SMILES IDX 7 1 6 2 5 3 4 4 3 5 2 6 1 7 8 8 9 9 10 10 11 11 12 12 13 13
REMARK H PARENT 13 14
REMARK Flexibility Score: inf
ROOT
ATOM      1  C   UNL     1     174.000 162.384 168.369  1.00  0.00     0.000 C 
ENDROOT
BRANCH   1   2
ATOM      2  C   UNL     1     174.757 162.451 169.706  1.00  0.00    -0.000 C 
BRANCH   2   3
ATOM      3  C   UNL     1     176.083 161.661 169.662  1.00  0.00    -0.000 C 
BRANCH   3   4
ATOM      4  C   UNL     1     177.210 162.389 168.911  1.00  0.00    -0.000 C 
BRANCH   4   5
ATOM      5  C   UNL     1     177.766 161.572 167.732  1.00  0.00    -0.000 C 
BRANCH   5   6
ATOM      6  C   UNL     1     177.634 162.310 166.391  1.00  0.00    -0.003 C 
ATOM      7  C   UNL     1     176.445 161.823 165.561  1.00  0.00     0.004 C 
ENDBRANCH   5   6
ENDBRANCH   4   5
ENDBRANCH   3   4
ENDBRANCH   2   3
ENDBRANCH   1   2
BRANCH   1   8
ATOM      8  C   UNL     1     172.642 161.669 168.484  1.00  0.00     0.000 C 
BRANCH   8   9
ATOM      9  C   UNL     1     171.837 161.657 167.168  1.00  0.00     0.000 C 
BRANCH   9  10
ATOM     10  C   UNL     1     172.388 162.662 166.141  1.00  0.00     0.002 C 
BRANCH  10  11
ATOM     11  C   UNL     1     172.802 161.994 164.819  1.00  0.00     0.028 C 
BRANCH  11  12
ATOM     12  C   UNL     1     173.231 162.989 163.736  1.00  0.00     0.156 C 
BRANCH  12  13
ATOM     13  O   UNL     1     173.563 164.222 164.314  1.00  0.00    -0.396 OA
ATOM     14  H   UNL     1     172.726 164.569 164.720  1.00  0.00     0.210 HD
ENDBRANCH  12  13
ENDBRANCH  11  12
ENDBRANCH  10  11
ENDBRANCH   9  10
ENDBRANCH   8   9
ENDBRANCH   1   8
TORSDOF 11
ENDMDL
MODEL 6
REMARK VINA RESULT:    -3.134     11.092     12.640
REMARK INTER + INTRA:          -6.387
REMARK INTER:                  -5.239
REMARK INTRA:                  -1.148
REMARK UNBOUND:                -1.329
REMARK SMILES CCCCCCCCCCCCO
REMARK SMILES IDX 7 1 6 2 5 3 4 4 3 5 2 6 1 7 8 8 9 9 10 10 11 11 12 12 13 13
REMARK H PARENT 13 14
REMARK Flexibility Score: inf
ROOT
ATOM      1  C   UNL     1     163.861 179.203 164.818  1.00  0.00     0.000 C 
ENDROOT
BRANCH   1   2
ATOM      2  C   UNL     1     164.774 180.286 165.416  1.00  0.00    -0.000 C 
BRANCH   2   3
ATOM      3  C   UNL     1     165.020 180.070 166.924  1.00  0.00    -0.000 C 
BRANCH   3   4
ATOM      4  C   UNL     1     165.734 178.747 167.249  1.00  0.00    -0.000 C 
BRANCH   4   5
ATOM      5  C   UNL     1     164.836 177.753 168.004  1.00  0.00    -0.000 C 
BRANCH   5   6
ATOM      6  C   UNL     1     163.502 178.380 168.440  1.00  0.00    -0.003 C 
ATOM      7  C   UNL     1     163.118 178.017 169.875  1.00  0.00     0.004 C 
ENDBRANCH   5   6
ENDBRANCH   4   5
ENDBRANCH   3   4
ENDBRANCH   2   3
ENDBRANCH   1   2
BRANCH   1   8
ATOM      8  C   UNL     1     164.487 178.493 163.605  1.00  0.00     0.000 C 
BRANCH   8   9
ATOM      9  C   UNL     1     166.014 178.682 163.500  1.00  0.00     0.000 C 
BRANCH   9  10
ATOM     10  C   UNL     1     166.778 177.359 163.688  1.00  0.00     0.002 C 
BRANCH  10  11
ATOM     11  C   UNL     1     165.957 176.302 164.447  1.00  0.00     0.028 C 
BRANCH  11  12
ATOM     12  C   UNL     1     166.804 175.159 165.015  1.00  0.00     0.156 C 
BRANCH  12  13
ATOM     13  O   UNL     1     166.792 175.196 166.416  1.00  0.00    -0.396 OA
ATOM     14  H   UNL     1     165.882 174.910 166.691  1.00  0.00     0.210 HD
ENDBRANCH  12  13
ENDBRANCH  11  12
ENDBRANCH  10  11
ENDBRANCH   9  10
ENDBRANCH   8   9
ENDBRANCH   1   8
TORSDOF 11
ENDMDL
MODEL 7
REMARK VINA RESULT:    -3.126     12.841     14.156
REMARK INTER + INTRA:          -6.374
REMARK INTER:                  -5.331
REMARK INTRA:                  -1.043
REMARK UNBOUND:                -1.329
REMARK SMILES CCCCCCCCCCCCO
REMARK SMILES IDX 7 1 6 2 5 3 4 4 3 5 2 6 1 7 8 8 9 9 10 10 11 11 12 12 13 13
REMARK H PARENT 13 14
REMARK Flexibility Score: inf
ROOT
ATOM      1  C   UNL     1     163.082 179.692 165.938  1.00  0.00     0.000 C 
ENDROOT
BRANCH   1   2
ATOM      2  C   UNL     1     161.629 179.918 166.388  1.00  0.00    -0.000 C 
BRANCH   2   3
ATOM      3  C   UNL     1     160.766 178.648 166.224  1.00  0.00    -0.000 C 
BRANCH   3   4
ATOM      4  C   UNL     1     161.032 177.580 167.297  1.00  0.00    -0.000 C 
BRANCH   4   5
ATOM      5  C   UNL     1     160.053 177.666 168.480  1.00  0.00    -0.000 C 
BRANCH   5   6
ATOM      6  C   UNL     1     160.763 177.570 169.840  1.00  0.00    -0.003 C 
ATOM      7  C   UNL     1     162.243 177.948 169.764  1.00  0.00     0.004 C 
ENDBRANCH   5   6
ENDBRANCH   4   5
ENDBRANCH   3   4
ENDBRANCH   2   3
ENDBRANCH   1   2
BRANCH   1   8
ATOM      8  C   UNL     1     164.105 179.965 167.055  1.00  0.00     0.000 C 
BRANCH   8   9
ATOM      9  C   UNL     1     165.304 178.994 167.044  1.00  0.00     0.000 C 
BRANCH   9  10
ATOM     10  C   UNL     1     164.984 177.666 167.753  1.00  0.00     0.002 C 
BRANCH  10  11
ATOM     11  C   UNL     1     164.771 176.504 166.768  1.00  0.00     0.028 C 
BRANCH  11  12
ATOM     12  C   UNL     1     166.035 176.116 165.995  1.00  0.00     0.156 C 
BRANCH  12  13
ATOM     13  O   UNL     1     166.772 175.165 166.714  1.00  0.00    -0.396 OA
ATOM     14  H   UNL     1     166.822 175.504 167.646  1.00  0.00     0.210 HD
ENDBRANCH  12  13
ENDBRANCH  11  12
ENDBRANCH  10  11
ENDBRANCH   9  10
ENDBRANCH   8   9
ENDBRANCH   1   8
TORSDOF 11
ENDMDL
MODEL 8
REMARK VINA RESULT:    -3.056      1.727      2.965
REMARK INTER + INTRA:          -6.262
REMARK INTER:                  -5.306
REMARK INTRA:                  -0.956
REMARK UNBOUND:                -1.329
REMARK SMILES CCCCCCCCCCCCO
REMARK SMILES IDX 7 1 6 2 5 3 4 4 3 5 2 6 1 7 8 8 9 9 10 10 11 11 12 12 13 13
REMARK H PARENT 13 14
REMARK Flexibility Score: inf
ROOT
ATOM      1  C   UNL     1     176.057 179.162 171.579  1.00  0.00     0.000 C 
ENDROOT
BRANCH   1   2
ATOM      2  C   UNL     1     175.748 177.695 171.238  1.00  0.00    -0.000 C 
BRANCH   2   3
ATOM      3  C   UNL     1     176.922 177.012 170.502  1.00  0.00    -0.000 C 
BRANCH   3   4
ATOM      4  C   UNL     1     176.474 176.027 169.409  1.00  0.00    -0.000 C 
BRANCH   4   5
ATOM      5  C   UNL     1     176.767 174.561 169.770  1.00  0.00    -0.000 C 
BRANCH   5   6
ATOM      6  C   UNL     1     176.461 173.598 168.614  1.00  0.00    -0.003 C 
ATOM      7  C   UNL     1     175.320 174.086 167.720  1.00  0.00     0.004 C 
ENDBRANCH   5   6
ENDBRANCH   4   5
ENDBRANCH   3   4
ENDBRANCH   2   3
ENDBRANCH   1   2
BRANCH   1   8
ATOM      8  C   UNL     1     175.583 180.144 170.493  1.00  0.00     0.000 C 
BRANCH   8   9
ATOM      9  C   UNL     1     174.288 179.700 169.782  1.00  0.00     0.000 C 
BRANCH   9  10
ATOM     10  C   UNL     1     174.337 179.962 168.266  1.00  0.00     0.002 C 
BRANCH  10  11
ATOM     11  C   UNL     1     175.078 178.856 167.495  1.00  0.00     0.028 C 
BRANCH  11  12
ATOM     12  C   UNL     1     176.380 179.330 166.842  1.00  0.00     0.156 C 
BRANCH  12  13
ATOM     13  O   UNL     1     177.465 179.101 167.699  1.00  0.00    -0.396 OA
ATOM     14  H   UNL     1     178.219 179.636 167.338  1.00  0.00     0.210 HD
ENDBRANCH  12  13
ENDBRANCH  11  12
ENDBRANCH  10  11
ENDBRANCH   9  10
ENDBRANCH   8   9
ENDBRANCH   1   8
TORSDOF 11
ENDMDL
MODEL 9
REMARK VINA RESULT:    -3.030     11.670     13.331
REMARK INTER + INTRA:          -6.219
REMARK INTER:                  -4.763
REMARK INTRA:                  -1.456
REMARK UNBOUND:                -1.329
REMARK SMILES CCCCCCCCCCCCO
REMARK SMILES IDX 7 1 6 2 5 3 4 4 3 5 2 6 1 7 8 8 9 9 10 10 11 11 12 12 13 13
REMARK H PARENT 13 14
REMARK Flexibility Score: inf
ROOT
ATOM      1  C   UNL     1     162.136 178.536 165.977  1.00  0.00     0.000 C 
ENDROOT
BRANCH   1   2
ATOM      2  C   UNL     1     162.195 178.108 167.453  1.00  0.00    -0.000 C 
BRANCH   2   3
ATOM      3  C   UNL     1     163.299 178.859 168.231  1.00  0.00    -0.000 C 
BRANCH   3   4
ATOM      4  C   UNL     1     164.629 178.092 168.306  1.00  0.00    -0.000 C 
BRANCH   4   5
ATOM      5  C   UNL     1     165.759 178.779 167.520  1.00  0.00    -0.000 C 
BRANCH   5   6
ATOM      6  C   UNL     1     165.339 180.146 166.960  1.00  0.00    -0.003 C 
ATOM      7  C   UNL     1     165.501 180.241 165.442  1.00  0.00     0.004 C 
ENDBRANCH   5   6
ENDBRANCH   4   5
ENDBRANCH   3   4
ENDBRANCH   2   3
ENDBRANCH   1   2
BRANCH   1   8
ATOM      8  C   UNL     1     162.313 177.358 165.004  1.00  0.00     0.000 C 
BRANCH   8   9
ATOM      9  C   UNL     1     163.493 176.431 165.365  1.00  0.00     0.000 C 
BRANCH   9  10
ATOM     10  C   UNL     1     164.752 176.743 164.536  1.00  0.00     0.002 C 
BRANCH  10  11
ATOM     11  C   UNL     1     166.028 176.134 165.141  1.00  0.00     0.028 C 
BRANCH  11  12
ATOM     12  C   UNL     1     166.766 175.187 164.190  1.00  0.00     0.156 C 
BRANCH  12  13
ATOM     13  O   UNL     1     167.141 174.017 164.864  1.00  0.00    -0.396 OA
ATOM     14  H   UNL     1     166.297 173.547 165.090  1.00  0.00     0.210 HD
ENDBRANCH  12  13
ENDBRANCH  11  12
ENDBRANCH  10  11
ENDBRANCH   9  10
ENDBRANCH   8   9
ENDBRANCH   1   8
TORSDOF 11
ENDMDL
