MODEL 1
REMARK VINA RESULT:    -4.689      0.000      0.000
REMARK INTER + INTRA:          -7.877
REMARK INTER:                  -6.746
REMARK INTRA:                  -1.132
REMARK UNBOUND:                -1.132
REMARK SMILES O=C(CO)[C@H](O)[C@@H](O)[C@@H](O)CO
REMARK SMILES IDX 7 1 9 2 11 3 12 4 10 6 5 8 2 9 1 10 3 11 4 12 6 14 8 16
REMARK H PARENT 12 5 10 7 4 13 6 15 8 17
REMARK Flexibility Score: inf
ROOT
ATOM      1  C   UNL     1      18.949  -7.649   6.187  1.00  0.00     0.181 C 
ENDROOT
BRANCH   1   2
ATOM      2  C   UNL     1      17.962  -7.039   7.221  1.00  0.00     0.171 C 
BRANCH   2   3
ATOM      3  C   UNL     1      17.459  -8.094   8.228  1.00  0.00     0.190 C 
BRANCH   3   4
ATOM      4  O   UNL     1      18.399  -8.318   9.244  1.00  0.00    -0.394 OA
ATOM      5  H   UNL     1      17.896  -8.676  10.023  1.00  0.00     0.210 HD
ENDBRANCH   3   4
ENDBRANCH   2   3
BRANCH   2   6
ATOM      6  O   UNL     1      16.851  -6.501   6.550  1.00  0.00    -0.388 OA
ATOM      7  H   UNL     1      16.551  -5.712   7.072  1.00  0.00     0.211 HD
ENDBRANCH   2   6
ENDBRANCH   1   2
BRANCH   1   8
ATOM      8  C   UNL     1      19.130  -6.760   4.928  1.00  0.00     0.214 C 
BRANCH   8   9
ATOM      9  C   UNL     1      20.435  -7.038   4.213  1.00  0.00     0.189 C 
ATOM     10  O   UNL     1      20.598  -8.116   3.660  1.00  0.00    -0.294 OA
BRANCH   9  11
ATOM     11  C   UNL     1      21.536  -6.016   4.161  1.00  0.00     0.234 C 
BRANCH  11  12
ATOM     12  O   UNL     1      22.145  -5.924   5.418  1.00  0.00    -0.388 OA
ATOM     13  H   UNL     1      22.610  -5.047   5.435  1.00  0.00     0.211 HD
ENDBRANCH  11  12
ENDBRANCH   9  11
ENDBRANCH   8   9
BRANCH   8  14
ATOM     14  O   UNL     1      19.090  -5.408   5.305  1.00  0.00    -0.382 OA
ATOM     15  H   UNL     1      18.226  -5.042   4.977  1.00  0.00     0.211 HD
ENDBRANCH   8  14
ENDBRANCH   1   8
BRANCH   1  16
ATOM     16  O   UNL     1      20.204  -7.880   6.783  1.00  0.00    -0.387 OA
ATOM     17  H   UNL     1      20.440  -8.831   6.622  1.00  0.00     0.211 HD
ENDBRANCH   1  16
TORSDOF 10
ENDMDL
MODEL 2
REMARK VINA RESULT:    -4.659      1.487      4.309
REMARK INTER + INTRA:          -7.833
REMARK INTER:                  -7.337
REMARK INTRA:                  -0.496
REMARK UNBOUND:                -1.132
REMARK SMILES O=C(CO)[C@H](O)[C@@H](O)[C@@H](O)CO
REMARK SMILES IDX 7 1 9 2 11 3 12 4 10 6 5 8 2 9 1 10 3 11 4 12 6 14 8 16
REMARK H PARENT 12 5 10 7 4 13 6 15 8 17
REMARK Flexibility Score: inf
ROOT
ATOM      1  C   UNL     1      19.393  -6.598   5.048  1.00  0.00     0.181 C 
ENDROOT
BRANCH   1   2
ATOM      2  C   UNL     1      20.909  -6.735   4.734  1.00  0.00     0.171 C 
BRANCH   2   3
ATOM      3  C   UNL     1      21.685  -7.362   5.910  1.00  0.00     0.190 C 
BRANCH   3   4
ATOM      4  O   UNL     1      22.151  -6.381   6.796  1.00  0.00    -0.394 OA
ATOM      5  H   UNL     1      23.142  -6.388   6.733  1.00  0.00     0.210 HD
ENDBRANCH   3   4
ENDBRANCH   2   3
BRANCH   2   6
ATOM      6  O   UNL     1      21.452  -5.466   4.471  1.00  0.00    -0.388 OA
ATOM      7  H   UNL     1      20.881  -5.044   3.777  1.00  0.00     0.211 HD
ENDBRANCH   2   6
ENDBRANCH   1   2
BRANCH   1   8
ATOM      8  C   UNL     1      19.008  -7.190   6.430  1.00  0.00     0.214 C 
BRANCH   8   9
ATOM      9  C   UNL     1      17.604  -7.757   6.440  1.00  0.00     0.189 C 
ATOM     10  O   UNL     1      16.936  -7.722   5.417  1.00  0.00    -0.294 OA
BRANCH   9  11
ATOM     11  C   UNL     1      17.013  -8.367   7.679  1.00  0.00     0.234 C 
BRANCH  11  12
ATOM     12  O   UNL     1      16.489  -7.355   8.492  1.00  0.00    -0.388 OA
ATOM     13  H   UNL     1      17.203  -7.131   9.146  1.00  0.00     0.211 HD
ENDBRANCH  11  12
ENDBRANCH   9  11
ENDBRANCH   8   9
BRANCH   8  14
ATOM     14  O   UNL     1      19.107  -6.187   7.408  1.00  0.00    -0.382 OA
ATOM     15  H   UNL     1      18.179  -5.932   7.655  1.00  0.00     0.211 HD
ENDBRANCH   8  14
ENDBRANCH   1   8
BRANCH   1  16
ATOM     16  O   UNL     1      18.999  -5.248   4.988  1.00  0.00    -0.387 OA
ATOM     17  H   UNL     1      19.771  -4.727   4.643  1.00  0.00     0.211 HD
ENDBRANCH   1  16
TORSDOF 10
ENDMDL
MODEL 3
REMARK VINA RESULT:    -4.623      1.159      1.651
REMARK INTER + INTRA:          -7.781
REMARK INTER:                  -7.006
REMARK INTRA:                  -0.775
REMARK UNBOUND:                -1.132
REMARK SMILES O=C(CO)[C@H](O)[C@@H](O)[C@@H](O)CO
REMARK SMILES IDX 7 1 9 2 11 3 12 4 10 6 5 8 2 9 1 10 3 11 4 12 6 14 8 16
REMARK H PARENT 12 5 10 7 4 13 6 15 8 17
REMARK Flexibility Score: inf
ROOT
ATOM      1  C   UNL     1      19.104  -7.256   6.341  1.00  0.00     0.181 C 
ENDROOT
BRANCH   1   2
ATOM      2  C   UNL     1      17.986  -6.995   7.390  1.00  0.00     0.171 C 
BRANCH   2   3
ATOM      3  C   UNL     1      17.569  -8.289   8.118  1.00  0.00     0.190 C 
BRANCH   3   4
ATOM      4  O   UNL     1      18.199  -8.398   9.365  1.00  0.00    -0.394 OA
ATOM      5  H   UNL     1      17.626  -8.987   9.924  1.00  0.00     0.210 HD
ENDBRANCH   3   4
ENDBRANCH   2   3
BRANCH   2   6
ATOM      6  O   UNL     1      16.855  -6.461   6.749  1.00  0.00    -0.388 OA
ATOM      7  H   UNL     1      16.088  -7.046   6.980  1.00  0.00     0.211 HD
ENDBRANCH   2   6
ENDBRANCH   1   2
BRANCH   1   8
ATOM      8  C   UNL     1      18.799  -6.612   4.962  1.00  0.00     0.214 C 
BRANCH   8   9
ATOM      9  C   UNL     1      19.686  -7.161   3.865  1.00  0.00     0.189 C 
ATOM     10  O   UNL     1      20.471  -8.062   4.122  1.00  0.00    -0.294 OA
BRANCH   9  11
ATOM     11  C   UNL     1      19.620  -6.627   2.461  1.00  0.00     0.234 C 
BRANCH  11  12
ATOM     12  O   UNL     1      18.487  -5.817   2.324  1.00  0.00    -0.388 OA
ATOM     13  H   UNL     1      18.442  -5.266   3.149  1.00  0.00     0.211 HD
ENDBRANCH  11  12
ENDBRANCH   9  11
ENDBRANCH   8   9
BRANCH   8  14
ATOM     14  O   UNL     1      18.978  -5.222   5.048  1.00  0.00    -0.382 OA
ATOM     15  H   UNL     1      19.128  -4.893   4.123  1.00  0.00     0.211 HD
ENDBRANCH   8  14
ENDBRANCH   1   8
BRANCH   1  16
ATOM     16  O   UNL     1      20.342  -6.784   6.816  1.00  0.00    -0.387 OA
ATOM     17  H   UNL     1      20.214  -5.840   7.097  1.00  0.00     0.211 HD
ENDBRANCH   1  16
TORSDOF 10
ENDMDL
MODEL 4
REMARK VINA RESULT:    -4.574      1.897      2.422
REMARK INTER + INTRA:          -7.711
REMARK INTER:                  -6.921
REMARK INTRA:                  -0.790
REMARK UNBOUND:                -1.132
REMARK SMILES O=C(CO)[C@H](O)[C@@H](O)[C@@H](O)CO
REMARK SMILES IDX 7 1 9 2 11 3 12 4 10 6 5 8 2 9 1 10 3 11 4 12 6 14 8 16
REMARK H PARENT 12 5 10 7 4 13 6 15 8 17
REMARK Flexibility Score: inf
ROOT
ATOM      1  C   UNL     1      20.471  -7.358   5.855  1.00  0.00     0.181 C 
ENDROOT
BRANCH   1   2
ATOM      2  C   UNL     1      18.981  -7.154   6.251  1.00  0.00     0.171 C 
BRANCH   2   3
ATOM      3  C   UNL     1      18.029  -7.438   5.071  1.00  0.00     0.190 C 
BRANCH   3   4
ATOM      4  O   UNL     1      17.484  -6.253   4.559  1.00  0.00    -0.394 OA
ATOM      5  H   UNL     1      16.602  -6.491   4.167  1.00  0.00     0.210 HD
ENDBRANCH   3   4
ENDBRANCH   2   3
BRANCH   2   6
ATOM      6  O   UNL     1      18.784  -5.828   6.671  1.00  0.00    -0.388 OA
ATOM      7  H   UNL     1      19.199  -5.241   5.987  1.00  0.00     0.211 HD
ENDBRANCH   2   6
ENDBRANCH   1   2
BRANCH   1   8
ATOM      8  C   UNL     1      20.811  -6.764   4.462  1.00  0.00     0.214 C 
BRANCH   8   9
ATOM      9  C   UNL     1      22.276  -6.925   4.113  1.00  0.00     0.189 C 
ATOM     10  O   UNL     1      22.837  -7.984   4.353  1.00  0.00    -0.294 OA
BRANCH   9  11
ATOM     11  C   UNL     1      23.057  -5.812   3.473  1.00  0.00     0.234 C 
BRANCH  11  12
ATOM     12  O   UNL     1      23.665  -5.038   4.468  1.00  0.00    -0.388 OA
ATOM     13  H   UNL     1      23.480  -4.091   4.232  1.00  0.00     0.211 HD
ENDBRANCH  11  12
ENDBRANCH   9  11
ENDBRANCH   8   9
BRANCH   8  14
ATOM     14  O   UNL     1      20.481  -5.399   4.445  1.00  0.00    -0.382 OA
ATOM     15  H   UNL     1      21.314  -4.903   4.231  1.00  0.00     0.211 HD
ENDBRANCH   8  14
ENDBRANCH   1   8
BRANCH   1  16
ATOM     16  O   UNL     1      21.319  -6.794   6.827  1.00  0.00    -0.387 OA
ATOM     17  H   UNL     1      21.790  -7.540   7.282  1.00  0.00     0.211 HD
ENDBRANCH   1  16
TORSDOF 10
ENDMDL
MODEL 5
REMARK VINA RESULT:    -4.485      1.685      4.849
REMARK INTER + INTRA:          -7.583
REMARK INTER:                  -6.817
REMARK INTRA:                  -0.766
REMARK UNBOUND:                -1.132
REMARK SMILES O=C(CO)[C@H](O)[C@@H](O)[C@@H](O)CO
REMARK SMILES IDX 7 1 9 2 11 3 12 4 10 6 5 8 2 9 1 10 3 11 4 12 6 14 8 16
REMARK H PARENT 12 5 10 7 4 13 6 15 8 17
REMARK Flexibility Score: inf
ROOT
ATOM      1  C   UNL     1      20.920  -6.785   4.445  1.00  0.00     0.181 C 
ENDROOT
BRANCH   1   2
ATOM      2  C   UNL     1      22.447  -7.014   4.265  1.00  0.00     0.171 C 
BRANCH   2   3
ATOM      3  C   UNL     1      23.124  -5.829   3.545  1.00  0.00     0.190 C 
BRANCH   3   4
ATOM      4  O   UNL     1      23.732  -4.958   4.459  1.00  0.00    -0.394 OA
ATOM      5  H   UNL     1      23.168  -4.141   4.493  1.00  0.00     0.210 HD
ENDBRANCH   3   4
ENDBRANCH   2   3
BRANCH   2   6
ATOM      6  O   UNL     1      22.662  -8.176   3.506  1.00  0.00    -0.388 OA
ATOM      7  H   UNL     1      22.339  -7.987   2.587  1.00  0.00     0.211 HD
ENDBRANCH   2   6
ENDBRANCH   1   2
BRANCH   1   8
ATOM      8  C   UNL     1      20.392  -7.292   5.814  1.00  0.00     0.214 C 
BRANCH   8   9
ATOM      9  C   UNL     1      18.922  -6.990   6.008  1.00  0.00     0.189 C 
ATOM     10  O   UNL     1      18.194  -6.893   5.031  1.00  0.00    -0.294 OA
BRANCH   9  11
ATOM     11  C   UNL     1      18.331  -6.811   7.379  1.00  0.00     0.234 C 
BRANCH  11  12
ATOM     12  O   UNL     1      18.545  -5.497   7.810  1.00  0.00    -0.388 OA
ATOM     13  H   UNL     1      18.635  -5.543   8.798  1.00  0.00     0.211 HD
ENDBRANCH  11  12
ENDBRANCH   9  11
ENDBRANCH   8   9
BRANCH   8  14
ATOM     14  O   UNL     1      21.127  -6.690   6.848  1.00  0.00    -0.382 OA
ATOM     15  H   UNL     1      21.093  -7.308   7.625  1.00  0.00     0.211 HD
ENDBRANCH   8  14
ENDBRANCH   1   8
BRANCH   1  16
ATOM     16  O   UNL     1      20.607  -5.421   4.298  1.00  0.00    -0.387 OA
ATOM     17  H   UNL     1      20.697  -4.995   5.191  1.00  0.00     0.211 HD
ENDBRANCH   1  16
TORSDOF 10
ENDMDL
MODEL 6
REMARK VINA RESULT:    -4.389      1.176      4.213
REMARK INTER + INTRA:          -7.445
REMARK INTER:                  -6.647
REMARK INTRA:                  -0.798
REMARK UNBOUND:                -1.132
REMARK SMILES O=C(CO)[C@H](O)[C@@H](O)[C@@H](O)CO
REMARK SMILES IDX 7 1 9 2 11 3 12 4 10 6 5 8 2 9 1 10 3 11 4 12 6 14 8 16
REMARK H PARENT 12 5 10 7 4 13 6 15 8 17
REMARK Flexibility Score: inf
ROOT
ATOM      1  C   UNL     1      19.157  -6.635   6.219  1.00  0.00     0.181 C 
ENDROOT
BRANCH   1   2
ATOM      2  C   UNL     1      18.968  -6.551   4.678  1.00  0.00     0.171 C 
BRANCH   2   3
ATOM      3  C   UNL     1      20.319  -6.576   3.933  1.00  0.00     0.190 C 
BRANCH   3   4
ATOM      4  O   UNL     1      21.153  -5.530   4.353  1.00  0.00    -0.394 OA
ATOM      5  H   UNL     1      22.036  -5.680   3.924  1.00  0.00     0.210 HD
ENDBRANCH   3   4
ENDBRANCH   2   3
BRANCH   2   6
ATOM      6  O   UNL     1      18.301  -5.359   4.350  1.00  0.00    -0.388 OA
ATOM      7  H   UNL     1      18.723  -5.009   3.522  1.00  0.00     0.211 HD
ENDBRANCH   2   6
ENDBRANCH   1   2
BRANCH   1   8
ATOM      8  C   UNL     1      17.876  -7.106   6.958  1.00  0.00     0.214 C 
BRANCH   8   9
ATOM      9  C   UNL     1      17.852  -8.606   7.163  1.00  0.00     0.189 C 
ATOM     10  O   UNL     1      17.906  -9.345   6.192  1.00  0.00    -0.294 OA
BRANCH   9  11
ATOM     11  C   UNL     1      17.767  -9.209   8.537  1.00  0.00     0.234 C 
BRANCH  11  12
ATOM     12  O   UNL     1      18.276  -8.303   9.475  1.00  0.00    -0.388 OA
ATOM     13  H   UNL     1      17.487  -7.881   9.906  1.00  0.00     0.211 HD
ENDBRANCH  11  12
ENDBRANCH   9  11
ENDBRANCH   8   9
BRANCH   8  14
ATOM     14  O   UNL     1      16.745  -6.724   6.219  1.00  0.00    -0.382 OA
ATOM     15  H   UNL     1      16.104  -7.482   6.258  1.00  0.00     0.211 HD
ENDBRANCH   8  14
ENDBRANCH   1   8
BRANCH   1  16
ATOM     16  O   UNL     1      20.225  -7.494   6.537  1.00  0.00    -0.387 OA
ATOM     17  H   UNL     1      19.863  -8.223   7.107  1.00  0.00     0.211 HD
ENDBRANCH   1  16
TORSDOF 10
ENDMDL
MODEL 7
REMARK VINA RESULT:    -4.378      1.964      2.786
REMARK INTER + INTRA:          -7.429
REMARK INTER:                  -6.714
REMARK INTRA:                  -0.715
REMARK UNBOUND:                -1.132
REMARK SMILES O=C(CO)[C@H](O)[C@@H](O)[C@@H](O)CO
REMARK SMILES IDX 7 1 9 2 11 3 12 4 10 6 5 8 2 9 1 10 3 11 4 12 6 14 8 16
REMARK H PARENT 12 5 10 7 4 13 6 15 8 17
REMARK Flexibility Score: inf
ROOT
ATOM      1  C   UNL     1      19.282  -6.459   4.717  1.00  0.00     0.181 C 
ENDROOT
BRANCH   1   2
ATOM      2  C   UNL     1      17.932  -6.963   4.134  1.00  0.00     0.171 C 
BRANCH   2   3
ATOM      3  C   UNL     1      16.988  -7.481   5.239  1.00  0.00     0.190 C 
BRANCH   3   4
ATOM      4  O   UNL     1      16.875  -6.558   6.288  1.00  0.00    -0.394 OA
ATOM      5  H   UNL     1      16.669  -7.081   7.107  1.00  0.00     0.210 HD
ENDBRANCH   3   4
ENDBRANCH   2   3
BRANCH   2   6
ATOM      6  O   UNL     1      18.171  -8.009   3.229  1.00  0.00    -0.388 OA
ATOM      7  H   UNL     1      17.290  -8.287   2.866  1.00  0.00     0.211 HD
ENDBRANCH   2   6
ENDBRANCH   1   2
BRANCH   1   8
ATOM      8  C   UNL     1      20.473  -6.665   3.743  1.00  0.00     0.214 C 
BRANCH   8   9
ATOM      9  C   UNL     1      21.803  -6.335   4.387  1.00  0.00     0.189 C 
ATOM     10  O   UNL     1      21.954  -6.525   5.584  1.00  0.00    -0.294 OA
BRANCH   9  11
ATOM     11  C   UNL     1      22.947  -5.781   3.585  1.00  0.00     0.234 C 
BRANCH  11  12
ATOM     12  O   UNL     1      23.745  -4.976   4.406  1.00  0.00    -0.388 OA
ATOM     13  H   UNL     1      23.283  -4.938   5.285  1.00  0.00     0.211 HD
ENDBRANCH  11  12
ENDBRANCH   9  11
ENDBRANCH   8   9
BRANCH   8  14
ATOM     14  O   UNL     1      20.294  -5.854   2.611  1.00  0.00    -0.382 OA
ATOM     15  H   UNL     1      20.252  -4.915   2.932  1.00  0.00     0.211 HD
ENDBRANCH   8  14
ENDBRANCH   1   8
BRANCH   1  16
ATOM     16  O   UNL     1      19.189  -5.097   5.063  1.00  0.00    -0.387 OA
ATOM     17  H   UNL     1      18.323  -4.759   4.714  1.00  0.00     0.211 HD
ENDBRANCH   1  16
TORSDOF 10
ENDMDL
MODEL 8
REMARK VINA RESULT:    -4.139      1.379      4.512
REMARK INTER + INTRA:          -7.085
REMARK INTER:                  -6.090
REMARK INTRA:                  -0.995
REMARK UNBOUND:                -1.132
REMARK SMILES O=C(CO)[C@H](O)[C@@H](O)[C@@H](O)CO
REMARK SMILES IDX 7 1 9 2 11 3 12 4 10 6 5 8 2 9 1 10 3 11 4 12 6 14 8 16
REMARK H PARENT 12 5 10 7 4 13 6 15 8 17
REMARK Flexibility Score: inf
ROOT
ATOM      1  C   UNL     1      18.909  -6.875   5.258  1.00  0.00     0.181 C 
ENDROOT
BRANCH   1   2
ATOM      2  C   UNL     1      20.168  -7.633   5.764  1.00  0.00     0.171 C 
BRANCH   2   3
ATOM      3  C   UNL     1      21.462  -7.084   5.129  1.00  0.00     0.190 C 
BRANCH   3   4
ATOM      4  O   UNL     1      22.139  -6.228   6.009  1.00  0.00    -0.394 OA
ATOM      5  H   UNL     1      22.050  -6.624   6.916  1.00  0.00     0.210 HD
ENDBRANCH   3   4
ENDBRANCH   2   3
BRANCH   2   6
ATOM      6  O   UNL     1      20.058  -8.996   5.441  1.00  0.00    -0.388 OA
ATOM      7  H   UNL     1      20.904  -9.431   5.726  1.00  0.00     0.211 HD
ENDBRANCH   2   6
ENDBRANCH   1   2
BRANCH   1   8
ATOM      8  C   UNL     1      17.633  -7.214   6.075  1.00  0.00     0.214 C 
BRANCH   8   9
ATOM      9  C   UNL     1      17.869  -7.133   7.568  1.00  0.00     0.189 C 
ATOM     10  O   UNL     1      18.166  -6.060   8.071  1.00  0.00    -0.294 OA
BRANCH   9  11
ATOM     11  C   UNL     1      17.743  -8.344   8.449  1.00  0.00     0.234 C 
BRANCH  11  12
ATOM     12  O   UNL     1      16.406  -8.757   8.485  1.00  0.00    -0.388 OA
ATOM     13  H   UNL     1      15.886  -8.044   8.029  1.00  0.00     0.211 HD
ENDBRANCH  11  12
ENDBRANCH   9  11
ENDBRANCH   8   9
BRANCH   8  14
ATOM     14  O   UNL     1      17.200  -8.509   5.746  1.00  0.00    -0.382 OA
ATOM     15  H   UNL     1      17.991  -8.996   5.393  1.00  0.00     0.211 HD
ENDBRANCH   8  14
ENDBRANCH   1   8
BRANCH   1  16
ATOM     16  O   UNL     1      19.128  -5.485   5.286  1.00  0.00    -0.387 OA
ATOM     17  H   UNL     1      20.063  -5.336   5.588  1.00  0.00     0.211 HD
ENDBRANCH   1  16
TORSDOF 10
ENDMDL
MODEL 9
REMARK VINA RESULT:    -4.122      2.043      3.751
REMARK INTER + INTRA:          -7.061
REMARK INTER:                  -6.034
REMARK INTRA:                  -1.026
REMARK UNBOUND:                -1.132
REMARK SMILES O=C(CO)[C@H](O)[C@@H](O)[C@@H](O)CO
REMARK SMILES IDX 7 1 9 2 11 3 12 4 10 6 5 8 2 9 1 10 3 11 4 12 6 14 8 16
REMARK H PARENT 12 5 10 7 4 13 6 15 8 17
REMARK Flexibility Score: inf
ROOT
ATOM      1  C   UNL     1      19.597  -6.834   5.790  1.00  0.00     0.181 C 
ENDROOT
BRANCH   1   2
ATOM      2  C   UNL     1      20.833  -6.762   4.850  1.00  0.00     0.171 C 
BRANCH   2   3
ATOM      3  C   UNL     1      22.145  -7.071   5.600  1.00  0.00     0.190 C 
BRANCH   3   4
ATOM      4  O   UNL     1      22.143  -6.508   6.884  1.00  0.00    -0.394 OA
ATOM      5  H   UNL     1      21.451  -5.795   6.881  1.00  0.00     0.210 HD
ENDBRANCH   3   4
ENDBRANCH   2   3
BRANCH   2   6
ATOM      6  O   UNL     1      20.930  -5.473   4.299  1.00  0.00    -0.388 OA
ATOM      7  H   UNL     1      20.120  -4.974   4.582  1.00  0.00     0.211 HD
ENDBRANCH   2   6
ENDBRANCH   1   2
BRANCH   1   8
ATOM      8  C   UNL     1      18.252  -6.861   5.016  1.00  0.00     0.214 C 
BRANCH   8   9
ATOM      9  C   UNL     1      18.172  -8.021   4.046  1.00  0.00     0.189 C 
ATOM     10  O   UNL     1      18.342  -9.159   4.456  1.00  0.00    -0.294 OA
BRANCH   9  11
ATOM     11  C   UNL     1      17.882  -7.805   2.587  1.00  0.00     0.234 C 
BRANCH  11  12
ATOM     12  O   UNL     1      16.527  -7.496   2.423  1.00  0.00    -0.388 OA
ATOM     13  H   UNL     1      16.243  -7.945   1.583  1.00  0.00     0.211 HD
ENDBRANCH  11  12
ENDBRANCH   9  11
ENDBRANCH   8   9
BRANCH   8  14
ATOM     14  O   UNL     1      18.098  -5.657   4.310  1.00  0.00    -0.382 OA
ATOM     15  H   UNL     1      18.322  -4.923   4.940  1.00  0.00     0.211 HD
ENDBRANCH   8  14
ENDBRANCH   1   8
BRANCH   1  16
ATOM     16  O   UNL     1      19.682  -7.965   6.625  1.00  0.00    -0.387 OA
ATOM     17  H   UNL     1      19.544  -7.657   7.559  1.00  0.00     0.211 HD
ENDBRANCH   1  16
TORSDOF 10
ENDMDL
