MODEL 1
REMARK VINA RESULT:    -4.317      0.000      0.000
REMARK INTER + INTRA:         -10.449
REMARK INTER:                  -7.851
REMARK INTRA:                  -2.599
REMARK UNBOUND:                -2.599
REMARK SMILES CCCCCCCCCCCCCC[C@H](C)C(=O)[O-]
REMARK SMILES IDX 9 1 10 2 11 3 12 4 13 5 14 6 15 7 16 8 17 9 18 10 19 11 8 12
REMARK SMILES IDX 7 13 6 14 5 15 4 16 3 17 2 18 1 19
REMARK H PARENT
REMARK Flexibility Score: inf
ROOT
ATOM      1  C   UNL     1     -37.228  23.529 -28.029  1.00  0.00     0.000 C 
ENDROOT
BRANCH   1   2
ATOM      2  C   UNL     1     -36.354  23.318 -29.283  1.00  0.00     0.000 C 
BRANCH   2   3
ATOM      3  C   UNL     1     -37.081  23.629 -30.607  1.00  0.00     0.000 C 
BRANCH   3   4
ATOM      4  C   UNL     1     -38.121  22.580 -31.037  1.00  0.00     0.000 C 
BRANCH   4   5
ATOM      5  C   UNL     1     -39.566  23.032 -30.775  1.00  0.00     0.001 C 
BRANCH   5   6
ATOM      6  C   UNL     1     -40.385  21.896 -30.136  1.00  0.00     0.009 C 
BRANCH   6   7
ATOM      7  C   UNL     1     -41.049  22.270 -28.792  1.00  0.00     0.032 C 
ATOM      8  C   UNL     1     -41.984  21.170 -28.270  1.00  0.00     0.014 C 
BRANCH   7   9
ATOM      9  C   UNL     1     -41.748  23.603 -28.872  1.00  0.00     0.044 C 
ATOM     10  O   UNL     1     -42.798  23.719 -29.556  1.00  0.00    -0.550 OA
ATOM     11  O   UNL     1     -41.277  24.698 -28.156  1.00  0.00    -0.550 OA
ENDBRANCH   7   9
ENDBRANCH   6   7
ENDBRANCH   5   6
ENDBRANCH   4   5
ENDBRANCH   3   4
ENDBRANCH   2   3
ENDBRANCH   1   2
BRANCH   1  12
ATOM     12  C   UNL     1     -36.659  22.807 -26.794  1.00  0.00     0.000 C 
BRANCH  12  13
ATOM     13  C   UNL     1     -36.559  21.287 -26.992  1.00  0.00    -0.000 C 
BRANCH  13  14
ATOM     14  C   UNL     1     -37.831  20.552 -26.543  1.00  0.00    -0.000 C 
BRANCH  14  15
ATOM     15  C   UNL     1     -38.471  19.797 -27.714  1.00  0.00    -0.000 C 
BRANCH  15  16
ATOM     16  C   UNL     1     -37.551  19.800 -28.940  1.00  0.00    -0.000 C 
BRANCH  16  17
ATOM     17  C   UNL     1     -38.097  18.881 -30.041  1.00  0.00    -0.000 C 
BRANCH  17  18
ATOM     18  C   UNL     1     -39.475  18.326 -29.660  1.00  0.00    -0.003 C 
ATOM     19  C   UNL     1     -40.488  18.554 -30.778  1.00  0.00     0.004 C 
ENDBRANCH  17  18
ENDBRANCH  16  17
ENDBRANCH  15  16
ENDBRANCH  14  15
ENDBRANCH  13  14
ENDBRANCH  12  13
ENDBRANCH   1  12
TORSDOF 14
ENDMDL
MODEL 2
REMARK VINA RESULT:    -4.316      1.903      4.358
REMARK INTER + INTRA:         -10.448
REMARK INTER:                  -8.302
REMARK INTRA:                  -2.145
REMARK UNBOUND:                -2.599
REMARK SMILES CCCCCCCCCCCCCC[C@H](C)C(=O)[O-]
REMARK SMILES IDX 9 1 10 2 11 3 12 4 13 5 14 6 15 7 16 8 17 9 18 10 19 11 8 12
REMARK SMILES IDX 7 13 6 14 5 15 4 16 3 17 2 18 1 19
REMARK H PARENT
REMARK Flexibility Score: inf
ROOT
ATOM      1  C   UNL     1     -36.982  23.435 -27.160  1.00  0.00     0.000 C 
ENDROOT
BRANCH   1   2
ATOM      2  C   UNL     1     -36.244  22.302 -26.416  1.00  0.00     0.000 C 
BRANCH   2   3
ATOM      3  C   UNL     1     -37.061  21.000 -26.297  1.00  0.00     0.000 C 
BRANCH   3   4
ATOM      4  C   UNL     1     -37.973  20.696 -27.498  1.00  0.00     0.000 C 
BRANCH   4   5
ATOM      5  C   UNL     1     -37.211  20.094 -28.687  1.00  0.00     0.001 C 
BRANCH   5   6
ATOM      6  C   UNL     1     -38.116  20.012 -29.930  1.00  0.00     0.009 C 
BRANCH   6   7
ATOM      7  C   UNL     1     -39.368  19.124 -29.747  1.00  0.00     0.032 C 
ATOM      8  C   UNL     1     -39.020  17.635 -29.609  1.00  0.00     0.014 C 
BRANCH   7   9
ATOM      9  C   UNL     1     -40.378  19.362 -30.840  1.00  0.00     0.044 C 
ATOM     10  O   UNL     1     -40.391  20.462 -31.452  1.00  0.00    -0.550 OA
ATOM     11  O   UNL     1     -41.267  18.362 -31.219  1.00  0.00    -0.550 OA
ENDBRANCH   7   9
ENDBRANCH   6   7
ENDBRANCH   5   6
ENDBRANCH   4   5
ENDBRANCH   3   4
ENDBRANCH   2   3
ENDBRANCH   1   2
BRANCH   1  12
ATOM     12  C   UNL     1     -36.167  23.982 -28.345  1.00  0.00     0.000 C 
BRANCH  12  13
ATOM     13  C   UNL     1     -36.745  23.563 -29.705  1.00  0.00    -0.000 C 
BRANCH  13  14
ATOM     14  C   UNL     1     -38.001  24.365 -30.081  1.00  0.00    -0.000 C 
BRANCH  14  15
ATOM     15  C   UNL     1     -39.241  23.464 -30.108  1.00  0.00    -0.000 C 
BRANCH  15  16
ATOM     16  C   UNL     1     -40.165  23.762 -28.922  1.00  0.00    -0.000 C 
BRANCH  16  17
ATOM     17  C   UNL     1     -41.484  22.990 -29.044  1.00  0.00    -0.000 C 
BRANCH  17  18
ATOM     18  C   UNL     1     -41.380  21.614 -28.376  1.00  0.00    -0.003 C 
ATOM     19  C   UNL     1     -42.733  21.159 -27.836  1.00  0.00     0.004 C 
ENDBRANCH  17  18
ENDBRANCH  16  17
ENDBRANCH  15  16
ENDBRANCH  14  15
ENDBRANCH  13  14
ENDBRANCH  12  13
ENDBRANCH   1  12
TORSDOF 14
ENDMDL
MODEL 3
REMARK VINA RESULT:    -4.269      1.441      1.833
REMARK INTER + INTRA:         -10.362
REMARK INTER:                  -8.367
REMARK INTRA:                  -1.994
REMARK UNBOUND:                -2.599
REMARK SMILES CCCCCCCCCCCCCC[C@H](C)C(=O)[O-]
REMARK SMILES IDX 9 1 10 2 11 3 12 4 13 5 14 6 15 7 16 8 17 9 18 10 19 11 8 12
REMARK SMILES IDX 7 13 6 14 5 15 4 16 3 17 2 18 1 19
REMARK H PARENT
REMARK Flexibility Score: inf
ROOT
ATOM      1  C   UNL     1     -37.763  23.492 -28.118  1.00  0.00     0.000 C 
ENDROOT
BRANCH   1   2
ATOM      2  C   UNL     1     -37.561  23.988 -29.566  1.00  0.00     0.000 C 
BRANCH   2   3
ATOM      3  C   UNL     1     -37.758  22.891 -30.631  1.00  0.00     0.000 C 
BRANCH   3   4
ATOM      4  C   UNL     1     -38.827  23.203 -31.693  1.00  0.00     0.000 C 
BRANCH   4   5
ATOM      5  C   UNL     1     -40.112  22.385 -31.503  1.00  0.00     0.001 C 
BRANCH   5   6
ATOM      6  C   UNL     1     -40.187  21.810 -30.077  1.00  0.00     0.009 C 
BRANCH   6   7
ATOM      7  C   UNL     1     -41.439  22.242 -29.282  1.00  0.00     0.032 C 
ATOM      8  C   UNL     1     -41.346  23.688 -28.775  1.00  0.00     0.014 C 
BRANCH   7   9
ATOM      9  C   UNL     1     -41.745  21.278 -28.164  1.00  0.00     0.044 C 
ATOM     10  O   UNL     1     -40.802  20.734 -27.531  1.00  0.00    -0.550 OA
ATOM     11  O   UNL     1     -43.058  21.020 -27.786  1.00  0.00    -0.550 OA
ENDBRANCH   7   9
ENDBRANCH   6   7
ENDBRANCH   5   6
ENDBRANCH   4   5
ENDBRANCH   3   4
ENDBRANCH   2   3
ENDBRANCH   1   2
BRANCH   1  12
ATOM     12  C   UNL     1     -36.439  23.072 -27.455  1.00  0.00     0.000 C 
BRANCH  12  13
ATOM     13  C   UNL     1     -36.460  21.617 -26.963  1.00  0.00    -0.000 C 
BRANCH  13  14
ATOM     14  C   UNL     1     -36.067  20.620 -28.066  1.00  0.00    -0.000 C 
BRANCH  14  15
ATOM     15  C   UNL     1     -37.305  19.921 -28.639  1.00  0.00    -0.000 C 
BRANCH  15  16
ATOM     16  C   UNL     1     -36.984  19.238 -29.973  1.00  0.00    -0.000 C 
BRANCH  16  17
ATOM     17  C   UNL     1     -37.960  18.089 -30.253  1.00  0.00    -0.000 C 
BRANCH  17  18
ATOM     18  C   UNL     1     -39.334  18.371 -29.633  1.00  0.00    -0.003 C 
ATOM     19  C   UNL     1     -40.399  18.545 -30.711  1.00  0.00     0.004 C 
ENDBRANCH  17  18
ENDBRANCH  16  17
ENDBRANCH  15  16
ENDBRANCH  14  15
ENDBRANCH  13  14
ENDBRANCH  12  13
ENDBRANCH   1  12
TORSDOF 14
ENDMDL
MODEL 4
REMARK VINA RESULT:    -4.214      2.710      5.493
REMARK INTER + INTRA:         -10.262
REMARK INTER:                  -7.892
REMARK INTRA:                  -2.370
REMARK UNBOUND:                -2.599
REMARK SMILES CCCCCCCCCCCCCC[C@H](C)C(=O)[O-]
REMARK SMILES IDX 9 1 10 2 11 3 12 4 13 5 14 6 15 7 16 8 17 9 18 10 19 11 8 12
REMARK SMILES IDX 7 13 6 14 5 15 4 16 3 17 2 18 1 19
REMARK H PARENT
REMARK Flexibility Score: inf
ROOT
ATOM      1  C   UNL     1     -40.730  22.633 -31.050  1.00  0.00     0.000 C 
ENDROOT
BRANCH   1   2
ATOM      2  C   UNL     1     -40.685  23.006 -29.553  1.00  0.00     0.000 C 
BRANCH   2   3
ATOM      3  C   UNL     1     -41.774  22.317 -28.708  1.00  0.00     0.000 C 
BRANCH   3   4
ATOM      4  C   UNL     1     -41.335  21.008 -28.029  1.00  0.00     0.000 C 
BRANCH   4   5
ATOM      5  C   UNL     1     -39.825  20.956 -27.755  1.00  0.00     0.001 C 
BRANCH   5   6
ATOM      6  C   UNL     1     -39.230  19.619 -28.234  1.00  0.00     0.009 C 
BRANCH   6   7
ATOM      7  C   UNL     1     -38.957  19.552 -29.753  1.00  0.00     0.032 C 
ATOM      8  C   UNL     1     -40.105  18.890 -30.529  1.00  0.00     0.014 C 
BRANCH   7   9
ATOM      9  C   UNL     1     -37.633  18.897 -30.049  1.00  0.00     0.044 C 
ATOM     10  O   UNL     1     -36.566  19.551 -29.910  1.00  0.00    -0.550 OA
ATOM     11  O   UNL     1     -37.567  17.560 -30.425  1.00  0.00    -0.550 OA
ENDBRANCH   7   9
ENDBRANCH   6   7
ENDBRANCH   5   6
ENDBRANCH   4   5
ENDBRANCH   3   4
ENDBRANCH   2   3
ENDBRANCH   1   2
BRANCH   1  12
ATOM     12  C   UNL     1     -39.324  22.473 -31.654  1.00  0.00     0.000 C 
BRANCH  12  13
ATOM     13  C   UNL     1     -38.306  23.452 -31.048  1.00  0.00    -0.000 C 
BRANCH  13  14
ATOM     14  C   UNL     1     -36.860  22.947 -31.175  1.00  0.00    -0.000 C 
BRANCH  14  15
ATOM     15  C   UNL     1     -36.158  22.947 -29.812  1.00  0.00    -0.000 C 
BRANCH  15  16
ATOM     16  C   UNL     1     -37.159  23.181 -28.675  1.00  0.00    -0.000 C 
BRANCH  16  17
ATOM     17  C   UNL     1     -36.439  23.354 -27.333  1.00  0.00    -0.000 C 
BRANCH  17  18
ATOM     18  C   UNL     1     -36.857  24.660 -26.648  1.00  0.00    -0.003 C 
ATOM     19  C   UNL     1     -37.796  25.472 -27.536  1.00  0.00     0.004 C 
ENDBRANCH  17  18
ENDBRANCH  16  17
ENDBRANCH  15  16
ENDBRANCH  14  15
ENDBRANCH  13  14
ENDBRANCH  12  13
ENDBRANCH   1  12
TORSDOF 14
ENDMDL
MODEL 5
REMARK VINA RESULT:    -4.135      2.314      4.612
REMARK INTER + INTRA:         -10.118
REMARK INTER:                  -7.719
REMARK INTRA:                  -2.400
REMARK UNBOUND:                -2.599
REMARK SMILES CCCCCCCCCCCCCC[C@H](C)C(=O)[O-]
REMARK SMILES IDX 9 1 10 2 11 3 12 4 13 5 14 6 15 7 16 8 17 9 18 10 19 11 8 12
REMARK SMILES IDX 7 13 6 14 5 15 4 16 3 17 2 18 1 19
REMARK H PARENT
REMARK Flexibility Score: inf
ROOT
ATOM      1  C   UNL     1     -36.739  24.761 -29.325  1.00  0.00     0.000 C 
ENDROOT
BRANCH   1   2
ATOM      2  C   UNL     1     -37.543  24.242 -28.115  1.00  0.00     0.000 C 
BRANCH   2   3
ATOM      3  C   UNL     1     -36.952  22.970 -27.475  1.00  0.00     0.000 C 
BRANCH   3   4
ATOM      4  C   UNL     1     -36.199  22.045 -28.447  1.00  0.00     0.000 C 
BRANCH   4   5
ATOM      5  C   UNL     1     -36.436  20.556 -28.158  1.00  0.00     0.001 C 
BRANCH   5   6
ATOM      6  C   UNL     1     -37.310  19.920 -29.254  1.00  0.00     0.009 C 
BRANCH   6   7
ATOM      7  C   UNL     1     -38.796  19.749 -28.863  1.00  0.00     0.032 C 
ATOM      8  C   UNL     1     -38.992  19.580 -27.350  1.00  0.00     0.014 C 
BRANCH   7   9
ATOM      9  C   UNL     1     -39.447  18.633 -29.638  1.00  0.00     0.044 C 
ATOM     10  O   UNL     1     -39.091  17.442 -29.438  1.00  0.00    -0.550 OA
ATOM     11  O   UNL     1     -40.475  18.894 -30.537  1.00  0.00    -0.550 OA
ENDBRANCH   7   9
ENDBRANCH   6   7
ENDBRANCH   5   6
ENDBRANCH   4   5
ENDBRANCH   3   4
ENDBRANCH   2   3
ENDBRANCH   1   2
BRANCH   1  12
ATOM     12  C   UNL     1     -37.601  24.869 -30.596  1.00  0.00     0.000 C 
BRANCH  12  13
ATOM     13  C   UNL     1     -37.316  23.742 -31.601  1.00  0.00    -0.000 C 
BRANCH  13  14
ATOM     14  C   UNL     1     -38.593  23.227 -32.282  1.00  0.00    -0.000 C 
BRANCH  14  15
ATOM     15  C   UNL     1     -39.267  22.141 -31.435  1.00  0.00    -0.000 C 
BRANCH  15  16
ATOM     16  C   UNL     1     -40.588  22.644 -30.842  1.00  0.00    -0.000 C 
BRANCH  16  17
ATOM     17  C   UNL     1     -40.563  22.584 -29.310  1.00  0.00    -0.000 C 
BRANCH  17  18
ATOM     18  C   UNL     1     -41.985  22.541 -28.739  1.00  0.00    -0.003 C 
ATOM     19  C   UNL     1     -42.271  21.199 -28.071  1.00  0.00     0.004 C 
ENDBRANCH  17  18
ENDBRANCH  16  17
ENDBRANCH  15  16
ENDBRANCH  14  15
ENDBRANCH  13  14
ENDBRANCH  12  13
ENDBRANCH   1  12
TORSDOF 14
ENDMDL
MODEL 6
REMARK VINA RESULT:    -4.069     15.060     17.405
REMARK INTER + INTRA:          -9.998
REMARK INTER:                  -7.723
REMARK INTRA:                  -2.275
REMARK UNBOUND:                -2.599
REMARK SMILES CCCCCCCCCCCCCC[C@H](C)C(=O)[O-]
REMARK SMILES IDX 9 1 10 2 11 3 12 4 13 5 14 6 15 7 16 8 17 9 18 10 19 11 8 12
REMARK SMILES IDX 7 13 6 14 5 15 4 16 3 17 2 18 1 19
REMARK H PARENT
REMARK Flexibility Score: inf
ROOT
ATOM      1  C   UNL     1     -49.237   9.731 -31.478  1.00  0.00     0.000 C 
ENDROOT
BRANCH   1   2
ATOM      2  C   UNL     1     -49.939   9.002 -30.313  1.00  0.00     0.000 C 
BRANCH   2   3
ATOM      3  C   UNL     1     -50.752   9.936 -29.395  1.00  0.00     0.000 C 
BRANCH   3   4
ATOM      4  C   UNL     1     -50.720  11.423 -29.791  1.00  0.00     0.000 C 
BRANCH   4   5
ATOM      5  C   UNL     1     -50.619  12.360 -28.579  1.00  0.00     0.001 C 
BRANCH   5   6
ATOM      6  C   UNL     1     -51.229  13.736 -28.901  1.00  0.00     0.009 C 
BRANCH   6   7
ATOM      7  C   UNL     1     -52.483  13.680 -29.801  1.00  0.00     0.032 C 
ATOM      8  C   UNL     1     -52.410  14.665 -30.977  1.00  0.00     0.014 C 
BRANCH   7   9
ATOM      9  C   UNL     1     -53.747  13.861 -29.001  1.00  0.00     0.044 C 
ATOM     10  O   UNL     1     -53.949  13.150 -27.981  1.00  0.00    -0.550 OA
ATOM     11  O   UNL     1     -54.673  14.841 -29.341  1.00  0.00    -0.550 OA
ENDBRANCH   7   9
ENDBRANCH   6   7
ENDBRANCH   5   6
ENDBRANCH   4   5
ENDBRANCH   3   4
ENDBRANCH   2   3
ENDBRANCH   1   2
BRANCH   1  12
ATOM     12  C   UNL     1     -49.779   9.294 -32.851  1.00  0.00     0.000 C 
BRANCH  12  13
ATOM     13  C   UNL     1     -50.418   7.897 -32.816  1.00  0.00    -0.000 C 
BRANCH  13  14
ATOM     14  C   UNL     1     -51.814   7.875 -33.459  1.00  0.00    -0.000 C 
BRANCH  14  15
ATOM     15  C   UNL     1     -52.874   8.406 -32.487  1.00  0.00    -0.000 C 
BRANCH  15  16
ATOM     16  C   UNL     1     -53.439   9.748 -32.966  1.00  0.00    -0.000 C 
BRANCH  16  17
ATOM     17  C   UNL     1     -53.612  10.724 -31.795  1.00  0.00    -0.000 C 
BRANCH  17  18
ATOM     18  C   UNL     1     -54.870  10.392 -30.984  1.00  0.00    -0.003 C 
ATOM     19  C   UNL     1     -54.527  10.117 -29.523  1.00  0.00     0.004 C 
ENDBRANCH  17  18
ENDBRANCH  16  17
ENDBRANCH  15  16
ENDBRANCH  14  15
ENDBRANCH  13  14
ENDBRANCH  12  13
ENDBRANCH   1  12
TORSDOF 14
ENDMDL
MODEL 7
REMARK VINA RESULT:    -4.038     14.501     17.147
REMARK INTER + INTRA:          -9.942
REMARK INTER:                  -7.615
REMARK INTRA:                  -2.326
REMARK UNBOUND:                -2.599
REMARK SMILES CCCCCCCCCCCCCC[C@H](C)C(=O)[O-]
REMARK SMILES IDX 9 1 10 2 11 3 12 4 13 5 14 6 15 7 16 8 17 9 18 10 19 11 8 12
REMARK SMILES IDX 7 13 6 14 5 15 4 16 3 17 2 18 1 19
REMARK H PARENT
REMARK Flexibility Score: inf
ROOT
ATOM      1  C   UNL     1     -54.617  13.835 -28.251  1.00  0.00     0.000 C 
ENDROOT
BRANCH   1   2
ATOM      2  C   UNL     1     -55.346  12.745 -29.065  1.00  0.00     0.000 C 
BRANCH   2   3
ATOM      3  C   UNL     1     -54.414  11.919 -29.974  1.00  0.00     0.000 C 
BRANCH   3   4
ATOM      4  C   UNL     1     -54.501  12.259 -31.472  1.00  0.00     0.000 C 
BRANCH   4   5
ATOM      5  C   UNL     1     -53.382  11.608 -32.297  1.00  0.00     0.001 C 
BRANCH   5   6
ATOM      6  C   UNL     1     -52.537  10.665 -31.421  1.00  0.00     0.009 C 
BRANCH   6   7
ATOM      7  C   UNL     1     -51.013  10.782 -31.649  1.00  0.00     0.032 C 
ATOM      8  C   UNL     1     -50.579  10.243 -33.019  1.00  0.00     0.014 C 
BRANCH   7   9
ATOM      9  C   UNL     1     -50.236  10.143 -30.527  1.00  0.00     0.044 C 
ATOM     10  O   UNL     1     -50.781   9.974 -29.404  1.00  0.00    -0.550 OA
ATOM     11  O   UNL     1     -48.937   9.688 -30.728  1.00  0.00    -0.550 OA
ENDBRANCH   7   9
ENDBRANCH   6   7
ENDBRANCH   5   6
ENDBRANCH   4   5
ENDBRANCH   3   4
ENDBRANCH   2   3
ENDBRANCH   1   2
BRANCH   1  12
ATOM     12  C   UNL     1     -55.390  15.165 -28.233  1.00  0.00     0.000 C 
BRANCH  12  13
ATOM     13  C   UNL     1     -54.665  16.282 -28.999  1.00  0.00    -0.000 C 
BRANCH  13  14
ATOM     14  C   UNL     1     -54.367  15.895 -30.456  1.00  0.00    -0.000 C 
BRANCH  14  15
ATOM     15  C   UNL     1     -53.363  16.866 -31.087  1.00  0.00    -0.000 C 
BRANCH  15  16
ATOM     16  C   UNL     1     -52.088  16.135 -31.522  1.00  0.00    -0.000 C 
BRANCH  16  17
ATOM     17  C   UNL     1     -52.018  14.733 -30.904  1.00  0.00    -0.000 C 
BRANCH  17  18
ATOM     18  C   UNL     1     -50.932  14.661 -29.824  1.00  0.00    -0.003 C 
ATOM     19  C   UNL     1     -51.118  13.435 -28.935  1.00  0.00     0.004 C 
ENDBRANCH  17  18
ENDBRANCH  16  17
ENDBRANCH  15  16
ENDBRANCH  14  15
ENDBRANCH  13  14
ENDBRANCH  12  13
ENDBRANCH   1  12
TORSDOF 14
ENDMDL
MODEL 8
REMARK VINA RESULT:    -4.029     14.847     16.818
REMARK INTER + INTRA:          -9.925
REMARK INTER:                  -7.660
REMARK INTRA:                  -2.265
REMARK UNBOUND:                -2.599
REMARK SMILES CCCCCCCCCCCCCC[C@H](C)C(=O)[O-]
REMARK SMILES IDX 9 1 10 2 11 3 12 4 13 5 14 6 15 7 16 8 17 9 18 10 19 11 8 12
REMARK SMILES IDX 7 13 6 14 5 15 4 16 3 17 2 18 1 19
REMARK H PARENT
REMARK Flexibility Score: inf
ROOT
ATOM      1  C   UNL     1     -52.161  12.602 -31.072  1.00  0.00     0.000 C 
ENDROOT
BRANCH   1   2
ATOM      2  C   UNL     1     -52.316  12.054 -29.637  1.00  0.00     0.000 C 
BRANCH   2   3
ATOM      3  C   UNL     1     -52.729  13.122 -28.605  1.00  0.00     0.000 C 
BRANCH   3   4
ATOM      4  C   UNL     1     -54.245  13.248 -28.373  1.00  0.00     0.000 C 
BRANCH   4   5
ATOM      5  C   UNL     1     -54.858  14.461 -29.088  1.00  0.00     0.001 C 
BRANCH   5   6
ATOM      6  C   UNL     1     -53.789  15.537 -29.350  1.00  0.00     0.009 C 
BRANCH   6   7
ATOM      7  C   UNL     1     -53.829  16.140 -30.772  1.00  0.00     0.032 C 
ATOM      8  C   UNL     1     -52.445  16.182 -31.434  1.00  0.00     0.014 C 
BRANCH   7   9
ATOM      9  C   UNL     1     -54.493  17.493 -30.781  1.00  0.00     0.044 C 
ATOM     10  O   UNL     1     -55.744  17.576 -30.894  1.00  0.00    -0.550 OA
ATOM     11  O   UNL     1     -53.747  18.654 -30.612  1.00  0.00    -0.550 OA
ENDBRANCH   7   9
ENDBRANCH   6   7
ENDBRANCH   5   6
ENDBRANCH   4   5
ENDBRANCH   3   4
ENDBRANCH   2   3
ENDBRANCH   1   2
BRANCH   1  12
ATOM     12  C   UNL     1     -53.442  12.423 -31.905  1.00  0.00     0.000 C 
BRANCH  12  13
ATOM     13  C   UNL     1     -53.989  10.988 -31.849  1.00  0.00    -0.000 C 
BRANCH  13  14
ATOM     14  C   UNL     1     -53.156  10.010 -32.693  1.00  0.00    -0.000 C 
BRANCH  14  15
ATOM     15  C   UNL     1     -52.531   8.922 -31.813  1.00  0.00    -0.000 C 
BRANCH  15  16
ATOM     16  C   UNL     1     -51.128   8.551 -32.307  1.00  0.00    -0.000 C 
BRANCH  16  17
ATOM     17  C   UNL     1     -50.270   9.804 -32.522  1.00  0.00    -0.000 C 
BRANCH  17  18
ATOM     18  C   UNL     1     -48.975   9.730 -31.706  1.00  0.00    -0.003 C 
ATOM     19  C   UNL     1     -49.198  10.205 -30.273  1.00  0.00     0.004 C 
ENDBRANCH  17  18
ENDBRANCH  16  17
ENDBRANCH  15  16
ENDBRANCH  14  15
ENDBRANCH  13  14
ENDBRANCH  12  13
ENDBRANCH   1  12
TORSDOF 14
ENDMDL
MODEL 9
REMARK VINA RESULT:    -4.028     14.898     17.071
REMARK INTER + INTRA:          -9.924
REMARK INTER:                  -7.337
REMARK INTRA:                  -2.587
REMARK UNBOUND:                -2.599
REMARK SMILES CCCCCCCCCCCCCC[C@H](C)C(=O)[O-]
REMARK SMILES IDX 9 1 10 2 11 3 12 4 13 5 14 6 15 7 16 8 17 9 18 10 19 11 8 12
REMARK SMILES IDX 7 13 6 14 5 15 4 16 3 17 2 18 1 19
REMARK H PARENT
REMARK Flexibility Score: inf
ROOT
ATOM      1  C   UNL     1     -52.898  15.119 -31.402  1.00  0.00     0.000 C 
ENDROOT
BRANCH   1   2
ATOM      2  C   UNL     1     -51.639  14.482 -30.777  1.00  0.00     0.000 C 
BRANCH   2   3
ATOM      3  C   UNL     1     -51.686  14.391 -29.239  1.00  0.00     0.000 C 
BRANCH   3   4
ATOM      4  C   UNL     1     -51.526  12.971 -28.669  1.00  0.00     0.000 C 
BRANCH   4   5
ATOM      5  C   UNL     1     -50.137  12.375 -28.936  1.00  0.00     0.001 C 
BRANCH   5   6
ATOM      6  C   UNL     1     -50.214  10.842 -29.052  1.00  0.00     0.009 C 
BRANCH   6   7
ATOM      7  C   UNL     1     -50.920  10.335 -30.330  1.00  0.00     0.032 C 
ATOM      8  C   UNL     1     -51.757   9.073 -30.081  1.00  0.00     0.014 C 
BRANCH   7   9
ATOM      9  C   UNL     1     -49.944  10.143 -31.462  1.00  0.00     0.044 C 
ATOM     10  O   UNL     1     -48.714  10.030 -31.215  1.00  0.00    -0.550 OA
ATOM     11  O   UNL     1     -50.387  10.034 -32.775  1.00  0.00    -0.550 OA
ENDBRANCH   7   9
ENDBRANCH   6   7
ENDBRANCH   5   6
ENDBRANCH   4   5
ENDBRANCH   3   4
ENDBRANCH   2   3
ENDBRANCH   1   2
BRANCH   1  12
ATOM     12  C   UNL     1     -53.602  16.089 -30.436  1.00  0.00     0.000 C 
BRANCH  12  13
ATOM     13  C   UNL     1     -55.011  15.618 -30.047  1.00  0.00    -0.000 C 
BRANCH  13  14
ATOM     14  C   UNL     1     -55.136  15.320 -28.545  1.00  0.00    -0.000 C 
BRANCH  14  15
ATOM     15  C   UNL     1     -55.291  13.816 -28.294  1.00  0.00    -0.000 C 
BRANCH  15  16
ATOM     16  C   UNL     1     -55.539  13.061 -29.606  1.00  0.00    -0.000 C 
BRANCH  16  17
ATOM     17  C   UNL     1     -54.604  11.852 -29.730  1.00  0.00    -0.000 C 
BRANCH  17  18
ATOM     18  C   UNL     1     -54.774  11.164 -31.090  1.00  0.00    -0.003 C 
ATOM     19  C   UNL     1     -53.795  11.725 -32.117  1.00  0.00     0.004 C 
ENDBRANCH  17  18
ENDBRANCH  16  17
ENDBRANCH  15  16
ENDBRANCH  14  15
ENDBRANCH  13  14
ENDBRANCH  12  13
ENDBRANCH   1  12
TORSDOF 14
ENDMDL
