MODEL 1
REMARK VINA RESULT:    -7.238      0.000      0.000
REMARK INTER + INTRA:         -11.085
REMARK INTER:                  -9.142
REMARK INTRA:                  -1.942
REMARK UNBOUND:                -1.942
REMARK SMILES O[C@H]1OC[C@H](Cc2ccc3c(c2)OCO3)[C@H]1Cc1ccc2c(c1)OCO2
REMARK SMILES IDX 4 1 5 2 16 3 2 4 3 5 6 6 7 7 12 8 8 9 11 10 9 11 10 12 13 13
REMARK SMILES IDX 15 14 14 15 17 16 18 17 23 18 19 19 22 20 20 21 21 22 24 23
REMARK SMILES IDX 26 24 25 25 1 26
REMARK H PARENT 1 27
REMARK Flexibility Score: inf
ROOT
ATOM      1  C   UNL     1      26.786 -26.836  31.953  1.00  0.00     0.168 C 
ATOM      2  C   UNL     1      26.570 -26.565  30.466  1.00  0.00     0.028 C 
ATOM      3  C   UNL     1      25.185 -27.122  30.242  1.00  0.00     0.055 C 
ATOM      4  C   UNL     1      25.122 -28.247  31.283  1.00  0.00     0.250 C 
ATOM      5  O   UNL     1      25.973 -27.917  32.360  1.00  0.00    -0.352 OA
ENDROOT
BRANCH   2   6
ATOM      6  C   UNL     1      26.688 -25.071  30.098  1.00  0.00     0.042 C 
BRANCH   6   7
ATOM      7  C   UNL     1      27.209 -24.895  28.696  1.00  0.00    -0.044 A 
ATOM      8  C   UNL     1      26.854 -23.755  27.940  1.00  0.00     0.054 A 
ATOM      9  C   UNL     1      28.098 -25.854  28.144  1.00  0.00     0.008 A 
ATOM     10  C   UNL     1      27.389 -23.625  26.662  1.00  0.00     0.166 A 
ATOM     11  C   UNL     1      28.616 -25.684  26.846  1.00  0.00     0.051 A 
ATOM     12  C   UNL     1      28.232 -24.550  26.138  1.00  0.00     0.165 A 
ATOM     13  O   UNL     1      27.190 -22.612  25.745  1.00  0.00    -0.454 OA
ATOM     14  O   UNL     1      28.605 -24.165  24.864  1.00  0.00    -0.454 OA
ATOM     15  C   UNL     1      27.955 -22.920  24.571  1.00  0.00     0.468 C 
ENDBRANCH   6   7
ENDBRANCH   2   6
BRANCH   3  16
ATOM     16  C   UNL     1      24.930 -27.560  28.781  1.00  0.00     0.044 C 
BRANCH  16  17
ATOM     17  C   UNL     1      24.284 -26.459  27.980  1.00  0.00    -0.044 A 
ATOM     18  C   UNL     1      24.604 -26.283  26.615  1.00  0.00     0.054 A 
ATOM     19  C   UNL     1      23.332 -25.603  28.593  1.00  0.00     0.008 A 
ATOM     20  C   UNL     1      23.962 -25.263  25.919  1.00  0.00     0.166 A 
ATOM     21  C   UNL     1      22.706 -24.583  27.852  1.00  0.00     0.051 A 
ATOM     22  C   UNL     1      23.053 -24.448  26.511  1.00  0.00     0.165 A 
ATOM     23  O   UNL     1      24.107 -24.902  24.593  1.00  0.00    -0.454 OA
ATOM     24  O   UNL     1      22.581 -23.536  25.589  1.00  0.00    -0.454 OA
ATOM     25  C   UNL     1      23.235 -23.793  24.337  1.00  0.00     0.468 C 
ENDBRANCH  16  17
ENDBRANCH   3  16
BRANCH   4  26
ATOM     26  O   UNL     1      25.498 -29.494  30.751  1.00  0.00    -0.368 OA
ATOM     27  H   UNL     1      25.060 -30.195  31.301  1.00  0.00     0.213 HD
ENDBRANCH   4  26
TORSDOF 5
ENDMDL
MODEL 2
REMARK VINA RESULT:    -7.032      6.699     10.989
REMARK INTER + INTRA:         -10.825
REMARK INTER:                  -9.325
REMARK INTRA:                  -1.500
REMARK UNBOUND:                -1.942
REMARK SMILES O[C@H]1OC[C@H](Cc2ccc3c(c2)OCO3)[C@H]1Cc1ccc2c(c1)OCO2
REMARK SMILES IDX 4 1 5 2 16 3 2 4 3 5 6 6 7 7 12 8 8 9 11 10 9 11 10 12 13 13
REMARK SMILES IDX 15 14 14 15 17 16 18 17 23 18 19 19 22 20 20 21 21 22 24 23
REMARK SMILES IDX 26 24 25 25 1 26
REMARK H PARENT 1 27
REMARK Flexibility Score: inf
ROOT
ATOM      1  C   UNL     1      26.730 -23.951  37.653  1.00  0.00     0.168 C 
ATOM      2  C   UNL     1      26.779 -25.462  37.868  1.00  0.00     0.028 C 
ATOM      3  C   UNL     1      26.390 -25.585  39.323  1.00  0.00     0.055 C 
ATOM      4  C   UNL     1      26.915 -24.267  39.905  1.00  0.00     0.250 C 
ATOM      5  O   UNL     1      26.920 -23.290  38.885  1.00  0.00    -0.352 OA
ENDROOT
BRANCH   2   6
ATOM      6  C   UNL     1      25.842 -26.241  36.923  1.00  0.00     0.042 C 
BRANCH   6   7
ATOM      7  C   UNL     1      26.625 -27.059  35.930  1.00  0.00    -0.044 A 
ATOM      8  C   UNL     1      26.144 -27.238  34.614  1.00  0.00     0.054 A 
ATOM      9  C   UNL     1      27.876 -27.618  36.302  1.00  0.00     0.008 A 
ATOM     10  C   UNL     1      26.923 -27.976  33.728  1.00  0.00     0.166 A 
ATOM     11  C   UNL     1      28.632 -28.358  35.374  1.00  0.00     0.051 A 
ATOM     12  C   UNL     1      28.114 -28.513  34.092  1.00  0.00     0.165 A 
ATOM     13  O   UNL     1      26.665 -28.283  32.406  1.00  0.00    -0.454 OA
ATOM     14  O   UNL     1      28.665 -29.186  33.018  1.00  0.00    -0.454 OA
ATOM     15  C   UNL     1      27.762 -29.063  31.909  1.00  0.00     0.468 C 
ENDBRANCH   6   7
ENDBRANCH   2   6
BRANCH   3  16
ATOM     16  C   UNL     1      26.935 -26.867  39.995  1.00  0.00     0.044 C 
BRANCH  16  17
ATOM     17  C   UNL     1      26.029 -28.046  39.746  1.00  0.00    -0.044 A 
ATOM     18  C   UNL     1      24.674 -28.006  40.142  1.00  0.00     0.054 A 
ATOM     19  C   UNL     1      26.533 -29.199  39.089  1.00  0.00     0.008 A 
ATOM     20  C   UNL     1      23.879 -29.114  39.868  1.00  0.00     0.166 A 
ATOM     21  C   UNL     1      25.694 -30.299  38.831  1.00  0.00     0.051 A 
ATOM     22  C   UNL     1      24.367 -30.213  39.240  1.00  0.00     0.165 A 
ATOM     23  O   UNL     1      22.541 -29.306  40.156  1.00  0.00    -0.454 OA
ATOM     24  O   UNL     1      23.362 -31.149  39.101  1.00  0.00    -0.454 OA
ATOM     25  C   UNL     1      22.166 -30.605  39.678  1.00  0.00     0.468 C 
ENDBRANCH  16  17
ENDBRANCH   3  16
BRANCH   4  26
ATOM     26  O   UNL     1      28.208 -24.393  40.442  1.00  0.00    -0.368 OA
ATOM     27  H   UNL     1      28.585 -23.479  40.528  1.00  0.00     0.213 HD
ENDBRANCH   4  26
TORSDOF 5
ENDMDL
MODEL 3
REMARK VINA RESULT:    -6.986      6.952     11.545
REMARK INTER + INTRA:         -10.766
REMARK INTER:                  -8.783
REMARK INTRA:                  -1.983
REMARK UNBOUND:                -1.942
REMARK SMILES O[C@H]1OC[C@H](Cc2ccc3c(c2)OCO3)[C@H]1Cc1ccc2c(c1)OCO2
REMARK SMILES IDX 4 1 5 2 16 3 2 4 3 5 6 6 7 7 12 8 8 9 11 10 9 11 10 12 13 13
REMARK SMILES IDX 15 14 14 15 17 16 18 17 23 18 19 19 22 20 20 21 21 22 24 23
REMARK SMILES IDX 26 24 25 25 1 26
REMARK H PARENT 1 27
REMARK Flexibility Score: inf
ROOT
ATOM      1  C   UNL     1      25.886 -28.765  32.919  1.00  0.00     0.168 C 
ATOM      2  C   UNL     1      25.819 -28.912  34.436  1.00  0.00     0.028 C 
ATOM      3  C   UNL     1      27.159 -28.362  34.865  1.00  0.00     0.055 C 
ATOM      4  C   UNL     1      28.043 -28.702  33.659  1.00  0.00     0.250 C 
ATOM      5  O   UNL     1      27.235 -28.750  32.503  1.00  0.00    -0.352 OA
ENDROOT
BRANCH   2   6
ATOM      6  C   UNL     1      24.628 -28.163  35.068  1.00  0.00     0.042 C 
BRANCH   6   7
ATOM      7  C   UNL     1      24.133 -28.869  36.304  1.00  0.00    -0.044 A 
ATOM      8  C   UNL     1      23.518 -28.139  37.346  1.00  0.00     0.054 A 
ATOM      9  C   UNL     1      24.243 -30.280  36.406  1.00  0.00     0.008 A 
ATOM     10  C   UNL     1      23.051 -28.844  38.451  1.00  0.00     0.166 A 
ATOM     11  C   UNL     1      23.757 -30.954  37.542  1.00  0.00     0.051 A 
ATOM     12  C   UNL     1      23.166 -30.193  38.545  1.00  0.00     0.165 A 
ATOM     13  O   UNL     1      22.423 -28.356  39.580  1.00  0.00    -0.454 OA
ATOM     14  O   UNL     1      22.617 -30.620  39.739  1.00  0.00    -0.454 OA
ATOM     15  C   UNL     1      22.127 -29.467  40.438  1.00  0.00     0.468 C 
ENDBRANCH   6   7
ENDBRANCH   2   6
BRANCH   3  16
ATOM     16  C   UNL     1      27.646 -28.926  36.221  1.00  0.00     0.044 C 
BRANCH  16  17
ATOM     17  C   UNL     1      27.364 -27.967  37.349  1.00  0.00    -0.044 A 
ATOM     18  C   UNL     1      27.523 -26.575  37.163  1.00  0.00     0.054 A 
ATOM     19  C   UNL     1      26.915 -28.459  38.602  1.00  0.00     0.008 A 
ATOM     20  C   UNL     1      27.228 -25.735  38.232  1.00  0.00     0.166 A 
ATOM     21  C   UNL     1      26.628 -27.574  39.658  1.00  0.00     0.051 A 
ATOM     22  C   UNL     1      26.800 -26.213  39.427  1.00  0.00     0.165 A 
ATOM     23  O   UNL     1      27.305 -24.356  38.289  1.00  0.00    -0.454 OA
ATOM     24  O   UNL     1      26.585 -25.160  40.295  1.00  0.00    -0.454 OA
ATOM     25  C   UNL     1      26.899 -23.943  39.601  1.00  0.00     0.468 C 
ENDBRANCH  16  17
ENDBRANCH   3  16
BRANCH   4  26
ATOM     26  O   UNL     1      28.716 -29.928  33.814  1.00  0.00    -0.368 OA
ATOM     27  H   UNL     1      28.116 -30.535  34.321  1.00  0.00     0.213 HD
ENDBRANCH   4  26
TORSDOF 5
ENDMDL
MODEL 4
REMARK VINA RESULT:    -6.874      6.522     11.274
REMARK INTER + INTRA:         -10.625
REMARK INTER:                  -9.182
REMARK INTRA:                  -1.443
REMARK UNBOUND:                -1.942
REMARK SMILES O[C@H]1OC[C@H](Cc2ccc3c(c2)OCO3)[C@H]1Cc1ccc2c(c1)OCO2
REMARK SMILES IDX 4 1 5 2 16 3 2 4 3 5 6 6 7 7 12 8 8 9 11 10 9 11 10 12 13 13
REMARK SMILES IDX 15 14 14 15 17 16 18 17 23 18 19 19 22 20 20 21 21 22 24 23
REMARK SMILES IDX 26 24 25 25 1 26
REMARK H PARENT 1 27
REMARK Flexibility Score: inf
ROOT
ATOM      1  C   UNL     1      27.289 -25.660  39.926  1.00  0.00     0.168 C 
ATOM      2  C   UNL     1      26.519 -26.722  39.144  1.00  0.00     0.028 C 
ATOM      3  C   UNL     1      26.988 -26.472  37.730  1.00  0.00     0.055 C 
ATOM      4  C   UNL     1      27.280 -24.967  37.753  1.00  0.00     0.250 C 
ATOM      5  O   UNL     1      27.625 -24.591  39.069  1.00  0.00    -0.352 OA
ENDROOT
BRANCH   2   6
ATOM      6  C   UNL     1      26.801 -28.159  39.630  1.00  0.00     0.042 C 
BRANCH   6   7
ATOM      7  C   UNL     1      25.581 -29.031  39.488  1.00  0.00    -0.044 A 
ATOM      8  C   UNL     1      24.373 -28.680  40.131  1.00  0.00     0.054 A 
ATOM      9  C   UNL     1      25.629 -30.188  38.667  1.00  0.00     0.008 A 
ATOM     10  C   UNL     1      23.268 -29.504  39.940  1.00  0.00     0.166 A 
ATOM     11  C   UNL     1      24.487 -30.994  38.501  1.00  0.00     0.051 A 
ATOM     12  C   UNL     1      23.322 -30.613  39.160  1.00  0.00     0.165 A 
ATOM     13  O   UNL     1      21.995 -29.370  40.460  1.00  0.00    -0.454 OA
ATOM     14  O   UNL     1      22.087 -31.232  39.151  1.00  0.00    -0.454 OA
ATOM     15  C   UNL     1      21.201 -30.463  39.977  1.00  0.00     0.468 C 
ENDBRANCH   6   7
ENDBRANCH   2   6
BRANCH   3  16
ATOM     16  C   UNL     1      25.972 -26.932  36.658  1.00  0.00     0.044 C 
BRANCH  16  17
ATOM     17  C   UNL     1      26.660 -27.627  35.510  1.00  0.00    -0.044 A 
ATOM     18  C   UNL     1      26.274 -27.362  34.177  1.00  0.00     0.054 A 
ATOM     19  C   UNL     1      27.717 -28.538  35.766  1.00  0.00     0.008 A 
ATOM     20  C   UNL     1      26.957 -28.016  33.156  1.00  0.00     0.166 A 
ATOM     21  C   UNL     1      28.382 -29.179  34.703  1.00  0.00     0.051 A 
ATOM     22  C   UNL     1      27.967 -28.886  33.408  1.00  0.00     0.165 A 
ATOM     23  O   UNL     1      26.762 -27.919  31.792  1.00  0.00    -0.454 OA
ATOM     24  O   UNL     1      28.458 -29.380  32.215  1.00  0.00    -0.454 OA
ATOM     25  C   UNL     1      27.709 -28.782  31.147  1.00  0.00     0.468 C 
ENDBRANCH  16  17
ENDBRANCH   3  16
BRANCH   4  26
ATOM     26  O   UNL     1      26.184 -24.200  37.316  1.00  0.00    -0.368 OA
ATOM     27  H   UNL     1      26.538 -23.489  36.720  1.00  0.00     0.213 HD
ENDBRANCH   4  26
TORSDOF 5
ENDMDL
MODEL 5
REMARK VINA RESULT:    -6.865      1.638      2.478
REMARK INTER + INTRA:         -10.613
REMARK INTER:                  -9.314
REMARK INTRA:                  -1.299
REMARK UNBOUND:                -1.942
REMARK SMILES O[C@H]1OC[C@H](Cc2ccc3c(c2)OCO3)[C@H]1Cc1ccc2c(c1)OCO2
REMARK SMILES IDX 4 1 5 2 16 3 2 4 3 5 6 6 7 7 12 8 8 9 11 10 9 11 10 12 13 13
REMARK SMILES IDX 15 14 14 15 17 16 18 17 23 18 19 19 22 20 20 21 21 22 24 23
REMARK SMILES IDX 26 24 25 25 1 26
REMARK H PARENT 1 27
REMARK Flexibility Score: inf
ROOT
ATOM      1  C   UNL     1      28.068 -27.090  28.367  1.00  0.00     0.168 C 
ATOM      2  C   UNL     1      26.896 -26.198  28.768  1.00  0.00     0.028 C 
ATOM      3  C   UNL     1      26.553 -26.727  30.141  1.00  0.00     0.055 C 
ATOM      4  C   UNL     1      26.962 -28.201  30.025  1.00  0.00     0.250 C 
ATOM      5  O   UNL     1      27.996 -28.312  29.071  1.00  0.00    -0.352 OA
ENDROOT
BRANCH   2   6
ATOM      6  C   UNL     1      27.247 -24.696  28.769  1.00  0.00     0.042 C 
BRANCH   6   7
ATOM      7  C   UNL     1      26.733 -24.015  27.528  1.00  0.00    -0.044 A 
ATOM      8  C   UNL     1      26.543 -24.750  26.336  1.00  0.00     0.054 A 
ATOM      9  C   UNL     1      26.394 -22.637  27.564  1.00  0.00     0.008 A 
ATOM     10  C   UNL     1      26.035 -24.079  25.228  1.00  0.00     0.166 A 
ATOM     11  C   UNL     1      25.883 -21.997  26.420  1.00  0.00     0.051 A 
ATOM     12  C   UNL     1      25.719 -22.760  25.268  1.00  0.00     0.165 A 
ATOM     13  O   UNL     1      25.767 -24.578  23.968  1.00  0.00    -0.454 OA
ATOM     14  O   UNL     1      25.239 -22.363  24.035  1.00  0.00    -0.454 OA
ATOM     15  C   UNL     1      25.253 -23.505  23.166  1.00  0.00     0.468 C 
ENDBRANCH   6   7
ENDBRANCH   2   6
BRANCH   3  16
ATOM     16  C   UNL     1      25.080 -26.480  30.543  1.00  0.00     0.044 C 
BRANCH  16  17
ATOM     17  C   UNL     1      24.320 -25.783  29.443  1.00  0.00    -0.044 A 
ATOM     18  C   UNL     1      24.058 -26.445  28.222  1.00  0.00     0.054 A 
ATOM     19  C   UNL     1      23.842 -24.461  29.639  1.00  0.00     0.008 A 
ATOM     20  C   UNL     1      23.333 -25.762  27.251  1.00  0.00     0.166 A 
ATOM     21  C   UNL     1      23.113 -23.807  28.629  1.00  0.00     0.051 A 
ATOM     22  C   UNL     1      22.881 -24.498  27.445  1.00  0.00     0.165 A 
ATOM     23  O   UNL     1      22.958 -26.197  25.994  1.00  0.00    -0.454 OA
ATOM     24  O   UNL     1      22.198 -24.075  26.322  1.00  0.00    -0.454 OA
ATOM     25  C   UNL     1      22.223 -25.141  25.360  1.00  0.00     0.468 C 
ENDBRANCH  16  17
ENDBRANCH   3  16
BRANCH   4  26
ATOM     26  O   UNL     1      25.887 -29.029  29.653  1.00  0.00    -0.368 OA
ATOM     27  H   UNL     1      26.270 -29.894  29.350  1.00  0.00     0.213 HD
ENDBRANCH   4  26
TORSDOF 5
ENDMDL
MODEL 6
REMARK VINA RESULT:    -6.819      5.959     10.665
REMARK INTER + INTRA:         -10.556
REMARK INTER:                  -9.090
REMARK INTRA:                  -1.465
REMARK UNBOUND:                -1.942
REMARK SMILES O[C@H]1OC[C@H](Cc2ccc3c(c2)OCO3)[C@H]1Cc1ccc2c(c1)OCO2
REMARK SMILES IDX 4 1 5 2 16 3 2 4 3 5 6 6 7 7 12 8 8 9 11 10 9 11 10 12 13 13
REMARK SMILES IDX 15 14 14 15 17 16 18 17 23 18 19 19 22 20 20 21 21 22 24 23
REMARK SMILES IDX 26 24 25 25 1 26
REMARK H PARENT 1 27
REMARK Flexibility Score: inf
ROOT
ATOM      1  C   UNL     1      25.709 -28.633  31.700  1.00  0.00     0.168 C 
ATOM      2  C   UNL     1      25.884 -29.101  33.143  1.00  0.00     0.028 C 
ATOM      3  C   UNL     1      27.199 -28.463  33.523  1.00  0.00     0.055 C 
ATOM      4  C   UNL     1      27.929 -28.413  32.175  1.00  0.00     0.250 C 
ATOM      5  O   UNL     1      26.971 -28.337  31.142  1.00  0.00    -0.352 OA
ENDROOT
BRANCH   2   6
ATOM      6  C   UNL     1      24.719 -28.681  34.063  1.00  0.00     0.042 C 
BRANCH   6   7
ATOM      7  C   UNL     1      23.909 -29.874  34.496  1.00  0.00    -0.044 A 
ATOM      8  C   UNL     1      23.357 -30.750  33.535  1.00  0.00     0.054 A 
ATOM      9  C   UNL     1      23.735 -30.149  35.878  1.00  0.00     0.008 A 
ATOM     10  C   UNL     1      22.644 -31.855  33.990  1.00  0.00     0.166 A 
ATOM     11  C   UNL     1      23.006 -31.278  36.295  1.00  0.00     0.051 A 
ATOM     12  C   UNL     1      22.475 -32.107  35.312  1.00  0.00     0.165 A 
ATOM     13  O   UNL     1      22.018 -32.839  33.250  1.00  0.00    -0.454 OA
ATOM     14  O   UNL     1      21.734 -33.263  35.470  1.00  0.00    -0.454 OA
ATOM     15  C   UNL     1      21.418 -33.767  34.164  1.00  0.00     0.468 C 
ENDBRANCH   6   7
ENDBRANCH   2   6
BRANCH   3  16
ATOM     16  C   UNL     1      27.943 -29.218  34.649  1.00  0.00     0.044 C 
BRANCH  16  17
ATOM     17  C   UNL     1      27.608 -28.651  36.006  1.00  0.00    -0.044 A 
ATOM     18  C   UNL     1      27.754 -27.269  36.261  1.00  0.00     0.054 A 
ATOM     19  C   UNL     1      27.122 -29.505  37.029  1.00  0.00     0.008 A 
ATOM     20  C   UNL     1      27.411 -26.798  37.524  1.00  0.00     0.166 A 
ATOM     21  C   UNL     1      26.786 -28.987  38.294  1.00  0.00     0.051 A 
ATOM     22  C   UNL     1      26.947 -27.620  38.499  1.00  0.00     0.165 A 
ATOM     23  O   UNL     1      27.467 -25.503  38.004  1.00  0.00    -0.454 OA
ATOM     24  O   UNL     1      26.688 -26.885  39.638  1.00  0.00    -0.454 OA
ATOM     25  C   UNL     1      27.009 -25.513  39.363  1.00  0.00     0.468 C 
ENDBRANCH  16  17
ENDBRANCH   3  16
BRANCH   4  26
ATOM     26  O   UNL     1      28.756 -29.532  31.969  1.00  0.00    -0.368 OA
ATOM     27  H   UNL     1      28.402 -30.270  32.531  1.00  0.00     0.213 HD
ENDBRANCH   4  26
TORSDOF 5
ENDMDL
MODEL 7
REMARK VINA RESULT:    -6.810      6.610     10.153
REMARK INTER + INTRA:         -10.543
REMARK INTER:                  -9.023
REMARK INTRA:                  -1.520
REMARK UNBOUND:                -1.942
REMARK SMILES O[C@H]1OC[C@H](Cc2ccc3c(c2)OCO3)[C@H]1Cc1ccc2c(c1)OCO2
REMARK SMILES IDX 4 1 5 2 16 3 2 4 3 5 6 6 7 7 12 8 8 9 11 10 9 11 10 12 13 13
REMARK SMILES IDX 15 14 14 15 17 16 18 17 23 18 19 19 22 20 20 21 21 22 24 23
REMARK SMILES IDX 26 24 25 25 1 26
REMARK H PARENT 1 27
REMARK Flexibility Score: inf
ROOT
ATOM      1  C   UNL     1      26.161 -26.912  39.876  1.00  0.00     0.168 C 
ATOM      2  C   UNL     1      26.260 -27.810  38.646  1.00  0.00     0.028 C 
ATOM      3  C   UNL     1      25.233 -28.876  38.951  1.00  0.00     0.055 C 
ATOM      4  C   UNL     1      25.270 -28.922  40.483  1.00  0.00     0.250 C 
ATOM      5  O   UNL     1      25.662 -27.655  40.967  1.00  0.00    -0.352 OA
ENDROOT
BRANCH   2   6
ATOM      6  C   UNL     1      25.983 -27.065  37.324  1.00  0.00     0.042 C 
BRANCH   6   7
ATOM      7  C   UNL     1      26.771 -27.659  36.187  1.00  0.00    -0.044 A 
ATOM      8  C   UNL     1      26.293 -27.565  34.860  1.00  0.00     0.054 A 
ATOM      9  C   UNL     1      28.023 -28.279  36.439  1.00  0.00     0.008 A 
ATOM     10  C   UNL     1      27.077 -28.103  33.843  1.00  0.00     0.166 A 
ATOM     11  C   UNL     1      28.783 -28.810  35.381  1.00  0.00     0.051 A 
ATOM     12  C   UNL     1      28.269 -28.701  34.093  1.00  0.00     0.165 A 
ATOM     13  O   UNL     1      26.823 -28.134  32.486  1.00  0.00    -0.454 OA
ATOM     14  O   UNL     1      28.824 -29.137  32.906  1.00  0.00    -0.454 OA
ATOM     15  C   UNL     1      27.924 -28.792  31.843  1.00  0.00     0.468 C 
ENDBRANCH   6   7
ENDBRANCH   2   6
BRANCH   3  16
ATOM     16  C   UNL     1      25.519 -30.221  38.243  1.00  0.00     0.044 C 
BRANCH  16  17
ATOM     17  C   UNL     1      24.342 -30.667  37.413  1.00  0.00    -0.044 A 
ATOM     18  C   UNL     1      23.834 -31.980  37.536  1.00  0.00     0.054 A 
ATOM     19  C   UNL     1      23.722 -29.757  36.517  1.00  0.00     0.008 A 
ATOM     20  C   UNL     1      22.733 -32.330  36.761  1.00  0.00     0.166 A 
ATOM     21  C   UNL     1      22.610 -30.153  35.751  1.00  0.00     0.051 A 
ATOM     22  C   UNL     1      22.146 -31.455  35.905  1.00  0.00     0.165 A 
ATOM     23  O   UNL     1      22.067 -33.540  36.709  1.00  0.00    -0.454 OA
ATOM     24  O   UNL     1      21.083 -32.070  35.274  1.00  0.00    -0.454 OA
ATOM     25  C   UNL     1      20.996 -33.417  35.764  1.00  0.00     0.468 C 
ENDBRANCH  16  17
ENDBRANCH   3  16
BRANCH   4  26
ATOM     26  O   UNL     1      26.149 -29.905  40.971  1.00  0.00    -0.368 OA
ATOM     27  H   UNL     1      26.813 -29.449  41.551  1.00  0.00     0.213 HD
ENDBRANCH   4  26
TORSDOF 5
ENDMDL
MODEL 8
REMARK VINA RESULT:    -6.797      3.116      6.492
REMARK INTER + INTRA:         -10.527
REMARK INTER:                  -9.287
REMARK INTRA:                  -1.241
REMARK UNBOUND:                -1.942
REMARK SMILES O[C@H]1OC[C@H](Cc2ccc3c(c2)OCO3)[C@H]1Cc1ccc2c(c1)OCO2
REMARK SMILES IDX 4 1 5 2 16 3 2 4 3 5 6 6 7 7 12 8 8 9 11 10 9 11 10 12 13 13
REMARK SMILES IDX 15 14 14 15 17 16 18 17 23 18 19 19 22 20 20 21 21 22 24 23
REMARK SMILES IDX 26 24 25 25 1 26
REMARK H PARENT 1 27
REMARK Flexibility Score: inf
ROOT
ATOM      1  C   UNL     1      25.013 -23.345  23.077  1.00  0.00     0.168 C 
ATOM      2  C   UNL     1      25.125 -23.182  24.591  1.00  0.00     0.028 C 
ATOM      3  C   UNL     1      25.320 -24.610  25.047  1.00  0.00     0.055 C 
ATOM      4  C   UNL     1      24.557 -25.393  23.972  1.00  0.00     0.250 C 
ATOM      5  O   UNL     1      24.571 -24.650  22.772  1.00  0.00    -0.352 OA
ENDROOT
BRANCH   2   6
ATOM      6  C   UNL     1      26.275 -22.248  25.020  1.00  0.00     0.042 C 
BRANCH   6   7
ATOM      7  C   UNL     1      25.774 -21.134  25.900  1.00  0.00    -0.044 A 
ATOM      8  C   UNL     1      25.930 -21.207  27.303  1.00  0.00     0.054 A 
ATOM      9  C   UNL     1      25.182 -19.983  25.319  1.00  0.00     0.008 A 
ATOM     10  C   UNL     1      25.477 -20.136  28.068  1.00  0.00     0.166 A 
ATOM     11  C   UNL     1      24.737 -18.922  26.130  1.00  0.00     0.051 A 
ATOM     12  C   UNL     1      24.905 -19.042  27.506  1.00  0.00     0.165 A 
ATOM     13  O   UNL     1      25.518 -19.981  29.440  1.00  0.00    -0.454 OA
ATOM     14  O   UNL     1      24.557 -18.144  28.497  1.00  0.00    -0.454 OA
ATOM     15  C   UNL     1      24.935 -18.710  29.760  1.00  0.00     0.468 C 
ENDBRANCH   6   7
ENDBRANCH   2   6
BRANCH   3  16
ATOM     16  C   UNL     1      24.852 -24.857  26.501  1.00  0.00     0.044 C 
BRANCH  16  17
ATOM     17  C   UNL     1      25.835 -25.715  27.256  1.00  0.00    -0.044 A 
ATOM     18  C   UNL     1      25.385 -26.807  28.031  1.00  0.00     0.054 A 
ATOM     19  C   UNL     1      27.225 -25.440  27.173  1.00  0.00     0.008 A 
ATOM     20  C   UNL     1      26.338 -27.578  28.690  1.00  0.00     0.166 A 
ATOM     21  C   UNL     1      28.156 -26.245  27.857  1.00  0.00     0.051 A 
ATOM     22  C   UNL     1      27.665 -27.309  28.607  1.00  0.00     0.165 A 
ATOM     23  O   UNL     1      26.143 -28.683  29.497  1.00  0.00    -0.454 OA
ATOM     24  O   UNL     1      28.370 -28.230  29.356  1.00  0.00    -0.454 OA
ATOM     25  C   UNL     1      27.427 -29.136  29.947  1.00  0.00     0.468 C 
ENDBRANCH  16  17
ENDBRANCH   3  16
BRANCH   4  26
ATOM     26  O   UNL     1      23.228 -25.663  24.343  1.00  0.00    -0.368 OA
ATOM     27  H   UNL     1      23.254 -26.154  25.206  1.00  0.00     0.213 HD
ENDBRANCH   4  26
TORSDOF 5
ENDMDL
MODEL 9
REMARK VINA RESULT:    -6.769      6.632     10.790
REMARK INTER + INTRA:         -10.492
REMARK INTER:                  -9.294
REMARK INTRA:                  -1.198
REMARK UNBOUND:                -1.942
REMARK SMILES O[C@H]1OC[C@H](Cc2ccc3c(c2)OCO3)[C@H]1Cc1ccc2c(c1)OCO2
REMARK SMILES IDX 4 1 5 2 16 3 2 4 3 5 6 6 7 7 12 8 8 9 11 10 9 11 10 12 13 13
REMARK SMILES IDX 15 14 14 15 17 16 18 17 23 18 19 19 22 20 20 21 21 22 24 23
REMARK SMILES IDX 26 24 25 25 1 26
REMARK H PARENT 1 27
REMARK Flexibility Score: inf
ROOT
ATOM      1  C   UNL     1      22.967 -29.625  39.292  1.00  0.00     0.168 C 
ATOM      2  C   UNL     1      24.178 -28.795  38.876  1.00  0.00     0.028 C 
ATOM      3  C   UNL     1      24.960 -29.777  38.036  1.00  0.00     0.055 C 
ATOM      4  C   UNL     1      24.581 -31.117  38.678  1.00  0.00     0.250 C 
ATOM      5  O   UNL     1      23.298 -30.997  39.255  1.00  0.00    -0.352 OA
ENDROOT
BRANCH   2   6
ATOM      6  C   UNL     1      23.801 -27.510  38.110  1.00  0.00     0.042 C 
BRANCH   6   7
ATOM      7  C   UNL     1      24.644 -26.343  38.553  1.00  0.00    -0.044 A 
ATOM      8  C   UNL     1      25.779 -26.551  39.369  1.00  0.00     0.054 A 
ATOM      9  C   UNL     1      24.326 -25.032  38.114  1.00  0.00     0.008 A 
ATOM     10  C   UNL     1      26.541 -25.442  39.723  1.00  0.00     0.166 A 
ATOM     11  C   UNL     1      25.124 -23.937  38.496  1.00  0.00     0.051 A 
ATOM     12  C   UNL     1      26.227 -24.190  39.305  1.00  0.00     0.165 A 
ATOM     13  O   UNL     1      27.680 -25.394  40.503  1.00  0.00    -0.454 OA
ATOM     14  O   UNL     1      27.152 -23.292  39.803  1.00  0.00    -0.454 OA
ATOM     15  C   UNL     1      28.107 -24.027  40.582  1.00  0.00     0.468 C 
ENDBRANCH   6   7
ENDBRANCH   2   6
BRANCH   3  16
ATOM     16  C   UNL     1      26.476 -29.473  37.990  1.00  0.00     0.044 C 
BRANCH  16  17
ATOM     17  C   UNL     1      26.943 -29.214  36.580  1.00  0.00    -0.044 A 
ATOM     18  C   UNL     1      26.011 -28.914  35.561  1.00  0.00     0.054 A 
ATOM     19  C   UNL     1      28.328 -29.249  36.275  1.00  0.00     0.008 A 
ATOM     20  C   UNL     1      26.500 -28.663  34.282  1.00  0.00     0.166 A 
ATOM     21  C   UNL     1      28.780 -28.989  34.968  1.00  0.00     0.051 A 
ATOM     22  C   UNL     1      27.826 -28.699  33.998  1.00  0.00     0.165 A 
ATOM     23  O   UNL     1      25.793 -28.351  33.137  1.00  0.00    -0.454 OA
ATOM     24  O   UNL     1      28.019 -28.411  32.661  1.00  0.00    -0.454 OA
ATOM     25  C   UNL     1      26.733 -28.180  32.068  1.00  0.00     0.468 C 
ENDBRANCH  16  17
ENDBRANCH   3  16
BRANCH   4  26
ATOM     26  O   UNL     1      25.502 -31.523  39.660  1.00  0.00    -0.368 OA
ATOM     27  H   UNL     1      26.099 -32.200  39.246  1.00  0.00     0.213 HD
ENDBRANCH   4  26
TORSDOF 5
ENDMDL
