MODEL 1
REMARK VINA RESULT:    -5.082      0.000      0.000
REMARK INTER + INTRA:          -8.305
REMARK INTER:                  -7.755
REMARK INTRA:                  -0.550
REMARK UNBOUND:                -0.550
REMARK SMILES CCCCCCCCCCC(=O)[O-]
REMARK SMILES IDX 7 1 8 2 9 3 10 4 11 5 12 6 13 7 6 8 5 9 4 10 3 11 2 12 1 13
REMARK H PARENT
REMARK Flexibility Score: inf
ROOT
ATOM      1  C   UNL     1     115.152 104.256 113.343  1.00  0.00     0.000 C 
ENDROOT
BRANCH   1   2
ATOM      2  C   UNL     1     115.886 105.529 113.792  1.00  0.00     0.000 C 
BRANCH   2   3
ATOM      3  C   UNL     1     117.209 105.697 113.029  1.00  0.00     0.006 C 
BRANCH   3   4
ATOM      4  C   UNL     1     118.070 104.428 113.074  1.00  0.00     0.053 C 
BRANCH   4   5
ATOM      5  C   UNL     1     119.021 104.443 114.231  1.00  0.00     0.041 C 
ATOM      6  O   UNL     1     119.017 103.503 115.069  1.00  0.00    -0.550 OA
ATOM      7  O   UNL     1     119.891 105.512 114.402  1.00  0.00    -0.550 OA
ENDBRANCH   4   5
ENDBRANCH   3   4
ENDBRANCH   2   3
ENDBRANCH   1   2
BRANCH   1   8
ATOM      8  C   UNL     1     114.408 104.438 112.010  1.00  0.00     0.000 C 
BRANCH   8   9
ATOM      9  C   UNL     1     114.413 103.161 111.152  1.00  0.00    -0.000 C 
BRANCH   9  10
ATOM     10  C   UNL     1     113.605 102.019 111.787  1.00  0.00    -0.000 C 
BRANCH  10  11
ATOM     11  C   UNL     1     112.201 102.458 112.229  1.00  0.00    -0.000 C 
BRANCH  11  12
ATOM     12  C   UNL     1     111.197 102.324 111.078  1.00  0.00    -0.003 C 
ATOM     13  C   UNL     1     110.579 100.930 111.045  1.00  0.00     0.004 C 
ENDBRANCH  11  12
ENDBRANCH  10  11
ENDBRANCH   9  10
ENDBRANCH   8   9
ENDBRANCH   1   8
TORSDOF 9
ENDMDL
MODEL 2
REMARK VINA RESULT:    -5.012      3.538      6.751
REMARK INTER + INTRA:          -8.198
REMARK INTER:                  -7.598
REMARK INTRA:                  -0.600
REMARK UNBOUND:                -0.550
REMARK SMILES CCCCCCCCCCC(=O)[O-]
REMARK SMILES IDX 7 1 8 2 9 3 10 4 11 5 12 6 13 7 6 8 5 9 4 10 3 11 2 12 1 13
REMARK H PARENT
REMARK Flexibility Score: inf
ROOT
ATOM      1  C   UNL     1     114.451 104.626 111.828  1.00  0.00     0.000 C 
ENDROOT
BRANCH   1   2
ATOM      2  C   UNL     1     114.432 103.313 111.032  1.00  0.00     0.000 C 
BRANCH   2   3
ATOM      3  C   UNL     1     113.881 102.161 111.887  1.00  0.00     0.006 C 
BRANCH   3   4
ATOM      4  C   UNL     1     112.499 101.694 111.411  1.00  0.00     0.053 C 
BRANCH   4   5
ATOM      5  C   UNL     1     111.400 102.527 111.995  1.00  0.00     0.041 C 
ATOM      6  O   UNL     1     111.282 102.641 113.243  1.00  0.00    -0.550 OA
ATOM      7  O   UNL     1     110.484 103.155 111.159  1.00  0.00    -0.550 OA
ENDBRANCH   4   5
ENDBRANCH   3   4
ENDBRANCH   2   3
ENDBRANCH   1   2
BRANCH   1   8
ATOM      8  C   UNL     1     114.747 104.411 113.322  1.00  0.00     0.000 C 
BRANCH   8   9
ATOM      9  C   UNL     1     116.070 105.060 113.762  1.00  0.00    -0.000 C 
BRANCH   9  10
ATOM     10  C   UNL     1     117.274 104.553 112.953  1.00  0.00    -0.000 C 
BRANCH  10  11
ATOM     11  C   UNL     1     118.541 104.393 113.808  1.00  0.00    -0.000 C 
BRANCH  11  12
ATOM     12  C   UNL     1     119.481 105.589 113.623  1.00  0.00    -0.003 C 
ATOM     13  C   UNL     1     119.225 106.292 112.293  1.00  0.00     0.004 C 
ENDBRANCH  11  12
ENDBRANCH  10  11
ENDBRANCH   9  10
ENDBRANCH   8   9
ENDBRANCH   1   8
TORSDOF 9
ENDMDL
MODEL 3
REMARK VINA RESULT:    -4.526      0.678      1.349
REMARK INTER + INTRA:          -7.458
REMARK INTER:                  -6.809
REMARK INTRA:                  -0.648
REMARK UNBOUND:                -0.550
REMARK SMILES CCCCCCCCCCC(=O)[O-]
REMARK SMILES IDX 7 1 8 2 9 3 10 4 11 5 12 6 13 7 6 8 5 9 4 10 3 11 2 12 1 13
REMARK H PARENT
REMARK Flexibility Score: inf
ROOT
ATOM      1  C   UNL     1     114.525 104.918 111.628  1.00  0.00     0.000 C 
ENDROOT
BRANCH   1   2
ATOM      2  C   UNL     1     114.854 104.749 113.119  1.00  0.00     0.000 C 
BRANCH   2   3
ATOM      3  C   UNL     1     116.216 105.377 113.454  1.00  0.00     0.006 C 
BRANCH   3   4
ATOM      4  C   UNL     1     117.386 104.573 112.871  1.00  0.00     0.053 C 
BRANCH   4   5
ATOM      5  C   UNL     1     118.645 104.779 113.655  1.00  0.00     0.041 C 
ATOM      6  O   UNL     1     119.404 105.750 113.396  1.00  0.00    -0.550 OA
ATOM      7  O   UNL     1     118.998 103.878 114.652  1.00  0.00    -0.550 OA
ENDBRANCH   4   5
ENDBRANCH   3   4
ENDBRANCH   2   3
ENDBRANCH   1   2
BRANCH   1   8
ATOM      8  C   UNL     1     114.385 103.575 110.894  1.00  0.00     0.000 C 
BRANCH   8   9
ATOM      9  C   UNL     1     114.448 102.370 111.849  1.00  0.00    -0.000 C 
BRANCH   9  10
ATOM     10  C   UNL     1     113.103 101.635 111.961  1.00  0.00    -0.000 C 
BRANCH  10  11
ATOM     11  C   UNL     1     111.926 102.584 112.232  1.00  0.00    -0.000 C 
BRANCH  11  12
ATOM     12  C   UNL     1     110.796 102.360 111.221  1.00  0.00    -0.003 C 
ATOM     13  C   UNL     1     110.484 100.875 111.064  1.00  0.00     0.004 C 
ENDBRANCH  11  12
ENDBRANCH  10  11
ENDBRANCH   9  10
ENDBRANCH   8   9
ENDBRANCH   1   8
TORSDOF 9
ENDMDL
MODEL 4
REMARK VINA RESULT:    -3.926      2.679      3.836
REMARK INTER + INTRA:          -6.541
REMARK INTER:                  -6.172
REMARK INTRA:                  -0.369
REMARK UNBOUND:                -0.550
REMARK SMILES CCCCCCCCCCC(=O)[O-]
REMARK SMILES IDX 7 1 8 2 9 3 10 4 11 5 12 6 13 7 6 8 5 9 4 10 3 11 2 12 1 13
REMARK H PARENT
REMARK Flexibility Score: inf
ROOT
ATOM      1  C   UNL     1     112.992 102.174 111.462  1.00  0.00     0.000 C 
ENDROOT
BRANCH   1   2
ATOM      2  C   UNL     1     113.891 102.866 112.497  1.00  0.00     0.000 C 
BRANCH   2   3
ATOM      3  C   UNL     1     114.573 104.103 111.892  1.00  0.00     0.006 C 
BRANCH   3   4
ATOM      4  C   UNL     1     116.103 103.988 111.908  1.00  0.00     0.053 C 
BRANCH   4   5
ATOM      5  C   UNL     1     116.701 104.711 113.076  1.00  0.00     0.041 C 
ATOM      6  O   UNL     1     115.983 105.444 113.806  1.00  0.00    -0.550 OA
ATOM      7  O   UNL     1     118.061 104.599 113.340  1.00  0.00    -0.550 OA
ENDBRANCH   4   5
ENDBRANCH   3   4
ENDBRANCH   2   3
ENDBRANCH   1   2
BRANCH   1   8
ATOM      8  C   UNL     1     111.514 102.140 111.886  1.00  0.00     0.000 C 
BRANCH   8   9
ATOM      9  C   UNL     1     110.589 102.816 110.859  1.00  0.00    -0.000 C 
BRANCH   9  10
ATOM     10  C   UNL     1     110.281 104.278 111.216  1.00  0.00    -0.000 C 
BRANCH  10  11
ATOM     11  C   UNL     1     108.886 104.724 110.750  1.00  0.00    -0.000 C 
BRANCH  11  12
ATOM     12  C   UNL     1     108.644 106.202 111.077  1.00  0.00    -0.003 C 
ATOM     13  C   UNL     1     107.952 106.361 112.427  1.00  0.00     0.004 C 
ENDBRANCH  11  12
ENDBRANCH  10  11
ENDBRANCH   9  10
ENDBRANCH   8   9
ENDBRANCH   1   8
TORSDOF 9
ENDMDL
MODEL 5
REMARK VINA RESULT:    -3.739      4.922      7.495
REMARK INTER + INTRA:          -6.256
REMARK INTER:                  -5.716
REMARK INTRA:                  -0.540
REMARK UNBOUND:                -0.550
REMARK SMILES CCCCCCCCCCC(=O)[O-]
REMARK SMILES IDX 7 1 8 2 9 3 10 4 11 5 12 6 13 7 6 8 5 9 4 10 3 11 2 12 1 13
REMARK H PARENT
REMARK Flexibility Score: inf
ROOT
ATOM      1  C   UNL     1     111.155 101.957 111.435  1.00  0.00     0.000 C 
ENDROOT
BRANCH   1   2
ATOM      2  C   UNL     1     110.377 102.935 110.542  1.00  0.00     0.000 C 
BRANCH   2   3
ATOM      3  C   UNL     1     110.060 104.235 111.299  1.00  0.00     0.006 C 
BRANCH   3   4
ATOM      4  C   UNL     1     108.827 104.951 110.733  1.00  0.00     0.053 C 
BRANCH   4   5
ATOM      5  C   UNL     1     108.523 106.211 111.484  1.00  0.00     0.041 C 
ATOM      6  O   UNL     1     108.927 107.322 111.052  1.00  0.00    -0.550 OA
ATOM      7  O   UNL     1     107.819 106.153 112.681  1.00  0.00    -0.550 OA
ENDBRANCH   4   5
ENDBRANCH   3   4
ENDBRANCH   2   3
ENDBRANCH   1   2
BRANCH   1   8
ATOM      8  C   UNL     1     112.184 102.663 112.333  1.00  0.00     0.000 C 
BRANCH   8   9
ATOM      9  C   UNL     1     113.624 102.188 112.068  1.00  0.00    -0.000 C 
BRANCH   9  10
ATOM     10  C   UNL     1     114.505 103.288 111.458  1.00  0.00    -0.000 C 
BRANCH  10  11
ATOM     11  C   UNL     1     114.495 104.585 112.283  1.00  0.00    -0.000 C 
BRANCH  11  12
ATOM     12  C   UNL     1     115.757 104.695 113.146  1.00  0.00    -0.003 C 
ATOM     13  C   UNL     1     116.996 104.265 112.369  1.00  0.00     0.004 C 
ENDBRANCH  11  12
ENDBRANCH  10  11
ENDBRANCH   9  10
ENDBRANCH   8   9
ENDBRANCH   1   8
TORSDOF 9
ENDMDL
MODEL 6
REMARK VINA RESULT:    -3.531      3.305      4.747
REMARK INTER + INTRA:          -5.939
REMARK INTER:                  -5.585
REMARK INTRA:                  -0.353
REMARK UNBOUND:                -0.550
REMARK SMILES CCCCCCCCCCC(=O)[O-]
REMARK SMILES IDX 7 1 8 2 9 3 10 4 11 5 12 6 13 7 6 8 5 9 4 10 3 11 2 12 1 13
REMARK H PARENT
REMARK Flexibility Score: inf
ROOT
ATOM      1  C   UNL     1     111.511 102.428 112.064  1.00  0.00     0.000 C 
ENDROOT
BRANCH   1   2
ATOM      2  C   UNL     1     112.924 102.320 111.473  1.00  0.00     0.000 C 
BRANCH   2   3
ATOM      3  C   UNL     1     113.970 102.880 112.449  1.00  0.00     0.006 C 
BRANCH   3   4
ATOM      4  C   UNL     1     114.808 104.003 111.822  1.00  0.00     0.053 C 
BRANCH   4   5
ATOM      5  C   UNL     1     115.925 104.431 112.723  1.00  0.00     0.041 C 
ATOM      6  O   UNL     1     115.681 105.075 113.777  1.00  0.00    -0.550 OA
ATOM      7  O   UNL     1     117.241 104.145 112.381  1.00  0.00    -0.550 OA
ENDBRANCH   4   5
ENDBRANCH   3   4
ENDBRANCH   2   3
ENDBRANCH   1   2
BRANCH   1   8
ATOM      8  C   UNL     1     110.495 103.020 111.073  1.00  0.00     0.000 C 
BRANCH   8   9
ATOM      9  C   UNL     1     110.088 104.460 111.433  1.00  0.00    -0.000 C 
BRANCH   9  10
ATOM     10  C   UNL     1     108.856 104.938 110.650  1.00  0.00    -0.000 C 
BRANCH  10  11
ATOM     11  C   UNL     1     108.379 106.333 111.084  1.00  0.00    -0.000 C 
BRANCH  11  12
ATOM     12  C   UNL     1     108.196 106.400 112.605  1.00  0.00    -0.003 C 
ATOM     13  C   UNL     1     106.718 106.450 112.980  1.00  0.00     0.004 C 
ENDBRANCH  11  12
ENDBRANCH  10  11
ENDBRANCH   9  10
ENDBRANCH   8   9
ENDBRANCH   1   8
TORSDOF 9
ENDMDL
MODEL 7
REMARK VINA RESULT:    -2.375      7.013      9.120
REMARK INTER + INTRA:          -4.174
REMARK INTER:                  -3.801
REMARK INTRA:                  -0.373
REMARK UNBOUND:                -0.550
REMARK SMILES CCCCCCCCCCC(=O)[O-]
REMARK SMILES IDX 7 1 8 2 9 3 10 4 11 5 12 6 13 7 6 8 5 9 4 10 3 11 2 12 1 13
REMARK H PARENT
REMARK Flexibility Score: inf
ROOT
ATOM      1  C   UNL     1     109.198 106.007 111.141  1.00  0.00     0.000 C 
ENDROOT
BRANCH   1   2
ATOM      2  C   UNL     1     107.980 106.850 111.545  1.00  0.00     0.000 C 
BRANCH   2   3
ATOM      3  C   UNL     1     107.590 106.584 113.007  1.00  0.00     0.006 C 
BRANCH   3   4
ATOM      4  C   UNL     1     106.320 105.731 113.123  1.00  0.00     0.053 C 
BRANCH   4   5
ATOM      5  C   UNL     1     105.200 106.488 113.769  1.00  0.00     0.041 C 
ATOM      6  O   UNL     1     105.445 107.482 114.503  1.00  0.00    -0.550 OA
ATOM      7  O   UNL     1     103.886 106.076 113.585  1.00  0.00    -0.550 OA
ENDBRANCH   4   5
ENDBRANCH   3   4
ENDBRANCH   2   3
ENDBRANCH   1   2
BRANCH   1   8
ATOM      8  C   UNL     1     108.828 104.555 110.794  1.00  0.00     0.000 C 
BRANCH   8   9
ATOM      9  C   UNL     1     110.052 103.711 110.400  1.00  0.00    -0.000 C 
BRANCH   9  10
ATOM     10  C   UNL     1     110.774 103.113 111.617  1.00  0.00    -0.000 C 
BRANCH  10  11
ATOM     11  C   UNL     1     111.576 101.849 111.273  1.00  0.00    -0.000 C 
BRANCH  11  12
ATOM     12  C   UNL     1     112.999 101.930 111.838  1.00  0.00    -0.003 C 
ATOM     13  C   UNL     1     113.504 103.369 111.852  1.00  0.00     0.004 C 
ENDBRANCH  11  12
ENDBRANCH  10  11
ENDBRANCH   9  10
ENDBRANCH   8   9
ENDBRANCH   1   8
TORSDOF 9
ENDMDL
