MODEL 1
REMARK VINA RESULT:    33.002      0.000      0.000
REMARK INTER + INTRA:          81.328
REMARK INTER:                  78.341
REMARK INTRA:                   2.986
REMARK UNBOUND:                 2.986
REMARK SMILES O=C(OC[C@@H]1O[C@@H](OC(=O)c2cc(O)c(O)c(O)c2)[C@@H](OC(=O)c2cc(O)c(O)c(O)c2)[C@H](OC(=O)c2cc(O)c(O)c(O)c2)[C@@H]1OC(=O)c1cc(O)c(O)c(O)c1)c1cc(O)c(O)c(O)c1
REMARK SMILES IDX 5 1 46 2 33 3 20 4 7 5 6 6 4 7 3 8 2 9 1 10 59 11 60 12
REMARK SMILES IDX 61 13 67 14 63 15 65 16 62 17 64 19 66 21 47 23 48 24 49 25
REMARK SMILES IDX 50 26 58 27 51 28 56 29 52 30 54 31 57 32 53 34 55 36 34 38
REMARK SMILES IDX 35 39 36 40 37 41 45 42 38 43 43 44 39 45 41 46 44 47 40 49
REMARK SMILES IDX 42 51 8 53 9 54 10 55 11 56 19 57 12 58 17 59 13 60 15 61
REMARK SMILES IDX 18 62 14 64 16 66 21 68 22 69 23 70 24 71 32 72 25 73 30 74
REMARK SMILES IDX 26 75 28 76 31 77 27 79 29 81
REMARK H PARENT 62 18 64 20 66 22 57 33 53 35 55 37 44 48 40 50 42 52 18 63
REMARK H PARENT 14 65 16 67 31 78 27 80 29 82
REMARK Flexibility Score: inf
ROOT
ATOM      1  C   UNL     1       7.768  32.398 -21.688  1.00  0.00     0.205 C 
ATOM      2  C   UNL     1       8.721  33.170 -20.749  1.00  0.00     0.254 C 
ATOM      3  C   UNL     1      10.134  33.188 -21.366  1.00  0.00     0.267 C 
ATOM      4  C   UNL     1      10.575  31.755 -21.718  1.00  0.00     0.290 C 
ATOM      5  C   UNL     1       9.487  31.055 -22.551  1.00  0.00     0.357 C 
ATOM      6  O   UNL     1       8.234  31.072 -21.886  1.00  0.00    -0.329 OA
ENDROOT
BRANCH   1   7
ATOM      7  C   UNL     1       6.342  32.352 -21.113  1.00  0.00     0.269 C 
BRANCH   7   8
ATOM      8  O   UNL     1       5.386  32.709 -22.110  1.00  0.00    -0.459 OA
BRANCH   8   9
ATOM      9  C   UNL     1       4.028  32.934 -21.851  1.00  0.00     0.338 C 
ATOM     10  O   UNL     1       3.389  32.156 -21.092  1.00  0.00    -0.246 OA
BRANCH   9  11
ATOM     11  C   UNL     1       3.357  34.111 -22.445  1.00  0.00     0.067 A 
ATOM     12  C   UNL     1       3.125  34.167 -23.826  1.00  0.00     0.066 A 
ATOM     13  C   UNL     1       2.507  35.279 -24.402  1.00  0.00     0.162 A 
ATOM     14  C   UNL     1       2.949  35.185 -21.641  1.00  0.00     0.066 A 
ATOM     15  C   UNL     1       2.109  36.362 -23.597  1.00  0.00     0.200 A 
ATOM     16  C   UNL     1       2.326  36.307 -22.198  1.00  0.00     0.162 A 
BRANCH  13  17
ATOM     17  O   UNL     1       2.312  35.300 -25.785  1.00  0.00    -0.504 OA
ATOM     18  H   UNL     1       2.382  34.465 -26.355  1.00  0.00     0.293 HD
ENDBRANCH  13  17
BRANCH  15  19
ATOM     19  O   UNL     1       1.512  37.465 -24.215  1.00  0.00    -0.502 OA
ATOM     20  H   UNL     1       1.473  37.601 -25.214  1.00  0.00     0.293 HD
ENDBRANCH  15  19
BRANCH  16  21
ATOM     21  O   UNL     1       1.936  37.332 -21.331  1.00  0.00    -0.504 OA
ATOM     22  H   UNL     1       0.980  37.581 -21.141  1.00  0.00     0.293 HD
ENDBRANCH  16  21
ENDBRANCH   9  11
ENDBRANCH   8   9
ENDBRANCH   7   8
ENDBRANCH   1   7
BRANCH   2  23
ATOM     23  O   UNL     1       8.757  32.527 -19.475  1.00  0.00    -0.452 OA
BRANCH  23  24
ATOM     24  C   UNL     1       9.866  32.549 -18.618  1.00  0.00     0.338 C 
ATOM     25  O   UNL     1      10.995  32.163 -19.027  1.00  0.00    -0.246 OA
BRANCH  24  26
ATOM     26  C   UNL     1       9.704  33.031 -17.231  1.00  0.00     0.067 A 
ATOM     27  C   UNL     1      10.765  32.941 -16.312  1.00  0.00     0.066 A 
ATOM     28  C   UNL     1       8.488  33.596 -16.819  1.00  0.00     0.066 A 
ATOM     29  C   UNL     1      10.614  33.406 -15.003  1.00  0.00     0.162 A 
ATOM     30  C   UNL     1       8.326  34.058 -15.510  1.00  0.00     0.162 A 
ATOM     31  C   UNL     1       9.389  33.963 -14.595  1.00  0.00     0.200 A 
BRANCH  29  32
ATOM     32  O   UNL     1      11.697  33.326 -14.127  1.00  0.00    -0.504 OA
ATOM     33  H   UNL     1      12.529  33.889 -14.252  1.00  0.00     0.293 HD
ENDBRANCH  29  32
BRANCH  30  34
ATOM     34  O   UNL     1       7.107  34.607 -15.108  1.00  0.00    -0.504 OA
ATOM     35  H   UNL     1       6.263  34.044 -15.072  1.00  0.00     0.293 HD
ENDBRANCH  30  34
BRANCH  31  36
ATOM     36  O   UNL     1       9.245  34.424 -13.286  1.00  0.00    -0.502 OA
ATOM     37  H   UNL     1       8.335  34.614 -12.876  1.00  0.00     0.293 HD
ENDBRANCH  31  36
ENDBRANCH  24  26
ENDBRANCH  23  24
ENDBRANCH   2  23
BRANCH   3  38
ATOM     38  O   UNL     1      11.077  33.755 -20.457  1.00  0.00    -0.450 OA
BRANCH  38  39
ATOM     39  C   UNL     1      11.504  35.087 -20.487  1.00  0.00     0.338 C 
ATOM     40  O   UNL     1      11.274  35.803 -21.500  1.00  0.00    -0.246 OA
BRANCH  39  41
ATOM     41  C   UNL     1      12.235  35.646 -19.325  1.00  0.00     0.067 A 
ATOM     42  C   UNL     1      11.571  35.950 -18.125  1.00  0.00     0.066 A 
ATOM     43  C   UNL     1      13.614  35.888 -19.418  1.00  0.00     0.066 A 
ATOM     44  C   UNL     1      12.264  36.517 -17.046  1.00  0.00     0.162 A 
ATOM     45  C   UNL     1      14.314  36.454 -18.349  1.00  0.00     0.162 A 
ATOM     46  C   UNL     1      13.640  36.777 -17.160  1.00  0.00     0.200 A 
BRANCH  44  47
ATOM     47  O   UNL     1      11.591  36.826 -15.860  1.00  0.00    -0.504 OA
ATOM     48  H   UNL     1      10.944  36.175 -15.426  1.00  0.00     0.293 HD
ENDBRANCH  44  47
BRANCH  45  49
ATOM     49  O   UNL     1      15.683  36.687 -18.483  1.00  0.00    -0.504 OA
ATOM     50  H   UNL     1      16.371  36.144 -17.978  1.00  0.00     0.293 HD
ENDBRANCH  45  49
BRANCH  46  51
ATOM     51  O   UNL     1      14.348  37.348 -16.103  1.00  0.00    -0.502 OA
ATOM     52  H   UNL     1      13.913  37.961 -15.423  1.00  0.00     0.293 HD
ENDBRANCH  46  51
ENDBRANCH  39  41
ENDBRANCH  38  39
ENDBRANCH   3  38
BRANCH   5  53
ATOM     53  O   UNL     1       9.379  31.647 -23.848  1.00  0.00    -0.428 OA
BRANCH  53  54
ATOM     54  C   UNL     1       8.719  31.036 -24.921  1.00  0.00     0.340 C 
ATOM     55  O   UNL     1       9.317  30.181 -25.630  1.00  0.00    -0.246 OA
BRANCH  54  56
ATOM     56  C   UNL     1       7.325  31.424 -25.235  1.00  0.00     0.067 A 
ATOM     57  C   UNL     1       6.369  30.438 -25.528  1.00  0.00     0.066 A 
ATOM     58  C   UNL     1       6.941  32.775 -25.230  1.00  0.00     0.066 A 
ATOM     59  C   UNL     1       5.045  30.797 -25.824  1.00  0.00     0.162 A 
ATOM     60  C   UNL     1       5.619  33.139 -25.517  1.00  0.00     0.162 A 
ATOM     61  C   UNL     1       4.669  32.151 -25.822  1.00  0.00     0.200 A 
BRANCH  59  62
ATOM     62  O   UNL     1       4.103  29.815 -26.118  1.00  0.00    -0.504 OA
ATOM     63  H   UNL     1       3.125  29.926 -25.876  1.00  0.00     0.293 HD
ENDBRANCH  59  62
BRANCH  60  64
ATOM     64  O   UNL     1       5.262  34.487 -25.510  1.00  0.00    -0.504 OA
ATOM     65  H   UNL     1       4.554  34.851 -24.883  1.00  0.00     0.293 HD
ENDBRANCH  60  64
BRANCH  61  66
ATOM     66  O   UNL     1       3.357  32.530 -26.118  1.00  0.00    -0.502 OA
ATOM     67  H   UNL     1       2.586  32.342 -25.479  1.00  0.00     0.293 HD
ENDBRANCH  61  66
ENDBRANCH  54  56
ENDBRANCH  53  54
ENDBRANCH   5  53
BRANCH   4  68
ATOM     68  O   UNL     1      11.798  31.782 -22.460  1.00  0.00    -0.448 OA
BRANCH  68  69
ATOM     69  C   UNL     1      13.068  31.778 -21.863  1.00  0.00     0.339 C 
ATOM     70  O   UNL     1      13.982  32.516 -22.318  1.00  0.00    -0.246 OA
BRANCH  69  71
ATOM     71  C   UNL     1      13.324  30.938 -20.674  1.00  0.00     0.067 A 
ATOM     72  C   UNL     1      14.625  30.493 -20.379  1.00  0.00     0.066 A 
ATOM     73  C   UNL     1      12.269  30.577 -19.819  1.00  0.00     0.066 A 
ATOM     74  C   UNL     1      14.873  29.728 -19.230  1.00  0.00     0.162 A 
ATOM     75  C   UNL     1      12.500  29.799 -18.677  1.00  0.00     0.162 A 
ATOM     76  C   UNL     1      13.821  29.386 -18.368  1.00  0.00     0.200 A 
BRANCH  74  77
ATOM     77  O   UNL     1      16.169  29.311 -18.928  1.00  0.00    -0.504 OA
ATOM     78  H   UNL     1      16.765  29.846 -18.314  1.00  0.00     0.293 HD
ENDBRANCH  74  77
BRANCH  75  79
ATOM     79  O   UNL     1      11.395  29.456 -17.893  1.00  0.00    -0.504 OA
ATOM     80  H   UNL     1      11.369  29.531 -16.889  1.00  0.00     0.293 HD
ENDBRANCH  75  79
BRANCH  76  81
ATOM     81  O   UNL     1      14.123  28.652 -17.219  1.00  0.00    -0.502 OA
ATOM     82  H   UNL     1      13.428  28.334 -16.566  1.00  0.00     0.293 HD
ENDBRANCH  76  81
ENDBRANCH  69  71
ENDBRANCH  68  69
ENDBRANCH   4  68
TORSDOF 31
ENDMDL
MODEL 2
REMARK VINA RESULT:    33.403      0.732      1.798
REMARK INTER + INTRA:          82.279
REMARK INTER:                  79.075
REMARK INTRA:                   3.204
REMARK UNBOUND:                 2.986
REMARK SMILES O=C(OC[C@@H]1O[C@@H](OC(=O)c2cc(O)c(O)c(O)c2)[C@@H](OC(=O)c2cc(O)c(O)c(O)c2)[C@H](OC(=O)c2cc(O)c(O)c(O)c2)[C@@H]1OC(=O)c1cc(O)c(O)c(O)c1)c1cc(O)c(O)c(O)c1
REMARK SMILES IDX 5 1 46 2 33 3 20 4 7 5 6 6 4 7 3 8 2 9 1 10 59 11 60 12
REMARK SMILES IDX 61 13 67 14 63 15 65 16 62 17 64 19 66 21 47 23 48 24 49 25
REMARK SMILES IDX 50 26 58 27 51 28 56 29 52 30 54 31 57 32 53 34 55 36 34 38
REMARK SMILES IDX 35 39 36 40 37 41 45 42 38 43 43 44 39 45 41 46 44 47 40 49
REMARK SMILES IDX 42 51 8 53 9 54 10 55 11 56 19 57 12 58 17 59 13 60 15 61
REMARK SMILES IDX 18 62 14 64 16 66 21 68 22 69 23 70 24 71 32 72 25 73 30 74
REMARK SMILES IDX 26 75 28 76 31 77 27 79 29 81
REMARK H PARENT 62 18 64 20 66 22 57 33 53 35 55 37 44 48 40 50 42 52 18 63
REMARK H PARENT 14 65 16 67 31 78 27 80 29 82
REMARK Flexibility Score: inf
ROOT
ATOM      1  C   UNL     1       7.858  32.423 -21.963  1.00  0.00     0.205 C 
ATOM      2  C   UNL     1       8.721  33.261 -20.994  1.00  0.00     0.254 C 
ATOM      3  C   UNL     1      10.178  33.277 -21.500  1.00  0.00     0.267 C 
ATOM      4  C   UNL     1      10.669  31.838 -21.741  1.00  0.00     0.290 C 
ATOM      5  C   UNL     1       9.662  31.073 -22.618  1.00  0.00     0.357 C 
ATOM      6  O   UNL     1       8.360  31.098 -22.055  1.00  0.00    -0.329 OA
ENDROOT
BRANCH   1   7
ATOM      7  C   UNL     1       6.393  32.377 -21.499  1.00  0.00     0.269 C 
BRANCH   7   8
ATOM      8  O   UNL     1       5.522  32.830 -22.534  1.00  0.00    -0.459 OA
BRANCH   8   9
ATOM      9  C   UNL     1       4.134  32.949 -22.397  1.00  0.00     0.338 C 
ATOM     10  O   UNL     1       3.473  32.043 -21.822  1.00  0.00    -0.246 OA
BRANCH   9  11
ATOM     11  C   UNL     1       3.451  34.160 -22.902  1.00  0.00     0.067 A 
ATOM     12  C   UNL     1       3.149  34.283 -24.265  1.00  0.00     0.066 A 
ATOM     13  C   UNL     1       2.519  35.428 -24.757  1.00  0.00     0.162 A 
ATOM     14  C   UNL     1       3.103  35.202 -22.030  1.00  0.00     0.066 A 
ATOM     15  C   UNL     1       2.181  36.478 -23.884  1.00  0.00     0.200 A 
ATOM     16  C   UNL     1       2.470  36.357 -22.502  1.00  0.00     0.162 A 
BRANCH  13  17
ATOM     17  O   UNL     1       2.253  35.515 -26.125  1.00  0.00    -0.504 OA
ATOM     18  H   UNL     1       2.491  36.333 -26.673  1.00  0.00     0.293 HD
ENDBRANCH  13  17
BRANCH  15  19
ATOM     19  O   UNL     1       1.570  37.616 -24.420  1.00  0.00    -0.502 OA
ATOM     20  H   UNL     1       0.576  37.716 -24.551  1.00  0.00     0.293 HD
ENDBRANCH  15  19
BRANCH  16  21
ATOM     21  O   UNL     1       2.142  37.346 -21.571  1.00  0.00    -0.504 OA
ATOM     22  H   UNL     1       1.529  38.122 -21.759  1.00  0.00     0.293 HD
ENDBRANCH  16  21
ENDBRANCH   9  11
ENDBRANCH   8   9
ENDBRANCH   7   8
ENDBRANCH   1   7
BRANCH   2  23
ATOM     23  O   UNL     1       8.668  32.684 -19.689  1.00  0.00    -0.452 OA
BRANCH  23  24
ATOM     24  C   UNL     1       9.764  32.616 -18.817  1.00  0.00     0.338 C 
ATOM     25  O   UNL     1      10.875  32.177 -19.223  1.00  0.00    -0.246 OA
BRANCH  24  26
ATOM     26  C   UNL     1       9.610  33.067 -17.419  1.00  0.00     0.067 A 
ATOM     27  C   UNL     1      10.695  33.017 -16.526  1.00  0.00     0.066 A 
ATOM     28  C   UNL     1       8.377  33.560 -16.970  1.00  0.00     0.066 A 
ATOM     29  C   UNL     1      10.552  33.453 -15.206  1.00  0.00     0.162 A 
ATOM     30  C   UNL     1       8.221  33.991 -15.649  1.00  0.00     0.162 A 
ATOM     31  C   UNL     1       9.310  33.937 -14.761  1.00  0.00     0.200 A 
BRANCH  29  32
ATOM     32  O   UNL     1      11.658  33.415 -14.356  1.00  0.00    -0.504 OA
ATOM     33  H   UNL     1      12.068  34.259 -13.975  1.00  0.00     0.293 HD
ENDBRANCH  29  32
BRANCH  30  34
ATOM     34  O   UNL     1       6.985  34.469 -15.210  1.00  0.00    -0.504 OA
ATOM     35  H   UNL     1       6.923  35.239 -14.552  1.00  0.00     0.293 HD
ENDBRANCH  30  34
BRANCH  31  36
ATOM     36  O   UNL     1       9.173  34.370 -13.440  1.00  0.00    -0.502 OA
ATOM     37  H   UNL     1       9.399  35.318 -13.155  1.00  0.00     0.293 HD
ENDBRANCH  31  36
ENDBRANCH  24  26
ENDBRANCH  23  24
ENDBRANCH   2  23
BRANCH   3  38
ATOM     38  O   UNL     1      11.037  33.908 -20.551  1.00  0.00    -0.450 OA
BRANCH  38  39
ATOM     39  C   UNL     1      11.632  35.162 -20.731  1.00  0.00     0.338 C 
ATOM     40  O   UNL     1      11.843  35.600 -21.895  1.00  0.00    -0.246 OA
BRANCH  39  41
ATOM     41  C   UNL     1      12.019  35.964 -19.547  1.00  0.00     0.067 A 
ATOM     42  C   UNL     1      13.068  35.560 -18.704  1.00  0.00     0.066 A 
ATOM     43  C   UNL     1      11.326  37.148 -19.249  1.00  0.00     0.066 A 
ATOM     44  C   UNL     1      13.399  36.305 -17.563  1.00  0.00     0.162 A 
ATOM     45  C   UNL     1      11.647  37.897 -18.114  1.00  0.00     0.162 A 
ATOM     46  C   UNL     1      12.682  37.475 -17.263  1.00  0.00     0.200 A 
BRANCH  44  47
ATOM     47  O   UNL     1      14.437  35.887 -16.725  1.00  0.00    -0.504 OA
ATOM     48  H   UNL     1      14.269  35.292 -15.921  1.00  0.00     0.293 HD
ENDBRANCH  44  47
BRANCH  45  49
ATOM     49  O   UNL     1      10.930  39.064 -17.846  1.00  0.00    -0.504 OA
ATOM     50  H   UNL     1       9.919  39.079 -17.825  1.00  0.00     0.293 HD
ENDBRANCH  45  49
BRANCH  46  51
ATOM     51  O   UNL     1      12.988  38.228 -16.129  1.00  0.00    -0.502 OA
ATOM     52  H   UNL     1      13.250  39.206 -16.178  1.00  0.00     0.293 HD
ENDBRANCH  46  51
ENDBRANCH  39  41
ENDBRANCH  38  39
ENDBRANCH   3  38
BRANCH   5  53
ATOM     53  O   UNL     1       9.646  31.597 -23.948  1.00  0.00    -0.428 OA
BRANCH  53  54
ATOM     54  C   UNL     1       9.095  30.913 -25.039  1.00  0.00     0.340 C 
ATOM     55  O   UNL     1       9.833  30.220 -25.792  1.00  0.00    -0.246 OA
BRANCH  54  56
ATOM     56  C   UNL     1       7.646  31.035 -25.318  1.00  0.00     0.067 A 
ATOM     57  C   UNL     1       7.035  32.300 -25.327  1.00  0.00     0.066 A 
ATOM     58  C   UNL     1       6.872  29.895 -25.589  1.00  0.00     0.066 A 
ATOM     59  C   UNL     1       5.663  32.425 -25.593  1.00  0.00     0.162 A 
ATOM     60  C   UNL     1       5.503  30.014 -25.863  1.00  0.00     0.162 A 
ATOM     61  C   UNL     1       4.893  31.279 -25.858  1.00  0.00     0.200 A 
BRANCH  59  62
ATOM     62  O   UNL     1       5.062  33.680 -25.595  1.00  0.00    -0.504 OA
ATOM     63  H   UNL     1       4.169  33.842 -26.045  1.00  0.00     0.293 HD
ENDBRANCH  59  62
BRANCH  60  64
ATOM     64  O   UNL     1       4.755  28.867 -26.125  1.00  0.00    -0.504 OA
ATOM     65  H   UNL     1       3.865  28.693 -25.672  1.00  0.00     0.293 HD
ENDBRANCH  60  64
BRANCH  61  66
ATOM     66  O   UNL     1       3.525  31.381 -26.121  1.00  0.00    -0.502 OA
ATOM     67  H   UNL     1       3.138  32.149 -26.668  1.00  0.00     0.293 HD
ENDBRANCH  61  66
ENDBRANCH  54  56
ENDBRANCH  53  54
ENDBRANCH   5  53
BRANCH   4  68
ATOM     68  O   UNL     1      11.947  31.851 -22.386  1.00  0.00    -0.448 OA
BRANCH  68  69
ATOM     69  C   UNL     1      13.162  31.983 -21.697  1.00  0.00     0.339 C 
ATOM     70  O   UNL     1      13.951  32.923 -21.983  1.00  0.00    -0.246 OA
BRANCH  69  71
ATOM     71  C   UNL     1      13.500  31.044 -20.607  1.00  0.00     0.067 A 
ATOM     72  C   UNL     1      12.516  30.620 -19.696  1.00  0.00     0.066 A 
ATOM     73  C   UNL     1      14.810  30.558 -20.470  1.00  0.00     0.066 A 
ATOM     74  C   UNL     1      12.829  29.700 -18.685  1.00  0.00     0.162 A 
ATOM     75  C   UNL     1      15.141  29.650 -19.455  1.00  0.00     0.162 A 
ATOM     76  C   UNL     1      14.134  29.201 -18.564  1.00  0.00     0.200 A 
BRANCH  74  77
ATOM     77  O   UNL     1      11.843  29.263 -17.801  1.00  0.00    -0.504 OA
ATOM     78  H   UNL     1      11.036  28.751 -18.123  1.00  0.00     0.293 HD
ENDBRANCH  74  77
BRANCH  75  79
ATOM     79  O   UNL     1      16.474  29.236 -19.366  1.00  0.00    -0.504 OA
ATOM     80  H   UNL     1      17.131  29.590 -18.690  1.00  0.00     0.293 HD
ENDBRANCH  75  79
BRANCH  76  81
ATOM     81  O   UNL     1      14.389  28.261 -17.564  1.00  0.00    -0.502 OA
ATOM     82  H   UNL     1      13.753  27.521 -17.322  1.00  0.00     0.293 HD
ENDBRANCH  76  81
ENDBRANCH  69  71
ENDBRANCH  68  69
ENDBRANCH   4  68
TORSDOF 31
ENDMDL
MODEL 3
REMARK VINA RESULT:    33.737      0.711      2.068
REMARK INTER + INTRA:          83.072
REMARK INTER:                  81.264
REMARK INTRA:                   1.808
REMARK UNBOUND:                 2.986
REMARK SMILES O=C(OC[C@@H]1O[C@@H](OC(=O)c2cc(O)c(O)c(O)c2)[C@@H](OC(=O)c2cc(O)c(O)c(O)c2)[C@H](OC(=O)c2cc(O)c(O)c(O)c2)[C@@H]1OC(=O)c1cc(O)c(O)c(O)c1)c1cc(O)c(O)c(O)c1
REMARK SMILES IDX 5 1 46 2 33 3 20 4 7 5 6 6 4 7 3 8 2 9 1 10 59 11 60 12
REMARK SMILES IDX 61 13 67 14 63 15 65 16 62 17 64 19 66 21 47 23 48 24 49 25
REMARK SMILES IDX 50 26 58 27 51 28 56 29 52 30 54 31 57 32 53 34 55 36 34 38
REMARK SMILES IDX 35 39 36 40 37 41 45 42 38 43 43 44 39 45 41 46 44 47 40 49
REMARK SMILES IDX 42 51 8 53 9 54 10 55 11 56 19 57 12 58 17 59 13 60 15 61
REMARK SMILES IDX 18 62 14 64 16 66 21 68 22 69 23 70 24 71 32 72 25 73 30 74
REMARK SMILES IDX 26 75 28 76 31 77 27 79 29 81
REMARK H PARENT 62 18 64 20 66 22 57 33 53 35 55 37 44 48 40 50 42 52 18 63
REMARK H PARENT 14 65 16 67 31 78 27 80 29 82
REMARK Flexibility Score: inf
ROOT
ATOM      1  C   UNL     1       7.691  32.355 -21.628  1.00  0.00     0.205 C 
ATOM      2  C   UNL     1       8.650  33.122 -20.691  1.00  0.00     0.254 C 
ATOM      3  C   UNL     1      10.046  33.193 -21.344  1.00  0.00     0.267 C 
ATOM      4  C   UNL     1      10.511  31.782 -21.749  1.00  0.00     0.290 C 
ATOM      5  C   UNL     1       9.419  31.080 -22.575  1.00  0.00     0.357 C 
ATOM      6  O   UNL     1       8.183  31.047 -21.879  1.00  0.00    -0.329 OA
ENDROOT
BRANCH   1   7
ATOM      7  C   UNL     1       6.283  32.257 -21.019  1.00  0.00     0.269 C 
BRANCH   7   8
ATOM      8  O   UNL     1       5.295  32.658 -21.967  1.00  0.00    -0.459 OA
BRANCH   8   9
ATOM      9  C   UNL     1       3.955  32.907 -21.647  1.00  0.00     0.338 C 
ATOM     10  O   UNL     1       3.285  32.049 -21.011  1.00  0.00    -0.246 OA
BRANCH   9  11
ATOM     11  C   UNL     1       3.339  34.196 -22.031  1.00  0.00     0.067 A 
ATOM     12  C   UNL     1       3.205  35.222 -21.086  1.00  0.00     0.066 A 
ATOM     13  C   UNL     1       2.610  36.437 -21.431  1.00  0.00     0.162 A 
ATOM     14  C   UNL     1       2.876  34.408 -23.338  1.00  0.00     0.066 A 
ATOM     15  C   UNL     1       2.135  36.646 -22.738  1.00  0.00     0.200 A 
ATOM     16  C   UNL     1       2.279  35.619 -23.704  1.00  0.00     0.162 A 
BRANCH  13  17
ATOM     17  O   UNL     1       2.482  37.425 -20.452  1.00  0.00    -0.504 OA
ATOM     18  H   UNL     1       1.580  37.776 -20.150  1.00  0.00     0.293 HD
ENDBRANCH  13  17
BRANCH  15  19
ATOM     19  O   UNL     1       1.527  37.869 -23.037  1.00  0.00    -0.502 OA
ATOM     20  H   UNL     1       0.620  38.147 -22.697  1.00  0.00     0.293 HD
ENDBRANCH  15  19
BRANCH  16  21
ATOM     21  O   UNL     1       1.855  35.761 -25.028  1.00  0.00    -0.504 OA
ATOM     22  H   UNL     1       0.905  35.636 -25.336  1.00  0.00     0.293 HD
ENDBRANCH  16  21
ENDBRANCH   9  11
ENDBRANCH   8   9
ENDBRANCH   7   8
ENDBRANCH   1   7
BRANCH   2  23
ATOM     23  O   UNL     1       8.735  32.443 -19.439  1.00  0.00    -0.452 OA
BRANCH  23  24
ATOM     24  C   UNL     1       9.842  32.516 -18.581  1.00  0.00     0.338 C 
ATOM     25  O   UNL     1      10.984  32.158 -18.983  1.00  0.00    -0.246 OA
BRANCH  24  26
ATOM     26  C   UNL     1       9.664  33.018 -17.204  1.00  0.00     0.067 A 
ATOM     27  C   UNL     1       8.433  33.554 -16.789  1.00  0.00     0.066 A 
ATOM     28  C   UNL     1      10.726  32.955 -16.289  1.00  0.00     0.066 A 
ATOM     29  C   UNL     1       8.263  34.020 -15.483  1.00  0.00     0.162 A 
ATOM     30  C   UNL     1      10.568  33.425 -14.983  1.00  0.00     0.162 A 
ATOM     31  C   UNL     1       9.334  33.962 -14.574  1.00  0.00     0.200 A 
BRANCH  29  32
ATOM     32  O   UNL     1       7.018  34.519 -15.098  1.00  0.00    -0.504 OA
ATOM     33  H   UNL     1       6.815  34.770 -14.137  1.00  0.00     0.293 HD
ENDBRANCH  29  32
BRANCH  30  34
ATOM     34  O   UNL     1      11.635  33.368 -14.085  1.00  0.00    -0.504 OA
ATOM     35  H   UNL     1      12.228  32.546 -14.024  1.00  0.00     0.293 HD
ENDBRANCH  30  34
BRANCH  31  36
ATOM     36  O   UNL     1       9.158  34.430 -13.271  1.00  0.00    -0.502 OA
ATOM     37  H   UNL     1       9.914  34.441 -12.593  1.00  0.00     0.293 HD
ENDBRANCH  31  36
ENDBRANCH  24  26
ENDBRANCH  23  24
ENDBRANCH   2  23
BRANCH   3  38
ATOM     38  O   UNL     1      10.999  33.755 -20.442  1.00  0.00    -0.450 OA
BRANCH  38  39
ATOM     39  C   UNL     1      11.742  34.912 -20.696  1.00  0.00     0.338 C 
ATOM     40  O   UNL     1      12.136  35.167 -21.867  1.00  0.00    -0.246 OA
BRANCH  39  41
ATOM     41  C   UNL     1      12.071  35.830 -19.580  1.00  0.00     0.067 A 
ATOM     42  C   UNL     1      13.152  35.572 -18.719  1.00  0.00     0.066 A 
ATOM     43  C   UNL     1      11.291  36.976 -19.364  1.00  0.00     0.066 A 
ATOM     44  C   UNL     1      13.429  36.424 -17.641  1.00  0.00     0.162 A 
ATOM     45  C   UNL     1      11.557  37.831 -18.292  1.00  0.00     0.162 A 
ATOM     46  C   UNL     1      12.625  37.556 -17.422  1.00  0.00     0.200 A 
BRANCH  44  47
ATOM     47  O   UNL     1      14.500  36.152 -16.784  1.00  0.00    -0.504 OA
ATOM     48  H   UNL     1      14.361  35.960 -15.798  1.00  0.00     0.293 HD
ENDBRANCH  44  47
BRANCH  45  49
ATOM     49  O   UNL     1      10.753  38.956 -18.105  1.00  0.00    -0.504 OA
ATOM     50  H   UNL     1       9.811  39.008 -18.468  1.00  0.00     0.293 HD
ENDBRANCH  45  49
BRANCH  46  51
ATOM     51  O   UNL     1      12.876  38.413 -16.351  1.00  0.00    -0.502 OA
ATOM     52  H   UNL     1      12.341  39.260 -16.192  1.00  0.00     0.293 HD
ENDBRANCH  46  51
ENDBRANCH  39  41
ENDBRANCH  38  39
ENDBRANCH   3  38
BRANCH   5  53
ATOM     53  O   UNL     1       9.262  31.708 -23.850  1.00  0.00    -0.428 OA
BRANCH  53  54
ATOM     54  C   UNL     1       8.544  31.136 -24.908  1.00  0.00     0.340 C 
ATOM     55  O   UNL     1       9.078  30.251 -25.632  1.00  0.00    -0.246 OA
BRANCH  54  56
ATOM     56  C   UNL     1       7.167  31.599 -25.187  1.00  0.00     0.067 A 
ATOM     57  C   UNL     1       6.859  32.969 -25.132  1.00  0.00     0.066 A 
ATOM     58  C   UNL     1       6.158  30.681 -25.522  1.00  0.00     0.066 A 
ATOM     59  C   UNL     1       5.557  33.417 -25.397  1.00  0.00     0.162 A 
ATOM     60  C   UNL     1       4.857  31.124 -25.796  1.00  0.00     0.162 A 
ATOM     61  C   UNL     1       4.551  32.492 -25.727  1.00  0.00     0.200 A 
BRANCH  59  62
ATOM     62  O   UNL     1       5.258  34.775 -25.336  1.00  0.00    -0.504 OA
ATOM     63  H   UNL     1       5.730  35.452 -25.924  1.00  0.00     0.293 HD
ENDBRANCH  59  62
BRANCH  60  64
ATOM     64  O   UNL     1       3.871  30.193 -26.122  1.00  0.00    -0.504 OA
ATOM     65  H   UNL     1       3.809  29.293 -25.658  1.00  0.00     0.293 HD
ENDBRANCH  60  64
BRANCH  61  66
ATOM     66  O   UNL     1       3.246  32.917 -25.991  1.00  0.00    -0.502 OA
ATOM     67  H   UNL     1       2.434  32.384 -25.682  1.00  0.00     0.293 HD
ENDBRANCH  61  66
ENDBRANCH  54  56
ENDBRANCH  53  54
ENDBRANCH   5  53
BRANCH   4  68
ATOM     68  O   UNL     1      11.714  31.860 -22.522  1.00  0.00    -0.448 OA
BRANCH  68  69
ATOM     69  C   UNL     1      12.999  31.789 -21.964  1.00  0.00     0.339 C 
ATOM     70  O   UNL     1      13.941  32.465 -22.460  1.00  0.00    -0.246 OA
BRANCH  69  71
ATOM     71  C   UNL     1      13.243  30.952 -20.770  1.00  0.00     0.067 A 
ATOM     72  C   UNL     1      14.550  30.568 -20.420  1.00  0.00     0.066 A 
ATOM     73  C   UNL     1      12.170  30.533 -19.966  1.00  0.00     0.066 A 
ATOM     74  C   UNL     1      14.784  29.805 -19.267  1.00  0.00     0.162 A 
ATOM     75  C   UNL     1      12.388  29.757 -18.820  1.00  0.00     0.162 A 
ATOM     76  C   UNL     1      13.712  29.406 -18.455  1.00  0.00     0.200 A 
BRANCH  74  77
ATOM     77  O   UNL     1      16.084  29.450 -18.910  1.00  0.00    -0.504 OA
ATOM     78  H   UNL     1      16.865  30.064 -19.084  1.00  0.00     0.293 HD
ENDBRANCH  74  77
BRANCH  75  79
ATOM     79  O   UNL     1      11.266  29.355 -18.089  1.00  0.00    -0.504 OA
ATOM     80  H   UNL     1      10.902  29.854 -17.293  1.00  0.00     0.293 HD
ENDBRANCH  75  79
BRANCH  76  81
ATOM     81  O   UNL     1      13.998  28.677 -17.299  1.00  0.00    -0.502 OA
ATOM     82  H   UNL     1      13.780  27.702 -17.190  1.00  0.00     0.293 HD
ENDBRANCH  76  81
ENDBRANCH  69  71
ENDBRANCH  68  69
ENDBRANCH   4  68
TORSDOF 31
ENDMDL
MODEL 4
REMARK VINA RESULT:    34.062      1.496      8.051
REMARK INTER + INTRA:          83.842
REMARK INTER:                  83.403
REMARK INTRA:                   0.439
REMARK UNBOUND:                 2.986
REMARK SMILES O=C(OC[C@@H]1O[C@@H](OC(=O)c2cc(O)c(O)c(O)c2)[C@@H](OC(=O)c2cc(O)c(O)c(O)c2)[C@H](OC(=O)c2cc(O)c(O)c(O)c2)[C@@H]1OC(=O)c1cc(O)c(O)c(O)c1)c1cc(O)c(O)c(O)c1
REMARK SMILES IDX 5 1 46 2 33 3 20 4 7 5 6 6 4 7 3 8 2 9 1 10 59 11 60 12
REMARK SMILES IDX 61 13 67 14 63 15 65 16 62 17 64 19 66 21 47 23 48 24 49 25
REMARK SMILES IDX 50 26 58 27 51 28 56 29 52 30 54 31 57 32 53 34 55 36 34 38
REMARK SMILES IDX 35 39 36 40 37 41 45 42 38 43 43 44 39 45 41 46 44 47 40 49
REMARK SMILES IDX 42 51 8 53 9 54 10 55 11 56 19 57 12 58 17 59 13 60 15 61
REMARK SMILES IDX 18 62 14 64 16 66 21 68 22 69 23 70 24 71 32 72 25 73 30 74
REMARK SMILES IDX 26 75 28 76 31 77 27 79 29 81
REMARK H PARENT 62 18 64 20 66 22 57 33 53 35 55 37 44 48 40 50 42 52 18 63
REMARK H PARENT 14 65 16 67 31 78 27 80 29 82
REMARK Flexibility Score: inf
ROOT
ATOM      1  C   UNL     1       7.945  32.009 -20.068  1.00  0.00     0.205 C 
ATOM      2  C   UNL     1       8.983  31.914 -21.208  1.00  0.00     0.254 C 
ATOM      3  C   UNL     1      10.338  32.448 -20.704  1.00  0.00     0.267 C 
ATOM      4  C   UNL     1      10.159  33.850 -20.094  1.00  0.00     0.290 C 
ATOM      5  C   UNL     1       9.017  33.839 -19.063  1.00  0.00     0.357 C 
ATOM      6  O   UNL     1       7.811  33.354 -19.631  1.00  0.00    -0.329 OA
ENDROOT
BRANCH   1   7
ATOM      7  C   UNL     1       6.572  31.487 -20.525  1.00  0.00     0.269 C 
BRANCH   7   8
ATOM      8  O   UNL     1       5.905  32.460 -21.327  1.00  0.00    -0.459 OA
BRANCH   8   9
ATOM      9  C   UNL     1       4.514  32.555 -21.451  1.00  0.00     0.338 C 
ATOM     10  O   UNL     1       3.761  31.883 -20.695  1.00  0.00    -0.246 OA
BRANCH   9  11
ATOM     11  C   UNL     1       3.931  33.476 -22.452  1.00  0.00     0.067 A 
ATOM     12  C   UNL     1       3.137  34.555 -22.039  1.00  0.00     0.066 A 
ATOM     13  C   UNL     1       2.567  35.421 -22.974  1.00  0.00     0.162 A 
ATOM     14  C   UNL     1       4.156  33.280 -23.822  1.00  0.00     0.066 A 
ATOM     15  C   UNL     1       2.784  35.219 -24.349  1.00  0.00     0.200 A 
ATOM     16  C   UNL     1       3.596  34.138 -24.775  1.00  0.00     0.162 A 
BRANCH  13  17
ATOM     17  O   UNL     1       1.770  36.473 -22.518  1.00  0.00    -0.504 OA
ATOM     18  H   UNL     1       1.385  37.172 -23.143  1.00  0.00     0.293 HD
ENDBRANCH  13  17
BRANCH  15  19
ATOM     19  O   UNL     1       2.179  36.096 -25.253  1.00  0.00    -0.502 OA
ATOM     20  H   UNL     1       2.666  36.835 -25.737  1.00  0.00     0.293 HD
ENDBRANCH  15  19
BRANCH  16  21
ATOM     21  O   UNL     1       3.877  33.888 -26.121  1.00  0.00    -0.504 OA
ATOM     22  H   UNL     1       3.573  33.069 -26.622  1.00  0.00     0.293 HD
ENDBRANCH  16  21
ENDBRANCH   9  11
ENDBRANCH   8   9
ENDBRANCH   7   8
ENDBRANCH   1   7
BRANCH   2  23
ATOM     23  O   UNL     1       8.540  32.690 -22.321  1.00  0.00    -0.452 OA
BRANCH  23  24
ATOM     24  C   UNL     1       8.007  32.142 -23.496  1.00  0.00     0.338 C 
ATOM     25  O   UNL     1       6.927  32.587 -23.974  1.00  0.00    -0.246 OA
BRANCH  24  26
ATOM     26  C   UNL     1       8.720  31.042 -24.175  1.00  0.00     0.067 A 
ATOM     27  C   UNL     1       8.007  30.015 -24.819  1.00  0.00     0.066 A 
ATOM     28  C   UNL     1      10.122  31.015 -24.191  1.00  0.00     0.066 A 
ATOM     29  C   UNL     1       8.683  28.979 -25.470  1.00  0.00     0.162 A 
ATOM     30  C   UNL     1      10.807  29.980 -24.833  1.00  0.00     0.162 A 
ATOM     31  C   UNL     1      10.089  28.955 -25.474  1.00  0.00     0.200 A 
BRANCH  29  32
ATOM     32  O   UNL     1       7.944  27.993 -26.124  1.00  0.00    -0.504 OA
ATOM     33  H   UNL     1       8.166  27.009 -26.032  1.00  0.00     0.293 HD
ENDBRANCH  29  32
BRANCH  30  34
ATOM     34  O   UNL     1      12.203  29.959 -24.832  1.00  0.00    -0.504 OA
ATOM     35  H   UNL     1      12.720  29.366 -25.474  1.00  0.00     0.293 HD
ENDBRANCH  30  34
BRANCH  31  36
ATOM     36  O   UNL     1      10.758  27.917 -26.125  1.00  0.00    -0.502 OA
ATOM     37  H   UNL     1      11.628  27.529 -25.772  1.00  0.00     0.293 HD
ENDBRANCH  31  36
ENDBRANCH  24  26
ENDBRANCH  23  24
ENDBRANCH   2  23
BRANCH   3  38
ATOM     38  O   UNL     1      11.283  32.523 -21.771  1.00  0.00    -0.450 OA
BRANCH  38  39
ATOM     39  C   UNL     1      12.645  32.231 -21.646  1.00  0.00     0.338 C 
ATOM     40  O   UNL     1      13.489  32.830 -22.367  1.00  0.00    -0.246 OA
BRANCH  39  41
ATOM     41  C   UNL     1      13.087  31.208 -20.669  1.00  0.00     0.067 A 
ATOM     42  C   UNL     1      12.206  30.700 -19.699  1.00  0.00     0.066 A 
ATOM     43  C   UNL     1      14.408  30.737 -20.700  1.00  0.00     0.066 A 
ATOM     44  C   UNL     1      12.646  29.763 -18.753  1.00  0.00     0.162 A 
ATOM     45  C   UNL     1      14.857  29.805 -19.761  1.00  0.00     0.162 A 
ATOM     46  C   UNL     1      13.978  29.318 -18.779  1.00  0.00     0.200 A 
BRANCH  44  47
ATOM     47  O   UNL     1      11.764  29.272 -17.785  1.00  0.00    -0.504 OA
ATOM     48  H   UNL     1      10.873  29.720 -17.596  1.00  0.00     0.293 HD
ENDBRANCH  44  47
BRANCH  45  49
ATOM     49  O   UNL     1      16.180  29.367 -19.818  1.00  0.00    -0.504 OA
ATOM     50  H   UNL     1      16.480  28.650 -20.465  1.00  0.00     0.293 HD
ENDBRANCH  45  49
BRANCH  46  51
ATOM     51  O   UNL     1      14.440  28.393 -17.843  1.00  0.00    -0.502 OA
ATOM     52  H   UNL     1      15.037  28.654 -17.066  1.00  0.00     0.293 HD
ENDBRANCH  46  51
ENDBRANCH  39  41
ENDBRANCH  38  39
ENDBRANCH   3  38
BRANCH   5  53
ATOM     53  O   UNL     1       9.377  33.070 -17.913  1.00  0.00    -0.428 OA
BRANCH  53  54
ATOM     54  C   UNL     1       9.175  33.509 -16.598  1.00  0.00     0.340 C 
ATOM     55  O   UNL     1       8.006  33.708 -16.169  1.00  0.00    -0.246 OA
BRANCH  54  56
ATOM     56  C   UNL     1      10.345  33.765 -15.728  1.00  0.00     0.067 A 
ATOM     57  C   UNL     1      10.739  32.809 -14.778  1.00  0.00     0.066 A 
ATOM     58  C   UNL     1      11.079  34.956 -15.851  1.00  0.00     0.066 A 
ATOM     59  C   UNL     1      11.848  33.042 -13.952  1.00  0.00     0.162 A 
ATOM     60  C   UNL     1      12.193  35.192 -15.034  1.00  0.00     0.162 A 
ATOM     61  C   UNL     1      12.576  34.239 -14.076  1.00  0.00     0.200 A 
BRANCH  59  62
ATOM     62  O   UNL     1      12.231  32.092 -13.008  1.00  0.00    -0.504 OA
ATOM     63  H   UNL     1      11.601  31.786 -12.276  1.00  0.00     0.293 HD
ENDBRANCH  59  62
BRANCH  60  64
ATOM     64  O   UNL     1      12.904  36.383 -15.171  1.00  0.00    -0.504 OA
ATOM     65  H   UNL     1      13.533  36.545 -15.949  1.00  0.00     0.293 HD
ENDBRANCH  60  64
BRANCH  61  66
ATOM     66  O   UNL     1      13.681  34.493 -13.260  1.00  0.00    -0.502 OA
ATOM     67  H   UNL     1      14.055  35.434 -13.139  1.00  0.00     0.293 HD
ENDBRANCH  61  66
ENDBRANCH  54  56
ENDBRANCH  53  54
ENDBRANCH   5  53
BRANCH   4  68
ATOM     68  O   UNL     1      11.369  34.272 -19.456  1.00  0.00    -0.448 OA
BRANCH  68  69
ATOM     69  C   UNL     1      12.050  35.452 -19.789  1.00  0.00     0.339 C 
ATOM     70  O   UNL     1      12.309  35.713 -20.995  1.00  0.00    -0.246 OA
BRANCH  69  71
ATOM     71  C   UNL     1      12.430  36.412 -18.730  1.00  0.00     0.067 A 
ATOM     72  C   UNL     1      11.586  37.490 -18.406  1.00  0.00     0.066 A 
ATOM     73  C   UNL     1      13.637  36.256 -18.031  1.00  0.00     0.066 A 
ATOM     74  C   UNL     1      11.929  38.378 -17.376  1.00  0.00     0.162 A 
ATOM     75  C   UNL     1      14.000  37.145 -17.010  1.00  0.00     0.162 A 
ATOM     76  C   UNL     1      13.126  38.207 -16.666  1.00  0.00     0.200 A 
BRANCH  74  77
ATOM     77  O   UNL     1      11.076  39.429 -17.040  1.00  0.00    -0.504 OA
ATOM     78  H   UNL     1      10.623  39.986 -17.748  1.00  0.00     0.293 HD
ENDBRANCH  74  77
BRANCH  75  79
ATOM     79  O   UNL     1      15.231  36.941 -16.381  1.00  0.00    -0.504 OA
ATOM     80  H   UNL     1      15.463  37.291 -15.466  1.00  0.00     0.293 HD
ENDBRANCH  75  79
BRANCH  76  81
ATOM     81  O   UNL     1      13.407  39.096 -15.626  1.00  0.00    -0.502 OA
ATOM     82  H   UNL     1      14.336  39.281 -15.291  1.00  0.00     0.293 HD
ENDBRANCH  76  81
ENDBRANCH  69  71
ENDBRANCH  68  69
ENDBRANCH   4  68
TORSDOF 31
ENDMDL
MODEL 5
REMARK VINA RESULT:    35.274      1.126      7.818
REMARK INTER + INTRA:          86.721
REMARK INTER:                  89.864
REMARK INTRA:                  -3.143
REMARK UNBOUND:                 2.986
REMARK SMILES O=C(OC[C@@H]1O[C@@H](OC(=O)c2cc(O)c(O)c(O)c2)[C@@H](OC(=O)c2cc(O)c(O)c(O)c2)[C@H](OC(=O)c2cc(O)c(O)c(O)c2)[C@@H]1OC(=O)c1cc(O)c(O)c(O)c1)c1cc(O)c(O)c(O)c1
REMARK SMILES IDX 5 1 46 2 33 3 20 4 7 5 6 6 4 7 3 8 2 9 1 10 59 11 60 12
REMARK SMILES IDX 61 13 67 14 63 15 65 16 62 17 64 19 66 21 47 23 48 24 49 25
REMARK SMILES IDX 50 26 58 27 51 28 56 29 52 30 54 31 57 32 53 34 55 36 34 38
REMARK SMILES IDX 35 39 36 40 37 41 45 42 38 43 43 44 39 45 41 46 44 47 40 49
REMARK SMILES IDX 42 51 8 53 9 54 10 55 11 56 19 57 12 58 17 59 13 60 15 61
REMARK SMILES IDX 18 62 14 64 16 66 21 68 22 69 23 70 24 71 32 72 25 73 30 74
REMARK SMILES IDX 26 75 28 76 31 77 27 79 29 81
REMARK H PARENT 62 18 64 20 66 22 57 33 53 35 55 37 44 48 40 50 42 52 18 63
REMARK H PARENT 14 65 16 67 31 78 27 80 29 82
REMARK Flexibility Score: inf
ROOT
ATOM      1  C   UNL     1       7.763  32.024 -20.687  1.00  0.00     0.205 C 
ATOM      2  C   UNL     1       8.859  31.651 -21.709  1.00  0.00     0.254 C 
ATOM      3  C   UNL     1      10.233  32.082 -21.157  1.00  0.00     0.267 C 
ATOM      4  C   UNL     1      10.196  33.564 -20.745  1.00  0.00     0.290 C 
ATOM      5  C   UNL     1       8.990  33.829 -19.826  1.00  0.00     0.357 C 
ATOM      6  O   UNL     1       7.775  33.421 -20.434  1.00  0.00    -0.329 OA
ENDROOT
BRANCH   1   7
ATOM      7  C   UNL     1       6.370  31.615 -21.195  1.00  0.00     0.269 C 
BRANCH   7   8
ATOM      8  O   UNL     1       5.386  32.563 -20.785  1.00  0.00    -0.459 OA
BRANCH   8   9
ATOM      9  C   UNL     1       4.062  32.566 -21.239  1.00  0.00     0.338 C 
ATOM     10  O   UNL     1       3.404  31.492 -21.284  1.00  0.00    -0.246 OA
BRANCH   9  11
ATOM     11  C   UNL     1       3.428  33.843 -21.632  1.00  0.00     0.067 A 
ATOM     12  C   UNL     1       2.890  33.997 -22.917  1.00  0.00     0.066 A 
ATOM     13  C   UNL     1       2.303  35.203 -23.307  1.00  0.00     0.162 A 
ATOM     14  C   UNL     1       3.361  34.918 -20.733  1.00  0.00     0.066 A 
ATOM     15  C   UNL     1       2.247  36.284 -22.409  1.00  0.00     0.200 A 
ATOM     16  C   UNL     1       2.776  36.133 -21.103  1.00  0.00     0.162 A 
BRANCH  13  17
ATOM     17  O   UNL     1       1.796  35.316 -24.603  1.00  0.00    -0.504 OA
ATOM     18  H   UNL     1       0.936  34.863 -24.891  1.00  0.00     0.293 HD
ENDBRANCH  13  17
BRANCH  15  19
ATOM     19  O   UNL     1       1.670  37.481 -22.845  1.00  0.00    -0.502 OA
ATOM     20  H   UNL     1       1.003  38.014 -22.310  1.00  0.00     0.293 HD
ENDBRANCH  15  19
BRANCH  16  21
ATOM     21  O   UNL     1       2.735  37.153 -20.148  1.00  0.00    -0.504 OA
ATOM     22  H   UNL     1       2.088  37.183 -19.377  1.00  0.00     0.293 HD
ENDBRANCH  16  21
ENDBRANCH   9  11
ENDBRANCH   8   9
ENDBRANCH   7   8
ENDBRANCH   1   7
BRANCH   2  23
ATOM     23  O   UNL     1       8.603  32.319 -22.945  1.00  0.00    -0.452 OA
BRANCH  23  24
ATOM     24  C   UNL     1       8.119  31.680 -24.095  1.00  0.00     0.338 C 
ATOM     25  O   UNL     1       8.811  30.796 -24.672  1.00  0.00    -0.246 OA
BRANCH  24  26
ATOM     26  C   UNL     1       6.791  32.046 -24.627  1.00  0.00     0.067 A 
ATOM     27  C   UNL     1       5.931  31.063 -25.147  1.00  0.00     0.066 A 
ATOM     28  C   UNL     1       6.370  33.384 -24.610  1.00  0.00     0.066 A 
ATOM     29  C   UNL     1       4.670  31.409 -25.642  1.00  0.00     0.162 A 
ATOM     30  C   UNL     1       5.114  33.741 -25.108  1.00  0.00     0.162 A 
ATOM     31  C   UNL     1       4.259  32.754 -25.629  1.00  0.00     0.200 A 
BRANCH  29  32
ATOM     32  O   UNL     1       3.832  30.404 -26.124  1.00  0.00    -0.504 OA
ATOM     33  H   UNL     1       4.151  29.449 -26.236  1.00  0.00     0.293 HD
ENDBRANCH  29  32
BRANCH  30  34
ATOM     34  O   UNL     1       4.711  35.078 -25.096  1.00  0.00    -0.504 OA
ATOM     35  H   UNL     1       4.967  35.711 -25.847  1.00  0.00     0.293 HD
ENDBRANCH  30  34
BRANCH  31  36
ATOM     36  O   UNL     1       2.999  33.093 -26.125  1.00  0.00    -0.502 OA
ATOM     37  H   UNL     1       2.755  34.046 -26.377  1.00  0.00     0.293 HD
ENDBRANCH  31  36
ENDBRANCH  24  26
ENDBRANCH  23  24
ENDBRANCH   2  23
BRANCH   3  38
ATOM     38  O   UNL     1      11.254  31.898 -22.138  1.00  0.00    -0.450 OA
BRANCH  38  39
ATOM     39  C   UNL     1      12.624  31.854 -21.858  1.00  0.00     0.338 C 
ATOM     40  O   UNL     1      13.430  32.549 -22.535  1.00  0.00    -0.246 OA
BRANCH  39  41
ATOM     41  C   UNL     1      13.120  30.981 -20.768  1.00  0.00     0.067 A 
ATOM     42  C   UNL     1      12.256  30.504 -19.767  1.00  0.00     0.066 A 
ATOM     43  C   UNL     1      14.476  30.625 -20.721  1.00  0.00     0.066 A 
ATOM     44  C   UNL     1      12.744  29.712 -18.718  1.00  0.00     0.162 A 
ATOM     45  C   UNL     1      14.973  29.838 -19.678  1.00  0.00     0.162 A 
ATOM     46  C   UNL     1      14.109  29.383 -18.669  1.00  0.00     0.200 A 
BRANCH  44  47
ATOM     47  O   UNL     1      11.878  29.252 -17.721  1.00  0.00    -0.504 OA
ATOM     48  H   UNL     1      11.611  29.834 -16.933  1.00  0.00     0.293 HD
ENDBRANCH  44  47
BRANCH  45  49
ATOM     49  O   UNL     1      16.329  29.512 -19.662  1.00  0.00    -0.504 OA
ATOM     50  H   UNL     1      16.703  28.745 -20.205  1.00  0.00     0.293 HD
ENDBRANCH  45  49
BRANCH  46  51
ATOM     51  O   UNL     1      14.618  28.604 -17.630  1.00  0.00    -0.502 OA
ATOM     52  H   UNL     1      14.339  27.640 -17.484  1.00  0.00     0.293 HD
ENDBRANCH  46  51
ENDBRANCH  39  41
ENDBRANCH  38  39
ENDBRANCH   3  38
BRANCH   5  53
ATOM     53  O   UNL     1       9.163  33.185 -18.561  1.00  0.00    -0.428 OA
BRANCH  53  54
ATOM     54  C   UNL     1       8.651  33.693 -17.361  1.00  0.00     0.340 C 
ATOM     55  O   UNL     1       7.466  34.121 -17.308  1.00  0.00    -0.246 OA
BRANCH  54  56
ATOM     56  C   UNL     1       9.521  33.749 -16.165  1.00  0.00     0.067 A 
ATOM     57  C   UNL     1      10.782  34.364 -16.239  1.00  0.00     0.066 A 
ATOM     58  C   UNL     1       9.094  33.203 -14.944  1.00  0.00     0.066 A 
ATOM     59  C   UNL     1      11.612  34.425 -15.110  1.00  0.00     0.162 A 
ATOM     60  C   UNL     1       9.915  33.267 -13.810  1.00  0.00     0.162 A 
ATOM     61  C   UNL     1      11.180  33.872 -13.892  1.00  0.00     0.200 A 
BRANCH  59  62
ATOM     62  O   UNL     1      12.862  35.032 -15.192  1.00  0.00    -0.504 OA
ATOM     63  H   UNL     1      13.383  35.063 -16.061  1.00  0.00     0.293 HD
ENDBRANCH  59  62
BRANCH  60  64
ATOM     64  O   UNL     1       9.471  32.714 -12.609  1.00  0.00    -0.504 OA
ATOM     65  H   UNL     1       8.840  31.921 -12.586  1.00  0.00     0.293 HD
ENDBRANCH  60  64
BRANCH  61  66
ATOM     66  O   UNL     1      11.993  33.918 -12.757  1.00  0.00    -0.502 OA
ATOM     67  H   UNL     1      12.317  34.800 -12.363  1.00  0.00     0.293 HD
ENDBRANCH  61  66
ENDBRANCH  54  56
ENDBRANCH  53  54
ENDBRANCH   5  53
BRANCH   4  68
ATOM     68  O   UNL     1      11.402  33.918 -20.060  1.00  0.00    -0.448 OA
BRANCH  68  69
ATOM     69  C   UNL     1      12.087  35.125 -20.269  1.00  0.00     0.339 C 
ATOM     70  O   UNL     1      12.429  35.462 -21.435  1.00  0.00    -0.246 OA
BRANCH  69  71
ATOM     71  C   UNL     1      12.373  36.022 -19.130  1.00  0.00     0.067 A 
ATOM     72  C   UNL     1      11.526  37.108 -18.844  1.00  0.00     0.066 A 
ATOM     73  C   UNL     1      13.493  35.797 -18.314  1.00  0.00     0.066 A 
ATOM     74  C   UNL     1      11.777  37.936 -17.741  1.00  0.00     0.162 A 
ATOM     75  C   UNL     1      13.765  36.626 -17.217  1.00  0.00     0.162 A 
ATOM     76  C   UNL     1      12.886  37.697 -16.916  1.00  0.00     0.200 A 
BRANCH  74  77
ATOM     77  O   UNL     1      10.920  38.996 -17.446  1.00  0.00    -0.504 OA
ATOM     78  H   UNL     1      10.193  38.908 -16.752  1.00  0.00     0.293 HD
ENDBRANCH  74  77
BRANCH  75  79
ATOM     79  O   UNL     1      14.916  36.355 -16.471  1.00  0.00    -0.504 OA
ATOM     80  H   UNL     1      14.910  35.925 -15.560  1.00  0.00     0.293 HD
ENDBRANCH  75  79
BRANCH  76  81
ATOM     81  O   UNL     1      13.075  38.527 -15.809  1.00  0.00    -0.502 OA
ATOM     82  H   UNL     1      13.364  39.487 -15.879  1.00  0.00     0.293 HD
ENDBRANCH  76  81
ENDBRANCH  69  71
ENDBRANCH  68  69
ENDBRANCH   4  68
TORSDOF 31
ENDMDL
MODEL 6
REMARK VINA RESULT:    35.329      1.239      7.970
REMARK INTER + INTRA:          86.852
REMARK INTER:                  88.083
REMARK INTRA:                  -1.232
REMARK UNBOUND:                 2.986
REMARK SMILES O=C(OC[C@@H]1O[C@@H](OC(=O)c2cc(O)c(O)c(O)c2)[C@@H](OC(=O)c2cc(O)c(O)c(O)c2)[C@H](OC(=O)c2cc(O)c(O)c(O)c2)[C@@H]1OC(=O)c1cc(O)c(O)c(O)c1)c1cc(O)c(O)c(O)c1
REMARK SMILES IDX 5 1 46 2 33 3 20 4 7 5 6 6 4 7 3 8 2 9 1 10 59 11 60 12
REMARK SMILES IDX 61 13 67 14 63 15 65 16 62 17 64 19 66 21 47 23 48 24 49 25
REMARK SMILES IDX 50 26 58 27 51 28 56 29 52 30 54 31 57 32 53 34 55 36 34 38
REMARK SMILES IDX 35 39 36 40 37 41 45 42 38 43 43 44 39 45 41 46 44 47 40 49
REMARK SMILES IDX 42 51 8 53 9 54 10 55 11 56 19 57 12 58 17 59 13 60 15 61
REMARK SMILES IDX 18 62 14 64 16 66 21 68 22 69 23 70 24 71 32 72 25 73 30 74
REMARK SMILES IDX 26 75 28 76 31 77 27 79 29 81
REMARK H PARENT 62 18 64 20 66 22 57 33 53 35 55 37 44 48 40 50 42 52 18 63
REMARK H PARENT 14 65 16 67 31 78 27 80 29 82
REMARK Flexibility Score: inf
ROOT
ATOM      1  C   UNL     1       7.820  31.861 -20.571  1.00  0.00     0.205 C 
ATOM      2  C   UNL     1       8.904  31.599 -21.640  1.00  0.00     0.254 C 
ATOM      3  C   UNL     1      10.276  32.038 -21.087  1.00  0.00     0.267 C 
ATOM      4  C   UNL     1      10.198  33.486 -20.571  1.00  0.00     0.290 C 
ATOM      5  C   UNL     1       9.005  33.644 -19.611  1.00  0.00     0.357 C 
ATOM      6  O   UNL     1       7.791  33.237 -20.221  1.00  0.00    -0.329 OA
ENDROOT
BRANCH   1   7
ATOM      7  C   UNL     1       6.431  31.439 -21.078  1.00  0.00     0.269 C 
BRANCH   7   8
ATOM      8  O   UNL     1       5.665  32.581 -21.457  1.00  0.00    -0.459 OA
BRANCH   8   9
ATOM      9  C   UNL     1       4.280  32.691 -21.283  1.00  0.00     0.338 C 
ATOM     10  O   UNL     1       3.625  31.737 -20.784  1.00  0.00    -0.246 OA
BRANCH   9  11
ATOM     11  C   UNL     1       3.595  33.948 -21.655  1.00  0.00     0.067 A 
ATOM     12  C   UNL     1       3.494  34.997 -20.730  1.00  0.00     0.066 A 
ATOM     13  C   UNL     1       2.835  36.182 -21.063  1.00  0.00     0.162 A 
ATOM     14  C   UNL     1       3.033  34.108 -22.930  1.00  0.00     0.066 A 
ATOM     15  C   UNL     1       2.262  36.337 -22.338  1.00  0.00     0.200 A 
ATOM     16  C   UNL     1       2.371  35.288 -23.284  1.00  0.00     0.162 A 
BRANCH  13  17
ATOM     17  O   UNL     1       2.743  37.193 -20.104  1.00  0.00    -0.504 OA
ATOM     18  H   UNL     1       3.108  38.125 -20.262  1.00  0.00     0.293 HD
ENDBRANCH  13  17
BRANCH  15  19
ATOM     19  O   UNL     1       1.592  37.531 -22.625  1.00  0.00    -0.502 OA
ATOM     20  H   UNL     1       1.977  38.273 -23.189  1.00  0.00     0.293 HD
ENDBRANCH  15  19
BRANCH  16  21
ATOM     21  O   UNL     1       1.849  35.378 -24.577  1.00  0.00    -0.504 OA
ATOM     22  H   UNL     1       2.408  35.430 -25.413  1.00  0.00     0.293 HD
ENDBRANCH  16  21
ENDBRANCH   9  11
ENDBRANCH   8   9
ENDBRANCH   7   8
ENDBRANCH   1   7
BRANCH   2  23
ATOM     23  O   UNL     1       8.598  32.341 -22.820  1.00  0.00    -0.452 OA
BRANCH  23  24
ATOM     24  C   UNL     1       8.173  31.760 -24.023  1.00  0.00     0.338 C 
ATOM     25  O   UNL     1       8.915  30.939 -24.631  1.00  0.00    -0.246 OA
BRANCH  24  26
ATOM     26  C   UNL     1       6.849  32.111 -24.574  1.00  0.00     0.067 A 
ATOM     27  C   UNL     1       6.010  31.119 -25.112  1.00  0.00     0.066 A 
ATOM     28  C   UNL     1       6.410  33.443 -24.556  1.00  0.00     0.066 A 
ATOM     29  C   UNL     1       4.753  31.452 -25.623  1.00  0.00     0.162 A 
ATOM     30  C   UNL     1       5.158  33.786 -25.072  1.00  0.00     0.162 A 
ATOM     31  C   UNL     1       4.323  32.791 -25.611  1.00  0.00     0.200 A 
BRANCH  29  32
ATOM     32  O   UNL     1       3.934  30.438 -26.123  1.00  0.00    -0.504 OA
ATOM     33  H   UNL     1       2.958  30.361 -25.864  1.00  0.00     0.293 HD
ENDBRANCH  29  32
BRANCH  30  34
ATOM     34  O   UNL     1       4.737  35.118 -25.060  1.00  0.00    -0.504 OA
ATOM     35  H   UNL     1       3.950  35.425 -25.623  1.00  0.00     0.293 HD
ENDBRANCH  30  34
BRANCH  31  36
ATOM     36  O   UNL     1       3.067  33.116 -26.125  1.00  0.00    -0.502 OA
ATOM     37  H   UNL     1       2.470  33.816 -25.694  1.00  0.00     0.293 HD
ENDBRANCH  31  36
ENDBRANCH  24  26
ENDBRANCH  23  24
ENDBRANCH   2  23
BRANCH   3  38
ATOM     38  O   UNL     1      11.279  31.958 -22.099  1.00  0.00    -0.450 OA
BRANCH  38  39
ATOM     39  C   UNL     1      12.212  30.922 -22.210  1.00  0.00     0.338 C 
ATOM     40  O   UNL     1      12.410  30.366 -23.326  1.00  0.00    -0.246 OA
BRANCH  39  41
ATOM     41  C   UNL     1      12.956  30.476 -21.009  1.00  0.00     0.067 A 
ATOM     42  C   UNL     1      14.352  30.317 -21.035  1.00  0.00     0.066 A 
ATOM     43  C   UNL     1      12.263  30.197 -19.821  1.00  0.00     0.066 A 
ATOM     44  C   UNL     1      15.043  29.856 -19.906  1.00  0.00     0.162 A 
ATOM     45  C   UNL     1      12.942  29.734 -18.690  1.00  0.00     0.162 A 
ATOM     46  C   UNL     1      14.334  29.556 -18.729  1.00  0.00     0.200 A 
BRANCH  44  47
ATOM     47  O   UNL     1      16.430  29.691 -19.946  1.00  0.00    -0.504 OA
ATOM     48  H   UNL     1      16.883  29.136 -20.665  1.00  0.00     0.293 HD
ENDBRANCH  44  47
BRANCH  45  49
ATOM     49  O   UNL     1      12.217  29.460 -17.530  1.00  0.00    -0.504 OA
ATOM     50  H   UNL     1      11.321  29.890 -17.343  1.00  0.00     0.293 HD
ENDBRANCH  45  49
BRANCH  46  51
ATOM     51  O   UNL     1      14.998  29.088 -17.596  1.00  0.00    -0.502 OA
ATOM     52  H   UNL     1      15.928  29.403 -17.339  1.00  0.00     0.293 HD
ENDBRANCH  46  51
ENDBRANCH  39  41
ENDBRANCH  38  39
ENDBRANCH   3  38
BRANCH   5  53
ATOM     53  O   UNL     1       9.228  32.920 -18.399  1.00  0.00    -0.428 OA
BRANCH  53  54
ATOM     54  C   UNL     1       8.941  33.435 -17.128  1.00  0.00     0.340 C 
ATOM     55  O   UNL     1       7.743  33.588 -16.763  1.00  0.00    -0.246 OA
BRANCH  54  56
ATOM     56  C   UNL     1      10.052  33.826 -16.233  1.00  0.00     0.067 A 
ATOM     57  C   UNL     1      10.614  35.110 -16.326  1.00  0.00     0.066 A 
ATOM     58  C   UNL     1      10.548  32.926 -15.275  1.00  0.00     0.066 A 
ATOM     59  C   UNL     1      11.665  35.490 -15.479  1.00  0.00     0.162 A 
ATOM     60  C   UNL     1      11.593  33.303 -14.421  1.00  0.00     0.162 A 
ATOM     61  C   UNL     1      12.160  34.583 -14.526  1.00  0.00     0.200 A 
BRANCH  59  62
ATOM     62  O   UNL     1      12.221  36.762 -15.580  1.00  0.00    -0.504 OA
ATOM     63  H   UNL     1      11.650  37.579 -15.765  1.00  0.00     0.293 HD
ENDBRANCH  59  62
BRANCH  60  64
ATOM     64  O   UNL     1      12.071  32.391 -13.480  1.00  0.00    -0.504 OA
ATOM     65  H   UNL     1      12.159  31.403 -13.689  1.00  0.00     0.293 HD
ENDBRANCH  60  64
BRANCH  61  66
ATOM     66  O   UNL     1      13.210  34.939 -13.675  1.00  0.00    -0.502 OA
ATOM     67  H   UNL     1      13.357  35.903 -13.377  1.00  0.00     0.293 HD
ENDBRANCH  61  66
ENDBRANCH  54  56
ENDBRANCH  53  54
ENDBRANCH   5  53
BRANCH   4  68
ATOM     68  O   UNL     1      11.406  33.834 -19.887  1.00  0.00    -0.448 OA
BRANCH  68  69
ATOM     69  C   UNL     1      12.203  34.936 -20.234  1.00  0.00     0.339 C 
ATOM     70  O   UNL     1      12.687  35.025 -21.395  1.00  0.00    -0.246 OA
BRANCH  69  71
ATOM     71  C   UNL     1      12.444  36.014 -19.252  1.00  0.00     0.067 A 
ATOM     72  C   UNL     1      13.520  35.933 -18.351  1.00  0.00     0.066 A 
ATOM     73  C   UNL     1      11.602  37.137 -19.210  1.00  0.00     0.066 A 
ATOM     74  C   UNL     1      13.771  36.973 -17.445  1.00  0.00     0.162 A 
ATOM     75  C   UNL     1      11.830  38.176 -18.299  1.00  0.00     0.162 A 
ATOM     76  C   UNL     1      12.939  38.103 -17.419  1.00  0.00     0.200 A 
BRANCH  74  77
ATOM     77  O   UNL     1      14.855  36.901 -16.571  1.00  0.00    -0.504 OA
ATOM     78  H   UNL     1      15.702  36.414 -16.822  1.00  0.00     0.293 HD
ENDBRANCH  74  77
BRANCH  75  79
ATOM     79  O   UNL     1      10.930  39.246 -18.298  1.00  0.00    -0.504 OA
ATOM     80  H   UNL     1      10.090  39.277 -17.743  1.00  0.00     0.293 HD
ENDBRANCH  75  79
BRANCH  76  81
ATOM     81  O   UNL     1      13.249  39.128 -16.523  1.00  0.00    -0.502 OA
ATOM     82  H   UNL     1      12.877  39.182 -15.591  1.00  0.00     0.293 HD
ENDBRANCH  76  81
ENDBRANCH  69  71
ENDBRANCH  68  69
ENDBRANCH   4  68
TORSDOF 31
ENDMDL
MODEL 7
REMARK VINA RESULT:    35.635      1.539      8.164
REMARK INTER + INTRA:          87.578
REMARK INTER:                  87.232
REMARK INTRA:                   0.346
REMARK UNBOUND:                 2.986
REMARK SMILES O=C(OC[C@@H]1O[C@@H](OC(=O)c2cc(O)c(O)c(O)c2)[C@@H](OC(=O)c2cc(O)c(O)c(O)c2)[C@H](OC(=O)c2cc(O)c(O)c(O)c2)[C@@H]1OC(=O)c1cc(O)c(O)c(O)c1)c1cc(O)c(O)c(O)c1
REMARK SMILES IDX 5 1 46 2 33 3 20 4 7 5 6 6 4 7 3 8 2 9 1 10 59 11 60 12
REMARK SMILES IDX 61 13 67 14 63 15 65 16 62 17 64 19 66 21 47 23 48 24 49 25
REMARK SMILES IDX 50 26 58 27 51 28 56 29 52 30 54 31 57 32 53 34 55 36 34 38
REMARK SMILES IDX 35 39 36 40 37 41 45 42 38 43 43 44 39 45 41 46 44 47 40 49
REMARK SMILES IDX 42 51 8 53 9 54 10 55 11 56 19 57 12 58 17 59 13 60 15 61
REMARK SMILES IDX 18 62 14 64 16 66 21 68 22 69 23 70 24 71 32 72 25 73 30 74
REMARK SMILES IDX 26 75 28 76 31 77 27 79 29 81
REMARK H PARENT 62 18 64 20 66 22 57 33 53 35 55 37 44 48 40 50 42 52 18 63
REMARK H PARENT 14 65 16 67 31 78 27 80 29 82
REMARK Flexibility Score: inf
ROOT
ATOM      1  C   UNL     1       8.130  32.083 -19.979  1.00  0.00     0.205 C 
ATOM      2  C   UNL     1       9.216  32.065 -21.078  1.00  0.00     0.254 C 
ATOM      3  C   UNL     1      10.531  32.623 -20.497  1.00  0.00     0.267 C 
ATOM      4  C   UNL     1      10.281  33.994 -19.843  1.00  0.00     0.290 C 
ATOM      5  C   UNL     1       9.098  33.905 -18.862  1.00  0.00     0.357 C 
ATOM      6  O   UNL     1       7.933  33.404 -19.498  1.00  0.00    -0.329 OA
ENDROOT
BRANCH   1   7
ATOM      7  C   UNL     1       6.795  31.535 -20.512  1.00  0.00     0.269 C 
BRANCH   7   8
ATOM      8  O   UNL     1       5.885  32.600 -20.781  1.00  0.00    -0.459 OA
BRANCH   8   9
ATOM      9  C   UNL     1       4.581  32.418 -21.254  1.00  0.00     0.338 C 
ATOM     10  O   UNL     1       3.786  31.652 -20.645  1.00  0.00    -0.246 OA
BRANCH   9  11
ATOM     11  C   UNL     1       4.129  33.157 -22.453  1.00  0.00     0.067 A 
ATOM     12  C   UNL     1       3.284  34.267 -22.321  1.00  0.00     0.066 A 
ATOM     13  C   UNL     1       2.836  34.963 -23.445  1.00  0.00     0.162 A 
ATOM     14  C   UNL     1       4.531  32.756 -23.736  1.00  0.00     0.066 A 
ATOM     15  C   UNL     1       3.230  34.555 -24.732  1.00  0.00     0.200 A 
ATOM     16  C   UNL     1       4.096  33.441 -24.875  1.00  0.00     0.162 A 
BRANCH  13  17
ATOM     17  O   UNL     1       1.981  36.053 -23.267  1.00  0.00    -0.504 OA
ATOM     18  H   UNL     1       1.458  36.463 -24.031  1.00  0.00     0.293 HD
ENDBRANCH  13  17
BRANCH  15  19
ATOM     19  O   UNL     1       2.744  35.265 -25.833  1.00  0.00    -0.502 OA
ATOM     20  H   UNL     1       2.885  36.253 -25.976  1.00  0.00     0.293 HD
ENDBRANCH  15  19
BRANCH  16  21
ATOM     21  O   UNL     1       4.550  32.991 -26.118  1.00  0.00    -0.504 OA
ATOM     22  H   UNL     1       3.956  32.824 -26.914  1.00  0.00     0.293 HD
ENDBRANCH  16  21
ENDBRANCH   9  11
ENDBRANCH   8   9
ENDBRANCH   7   8
ENDBRANCH   1   7
BRANCH   2  23
ATOM     23  O   UNL     1       8.793  32.869 -22.178  1.00  0.00    -0.452 OA
BRANCH  23  24
ATOM     24  C   UNL     1       8.162  32.362 -23.323  1.00  0.00     0.338 C 
ATOM     25  O   UNL     1       7.078  32.865 -23.729  1.00  0.00    -0.246 OA
BRANCH  24  26
ATOM     26  C   UNL     1       8.777  31.236 -24.054  1.00  0.00     0.067 A 
ATOM     27  C   UNL     1      10.173  31.066 -24.068  1.00  0.00     0.066 A 
ATOM     28  C   UNL     1       7.969  30.315 -24.738  1.00  0.00     0.066 A 
ATOM     29  C   UNL     1      10.753  29.995 -24.752  1.00  0.00     0.162 A 
ATOM     30  C   UNL     1       8.540  29.245 -25.431  1.00  0.00     0.162 A 
ATOM     31  C   UNL     1       9.937  29.081 -25.442  1.00  0.00     0.200 A 
BRANCH  29  32
ATOM     32  O   UNL     1      12.139  29.841 -24.720  1.00  0.00    -0.504 OA
ATOM     33  H   UNL     1      12.751  30.574 -24.382  1.00  0.00     0.293 HD
ENDBRANCH  29  32
BRANCH  30  34
ATOM     34  O   UNL     1       7.726  28.341 -26.117  1.00  0.00    -0.504 OA
ATOM     35  H   UNL     1       7.638  28.377 -27.127  1.00  0.00     0.293 HD
ENDBRANCH  30  34
BRANCH  31  36
ATOM     36  O   UNL     1      10.523  28.014 -26.125  1.00  0.00    -0.502 OA
ATOM     37  H   UNL     1      11.519  27.979 -26.323  1.00  0.00     0.293 HD
ENDBRANCH  31  36
ENDBRANCH  24  26
ENDBRANCH  23  24
ENDBRANCH   2  23
BRANCH   3  38
ATOM     38  O   UNL     1      11.515  32.769 -21.521  1.00  0.00    -0.450 OA
BRANCH  38  39
ATOM     39  C   UNL     1      12.525  31.838 -21.789  1.00  0.00     0.338 C 
ATOM     40  O   UNL     1      12.976  31.713 -22.961  1.00  0.00    -0.246 OA
BRANCH  39  41
ATOM     41  C   UNL     1      13.052  30.996 -20.690  1.00  0.00     0.067 A 
ATOM     42  C   UNL     1      14.414  30.656 -20.623  1.00  0.00     0.066 A 
ATOM     43  C   UNL     1      12.183  30.517 -19.698  1.00  0.00     0.066 A 
ATOM     44  C   UNL     1      14.896  29.824 -19.602  1.00  0.00     0.162 A 
ATOM     45  C   UNL     1      12.653  29.686 -18.677  1.00  0.00     0.162 A 
ATOM     46  C   UNL     1      14.011  29.331 -18.628  1.00  0.00     0.200 A 
BRANCH  44  47
ATOM     47  O   UNL     1      16.251  29.483 -19.551  1.00  0.00    -0.504 OA
ATOM     48  H   UNL     1      16.775  29.501 -18.683  1.00  0.00     0.293 HD
ENDBRANCH  44  47
BRANCH  45  49
ATOM     49  O   UNL     1      11.756  29.223 -17.713  1.00  0.00    -0.504 OA
ATOM     50  H   UNL     1      11.862  29.446 -16.732  1.00  0.00     0.293 HD
ENDBRANCH  45  49
BRANCH  46  51
ATOM     51  O   UNL     1      14.466  28.495 -17.608  1.00  0.00    -0.502 OA
ATOM     52  H   UNL     1      15.430  28.494 -17.294  1.00  0.00     0.293 HD
ENDBRANCH  46  51
ENDBRANCH  39  41
ENDBRANCH  38  39
ENDBRANCH   3  38
BRANCH   5  53
ATOM     53  O   UNL     1       9.437  33.104 -17.728  1.00  0.00    -0.428 OA
BRANCH  53  54
ATOM     54  C   UNL     1       9.247  33.522 -16.404  1.00  0.00     0.340 C 
ATOM     55  O   UNL     1       8.082  33.730 -15.967  1.00  0.00    -0.246 OA
BRANCH  54  56
ATOM     56  C   UNL     1      10.423  33.745 -15.534  1.00  0.00     0.067 A 
ATOM     57  C   UNL     1      11.194  34.911 -15.677  1.00  0.00     0.066 A 
ATOM     58  C   UNL     1      10.774  32.805 -14.552  1.00  0.00     0.066 A 
ATOM     59  C   UNL     1      12.309  35.131 -14.856  1.00  0.00     0.162 A 
ATOM     60  C   UNL     1      11.882  33.024 -13.722  1.00  0.00     0.162 A 
ATOM     61  C   UNL     1      12.657  34.184 -13.877  1.00  0.00     0.200 A 
BRANCH  59  62
ATOM     62  O   UNL     1      13.071  36.286 -15.006  1.00  0.00    -0.504 OA
ATOM     63  H   UNL     1      12.777  37.174 -14.614  1.00  0.00     0.293 HD
ENDBRANCH  59  62
BRANCH  60  64
ATOM     64  O   UNL     1      12.212  32.074 -12.756  1.00  0.00    -0.504 OA
ATOM     65  H   UNL     1      11.557  31.360 -12.461  1.00  0.00     0.293 HD
ENDBRANCH  60  64
BRANCH  61  66
ATOM     66  O   UNL     1      13.766  34.382 -13.051  1.00  0.00    -0.502 OA
ATOM     67  H   UNL     1      14.671  33.960 -13.255  1.00  0.00     0.293 HD
ENDBRANCH  61  66
ENDBRANCH  54  56
ENDBRANCH  53  54
ENDBRANCH   5  53
BRANCH   4  68
ATOM     68  O   UNL     1      11.449  34.428 -19.140  1.00  0.00    -0.448 OA
BRANCH  68  69
ATOM     69  C   UNL     1      12.140  35.612 -19.442  1.00  0.00     0.339 C 
ATOM     70  O   UNL     1      12.436  35.883 -20.637  1.00  0.00    -0.246 OA
BRANCH  69  71
ATOM     71  C   UNL     1      12.485  36.563 -18.364  1.00  0.00     0.067 A 
ATOM     72  C   UNL     1      13.729  36.486 -17.713  1.00  0.00     0.066 A 
ATOM     73  C   UNL     1      11.574  37.560 -17.979  1.00  0.00     0.066 A 
ATOM     74  C   UNL     1      14.071  37.411 -16.717  1.00  0.00     0.162 A 
ATOM     75  C   UNL     1      11.896  38.482 -16.973  1.00  0.00     0.162 A 
ATOM     76  C   UNL     1      13.167  38.418 -16.349  1.00  0.00     0.200 A 
BRANCH  74  77
ATOM     77  O   UNL     1      15.317  37.347 -16.093  1.00  0.00    -0.504 OA
ATOM     78  H   UNL     1      15.655  36.492 -15.679  1.00  0.00     0.293 HD
ENDBRANCH  74  77
BRANCH  75  79
ATOM     79  O   UNL     1      10.925  39.426 -16.626  1.00  0.00    -0.504 OA
ATOM     80  H   UNL     1      10.014  39.482 -17.052  1.00  0.00     0.293 HD
ENDBRANCH  75  79
BRANCH  76  81
ATOM     81  O   UNL     1      13.566  39.338 -15.376  1.00  0.00    -0.502 OA
ATOM     82  H   UNL     1      13.452  40.332 -15.473  1.00  0.00     0.293 HD
ENDBRANCH  76  81
ENDBRANCH  69  71
ENDBRANCH  68  69
ENDBRANCH   4  68
TORSDOF 31
ENDMDL
