MODEL 1
REMARK VINA RESULT:    -4.919      0.000      0.000
REMARK INTER + INTRA:          -5.415
REMARK INTER:                  -5.351
REMARK INTRA:                  -0.064
REMARK UNBOUND:                -0.064
REMARK SMILES CCc1cccc(O)c1
REMARK SMILES IDX 3 1 9 2 7 3 6 4 5 5 4 6 2 7 1 8 8 9
REMARK H PARENT 8 10
REMARK Flexibility Score: inf
ROOT
ATOM      1  C   UNL     1      -6.437  -6.129  13.861  1.00  0.00    -0.045 A 
ATOM      2  C   UNL     1      -5.678  -5.361  14.760  1.00  0.00     0.049 A 
ATOM      3  C   UNL     1      -4.380  -4.953  14.422  1.00  0.00     0.115 A 
ATOM      4  C   UNL     1      -3.835  -5.319  13.186  1.00  0.00     0.046 A 
ATOM      5  C   UNL     1      -4.580  -6.094  12.293  1.00  0.00     0.004 A 
ATOM      6  C   UNL     1      -5.875  -6.502  12.629  1.00  0.00     0.004 A 
ENDROOT
BRANCH   1   7
ATOM      7  C   UNL     1      -7.817  -6.596  14.238  1.00  0.00     0.032 C 
ATOM      8  C   UNL     1      -7.881  -8.119  14.275  1.00  0.00     0.009 C 
ENDBRANCH   1   7
BRANCH   3   9
ATOM      9  O   UNL     1      -3.623  -4.186  15.305  1.00  0.00    -0.508 OA
ATOM     10  H   UNL     1      -3.932  -4.014  16.255  1.00  0.00     0.293 HD
ENDBRANCH   3   9
TORSDOF 2
ENDMDL
MODEL 2
REMARK VINA RESULT:    -4.848      1.839      2.395
REMARK INTER + INTRA:          -5.337
REMARK INTER:                  -5.263
REMARK INTRA:                  -0.074
REMARK UNBOUND:                -0.064
REMARK SMILES CCc1cccc(O)c1
REMARK SMILES IDX 3 1 9 2 7 3 6 4 5 5 4 6 2 7 1 8 8 9
REMARK H PARENT 8 10
REMARK Flexibility Score: inf
ROOT
ATOM      1  C   UNL     1      -6.628  -6.982  13.565  1.00  0.00    -0.045 A 
ATOM      2  C   UNL     1      -5.580  -7.007  12.629  1.00  0.00     0.049 A 
ATOM      3  C   UNL     1      -4.960  -5.815  12.229  1.00  0.00     0.115 A 
ATOM      4  C   UNL     1      -5.392  -4.594  12.758  1.00  0.00     0.046 A 
ATOM      5  C   UNL     1      -6.443  -4.561  13.679  1.00  0.00     0.004 A 
ATOM      6  C   UNL     1      -7.062  -5.749  14.079  1.00  0.00     0.004 A 
ENDROOT
BRANCH   1   7
ATOM      7  C   UNL     1      -7.316  -8.258  13.969  1.00  0.00     0.032 C 
ATOM      8  C   UNL     1      -8.735  -7.977  14.451  1.00  0.00     0.009 C 
ENDBRANCH   1   7
BRANCH   3   9
ATOM      9  O   UNL     1      -3.916  -5.833  11.305  1.00  0.00    -0.508 OA
ATOM     10  H   UNL     1      -4.056  -6.156  10.355  1.00  0.00     0.293 HD
ENDBRANCH   3   9
TORSDOF 2
ENDMDL
MODEL 3
REMARK VINA RESULT:    -4.743      2.029      3.471
REMARK INTER + INTRA:          -5.223
REMARK INTER:                  -5.174
REMARK INTRA:                  -0.049
REMARK UNBOUND:                -0.064
REMARK SMILES CCc1cccc(O)c1
REMARK SMILES IDX 3 1 9 2 7 3 6 4 5 5 4 6 2 7 1 8 8 9
REMARK H PARENT 8 10
REMARK Flexibility Score: inf
ROOT
ATOM      1  C   UNL     1      -4.833  -4.927  14.494  1.00  0.00    -0.045 A 
ATOM      2  C   UNL     1      -6.157  -5.272  14.813  1.00  0.00     0.049 A 
ATOM      3  C   UNL     1      -6.882  -6.139  13.982  1.00  0.00     0.115 A 
ATOM      4  C   UNL     1      -6.286  -6.655  12.826  1.00  0.00     0.046 A 
ATOM      5  C   UNL     1      -4.974  -6.304  12.496  1.00  0.00     0.004 A 
ATOM      6  C   UNL     1      -4.250  -5.440  13.323  1.00  0.00     0.004 A 
ENDROOT
BRANCH   1   7
ATOM      7  C   UNL     1      -4.067  -3.970  15.367  1.00  0.00     0.032 C 
ATOM      8  C   UNL     1      -4.523  -4.078  16.818  1.00  0.00     0.009 C 
ENDBRANCH   1   7
BRANCH   3   9
ATOM      9  O   UNL     1      -8.193  -6.491  14.294  1.00  0.00    -0.508 OA
ATOM     10  H   UNL     1      -8.593  -6.290  15.203  1.00  0.00     0.293 HD
ENDBRANCH   3   9
TORSDOF 2
ENDMDL
MODEL 4
REMARK VINA RESULT:    -4.574      1.828      3.151
REMARK INTER + INTRA:          -5.039
REMARK INTER:                  -4.980
REMARK INTRA:                  -0.059
REMARK UNBOUND:                -0.064
REMARK SMILES CCc1cccc(O)c1
REMARK SMILES IDX 3 1 9 2 7 3 6 4 5 5 4 6 2 7 1 8 8 9
REMARK H PARENT 8 10
REMARK Flexibility Score: inf
ROOT
ATOM      1  C   UNL     1      -5.234  -4.712  14.424  1.00  0.00    -0.045 A 
ATOM      2  C   UNL     1      -4.238  -4.698  13.434  1.00  0.00     0.049 A 
ATOM      3  C   UNL     1      -4.280  -5.616  12.374  1.00  0.00     0.115 A 
ATOM      4  C   UNL     1      -5.314  -6.556  12.308  1.00  0.00     0.046 A 
ATOM      5  C   UNL     1      -6.300  -6.584  13.298  1.00  0.00     0.004 A 
ATOM      6  C   UNL     1      -6.260  -5.670  14.355  1.00  0.00     0.004 A 
ENDROOT
BRANCH   1   7
ATOM      7  C   UNL     1      -5.170  -3.750  15.579  1.00  0.00     0.032 C 
ATOM      8  C   UNL     1      -4.752  -4.468  16.858  1.00  0.00     0.009 C 
ENDBRANCH   1   7
BRANCH   3   9
ATOM      9  O   UNL     1      -3.298  -5.604  11.385  1.00  0.00    -0.508 OA
ATOM     10  H   UNL     1      -3.283  -4.893  10.663  1.00  0.00     0.293 HD
ENDBRANCH   3   9
TORSDOF 2
ENDMDL
MODEL 5
REMARK VINA RESULT:    -4.454     13.959     15.230
REMARK INTER + INTRA:          -4.909
REMARK INTER:                  -4.860
REMARK INTRA:                  -0.049
REMARK UNBOUND:                -0.064
REMARK SMILES CCc1cccc(O)c1
REMARK SMILES IDX 3 1 9 2 7 3 6 4 5 5 4 6 2 7 1 8 8 9
REMARK H PARENT 8 10
REMARK Flexibility Score: inf
ROOT
ATOM      1  C   UNL     1       3.825   4.751  13.055  1.00  0.00    -0.045 A 
ATOM      2  C   UNL     1       5.030   5.472  13.067  1.00  0.00     0.049 A 
ATOM      3  C   UNL     1       5.349   6.336  12.009  1.00  0.00     0.115 A 
ATOM      4  C   UNL     1       4.466   6.472  10.932  1.00  0.00     0.046 A 
ATOM      5  C   UNL     1       3.272   5.747  10.907  1.00  0.00     0.004 A 
ATOM      6  C   UNL     1       2.953   4.886  11.962  1.00  0.00     0.004 A 
ENDROOT
BRANCH   1   7
ATOM      7  C   UNL     1       3.499   3.799  14.173  1.00  0.00     0.032 C 
ATOM      8  C   UNL     1       4.116   4.274  15.485  1.00  0.00     0.009 C 
ENDBRANCH   1   7
BRANCH   3   9
ATOM      9  O   UNL     1       6.540   7.059  12.016  1.00  0.00    -0.508 OA
ATOM     10  H   UNL     1       7.310   6.804  12.623  1.00  0.00     0.293 HD
ENDBRANCH   3   9
TORSDOF 2
ENDMDL
MODEL 6
REMARK VINA RESULT:    -4.263     10.389     11.741
REMARK INTER + INTRA:          -4.701
REMARK INTER:                  -4.625
REMARK INTRA:                  -0.076
REMARK UNBOUND:                -0.064
REMARK SMILES CCc1cccc(O)c1
REMARK SMILES IDX 3 1 9 2 7 3 6 4 5 5 4 6 2 7 1 8 8 9
REMARK H PARENT 8 10
REMARK Flexibility Score: inf
ROOT
ATOM      1  C   UNL     1      -2.927  -5.610   2.553  1.00  0.00    -0.045 A 
ATOM      2  C   UNL     1      -4.260  -6.004   2.755  1.00  0.00     0.049 A 
ATOM      3  C   UNL     1      -4.557  -7.110   3.564  1.00  0.00     0.115 A 
ATOM      4  C   UNL     1      -3.519  -7.830   4.166  1.00  0.00     0.046 A 
ATOM      5  C   UNL     1      -2.190  -7.452   3.958  1.00  0.00     0.004 A 
ATOM      6  C   UNL     1      -1.893  -6.349   3.151  1.00  0.00     0.004 A 
ENDROOT
BRANCH   1   7
ATOM      7  C   UNL     1      -2.607  -4.444   1.657  1.00  0.00     0.032 C 
ATOM      8  C   UNL     1      -1.105  -4.185   1.622  1.00  0.00     0.009 C 
ENDBRANCH   1   7
BRANCH   3   9
ATOM      9  O   UNL     1      -5.877  -7.504   3.773  1.00  0.00    -0.508 OA
ATOM     10  H   UNL     1      -6.340  -8.155   3.150  1.00  0.00     0.293 HD
ENDBRANCH   3   9
TORSDOF 2
ENDMDL
MODEL 7
REMARK VINA RESULT:    -4.239     15.962     17.143
REMARK INTER + INTRA:          -4.675
REMARK INTER:                  -4.609
REMARK INTRA:                  -0.066
REMARK UNBOUND:                -0.064
REMARK SMILES CCc1cccc(O)c1
REMARK SMILES IDX 3 1 9 2 7 3 6 4 5 5 4 6 2 7 1 8 8 9
REMARK H PARENT 8 10
REMARK Flexibility Score: inf
ROOT
ATOM      1  C   UNL     1      -1.423   6.045   2.714  1.00  0.00    -0.045 A 
ATOM      2  C   UNL     1      -0.162   6.663   2.680  1.00  0.00     0.049 A 
ATOM      3  C   UNL     1       0.899   6.067   1.983  1.00  0.00     0.115 A 
ATOM      4  C   UNL     1       0.703   4.848   1.326  1.00  0.00     0.046 A 
ATOM      5  C   UNL     1      -0.546   4.222   1.368  1.00  0.00     0.004 A 
ATOM      6  C   UNL     1      -1.605   4.814   2.062  1.00  0.00     0.004 A 
ENDROOT
BRANCH   1   7
ATOM      7  C   UNL     1      -2.552   6.667   3.490  1.00  0.00     0.032 C 
ATOM      8  C   UNL     1      -3.078   5.702   4.547  1.00  0.00     0.009 C 
ENDBRANCH   1   7
BRANCH   3   9
ATOM      9  O   UNL     1       2.152   6.677   1.939  1.00  0.00    -0.508 OA
ATOM     10  H   UNL     1       2.516   7.194   2.730  1.00  0.00     0.293 HD
ENDBRANCH   3   9
TORSDOF 2
ENDMDL
MODEL 8
REMARK VINA RESULT:    -4.207      1.325      3.493
REMARK INTER + INTRA:          -4.640
REMARK INTER:                  -4.590
REMARK INTRA:                  -0.050
REMARK UNBOUND:                -0.064
REMARK SMILES CCc1cccc(O)c1
REMARK SMILES IDX 3 1 9 2 7 3 6 4 5 5 4 6 2 7 1 8 8 9
REMARK H PARENT 8 10
REMARK Flexibility Score: inf
ROOT
ATOM      1  C   UNL     1      -4.142  -5.677  12.849  1.00  0.00    -0.045 A 
ATOM      2  C   UNL     1      -4.219  -5.090  14.123  1.00  0.00     0.049 A 
ATOM      3  C   UNL     1      -5.429  -5.095  14.833  1.00  0.00     0.115 A 
ATOM      4  C   UNL     1      -6.566  -5.679  14.265  1.00  0.00     0.046 A 
ATOM      5  C   UNL     1      -6.499  -6.252  12.992  1.00  0.00     0.004 A 
ATOM      6  C   UNL     1      -5.293  -6.249  12.284  1.00  0.00     0.004 A 
ENDROOT
BRANCH   1   7
ATOM      7  C   UNL     1      -2.852  -5.642  12.074  1.00  0.00     0.032 C 
ATOM      8  C   UNL     1      -2.358  -4.208  11.912  1.00  0.00     0.009 C 
ENDBRANCH   1   7
BRANCH   3   9
ATOM      9  O   UNL     1      -5.512  -4.520  16.099  1.00  0.00    -0.508 OA
ATOM     10  H   UNL     1      -4.716  -4.059  16.524  1.00  0.00     0.293 HD
ENDBRANCH   3   9
TORSDOF 2
ENDMDL
MODEL 9
REMARK VINA RESULT:    -4.200     13.923     14.968
REMARK INTER + INTRA:          -4.632
REMARK INTER:                  -4.581
REMARK INTRA:                  -0.051
REMARK UNBOUND:                -0.064
REMARK SMILES CCc1cccc(O)c1
REMARK SMILES IDX 3 1 9 2 7 3 6 4 5 5 4 6 2 7 1 8 8 9
REMARK H PARENT 8 10
REMARK Flexibility Score: inf
ROOT
ATOM      1  C   UNL     1       4.241   4.858  12.949  1.00  0.00    -0.045 A 
ATOM      2  C   UNL     1       3.015   4.690  12.285  1.00  0.00     0.049 A 
ATOM      3  C   UNL     1       2.718   5.448  11.143  1.00  0.00     0.115 A 
ATOM      4  C   UNL     1       3.645   6.382  10.667  1.00  0.00     0.046 A 
ATOM      5  C   UNL     1       4.861   6.563  11.331  1.00  0.00     0.004 A 
ATOM      6  C   UNL     1       5.158   5.808  12.470  1.00  0.00     0.004 A 
ENDROOT
BRANCH   1   7
ATOM      7  C   UNL     1       4.545   4.070  14.194  1.00  0.00     0.032 C 
ATOM      8  C   UNL     1       3.790   4.637  15.391  1.00  0.00     0.009 C 
ENDBRANCH   1   7
BRANCH   3   9
ATOM      9  O   UNL     1       1.505   5.283  10.476  1.00  0.00    -0.508 OA
ATOM     10  H   UNL     1       0.739   5.933  10.603  1.00  0.00     0.293 HD
ENDBRANCH   3   9
TORSDOF 2
ENDMDL
