MODEL 1
REMARK VINA RESULT:    -6.352      0.000      0.000
REMARK INTER + INTRA:          -8.302
REMARK INTER:                  -8.023
REMARK INTRA:                  -0.278
REMARK UNBOUND:                -0.278
REMARK SMILES CC(C)=CCCC(C)=CCO
REMARK SMILES IDX 7 1 9 2 8 3 6 4 5 5 4 6 1 7 2 8 3 9 10 10 11 11
REMARK H PARENT 11 12
REMARK Flexibility Score: inf
ROOT
ATOM      1  C   UNL     1     -15.161   1.622  -8.360  1.00  0.00    -0.075 C 
ATOM      2  C   UNL     1     -16.407   2.139  -8.443  1.00  0.00    -0.000 C 
ATOM      3  C   UNL     1     -14.453   1.063  -9.571  1.00  0.00     0.039 C 
ENDROOT
BRANCH   1   4
ATOM      4  C   UNL     1     -14.461   1.600  -7.018  1.00  0.00     0.034 C 
BRANCH   4   5
ATOM      5  C   UNL     1     -15.322   0.891  -5.966  1.00  0.00     0.032 C 
BRANCH   5   6
ATOM      6  C   UNL     1     -15.957   1.890  -5.032  1.00  0.00    -0.028 C 
ATOM      7  C   UNL     1     -17.939   0.433  -4.563  1.00  0.00     0.039 C 
ATOM      8  C   UNL     1     -17.120   1.688  -4.374  1.00  0.00    -0.080 C 
ATOM      9  C   UNL     1     -17.613   2.765  -3.442  1.00  0.00     0.039 C 
ENDBRANCH   5   6
ENDBRANCH   4   5
ENDBRANCH   1   4
BRANCH   2  10
ATOM     10  C   UNL     1     -17.201   2.220  -9.721  1.00  0.00     0.183 C 
BRANCH  10  11
ATOM     11  O   UNL     1     -17.999   1.079  -9.879  1.00  0.00    -0.392 OA
ATOM     12  H   UNL     1     -18.011   0.873 -10.850  1.00  0.00     0.210 HD
ENDBRANCH  10  11
ENDBRANCH   2  10
TORSDOF 5
ENDMDL
MODEL 2
REMARK VINA RESULT:    -6.271      1.136      1.900
REMARK INTER + INTRA:          -8.199
REMARK INTER:                  -7.908
REMARK INTRA:                  -0.291
REMARK UNBOUND:                -0.278
REMARK SMILES CC(C)=CCCC(C)=CCO
REMARK SMILES IDX 7 1 9 2 8 3 6 4 5 5 4 6 1 7 2 8 3 9 10 10 11 11
REMARK H PARENT 11 12
REMARK Flexibility Score: inf
ROOT
ATOM      1  C   UNL     1     -15.643   2.014  -7.495  1.00  0.00    -0.075 C 
ATOM      2  C   UNL     1     -16.780   2.267  -8.181  1.00  0.00    -0.000 C 
ATOM      3  C   UNL     1     -14.421   1.440  -8.171  1.00  0.00     0.039 C 
ENDROOT
BRANCH   1   4
ATOM      4  C   UNL     1     -15.597   2.313  -6.012  1.00  0.00     0.034 C 
BRANCH   4   5
ATOM      5  C   UNL     1     -16.996   2.217  -5.393  1.00  0.00     0.032 C 
BRANCH   5   6
ATOM      6  C   UNL     1     -16.953   2.536  -3.920  1.00  0.00    -0.028 C 
ATOM      7  C   UNL     1     -18.413   4.558  -4.153  1.00  0.00     0.039 C 
ATOM      8  C   UNL     1     -17.605   3.570  -3.344  1.00  0.00    -0.080 C 
ATOM      9  C   UNL     1     -17.498   3.743  -1.851  1.00  0.00     0.039 C 
ENDBRANCH   5   6
ENDBRANCH   4   5
ENDBRANCH   1   4
BRANCH   2  10
ATOM     10  C   UNL     1     -16.945   2.016  -9.658  1.00  0.00     0.183 C 
BRANCH  10  11
ATOM     11  O   UNL     1     -18.089   1.246  -9.904  1.00  0.00    -0.392 OA
ATOM     12  H   UNL     1     -18.140   1.120 -10.887  1.00  0.00     0.210 HD
ENDBRANCH  10  11
ENDBRANCH   2  10
TORSDOF 5
ENDMDL
MODEL 3
REMARK VINA RESULT:    -6.178      1.897      2.453
REMARK INTER + INTRA:          -8.082
REMARK INTER:                  -7.816
REMARK INTRA:                  -0.266
REMARK UNBOUND:                -0.278
REMARK SMILES CC(C)=CCCC(C)=CCO
REMARK SMILES IDX 7 1 9 2 8 3 6 4 5 5 4 6 1 7 2 8 3 9 10 10 11 11
REMARK H PARENT 11 12
REMARK Flexibility Score: inf
ROOT
ATOM      1  C   UNL     1     -15.305   1.328  -8.498  1.00  0.00    -0.075 C 
ATOM      2  C   UNL     1     -14.208   0.593  -8.789  1.00  0.00    -0.000 C 
ATOM      3  C   UNL     1     -16.436   1.487  -9.485  1.00  0.00     0.039 C 
ENDROOT
BRANCH   1   4
ATOM      4  C   UNL     1     -15.396   2.011  -7.150  1.00  0.00     0.034 C 
BRANCH   4   5
ATOM      5  C   UNL     1     -16.809   2.559  -6.912  1.00  0.00     0.032 C 
BRANCH   5   6
ATOM      6  C   UNL     1     -16.949   3.081  -5.504  1.00  0.00    -0.028 C 
ATOM      7  C   UNL     1     -17.649   0.862  -4.579  1.00  0.00     0.039 C 
ATOM      8  C   UNL     1     -17.302   2.325  -4.441  1.00  0.00    -0.080 C 
ATOM      9  C   UNL     1     -17.365   2.979  -3.085  1.00  0.00     0.039 C 
ENDBRANCH   5   6
ENDBRANCH   4   5
ENDBRANCH   1   4
BRANCH   2  10
ATOM     10  C   UNL     1     -14.005  -0.135 -10.092  1.00  0.00     0.183 C 
BRANCH  10  11
ATOM     11  O   UNL     1     -13.255  -1.302  -9.895  1.00  0.00    -0.392 OA
ATOM     12  H   UNL     1     -13.371  -1.556  -8.943  1.00  0.00     0.210 HD
ENDBRANCH  10  11
ENDBRANCH   2  10
TORSDOF 5
ENDMDL
MODEL 4
REMARK VINA RESULT:    -6.169      2.325      3.259
REMARK INTER + INTRA:          -8.070
REMARK INTER:                  -7.823
REMARK INTRA:                  -0.247
REMARK UNBOUND:                -0.278
REMARK SMILES CC(C)=CCCC(C)=CCO
REMARK SMILES IDX 7 1 9 2 8 3 6 4 5 5 4 6 1 7 2 8 3 9 10 10 11 11
REMARK H PARENT 11 12
REMARK Flexibility Score: inf
ROOT
ATOM      1  C   UNL     1     -15.838   2.032  -7.576  1.00  0.00    -0.075 C 
ATOM      2  C   UNL     1     -16.174   1.750  -8.854  1.00  0.00    -0.000 C 
ATOM      3  C   UNL     1     -16.800   2.720  -6.638  1.00  0.00     0.039 C 
ENDROOT
BRANCH   1   4
ATOM      4  C   UNL     1     -14.461   1.649  -7.075  1.00  0.00     0.034 C 
BRANCH   4   5
ATOM      5  C   UNL     1     -14.088   2.464  -5.831  1.00  0.00     0.032 C 
BRANCH   5   6
ATOM      6  C   UNL     1     -13.701   1.555  -4.692  1.00  0.00    -0.028 C 
ATOM      7  C   UNL     1     -12.253   3.280  -3.596  1.00  0.00     0.039 C 
ATOM      8  C   UNL     1     -12.897   1.915  -3.667  1.00  0.00    -0.080 C 
ATOM      9  C   UNL     1     -12.629   0.909  -2.578  1.00  0.00     0.039 C 
ENDBRANCH   5   6
ENDBRANCH   4   5
ENDBRANCH   1   4
BRANCH   2  10
ATOM     10  C   UNL     1     -17.512   2.078  -9.464  1.00  0.00     0.183 C 
BRANCH  10  11
ATOM     11  O   UNL     1     -18.042   0.960 -10.123  1.00  0.00    -0.392 OA
ATOM     12  H   UNL     1     -17.737   0.162  -9.617  1.00  0.00     0.210 HD
ENDBRANCH  10  11
ENDBRANCH   2  10
TORSDOF 5
ENDMDL
MODEL 5
REMARK VINA RESULT:    -6.155      2.053      2.898
REMARK INTER + INTRA:          -8.053
REMARK INTER:                  -7.423
REMARK INTRA:                  -0.630
REMARK UNBOUND:                -0.278
REMARK SMILES CC(C)=CCCC(C)=CCO
REMARK SMILES IDX 7 1 9 2 8 3 6 4 5 5 4 6 1 7 2 8 3 9 10 10 11 11
REMARK H PARENT 11 12
REMARK Flexibility Score: inf
ROOT
ATOM      1  C   UNL     1     -16.200   0.993  -7.191  1.00  0.00    -0.075 C 
ATOM      2  C   UNL     1     -14.987   0.520  -7.555  1.00  0.00    -0.000 C 
ATOM      3  C   UNL     1     -16.686   2.351  -7.636  1.00  0.00     0.039 C 
ENDROOT
BRANCH   1   4
ATOM      4  C   UNL     1     -17.090   0.138  -6.314  1.00  0.00     0.034 C 
BRANCH   4   5
ATOM      5  C   UNL     1     -16.788   0.382  -4.831  1.00  0.00     0.032 C 
BRANCH   5   6
ATOM      6  C   UNL     1     -17.688   1.455  -4.271  1.00  0.00    -0.028 C 
ATOM      7  C   UNL     1     -15.827   3.112  -4.027  1.00  0.00     0.039 C 
ATOM      8  C   UNL     1     -17.275   2.695  -3.928  1.00  0.00    -0.080 C 
ATOM      9  C   UNL     1     -18.298   3.676  -3.416  1.00  0.00     0.039 C 
ENDBRANCH   5   6
ENDBRANCH   4   5
ENDBRANCH   1   4
BRANCH   2  10
ATOM     10  C   UNL     1     -14.017   1.274  -8.427  1.00  0.00     0.183 C 
BRANCH  10  11
ATOM     11  O   UNL     1     -13.140   2.037  -7.644  1.00  0.00    -0.392 OA
ATOM     12  H   UNL     1     -12.700   2.682  -8.258  1.00  0.00     0.210 HD
ENDBRANCH  10  11
ENDBRANCH   2  10
TORSDOF 5
ENDMDL
MODEL 6
REMARK VINA RESULT:    -6.127      2.833      5.567
REMARK INTER + INTRA:          -8.017
REMARK INTER:                  -7.784
REMARK INTRA:                  -0.233
REMARK UNBOUND:                -0.278
REMARK SMILES CC(C)=CCCC(C)=CCO
REMARK SMILES IDX 7 1 9 2 8 3 6 4 5 5 4 6 1 7 2 8 3 9 10 10 11 11
REMARK H PARENT 11 12
REMARK Flexibility Score: inf
ROOT
ATOM      1  C   UNL     1     -16.808   2.937  -4.075  1.00  0.00    -0.075 C 
ATOM      2  C   UNL     1     -18.016   3.331  -3.614  1.00  0.00    -0.000 C 
ATOM      3  C   UNL     1     -15.523   3.470  -3.487  1.00  0.00     0.039 C 
ENDROOT
BRANCH   1   4
ATOM      4  C   UNL     1     -16.744   1.939  -5.211  1.00  0.00     0.034 C 
BRANCH   4   5
ATOM      5  C   UNL     1     -16.744   2.656  -6.567  1.00  0.00     0.032 C 
BRANCH   5   6
ATOM      6  C   UNL     1     -15.736   2.035  -7.501  1.00  0.00    -0.028 C 
ATOM      7  C   UNL     1     -17.281   2.101  -9.470  1.00  0.00     0.039 C 
ATOM      8  C   UNL     1     -15.954   1.802  -8.814  1.00  0.00    -0.080 C 
ATOM      9  C   UNL     1     -14.836   1.209  -9.632  1.00  0.00     0.039 C 
ENDBRANCH   5   6
ENDBRANCH   4   5
ENDBRANCH   1   4
BRANCH   2  10
ATOM     10  C   UNL     1     -18.206   4.313  -2.487  1.00  0.00     0.183 C 
BRANCH  10  11
ATOM     11  O   UNL     1     -19.561   4.638  -2.339  1.00  0.00    -0.392 OA
ATOM     12  H   UNL     1     -19.895   4.884  -3.241  1.00  0.00     0.210 HD
ENDBRANCH  10  11
ENDBRANCH   2  10
TORSDOF 5
ENDMDL
MODEL 7
REMARK VINA RESULT:    -5.996      1.800      2.689
REMARK INTER + INTRA:          -7.852
REMARK INTER:                  -7.585
REMARK INTRA:                  -0.267
REMARK UNBOUND:                -0.278
REMARK SMILES CC(C)=CCCC(C)=CCO
REMARK SMILES IDX 7 1 9 2 8 3 6 4 5 5 4 6 1 7 2 8 3 9 10 10 11 11
REMARK H PARENT 11 12
REMARK Flexibility Score: inf
ROOT
ATOM      1  C   UNL     1     -16.393   2.142  -8.310  1.00  0.00    -0.075 C 
ATOM      2  C   UNL     1     -15.133   1.652  -8.348  1.00  0.00    -0.000 C 
ATOM      3  C   UNL     1     -17.302   2.081  -9.514  1.00  0.00     0.039 C 
ENDROOT
BRANCH   1   4
ATOM      4  C   UNL     1     -16.901   2.767  -7.028  1.00  0.00     0.034 C 
BRANCH   4   5
ATOM      5  C   UNL     1     -16.368   2.012  -5.805  1.00  0.00     0.032 C 
BRANCH   5   6
ATOM      6  C   UNL     1     -17.122   2.410  -4.561  1.00  0.00    -0.028 C 
ATOM      7  C   UNL     1     -15.163   3.614  -3.567  1.00  0.00     0.039 C 
ATOM      8  C   UNL     1     -16.601   3.151  -3.558  1.00  0.00    -0.080 C 
ATOM      9  C   UNL     1     -17.488   3.504  -2.392  1.00  0.00     0.039 C 
ENDBRANCH   5   6
ENDBRANCH   4   5
ENDBRANCH   1   4
BRANCH   2  10
ATOM     10  C   UNL     1     -14.518   1.004  -9.561  1.00  0.00     0.183 C 
BRANCH  10  11
ATOM     11  O   UNL     1     -13.302   0.392  -9.232  1.00  0.00    -0.392 OA
ATOM     12  H   UNL     1     -13.460  -0.587  -9.259  1.00  0.00     0.210 HD
ENDBRANCH  10  11
ENDBRANCH   2  10
TORSDOF 5
ENDMDL
MODEL 8
REMARK VINA RESULT:    -5.930      2.119      4.883
REMARK INTER + INTRA:          -7.768
REMARK INTER:                  -7.435
REMARK INTRA:                  -0.333
REMARK UNBOUND:                -0.278
REMARK SMILES CC(C)=CCCC(C)=CCO
REMARK SMILES IDX 7 1 9 2 8 3 6 4 5 5 4 6 1 7 2 8 3 9 10 10 11 11
REMARK H PARENT 11 12
REMARK Flexibility Score: inf
ROOT
ATOM      1  C   UNL     1     -16.616   1.427  -4.661  1.00  0.00    -0.075 C 
ATOM      2  C   UNL     1     -16.656   2.638  -4.061  1.00  0.00    -0.000 C 
ATOM      3  C   UNL     1     -17.785   0.473  -4.597  1.00  0.00     0.039 C 
ENDROOT
BRANCH   1   4
ATOM      4  C   UNL     1     -15.367   1.019  -5.412  1.00  0.00     0.034 C 
BRANCH   4   5
ATOM      5  C   UNL     1     -15.020   2.049  -6.494  1.00  0.00     0.032 C 
BRANCH   5   6
ATOM      6  C   UNL     1     -16.166   2.216  -7.460  1.00  0.00    -0.028 C 
ATOM      7  C   UNL     1     -14.891   1.253  -9.388  1.00  0.00     0.039 C 
ATOM      8  C   UNL     1     -16.132   1.840  -8.757  1.00  0.00    -0.080 C 
ATOM      9  C   UNL     1     -17.370   2.036  -9.594  1.00  0.00     0.039 C 
ENDBRANCH   5   6
ENDBRANCH   4   5
ENDBRANCH   1   4
BRANCH   2  10
ATOM     10  C   UNL     1     -17.842   3.157  -3.290  1.00  0.00     0.183 C 
BRANCH  10  11
ATOM     11  O   UNL     1     -18.461   4.206  -3.983  1.00  0.00    -0.392 OA
ATOM     12  H   UNL     1     -18.008   5.041  -3.696  1.00  0.00     0.210 HD
ENDBRANCH  10  11
ENDBRANCH   2  10
TORSDOF 5
ENDMDL
MODEL 9
REMARK VINA RESULT:    -5.742      2.987      5.718
REMARK INTER + INTRA:          -7.531
REMARK INTER:                  -7.255
REMARK INTRA:                  -0.276
REMARK UNBOUND:                -0.278
REMARK SMILES CC(C)=CCCC(C)=CCO
REMARK SMILES IDX 7 1 9 2 8 3 6 4 5 5 4 6 1 7 2 8 3 9 10 10 11 11
REMARK H PARENT 11 12
REMARK Flexibility Score: inf
ROOT
ATOM      1  C   UNL     1     -16.920   3.138  -4.127  1.00  0.00    -0.075 C 
ATOM      2  C   UNL     1     -15.737   3.443  -3.547  1.00  0.00    -0.000 C 
ATOM      3  C   UNL     1     -18.204   3.808  -3.702  1.00  0.00     0.039 C 
ENDROOT
BRANCH   1   4
ATOM      4  C   UNL     1     -16.955   2.098  -5.226  1.00  0.00     0.034 C 
BRANCH   4   5
ATOM      5  C   UNL     1     -16.887   2.762  -6.606  1.00  0.00     0.032 C 
BRANCH   5   6
ATOM      6  C   UNL     1     -15.840   2.100  -7.467  1.00  0.00    -0.028 C 
ATOM      7  C   UNL     1     -17.311   2.046  -9.493  1.00  0.00     0.039 C 
ATOM      8  C   UNL     1     -16.007   1.795  -8.773  1.00  0.00    -0.080 C 
ATOM      9  C   UNL     1     -14.856   1.168  -9.516  1.00  0.00     0.039 C 
ENDBRANCH   5   6
ENDBRANCH   4   5
ENDBRANCH   1   4
BRANCH   2  10
ATOM     10  C   UNL     1     -15.575   4.461  -2.449  1.00  0.00     0.183 C 
BRANCH  10  11
ATOM     11  O   UNL     1     -15.241   5.713  -2.981  1.00  0.00    -0.392 OA
ATOM     12  H   UNL     1     -14.346   5.946  -2.619  1.00  0.00     0.210 HD
ENDBRANCH  10  11
ENDBRANCH   2  10
TORSDOF 5
ENDMDL
