MODEL 1
REMARK VINA RESULT:    -5.493      0.000      0.000
REMARK INTER + INTRA:          -6.219
REMARK INTER:                  -5.975
REMARK INTRA:                  -0.244
REMARK UNBOUND:                -0.244
REMARK SMILES C=C1C[C@]2(O)O[C@]3(C[C@H]2C(C)C)[C@H](C)CC[C@H]13
REMARK SMILES IDX 14 1 13 2 15 3 16 4 17 5 7 6 8 7 9 8 4 9 6 10 3 11 2 12 1 13
REMARK SMILES IDX 10 14 11 15 12 16 5 17
REMARK H PARENT 5 18
REMARK Flexibility Score: inf
ROOT
ATOM      1  C   UNL     1      11.295 -21.971  -9.252  1.00  0.00     0.011 C 
ATOM      2  C   UNL     1      10.205 -21.378  -8.345  1.00  0.00     0.019 C 
ATOM      3  C   UNL     1       9.099 -22.393  -8.030  1.00  0.00     0.007 C 
ATOM      4  C   UNL     1       7.768 -21.639  -8.064  1.00  0.00     0.011 C 
ATOM      5  C   UNL     1       8.099 -20.158  -8.264  1.00  0.00     0.047 C 
ATOM      6  C   UNL     1       9.490 -20.155  -8.941  1.00  0.00     0.081 C 
ATOM      7  C   UNL     1      10.244 -18.844  -8.743  1.00  0.00     0.046 C 
ATOM      8  C   UNL     1       9.648 -17.949  -9.827  1.00  0.00     0.054 C 
ATOM      9  C   UNL     1       8.900 -18.990 -10.730  1.00  0.00     0.173 C 
ATOM     10  O   UNL     1       9.326 -20.274 -10.331  1.00  0.00    -0.342 OA
ATOM     11  C   UNL     1       7.375 -18.915 -10.484  1.00  0.00     0.096 C 
ATOM     12  C   UNL     1       7.040 -19.439  -9.098  1.00  0.00    -0.066 C 
ATOM     13  C   UNL     1       5.804 -19.270  -8.610  1.00  0.00     0.008 C 
ENDROOT
BRANCH   8  14
ATOM     14  C   UNL     1      10.695 -17.041 -10.548  1.00  0.00    -0.009 C 
ATOM     15  C   UNL     1      10.455 -15.555 -10.211  1.00  0.00     0.008 C 
ATOM     16  C   UNL     1      12.141 -17.389 -10.144  1.00  0.00     0.008 C 
ENDBRANCH   8  14
BRANCH   9  17
ATOM     17  O   UNL     1       9.183 -18.807 -12.095  1.00  0.00    -0.365 OA
ATOM     18  H   UNL     1       9.254 -19.708 -12.507  1.00  0.00     0.214 HD
ENDBRANCH   9  17
TORSDOF 2
ENDMDL
MODEL 2
REMARK VINA RESULT:    -5.203      1.240      1.313
REMARK INTER + INTRA:          -5.903
REMARK INTER:                  -5.683
REMARK INTRA:                  -0.221
REMARK UNBOUND:                -0.244
REMARK SMILES C=C1C[C@]2(O)O[C@]3(C[C@H]2C(C)C)[C@H](C)CC[C@H]13
REMARK SMILES IDX 14 1 13 2 15 3 16 4 17 5 7 6 8 7 9 8 4 9 6 10 3 11 2 12 1 13
REMARK SMILES IDX 10 14 11 15 12 16 5 17
REMARK H PARENT 5 18
REMARK Flexibility Score: inf
ROOT
ATOM      1  C   UNL     1       9.899 -22.776 -11.167  1.00  0.00     0.011 C 
ATOM      2  C   UNL     1       9.657 -22.422  -9.691  1.00  0.00     0.019 C 
ATOM      3  C   UNL     1       8.564 -23.292  -9.059  1.00  0.00     0.007 C 
ATOM      4  C   UNL     1       7.733 -22.387  -8.148  1.00  0.00     0.011 C 
ATOM      5  C   UNL     1       8.415 -21.017  -8.138  1.00  0.00     0.047 C 
ATOM      6  C   UNL     1       9.216 -20.968  -9.460  1.00  0.00     0.081 C 
ATOM      7  C   UNL     1      10.372 -19.974  -9.419  1.00  0.00     0.046 C 
ATOM      8  C   UNL     1       9.681 -18.645  -9.718  1.00  0.00     0.054 C 
ATOM      9  C   UNL     1       8.286 -19.120 -10.253  1.00  0.00     0.173 C 
ATOM     10  O   UNL     1       8.377 -20.508 -10.489  1.00  0.00    -0.342 OA
ATOM     11  C   UNL     1       7.198 -18.909  -9.174  1.00  0.00     0.096 C 
ATOM     12  C   UNL     1       7.410 -19.873  -8.019  1.00  0.00    -0.066 C 
ATOM     13  C   UNL     1       6.703 -19.717  -6.892  1.00  0.00     0.008 C 
ENDROOT
BRANCH   8  14
ATOM     14  C   UNL     1      10.495 -17.704 -10.662  1.00  0.00    -0.009 C 
ATOM     15  C   UNL     1      10.511 -16.261 -10.117  1.00  0.00     0.008 C 
ATOM     16  C   UNL     1      11.958 -18.164 -10.819  1.00  0.00     0.008 C 
ENDBRANCH   8  14
BRANCH   9  17
ATOM     17  O   UNL     1       7.925 -18.466 -11.444  1.00  0.00    -0.365 OA
ATOM     18  H   UNL     1       8.703 -17.919 -11.730  1.00  0.00     0.214 HD
ENDBRANCH   9  17
TORSDOF 2
ENDMDL
MODEL 3
REMARK VINA RESULT:    -4.826      1.385      4.676
REMARK INTER + INTRA:          -5.493
REMARK INTER:                  -5.262
REMARK INTRA:                  -0.231
REMARK UNBOUND:                -0.244
REMARK SMILES C=C1C[C@]2(O)O[C@]3(C[C@H]2C(C)C)[C@H](C)CC[C@H]13
REMARK SMILES IDX 14 1 13 2 15 3 16 4 17 5 7 6 8 7 9 8 4 9 6 10 3 11 2 12 1 13
REMARK SMILES IDX 10 14 11 15 12 16 5 17
REMARK H PARENT 5 18
REMARK Flexibility Score: inf
ROOT
ATOM      1  C   UNL     1      10.612 -16.682 -10.279  1.00  0.00     0.011 C 
ATOM      2  C   UNL     1      11.232 -17.625  -9.236  1.00  0.00     0.019 C 
ATOM      3  C   UNL     1      12.754 -17.741  -9.394  1.00  0.00     0.007 C 
ATOM      4  C   UNL     1      13.125 -19.205  -9.149  1.00  0.00     0.011 C 
ATOM      5  C   UNL     1      11.845 -19.923  -8.714  1.00  0.00     0.047 C 
ATOM      6  C   UNL     1      10.697 -19.064  -9.294  1.00  0.00     0.081 C 
ATOM      7  C   UNL     1       9.377 -19.259  -8.556  1.00  0.00     0.046 C 
ATOM      8  C   UNL     1       8.825 -20.534  -9.190  1.00  0.00     0.054 C 
ATOM      9  C   UNL     1       9.732 -20.682 -10.460  1.00  0.00     0.173 C 
ATOM     10  O   UNL     1      10.439 -19.471 -10.614  1.00  0.00    -0.342 OA
ATOM     11  C   UNL     1      10.779 -21.800 -10.243  1.00  0.00     0.096 C 
ATOM     12  C   UNL     1      11.800 -21.369  -9.204  1.00  0.00    -0.066 C 
ATOM     13  C   UNL     1      12.669 -22.267  -8.721  1.00  0.00     0.008 C 
ENDROOT
BRANCH   8  14
ATOM     14  C   UNL     1       7.284 -20.500  -9.447  1.00  0.00    -0.009 C 
ATOM     15  C   UNL     1       6.591 -21.708  -8.783  1.00  0.00     0.008 C 
ATOM     16  C   UNL     1       6.631 -19.218  -8.893  1.00  0.00     0.008 C 
ENDBRANCH   8  14
BRANCH   9  17
ATOM     17  O   UNL     1       8.982 -20.936 -11.621  1.00  0.00    -0.365 OA
ATOM     18  H   UNL     1       8.045 -20.668 -11.434  1.00  0.00     0.214 HD
ENDBRANCH   9  17
TORSDOF 2
ENDMDL
MODEL 4
REMARK VINA RESULT:    -4.723      1.742      3.623
REMARK INTER + INTRA:          -5.381
REMARK INTER:                  -5.149
REMARK INTRA:                  -0.232
REMARK UNBOUND:                -0.244
REMARK SMILES C=C1C[C@]2(O)O[C@]3(C[C@H]2C(C)C)[C@H](C)CC[C@H]13
REMARK SMILES IDX 14 1 13 2 15 3 16 4 17 5 7 6 8 7 9 8 4 9 6 10 3 11 2 12 1 13
REMARK SMILES IDX 10 14 11 15 12 16 5 17
REMARK H PARENT 5 18
REMARK Flexibility Score: inf
ROOT
ATOM      1  C   UNL     1       7.546 -19.252  -8.531  1.00  0.00     0.011 C 
ATOM      2  C   UNL     1       7.966 -20.081  -9.755  1.00  0.00     0.019 C 
ATOM      3  C   UNL     1       7.601 -21.563  -9.603  1.00  0.00     0.007 C 
ATOM      4  C   UNL     1       8.761 -22.378 -10.178  1.00  0.00     0.011 C 
ATOM      5  C   UNL     1       9.747 -21.380 -10.790  1.00  0.00     0.047 C 
ATOM      6  C   UNL     1       9.475 -20.052 -10.044  1.00  0.00     0.081 C 
ATOM      7  C   UNL     1       9.928 -18.825 -10.828  1.00  0.00     0.046 C 
ATOM      8  C   UNL     1      11.422 -18.764 -10.518  1.00  0.00     0.054 C 
ATOM      9  C   UNL     1      11.541 -19.748  -9.304  1.00  0.00     0.173 C 
ATOM     10  O   UNL     1      10.232 -20.027  -8.860  1.00  0.00    -0.342 OA
ATOM     11  C   UNL     1      12.166 -21.087  -9.759  1.00  0.00     0.096 C 
ATOM     12  C   UNL     1      11.197 -21.843 -10.652  1.00  0.00    -0.066 C 
ATOM     13  C   UNL     1      11.619 -22.926 -11.317  1.00  0.00     0.008 C 
ENDROOT
BRANCH   8  14
ATOM     14  C   UNL     1      11.964 -17.317 -10.286  1.00  0.00    -0.009 C 
ATOM     15  C   UNL     1      13.125 -17.004 -11.252  1.00  0.00     0.008 C 
ATOM     16  C   UNL     1      10.873 -16.248 -10.499  1.00  0.00     0.008 C 
ENDBRANCH   8  14
BRANCH   9  17
ATOM     17  O   UNL     1      12.286 -19.197  -8.247  1.00  0.00    -0.365 OA
ATOM     18  H   UNL     1      12.728 -18.377  -8.590  1.00  0.00     0.214 HD
ENDBRANCH   9  17
TORSDOF 2
ENDMDL
MODEL 5
REMARK VINA RESULT:    -4.599      1.590      4.444
REMARK INTER + INTRA:          -5.247
REMARK INTER:                  -4.988
REMARK INTRA:                  -0.259
REMARK UNBOUND:                -0.244
REMARK SMILES C=C1C[C@]2(O)O[C@]3(C[C@H]2C(C)C)[C@H](C)CC[C@H]13
REMARK SMILES IDX 14 1 13 2 15 3 16 4 17 5 7 6 8 7 9 8 4 9 6 10 3 11 2 12 1 13
REMARK SMILES IDX 10 14 11 15 12 16 5 17
REMARK H PARENT 5 18
REMARK Flexibility Score: inf
ROOT
ATOM      1  C   UNL     1      13.125 -17.844  -9.751  1.00  0.00     0.011 C 
ATOM      2  C   UNL     1      11.778 -17.980 -10.478  1.00  0.00     0.019 C 
ATOM      3  C   UNL     1      10.909 -16.725 -10.327  1.00  0.00     0.007 C 
ATOM      4  C   UNL     1       9.465 -17.192 -10.133  1.00  0.00     0.011 C 
ATOM      5  C   UNL     1       9.462 -18.713 -10.304  1.00  0.00     0.047 C 
ATOM      6  C   UNL     1      10.911 -19.147  -9.981  1.00  0.00     0.081 C 
ATOM      7  C   UNL     1      11.280 -20.493 -10.596  1.00  0.00     0.046 C 
ATOM      8  C   UNL     1      10.695 -21.489  -9.598  1.00  0.00     0.054 C 
ATOM      9  C   UNL     1      10.396 -20.571  -8.363  1.00  0.00     0.173 C 
ATOM     10  O   UNL     1      11.037 -19.335  -8.594  1.00  0.00    -0.342 OA
ATOM     11  C   UNL     1       8.879 -20.288  -8.260  1.00  0.00     0.096 C 
ATOM     12  C   UNL     1       8.433 -19.393  -9.403  1.00  0.00    -0.066 C 
ATOM     13  C   UNL     1       7.124 -19.197  -9.616  1.00  0.00     0.008 C 
ENDROOT
BRANCH   8  14
ATOM     14  C   UNL     1      11.607 -22.728  -9.327  1.00  0.00    -0.009 C 
ATOM     15  C   UNL     1      11.155 -23.936 -10.173  1.00  0.00     0.008 C 
ATOM     16  C   UNL     1      13.085 -22.445  -9.662  1.00  0.00     0.008 C 
ENDBRANCH   8  14
BRANCH   9  17
ATOM     17  O   UNL     1      10.871 -21.126  -7.162  1.00  0.00    -0.365 OA
ATOM     18  H   UNL     1      11.792 -21.456  -7.331  1.00  0.00     0.214 HD
ENDBRANCH   9  17
TORSDOF 2
ENDMDL
MODEL 6
REMARK VINA RESULT:    -4.556      1.749      5.052
REMARK INTER + INTRA:          -5.200
REMARK INTER:                  -4.941
REMARK INTRA:                  -0.259
REMARK UNBOUND:                -0.244
REMARK SMILES C=C1C[C@]2(O)O[C@]3(C[C@H]2C(C)C)[C@H](C)CC[C@H]13
REMARK SMILES IDX 14 1 13 2 15 3 16 4 17 5 7 6 8 7 9 8 4 9 6 10 3 11 2 12 1 13
REMARK SMILES IDX 10 14 11 15 12 16 5 17
REMARK H PARENT 5 18
REMARK Flexibility Score: inf
ROOT
ATOM      1  C   UNL     1       7.933 -18.435 -10.824  1.00  0.00     0.011 C 
ATOM      2  C   UNL     1       8.846 -18.714  -9.620  1.00  0.00     0.019 C 
ATOM      3  C   UNL     1      10.307 -18.923 -10.038  1.00  0.00     0.007 C 
ATOM      4  C   UNL     1      10.868 -20.056  -9.177  1.00  0.00     0.011 C 
ATOM      5  C   UNL     1       9.784 -20.424  -8.161  1.00  0.00     0.047 C 
ATOM      6  C   UNL     1       8.460 -19.968  -8.819  1.00  0.00     0.081 C 
ATOM      7  C   UNL     1       7.344 -19.731  -7.806  1.00  0.00     0.046 C 
ATOM      8  C   UNL     1       6.809 -21.140  -7.564  1.00  0.00     0.054 C 
ATOM      9  C   UNL     1       7.450 -21.938  -8.750  1.00  0.00     0.173 C 
ATOM     10  O   UNL     1       7.983 -20.993  -9.652  1.00  0.00    -0.342 OA
ATOM     11  C   UNL     1       8.628 -22.802  -8.242  1.00  0.00     0.096 C 
ATOM     12  C   UNL     1       9.789 -21.914  -7.827  1.00  0.00    -0.066 C 
ATOM     13  C   UNL     1      10.826 -22.449  -7.168  1.00  0.00     0.008 C 
ENDROOT
BRANCH   8  14
ATOM     14  C   UNL     1       5.253 -21.217  -7.445  1.00  0.00    -0.009 C 
ATOM     15  C   UNL     1       4.815 -21.211  -5.966  1.00  0.00     0.008 C 
ATOM     16  C   UNL     1       4.558 -20.033  -8.147  1.00  0.00     0.008 C 
ENDBRANCH   8  14
BRANCH   9  17
ATOM     17  O   UNL     1       6.509 -22.742  -9.419  1.00  0.00    -0.365 OA
ATOM     18  H   UNL     1       6.982 -23.195 -10.165  1.00  0.00     0.214 HD
ENDBRANCH   9  17
TORSDOF 2
ENDMDL
MODEL 7
REMARK VINA RESULT:    -4.472      2.787      5.023
REMARK INTER + INTRA:          -5.109
REMARK INTER:                  -4.874
REMARK INTRA:                  -0.235
REMARK UNBOUND:                -0.244
REMARK SMILES C=C1C[C@]2(O)O[C@]3(C[C@H]2C(C)C)[C@H](C)CC[C@H]13
REMARK SMILES IDX 14 1 13 2 15 3 16 4 17 5 7 6 8 7 9 8 4 9 6 10 3 11 2 12 1 13
REMARK SMILES IDX 10 14 11 15 12 16 5 17
REMARK H PARENT 5 18
REMARK Flexibility Score: inf
ROOT
ATOM      1  C   UNL     1       7.221 -18.478  -9.203  1.00  0.00     0.011 C 
ATOM      2  C   UNL     1       6.206 -19.620  -9.360  1.00  0.00     0.019 C 
ATOM      3  C   UNL     1       4.857 -19.290  -8.707  1.00  0.00     0.007 C 
ATOM      4  C   UNL     1       4.353 -20.568  -8.035  1.00  0.00     0.011 C 
ATOM      5  C   UNL     1       5.334 -21.684  -8.405  1.00  0.00     0.047 C 
ATOM      6  C   UNL     1       6.655 -20.950  -8.735  1.00  0.00     0.081 C 
ATOM      7  C   UNL     1       7.582 -21.768  -9.629  1.00  0.00     0.046 C 
ATOM      8  C   UNL     1       8.275 -22.695  -8.633  1.00  0.00     0.054 C 
ATOM      9  C   UNL     1       7.917 -22.022  -7.263  1.00  0.00     0.173 C 
ATOM     10  O   UNL     1       7.380 -20.749  -7.548  1.00  0.00    -0.342 OA
ATOM     11  C   UNL     1       6.817 -22.833  -6.539  1.00  0.00     0.096 C 
ATOM     12  C   UNL     1       5.497 -22.704  -7.280  1.00  0.00    -0.066 C 
ATOM     13  C   UNL     1       4.468 -23.492  -6.936  1.00  0.00     0.008 C 
ENDROOT
BRANCH   8  14
ATOM     14  C   UNL     1       9.796 -22.909  -8.917  1.00  0.00    -0.009 C 
ATOM     15  C   UNL     1      10.013 -24.100  -9.872  1.00  0.00     0.008 C 
ATOM     16  C   UNL     1      10.447 -21.667  -9.557  1.00  0.00     0.008 C 
ENDBRANCH   8  14
BRANCH   9  17
ATOM     17  O   UNL     1       9.043 -21.879  -6.433  1.00  0.00    -0.365 OA
ATOM     18  H   UNL     1       9.580 -22.709  -6.514  1.00  0.00     0.214 HD
ENDBRANCH   9  17
TORSDOF 2
ENDMDL
MODEL 8
REMARK VINA RESULT:    -4.461      2.576      4.938
REMARK INTER + INTRA:          -5.097
REMARK INTER:                  -4.879
REMARK INTRA:                  -0.218
REMARK UNBOUND:                -0.244
REMARK SMILES C=C1C[C@]2(O)O[C@]3(C[C@H]2C(C)C)[C@H](C)CC[C@H]13
REMARK SMILES IDX 14 1 13 2 15 3 16 4 17 5 7 6 8 7 9 8 4 9 6 10 3 11 2 12 1 13
REMARK SMILES IDX 10 14 11 15 12 16 5 17
REMARK H PARENT 5 18
REMARK Flexibility Score: inf
ROOT
ATOM      1  C   UNL     1       4.396 -22.730  -7.222  1.00  0.00     0.011 C 
ATOM      2  C   UNL     1       4.903 -21.280  -7.271  1.00  0.00     0.019 C 
ATOM      3  C   UNL     1       4.060 -20.403  -8.205  1.00  0.00     0.007 C 
ATOM      4  C   UNL     1       5.023 -19.478  -8.951  1.00  0.00     0.011 C 
ATOM      5  C   UNL     1       6.416 -19.714  -8.361  1.00  0.00     0.047 C 
ATOM      6  C   UNL     1       6.352 -21.139  -7.764  1.00  0.00     0.081 C 
ATOM      7  C   UNL     1       7.397 -21.376  -6.678  1.00  0.00     0.046 C 
ATOM      8  C   UNL     1       8.650 -21.705  -7.487  1.00  0.00     0.054 C 
ATOM      9  C   UNL     1       8.054 -21.972  -8.912  1.00  0.00     0.173 C 
ATOM     10  O   UNL     1       6.654 -22.073  -8.769  1.00  0.00    -0.342 OA
ATOM     11  C   UNL     1       8.334 -20.771  -9.844  1.00  0.00     0.096 C 
ATOM     12  C   UNL     1       7.518 -19.567  -9.409  1.00  0.00    -0.066 C 
ATOM     13  C   UNL     1       7.767 -18.368  -9.955  1.00  0.00     0.008 C 
ENDROOT
BRANCH   8  14
ATOM     14  C   UNL     1       9.516 -22.854  -6.877  1.00  0.00    -0.009 C 
ATOM     15  C   UNL     1      11.015 -22.493  -6.921  1.00  0.00     0.008 C 
ATOM     16  C   UNL     1       9.144 -23.144  -5.409  1.00  0.00     0.008 C 
ENDBRANCH   8  14
BRANCH   9  17
ATOM     17  O   UNL     1       8.552 -23.158  -9.481  1.00  0.00    -0.365 OA
ATOM     18  H   UNL     1       8.503 -23.864  -8.785  1.00  0.00     0.214 HD
ENDBRANCH   9  17
TORSDOF 2
ENDMDL
MODEL 9
REMARK VINA RESULT:    -4.411      1.792      3.719
REMARK INTER + INTRA:          -5.042
REMARK INTER:                  -4.821
REMARK INTRA:                  -0.221
REMARK UNBOUND:                -0.244
REMARK SMILES C=C1C[C@]2(O)O[C@]3(C[C@H]2C(C)C)[C@H](C)CC[C@H]13
REMARK SMILES IDX 14 1 13 2 15 3 16 4 17 5 7 6 8 7 9 8 4 9 6 10 3 11 2 12 1 13
REMARK SMILES IDX 10 14 11 15 12 16 5 17
REMARK H PARENT 5 18
REMARK Flexibility Score: inf
ROOT
ATOM      1  C   UNL     1       5.832 -19.622  -7.799  1.00  0.00     0.011 C 
ATOM      2  C   UNL     1       6.104 -20.548  -8.995  1.00  0.00     0.019 C 
ATOM      3  C   UNL     1       5.455 -21.926  -8.820  1.00  0.00     0.007 C 
ATOM      4  C   UNL     1       6.445 -22.965  -9.351  1.00  0.00     0.011 C 
ATOM      5  C   UNL     1       7.616 -22.193  -9.962  1.00  0.00     0.047 C 
ATOM      6  C   UNL     1       7.595 -20.820  -9.251  1.00  0.00     0.081 C 
ATOM      7  C   UNL     1       8.291 -19.724 -10.052  1.00  0.00     0.046 C 
ATOM      8  C   UNL     1       9.763 -19.945  -9.710  1.00  0.00     0.054 C 
ATOM      9  C   UNL     1       9.667 -20.903  -8.473  1.00  0.00     0.173 C 
ATOM     10  O   UNL     1       8.321 -20.911  -8.051  1.00  0.00    -0.342 OA
ATOM     11  C   UNL     1      10.027 -22.349  -8.885  1.00  0.00     0.096 C 
ATOM     12  C   UNL     1       8.945 -22.925  -9.782  1.00  0.00    -0.066 C 
ATOM     13  C   UNL     1       9.161 -24.086 -10.415  1.00  0.00     0.008 C 
ENDROOT
BRANCH   8  14
ATOM     14  C   UNL     1      10.571 -18.625  -9.497  1.00  0.00    -0.009 C 
ATOM     15  C   UNL     1      11.917 -18.680 -10.249  1.00  0.00     0.008 C 
ATOM     16  C   UNL     1       9.802 -17.387  -9.998  1.00  0.00     0.008 C 
ENDBRANCH   8  14
BRANCH   9  17
ATOM     17  O   UNL     1      10.486 -20.480  -7.411  1.00  0.00    -0.365 OA
ATOM     18  H   UNL     1      11.428 -20.546  -7.718  1.00  0.00     0.214 HD
ENDBRANCH   9  17
TORSDOF 2
ENDMDL
