MODEL 1
REMARK VINA RESULT:    -4.463      0.000      0.000
REMARK INTER + INTRA:          -4.463
REMARK INTER:                  -4.463
REMARK INTRA:                   0.000
REMARK UNBOUND:                 0.000
REMARK SMILES C=C1CCC[C@]2(C)CC(=O)C(=C(C)C)C[C@H]12
REMARK SMILES IDX 13 1 12 2 11 3 15 4 16 5 2 6 1 7 3 8 4 9 5 10 6 11 8 12 9 13
REMARK SMILES IDX 10 14 7 15 14 16
REMARK H PARENT
REMARK Flexibility Score: inf
ROOT
ATOM      1  C   UNL     1      27.624  29.497  24.363  1.00  0.00     0.039 C 
ATOM      2  C   UNL     1      28.263  29.433  25.731  1.00  0.00    -0.070 C 
ATOM      3  C   UNL     1      28.104  28.346  26.538  1.00  0.00    -0.006 C 
ATOM      4  C   UNL     1      27.279  27.146  26.120  1.00  0.00     0.047 C 
ATOM      5  C   UNL     1      27.834  25.800  26.656  1.00  0.00     0.025 C 
ATOM      6  C   UNL     1      26.810  24.709  26.386  1.00  0.00    -0.073 C 
ATOM      7  C   UNL     1      26.934  23.905  25.318  1.00  0.00     0.008 C 
ATOM      8  C   UNL     1      25.566  24.649  27.247  1.00  0.00     0.031 C 
ATOM      9  C   UNL     1      25.906  24.770  28.740  1.00  0.00     0.005 C 
ATOM     10  C   UNL     1      26.897  25.912  29.034  1.00  0.00     0.008 C 
ATOM     11  C   UNL     1      28.193  25.824  28.176  1.00  0.00    -0.018 C 
ATOM     12  C   UNL     1      29.122  27.027  28.491  1.00  0.00     0.088 C 
ATOM     13  C   UNL     1      28.608  28.314  27.931  1.00  0.00     0.159 C 
ATOM     14  O   UNL     1      28.610  29.347  28.652  1.00  0.00    -0.295 OA
ATOM     15  C   UNL     1      28.982  24.539  28.546  1.00  0.00     0.012 C 
ATOM     16  C   UNL     1      29.119  30.607  26.151  1.00  0.00     0.039 C 
ENDROOT
TORSDOF 0
ENDMDL
MODEL 2
REMARK VINA RESULT:    -3.428      2.407      3.448
REMARK INTER + INTRA:          -3.428
REMARK INTER:                  -3.428
REMARK INTRA:                   0.000
REMARK UNBOUND:                 0.000
REMARK SMILES C=C1CCC[C@]2(C)CC(=O)C(=C(C)C)C[C@H]12
REMARK SMILES IDX 13 1 12 2 11 3 15 4 16 5 2 6 1 7 3 8 4 9 5 10 6 11 8 12 9 13
REMARK SMILES IDX 10 14 7 15 14 16
REMARK H PARENT
REMARK Flexibility Score: inf
ROOT
ATOM      1  C   UNL     1      22.573  27.265  28.331  1.00  0.00     0.039 C 
ATOM      2  C   UNL     1      23.762  28.098  28.751  1.00  0.00    -0.070 C 
ATOM      3  C   UNL     1      25.037  27.631  28.623  1.00  0.00    -0.006 C 
ATOM      4  C   UNL     1      25.338  26.256  28.061  1.00  0.00     0.047 C 
ATOM      5  C   UNL     1      26.654  26.201  27.242  1.00  0.00     0.025 C 
ATOM      6  C   UNL     1      26.978  24.747  26.938  1.00  0.00    -0.073 C 
ATOM      7  C   UNL     1      26.655  24.210  25.751  1.00  0.00     0.008 C 
ATOM      8  C   UNL     1      27.522  23.875  28.049  1.00  0.00     0.031 C 
ATOM      9  C   UNL     1      28.655  24.575  28.814  1.00  0.00     0.005 C 
ATOM     10  C   UNL     1      28.314  26.032  29.181  1.00  0.00     0.008 C 
ATOM     11  C   UNL     1      27.870  26.878  27.951  1.00  0.00    -0.018 C 
ATOM     12  C   UNL     1      27.500  28.316  28.400  1.00  0.00     0.088 C 
ATOM     13  C   UNL     1      26.207  28.371  29.148  1.00  0.00     0.159 C 
ATOM     14  O   UNL     1      26.135  29.043  30.211  1.00  0.00    -0.295 OA
ATOM     15  C   UNL     1      29.050  27.010  26.951  1.00  0.00     0.012 C 
ATOM     16  C   UNL     1      23.481  29.486  29.282  1.00  0.00     0.039 C 
ENDROOT
TORSDOF 0
ENDMDL
MODEL 3
REMARK VINA RESULT:    -2.554     12.752     15.535
REMARK INTER + INTRA:          -2.554
REMARK INTER:                  -2.554
REMARK INTRA:                   0.000
REMARK UNBOUND:                 0.000
REMARK SMILES C=C1CCC[C@]2(C)CC(=O)C(=C(C)C)C[C@H]12
REMARK SMILES IDX 13 1 12 2 11 3 15 4 16 5 2 6 1 7 3 8 4 9 5 10 6 11 8 12 9 13
REMARK SMILES IDX 10 14 7 15 14 16
REMARK H PARENT
REMARK Flexibility Score: inf
ROOT
ATOM      1  C   UNL     1      27.999  42.060  23.989  1.00  0.00     0.039 C 
ATOM      2  C   UNL     1      28.032  42.620  22.586  1.00  0.00    -0.070 C 
ATOM      3  C   UNL     1      28.020  41.802  21.495  1.00  0.00    -0.006 C 
ATOM      4  C   UNL     1      27.978  40.292  21.620  1.00  0.00     0.047 C 
ATOM      5  C   UNL     1      27.171  39.603  20.489  1.00  0.00     0.025 C 
ATOM      6  C   UNL     1      27.396  38.102  20.575  1.00  0.00    -0.073 C 
ATOM      7  C   UNL     1      26.499  37.311  21.186  1.00  0.00     0.008 C 
ATOM      8  C   UNL     1      28.720  37.536  20.105  1.00  0.00     0.031 C 
ATOM      9  C   UNL     1      29.125  38.107  18.738  1.00  0.00     0.005 C 
ATOM     10  C   UNL     1      28.958  39.637  18.659  1.00  0.00     0.008 C 
ATOM     11  C   UNL     1      27.529  40.111  19.056  1.00  0.00    -0.018 C 
ATOM     12  C   UNL     1      27.446  41.659  18.997  1.00  0.00     0.088 C 
ATOM     13  C   UNL     1      28.186  42.318  20.117  1.00  0.00     0.159 C 
ATOM     14  O   UNL     1      28.937  43.299  19.870  1.00  0.00    -0.295 OA
ATOM     15  C   UNL     1      26.493  39.567  18.036  1.00  0.00     0.012 C 
ATOM     16  C   UNL     1      28.040  44.125  22.442  1.00  0.00     0.039 C 
ENDROOT
TORSDOF 0
ENDMDL
MODEL 4
REMARK VINA RESULT:    -2.504      1.527      3.060
REMARK INTER + INTRA:          -2.504
REMARK INTER:                  -2.504
REMARK INTRA:                   0.000
REMARK UNBOUND:                 0.000
REMARK SMILES C=C1CCC[C@]2(C)CC(=O)C(=C(C)C)C[C@H]12
REMARK SMILES IDX 13 1 12 2 11 3 15 4 16 5 2 6 1 7 3 8 4 9 5 10 6 11 8 12 9 13
REMARK SMILES IDX 10 14 7 15 14 16
REMARK H PARENT
REMARK Flexibility Score: inf
ROOT
ATOM      1  C   UNL     1      28.810  30.544  28.120  1.00  0.00     0.039 C 
ATOM      2  C   UNL     1      28.647  29.717  26.866  1.00  0.00    -0.070 C 
ATOM      3  C   UNL     1      28.388  28.380  26.926  1.00  0.00    -0.006 C 
ATOM      4  C   UNL     1      28.255  27.643  28.244  1.00  0.00     0.047 C 
ATOM      5  C   UNL     1      27.218  26.491  28.203  1.00  0.00     0.025 C 
ATOM      6  C   UNL     1      27.341  25.679  29.482  1.00  0.00    -0.073 C 
ATOM      7  C   UNL     1      26.505  25.893  30.510  1.00  0.00     0.008 C 
ATOM      8  C   UNL     1      28.520  24.741  29.638  1.00  0.00     0.031 C 
ATOM      9  C   UNL     1      28.728  23.882  28.382  1.00  0.00     0.005 C 
ATOM     10  C   UNL     1      28.665  24.705  27.081  1.00  0.00     0.008 C 
ATOM     11  C   UNL     1      27.364  25.552  26.963  1.00  0.00    -0.018 C 
ATOM     12  C   UNL     1      27.389  26.386  25.655  1.00  0.00     0.088 C 
ATOM     13  C   UNL     1      28.355  27.525  25.717  1.00  0.00     0.159 C 
ATOM     14  O   UNL     1      29.125  27.737  24.743  1.00  0.00    -0.295 OA
ATOM     15  C   UNL     1      26.132  24.612  26.873  1.00  0.00     0.012 C 
ATOM     16  C   UNL     1      28.742  30.442  25.542  1.00  0.00     0.039 C 
ENDROOT
TORSDOF 0
ENDMDL
MODEL 5
REMARK VINA RESULT:    -1.864      2.696      4.659
REMARK INTER + INTRA:          -1.864
REMARK INTER:                  -1.864
REMARK INTRA:                   0.000
REMARK UNBOUND:                 0.000
REMARK SMILES C=C1CCC[C@]2(C)CC(=O)C(=C(C)C)C[C@H]12
REMARK SMILES IDX 13 1 12 2 11 3 15 4 16 5 2 6 1 7 3 8 4 9 5 10 6 11 8 12 9 13
REMARK SMILES IDX 10 14 7 15 14 16
REMARK H PARENT
REMARK Flexibility Score: inf
ROOT
ATOM      1  C   UNL     1      23.509  28.746  28.375  1.00  0.00     0.039 C 
ATOM      2  C   UNL     1      23.534  27.236  28.329  1.00  0.00    -0.070 C 
ATOM      3  C   UNL     1      24.703  26.550  28.181  1.00  0.00    -0.006 C 
ATOM      4  C   UNL     1      26.038  27.253  28.047  1.00  0.00     0.047 C 
ATOM      5  C   UNL     1      27.211  26.476  28.700  1.00  0.00     0.025 C 
ATOM      6  C   UNL     1      28.518  27.141  28.300  1.00  0.00    -0.073 C 
ATOM      7  C   UNL     1      29.125  28.007  29.128  1.00  0.00     0.008 C 
ATOM      8  C   UNL     1      29.039  26.935  26.893  1.00  0.00     0.031 C 
ATOM      9  C   UNL     1      28.991  25.456  26.483  1.00  0.00     0.005 C 
ATOM     10  C   UNL     1      27.647  24.787  26.829  1.00  0.00     0.008 C 
ATOM     11  C   UNL     1      27.252  24.960  28.325  1.00  0.00    -0.018 C 
ATOM     12  C   UNL     1      25.872  24.302  28.590  1.00  0.00     0.088 C 
ATOM     13  C   UNL     1      24.740  25.081  28.001  1.00  0.00     0.159 C 
ATOM     14  O   UNL     1      23.839  24.475  27.360  1.00  0.00    -0.295 OA
ATOM     15  C   UNL     1      28.280  24.226  29.228  1.00  0.00     0.012 C 
ATOM     16  C   UNL     1      22.214  26.517  28.496  1.00  0.00     0.039 C 
ENDROOT
TORSDOF 0
ENDMDL
