MODEL 1
REMARK VINA RESULT:    -2.738      0.000      0.000
REMARK INTER + INTRA:          -3.068
REMARK INTER:                  -3.058
REMARK INTRA:                  -0.010
REMARK UNBOUND:                -0.010
REMARK SMILES CCCC(=O)[O-]
REMARK SMILES IDX 3 1 4 2 5 3 6 4 2 5 1 6
REMARK H PARENT
REMARK Flexibility Score: inf
ROOT
ATOM      1  C   UNL     1      10.978 -15.120  -2.265  1.00  0.00     0.052 C 
ENDROOT
BRANCH   1   2
ATOM      2  C   UNL     1      12.184 -14.369  -2.739  1.00  0.00     0.041 C 
ATOM      3  O   UNL     1      12.612 -14.532  -3.912  1.00  0.00    -0.550 OA
ATOM      4  O   UNL     1      12.854 -13.512  -1.875  1.00  0.00    -0.550 OA
ENDBRANCH   1   2
BRANCH   1   5
ATOM      5  C   UNL     1      10.957 -16.557  -2.802  1.00  0.00     0.003 C 
ATOM      6  C   UNL     1      10.585 -17.576  -1.726  1.00  0.00     0.004 C 
ENDBRANCH   1   5
TORSDOF 2
ENDMDL
MODEL 2
REMARK VINA RESULT:    -2.669     22.470     23.047
REMARK INTER + INTRA:          -2.991
REMARK INTER:                  -2.984
REMARK INTRA:                  -0.007
REMARK UNBOUND:                -0.010
REMARK SMILES CCCC(=O)[O-]
REMARK SMILES IDX 3 1 4 2 5 3 6 4 2 5 1 6
REMARK H PARENT
REMARK Flexibility Score: inf
ROOT
ATOM      1  C   UNL     1      -2.996 -11.159  14.746  1.00  0.00     0.052 C 
ENDROOT
BRANCH   1   2
ATOM      2  C   UNL     1      -2.977  -9.726  14.311  1.00  0.00     0.041 C 
ATOM      3  O   UNL     1      -3.814  -8.910  14.779  1.00  0.00    -0.550 OA
ATOM      4  O   UNL     1      -2.054  -9.299  13.365  1.00  0.00    -0.550 OA
ENDBRANCH   1   2
BRANCH   1   5
ATOM      5  C   UNL     1      -4.298 -11.860  14.336  1.00  0.00     0.003 C 
ATOM      6  C   UNL     1      -4.054 -13.257  13.768  1.00  0.00     0.004 C 
ENDBRANCH   1   5
TORSDOF 2
ENDMDL
MODEL 3
REMARK VINA RESULT:    -2.429     10.042     10.811
REMARK INTER + INTRA:          -2.723
REMARK INTER:                  -2.690
REMARK INTRA:                  -0.033
REMARK UNBOUND:                -0.010
REMARK SMILES CCCC(=O)[O-]
REMARK SMILES IDX 3 1 4 2 5 3 6 4 2 5 1 6
REMARK H PARENT
REMARK Flexibility Score: inf
ROOT
ATOM      1  C   UNL     1       3.878 -18.604   2.186  1.00  0.00     0.052 C 
ENDROOT
BRANCH   1   2
ATOM      2  C   UNL     1       3.284 -19.603   1.242  1.00  0.00     0.041 C 
ATOM      3  O   UNL     1       3.762 -19.745   0.086  1.00  0.00    -0.550 OA
ATOM      4  O   UNL     1       2.181 -20.355   1.627  1.00  0.00    -0.550 OA
ENDBRANCH   1   2
BRANCH   1   5
ATOM      5  C   UNL     1       2.797 -17.872   2.992  1.00  0.00     0.003 C 
ATOM      6  C   UNL     1       2.754 -18.321   4.452  1.00  0.00     0.004 C 
ENDBRANCH   1   5
TORSDOF 2
ENDMDL
MODEL 4
REMARK VINA RESULT:    -2.377      9.959     10.775
REMARK INTER + INTRA:          -2.665
REMARK INTER:                  -2.621
REMARK INTRA:                  -0.044
REMARK UNBOUND:                -0.010
REMARK SMILES CCCC(=O)[O-]
REMARK SMILES IDX 3 1 4 2 5 3 6 4 2 5 1 6
REMARK H PARENT
REMARK Flexibility Score: inf
ROOT
ATOM      1  C   UNL     1       3.163 -17.996   2.672  1.00  0.00     0.052 C 
ENDROOT
BRANCH   1   2
ATOM      2  C   UNL     1       4.017 -19.039   2.019  1.00  0.00     0.041 C 
ATOM      3  O   UNL     1       5.040 -19.479   2.607  1.00  0.00    -0.550 OA
ATOM      4  O   UNL     1       3.702 -19.500   0.747  1.00  0.00    -0.550 OA
ENDBRANCH   1   2
BRANCH   1   5
ATOM      5  C   UNL     1       2.127 -18.620   3.616  1.00  0.00     0.003 C 
ATOM      6  C   UNL     1       0.889 -19.120   2.872  1.00  0.00     0.004 C 
ENDBRANCH   1   5
TORSDOF 2
ENDMDL
MODEL 5
REMARK VINA RESULT:    -2.243     10.876     11.500
REMARK INTER + INTRA:          -2.516
REMARK INTER:                  -2.479
REMARK INTRA:                  -0.036
REMARK UNBOUND:                -0.010
REMARK SMILES CCCC(=O)[O-]
REMARK SMILES IDX 3 1 4 2 5 3 6 4 2 5 1 6
REMARK H PARENT
REMARK Flexibility Score: inf
ROOT
ATOM      1  C   UNL     1       2.700 -17.912   3.088  1.00  0.00     0.052 C 
ENDROOT
BRANCH   1   2
ATOM      2  C   UNL     1       2.536 -18.595   4.411  1.00  0.00     0.041 C 
ATOM      3  O   UNL     1       2.138 -19.789   4.462  1.00  0.00    -0.550 OA
ATOM      4  O   UNL     1       2.791 -17.904   5.588  1.00  0.00    -0.550 OA
ENDBRANCH   1   2
BRANCH   1   5
ATOM      5  C   UNL     1       3.880 -18.487   2.294  1.00  0.00     0.003 C 
ATOM      6  C   UNL     1       3.427 -19.422   1.173  1.00  0.00     0.004 C 
ENDBRANCH   1   5
TORSDOF 2
ENDMDL
MODEL 6
REMARK VINA RESULT:    -2.180     18.241     18.825
REMARK INTER + INTRA:          -2.445
REMARK INTER:                  -2.425
REMARK INTRA:                  -0.020
REMARK UNBOUND:                -0.010
REMARK SMILES CCCC(=O)[O-]
REMARK SMILES IDX 3 1 4 2 5 3 6 4 2 5 1 6
REMARK H PARENT
REMARK Flexibility Score: inf
ROOT
ATOM      1  C   UNL     1      -5.113 -14.624   6.634  1.00  0.00     0.052 C 
ENDROOT
BRANCH   1   2
ATOM      2  C   UNL     1      -4.112 -14.610   7.748  1.00  0.00     0.041 C 
ATOM      3  O   UNL     1      -2.918 -14.281   7.523  1.00  0.00    -0.550 OA
ATOM      4  O   UNL     1      -4.491 -14.993   9.028  1.00  0.00    -0.550 OA
ENDBRANCH   1   2
BRANCH   1   5
ATOM      5  C   UNL     1      -4.759 -13.608   5.540  1.00  0.00     0.003 C 
ATOM      6  C   UNL     1      -5.122 -14.107   4.142  1.00  0.00     0.004 C 
ENDBRANCH   1   5
TORSDOF 2
ENDMDL
MODEL 7
REMARK VINA RESULT:    -2.180     10.929     11.865
REMARK INTER + INTRA:          -2.445
REMARK INTER:                  -2.403
REMARK INTRA:                  -0.041
REMARK UNBOUND:                -0.010
REMARK SMILES CCCC(=O)[O-]
REMARK SMILES IDX 3 1 4 2 5 3 6 4 2 5 1 6
REMARK H PARENT
REMARK Flexibility Score: inf
ROOT
ATOM      1  C   UNL     1       2.267 -18.739   4.145  1.00  0.00     0.052 C 
ENDROOT
BRANCH   1   2
ATOM      2  C   UNL     1       2.999 -18.578   5.442  1.00  0.00     0.041 C 
ATOM      3  O   UNL     1       2.637 -17.700   6.268  1.00  0.00    -0.550 OA
ATOM      4  O   UNL     1       4.099 -19.378   5.724  1.00  0.00    -0.550 OA
ENDBRANCH   1   2
BRANCH   1   5
ATOM      5  C   UNL     1       2.805 -17.788   3.068  1.00  0.00     0.003 C 
ATOM      6  C   UNL     1       3.869 -18.444   2.189  1.00  0.00     0.004 C 
ENDBRANCH   1   5
TORSDOF 2
ENDMDL
MODEL 8
REMARK VINA RESULT:    -2.160      8.110      8.751
REMARK INTER + INTRA:          -2.423
REMARK INTER:                  -2.385
REMARK INTRA:                  -0.038
REMARK UNBOUND:                -0.010
REMARK SMILES CCCC(=O)[O-]
REMARK SMILES IDX 3 1 4 2 5 3 6 4 2 5 1 6
REMARK H PARENT
REMARK Flexibility Score: inf
ROOT
ATOM      1  C   UNL     1       9.414 -16.302   6.062  1.00  0.00     0.052 C 
ENDROOT
BRANCH   1   2
ATOM      2  C   UNL     1      10.262 -16.052   4.852  1.00  0.00     0.041 C 
ATOM      3  O   UNL     1      10.002 -16.632   3.765  1.00  0.00    -0.550 OA
ATOM      4  O   UNL     1      11.359 -15.204   4.935  1.00  0.00    -0.550 OA
ENDBRANCH   1   2
BRANCH   1   5
ATOM      5  C   UNL     1       8.879 -14.994   6.659  1.00  0.00     0.003 C 
ATOM      6  C   UNL     1       9.533 -14.655   7.999  1.00  0.00     0.004 C 
ENDBRANCH   1   5
TORSDOF 2
ENDMDL
MODEL 9
REMARK VINA RESULT:    -2.083     17.422     18.053
REMARK INTER + INTRA:          -2.336
REMARK INTER:                  -2.303
REMARK INTRA:                  -0.034
REMARK UNBOUND:                -0.010
REMARK SMILES CCCC(=O)[O-]
REMARK SMILES IDX 3 1 4 2 5 3 6 4 2 5 1 6
REMARK H PARENT
REMARK Flexibility Score: inf
ROOT
ATOM      1  C   UNL     1      -3.739  -6.031  -1.075  1.00  0.00     0.052 C 
ENDROOT
BRANCH   1   2
ATOM      2  C   UNL     1      -3.103  -6.556   0.176  1.00  0.00     0.041 C 
ATOM      3  O   UNL     1      -3.374  -6.037   1.290  1.00  0.00    -0.550 OA
ATOM      4  O   UNL     1      -2.186  -7.597   0.106  1.00  0.00    -0.550 OA
ENDBRANCH   1   2
BRANCH   1   5
ATOM      5  C   UNL     1      -2.977  -4.823  -1.636  1.00  0.00     0.003 C 
ATOM      6  C   UNL     1      -3.550  -3.494  -1.147  1.00  0.00     0.004 C 
ENDBRANCH   1   5
TORSDOF 2
ENDMDL
