MODEL 1
REMARK VINA RESULT:     0.246      0.000      0.000
REMARK INTER + INTRA:           0.490
REMARK INTER:                   0.296
REMARK INTRA:                   0.194
REMARK UNBOUND:                 0.194
REMARK SMILES O=c1c(O)c(-c2ccc(O)c(O)c2)oc2cc(O)cc(O)c12
REMARK SMILES IDX 5 1 3 2 2 3 1 4 22 5 20 6 19 7 17 8 16 9 15 10 14 11 6 12
REMARK SMILES IDX 7 13 8 14 9 15 13 16 11 17 10 18 12 20 4 22 21 24 18 26
REMARK H PARENT 10 19 12 21 4 23 21 25 18 27
REMARK Flexibility Score: inf
ROOT
ATOM      1  C   UNL     1      13.865  39.325 -11.189  1.00  0.00     0.180 A 
ATOM      2  C   UNL     1      14.164  38.028 -11.648  1.00  0.00     0.208 A 
ATOM      3  C   UNL     1      15.294  37.838 -12.458  1.00  0.00     0.238 A 
ATOM      4  O   UNL     1      15.578  36.679 -12.865  1.00  0.00    -0.285 OA
ATOM      5  C   UNL     1      16.092  38.946 -12.812  1.00  0.00     0.111 A 
ATOM      6  C   UNL     1      17.245  38.841 -13.627  1.00  0.00     0.134 A 
ATOM      7  C   UNL     1      17.981  39.993 -13.942  1.00  0.00     0.093 A 
ATOM      8  C   UNL     1      17.589  41.243 -13.460  1.00  0.00     0.123 A 
ATOM      9  C   UNL     1      16.451  41.353 -12.654  1.00  0.00     0.094 A 
ATOM     10  C   UNL     1      15.705  40.217 -12.328  1.00  0.00     0.146 A 
ATOM     11  O   UNL     1      14.632  40.348 -11.555  1.00  0.00    -0.452 OA
ENDROOT
BRANCH   1  12
ATOM     12  C   UNL     1      12.702  39.603 -10.316  1.00  0.00     0.025 A 
ATOM     13  C   UNL     1      12.827  40.537  -9.276  1.00  0.00     0.016 A 
ATOM     14  C   UNL     1      11.748  40.800  -8.427  1.00  0.00     0.051 A 
ATOM     15  C   UNL     1      10.535  40.122  -8.597  1.00  0.00     0.157 A 
ATOM     16  C   UNL     1      11.488  38.910 -10.470  1.00  0.00     0.062 A 
ATOM     17  C   UNL     1      10.406  39.170  -9.620  1.00  0.00     0.158 A 
BRANCH  15  18
ATOM     18  O   UNL     1       9.459  40.388  -7.749  1.00  0.00    -0.504 OA
ATOM     19  H   UNL     1       9.513  41.102  -7.033  1.00  0.00     0.293 HD
ENDBRANCH  15  18
BRANCH  17  20
ATOM     20  O   UNL     1       9.216  38.467  -9.806  1.00  0.00    -0.504 OA
ATOM     21  H   UNL     1       8.507  38.409  -9.084  1.00  0.00     0.293 HD
ENDBRANCH  17  20
ENDBRANCH   1  12
BRANCH   2  22
ATOM     22  O   UNL     1      13.330  36.955 -11.324  1.00  0.00    -0.502 OA
ATOM     23  H   UNL     1      12.744  36.953 -10.498  1.00  0.00     0.293 HD
ENDBRANCH   2  22
BRANCH   6  24
ATOM     24  O   UNL     1      17.663  37.606 -14.125  1.00  0.00    -0.507 OA
ATOM     25  H   UNL     1      17.319  36.733 -13.743  1.00  0.00     0.293 HD
ENDBRANCH   6  24
BRANCH   8  26
ATOM     26  O   UNL     1      18.337  42.371 -13.789  1.00  0.00    -0.508 OA
ATOM     27  H   UNL     1      18.222  42.842 -14.679  1.00  0.00     0.293 HD
ENDBRANCH   8  26
TORSDOF 6
ENDMDL
MODEL 2
REMARK VINA RESULT:     1.598      1.338      6.850
REMARK INTER + INTRA:           2.119
REMARK INTER:                   2.236
REMARK INTRA:                  -0.117
REMARK UNBOUND:                 0.194
REMARK SMILES O=c1c(O)c(-c2ccc(O)c(O)c2)oc2cc(O)cc(O)c12
REMARK SMILES IDX 5 1 3 2 2 3 1 4 22 5 20 6 19 7 17 8 16 9 15 10 14 11 6 12
REMARK SMILES IDX 7 13 8 14 9 15 13 16 11 17 10 18 12 20 4 22 21 24 18 26
REMARK H PARENT 10 19 12 21 4 23 21 25 18 27
REMARK Flexibility Score: inf
ROOT
ATOM      1  C   UNL     1      14.170  39.340 -11.981  1.00  0.00     0.180 A 
ATOM      2  C   UNL     1      13.164  38.639 -12.672  1.00  0.00     0.208 A 
ATOM      3  C   UNL     1      11.906  38.488 -12.070  1.00  0.00     0.238 A 
ATOM      4  O   UNL     1      10.993  37.872 -12.685  1.00  0.00    -0.285 OA
ATOM      5  C   UNL     1      11.680  39.021 -10.784  1.00  0.00     0.111 A 
ATOM      6  C   UNL     1      10.442  38.910 -10.106  1.00  0.00     0.134 A 
ATOM      7  C   UNL     1      10.300  39.459  -8.823  1.00  0.00     0.093 A 
ATOM      8  C   UNL     1      11.368  40.114  -8.206  1.00  0.00     0.123 A 
ATOM      9  C   UNL     1      12.593  40.228  -8.871  1.00  0.00     0.094 A 
ATOM     10  C   UNL     1      12.754  39.689 -10.151  1.00  0.00     0.146 A 
ATOM     11  O   UNL     1      13.926  39.816 -10.763  1.00  0.00    -0.452 OA
ENDROOT
BRANCH   1  12
ATOM     12  C   UNL     1      15.517  39.557 -12.557  1.00  0.00     0.025 A 
ATOM     13  C   UNL     1      16.333  38.451 -12.842  1.00  0.00     0.016 A 
ATOM     14  C   UNL     1      17.615  38.634 -13.367  1.00  0.00     0.051 A 
ATOM     15  C   UNL     1      18.106  39.925 -13.599  1.00  0.00     0.157 A 
ATOM     16  C   UNL     1      16.021  40.853 -12.773  1.00  0.00     0.062 A 
ATOM     17  C   UNL     1      17.306  41.039 -13.297  1.00  0.00     0.158 A 
BRANCH  15  18
ATOM     18  O   UNL     1      19.385  40.104 -14.125  1.00  0.00    -0.504 OA
ATOM     19  H   UNL     1      19.895  40.969 -13.995  1.00  0.00     0.293 HD
ENDBRANCH  15  18
BRANCH  17  20
ATOM     20  O   UNL     1      17.771  42.337 -13.503  1.00  0.00    -0.504 OA
ATOM     21  H   UNL     1      17.194  43.056 -13.925  1.00  0.00     0.293 HD
ENDBRANCH  17  20
ENDBRANCH   1  12
BRANCH   2  22
ATOM     22  O   UNL     1      13.428  38.078 -13.925  1.00  0.00    -0.502 OA
ATOM     23  H   UNL     1      12.720  37.595 -14.463  1.00  0.00     0.293 HD
ENDBRANCH   2  22
BRANCH   6  24
ATOM     24  O   UNL     1       9.356  38.260 -10.694  1.00  0.00    -0.507 OA
ATOM     25  H   UNL     1       8.885  38.638 -11.507  1.00  0.00     0.293 HD
ENDBRANCH   6  24
BRANCH   8  26
ATOM     26  O   UNL     1      11.201  40.650  -6.931  1.00  0.00    -0.508 OA
ATOM     27  H   UNL     1      10.680  40.157  -6.214  1.00  0.00     0.293 HD
ENDBRANCH   8  26
TORSDOF 6
ENDMDL
MODEL 3
REMARK VINA RESULT:     2.399      1.213      2.871
REMARK INTER + INTRA:           3.084
REMARK INTER:                   2.780
REMARK INTRA:                   0.303
REMARK UNBOUND:                 0.194
REMARK SMILES O=c1c(O)c(-c2ccc(O)c(O)c2)oc2cc(O)cc(O)c12
REMARK SMILES IDX 5 1 3 2 2 3 1 4 22 5 20 6 19 7 17 8 16 9 15 10 14 11 6 12
REMARK SMILES IDX 7 13 8 14 9 15 13 16 11 17 10 18 12 20 4 22 21 24 18 26
REMARK H PARENT 10 19 12 21 4 23 21 25 18 27
REMARK Flexibility Score: inf
ROOT
ATOM      1  C   UNL     1      13.894  39.735 -10.985  1.00  0.00     0.180 A 
ATOM      2  C   UNL     1      14.738  40.832 -11.246  1.00  0.00     0.208 A 
ATOM      3  C   UNL     1      15.851  40.648 -12.082  1.00  0.00     0.238 A 
ATOM      4  O   UNL     1      16.607  41.626 -12.332  1.00  0.00    -0.285 OA
ATOM      5  C   UNL     1      16.112  39.372 -12.624  1.00  0.00     0.111 A 
ATOM      6  C   UNL     1      17.213  39.102 -13.471  1.00  0.00     0.134 A 
ATOM      7  C   UNL     1      17.411  37.803 -13.963  1.00  0.00     0.093 A 
ATOM      8  C   UNL     1      16.532  36.772 -13.624  1.00  0.00     0.123 A 
ATOM      9  C   UNL     1      15.442  37.033 -12.788  1.00  0.00     0.094 A 
ATOM     10  C   UNL     1      15.227  38.321 -12.289  1.00  0.00     0.146 A 
ATOM     11  O   UNL     1      14.181  38.543 -11.501  1.00  0.00    -0.452 OA
ENDROOT
BRANCH   1  12
ATOM     12  C   UNL     1      12.692  39.853 -10.129  1.00  0.00     0.025 A 
ATOM     13  C   UNL     1      12.690  40.764  -9.062  1.00  0.00     0.016 A 
ATOM     14  C   UNL     1      11.574  40.877  -8.229  1.00  0.00     0.051 A 
ATOM     15  C   UNL     1      10.449  40.070  -8.442  1.00  0.00     0.157 A 
ATOM     16  C   UNL     1      11.568  39.031 -10.328  1.00  0.00     0.062 A 
ATOM     17  C   UNL     1      10.449  39.140  -9.494  1.00  0.00     0.158 A 
BRANCH  15  18
ATOM     18  O   UNL     1       9.335  40.187  -7.611  1.00  0.00    -0.504 OA
ATOM     19  H   UNL     1       8.873  39.372  -7.226  1.00  0.00     0.293 HD
ENDBRANCH  15  18
BRANCH  17  20
ATOM     20  O   UNL     1       9.350  38.312  -9.724  1.00  0.00    -0.504 OA
ATOM     21  H   UNL     1       9.121  37.966 -10.648  1.00  0.00     0.293 HD
ENDBRANCH  17  20
ENDBRANCH   1  12
BRANCH   2  22
ATOM     22  O   UNL     1      14.485  42.073 -10.657  1.00  0.00    -0.502 OA
ATOM     23  H   UNL     1      15.044  42.893 -10.858  1.00  0.00     0.293 HD
ENDBRANCH   2  22
BRANCH   6  24
ATOM     24  O   UNL     1      18.111  40.110 -13.828  1.00  0.00    -0.507 OA
ATOM     25  H   UNL     1      18.709  40.558 -13.143  1.00  0.00     0.293 HD
ENDBRANCH   6  24
BRANCH   8  26
ATOM     26  O   UNL     1      16.752  35.491 -14.125  1.00  0.00    -0.508 OA
ATOM     27  H   UNL     1      17.567  34.951 -13.859  1.00  0.00     0.293 HD
ENDBRANCH   8  26
TORSDOF 6
ENDMDL
