MODEL 1
REMARK VINA RESULT:    -3.236      0.000      0.000
REMARK INTER + INTRA:          -4.693
REMARK INTER:                  -4.181
REMARK INTRA:                  -0.512
REMARK UNBOUND:                -0.512
REMARK SMILES C=CC(=O)CCCCC
REMARK SMILES IDX 6 1 7 2 8 3 9 4 5 5 3 6 4 7 2 8 1 9
REMARK H PARENT
REMARK Flexibility Score: inf
ROOT
ATOM      1  C   UNL     1     -29.779  40.445 -24.421  1.00  0.00     0.008 C 
ENDROOT
BRANCH   1   2
ATOM      2  C   UNL     1     -29.431  41.885 -24.849  1.00  0.00     0.000 C 
BRANCH   2   3
ATOM      3  C   UNL     1     -30.163  42.381 -26.109  1.00  0.00    -0.003 C 
ATOM      4  C   UNL     1     -31.683  42.278 -25.996  1.00  0.00     0.004 C 
ENDBRANCH   2   3
ENDBRANCH   1   2
BRANCH   1   5
ATOM      5  C   UNL     1     -28.901  39.358 -25.063  1.00  0.00     0.080 C 
BRANCH   5   6
ATOM      6  C   UNL     1     -29.717  38.223 -25.614  1.00  0.00     0.155 C 
ATOM      7  O   UNL     1     -29.155  37.122 -25.865  1.00  0.00    -0.295 OA
BRANCH   6   8
ATOM      8  C   UNL     1     -31.167  38.393 -25.831  1.00  0.00     0.039 C 
ATOM      9  C   UNL     1     -31.687  38.620 -27.036  1.00  0.00     0.012 C 
ENDBRANCH   6   8
ENDBRANCH   5   6
ENDBRANCH   1   5
TORSDOF 5
ENDMDL
MODEL 2
REMARK VINA RESULT:    -3.193      2.106      4.869
REMARK INTER + INTRA:          -4.639
REMARK INTER:                  -4.481
REMARK INTRA:                  -0.158
REMARK UNBOUND:                -0.512
REMARK SMILES C=CC(=O)CCCCC
REMARK SMILES IDX 6 1 7 2 8 3 9 4 5 5 3 6 4 7 2 8 1 9
REMARK H PARENT
REMARK Flexibility Score: inf
ROOT
ATOM      1  C   UNL     1     -31.006  37.673 -27.014  1.00  0.00     0.008 C 
ENDROOT
BRANCH   1   2
ATOM      2  C   UNL     1     -30.873  36.141 -27.125  1.00  0.00     0.000 C 
BRANCH   2   3
ATOM      3  C   UNL     1     -29.488  35.582 -26.755  1.00  0.00    -0.003 C 
ATOM      4  C   UNL     1     -29.402  34.062 -26.885  1.00  0.00     0.004 C 
ENDBRANCH   2   3
ENDBRANCH   1   2
BRANCH   1   5
ATOM      5  C   UNL     1     -31.049  38.208 -25.573  1.00  0.00     0.080 C 
BRANCH   5   6
ATOM      6  C   UNL     1     -29.861  39.071 -25.253  1.00  0.00     0.155 C 
ATOM      7  O   UNL     1     -28.709  38.687 -25.593  1.00  0.00    -0.295 OA
BRANCH   6   8
ATOM      8  C   UNL     1     -30.052  40.366 -24.573  1.00  0.00     0.039 C 
ATOM      9  C   UNL     1     -29.098  41.295 -24.527  1.00  0.00     0.012 C 
ENDBRANCH   6   8
ENDBRANCH   5   6
ENDBRANCH   1   5
TORSDOF 5
ENDMDL
MODEL 3
REMARK VINA RESULT:    -3.105     16.147     17.475
REMARK INTER + INTRA:          -4.525
REMARK INTER:                  -4.254
REMARK INTRA:                  -0.270
REMARK UNBOUND:                -0.512
REMARK SMILES C=CC(=O)CCCCC
REMARK SMILES IDX 6 1 7 2 8 3 9 4 5 5 3 6 4 7 2 8 1 9
REMARK H PARENT
REMARK Flexibility Score: inf
ROOT
ATOM      1  C   UNL     1     -13.148  38.236 -25.724  1.00  0.00     0.008 C 
ENDROOT
BRANCH   1   2
ATOM      2  C   UNL     1     -14.280  38.386 -26.761  1.00  0.00     0.000 C 
BRANCH   2   3
ATOM      3  C   UNL     1     -15.198  37.159 -26.900  1.00  0.00    -0.003 C 
ATOM      4  C   UNL     1     -16.389  37.192 -25.945  1.00  0.00     0.004 C 
ENDBRANCH   2   3
ENDBRANCH   1   2
BRANCH   1   5
ATOM      5  C   UNL     1     -11.924  37.450 -26.225  1.00  0.00     0.080 C 
BRANCH   5   6
ATOM      6  C   UNL     1     -11.889  36.050 -25.682  1.00  0.00     0.155 C 
ATOM      7  O   UNL     1     -11.897  35.870 -24.433  1.00  0.00    -0.295 OA
BRANCH   6   8
ATOM      8  C   UNL     1     -11.876  34.900 -26.606  1.00  0.00     0.039 C 
ATOM      9  C   UNL     1     -12.179  33.664 -26.213  1.00  0.00     0.012 C 
ENDBRANCH   6   8
ENDBRANCH   5   6
ENDBRANCH   1   5
TORSDOF 5
ENDMDL
MODEL 4
REMARK VINA RESULT:    -2.486     15.076     16.082
REMARK INTER + INTRA:          -3.725
REMARK INTER:                  -3.513
REMARK INTRA:                  -0.212
REMARK UNBOUND:                -0.512
REMARK SMILES C=CC(=O)CCCCC
REMARK SMILES IDX 6 1 7 2 8 3 9 4 5 5 3 6 4 7 2 8 1 9
REMARK H PARENT
REMARK Flexibility Score: inf
ROOT
ATOM      1  C   UNL     1     -27.573  36.004 -10.470  1.00  0.00     0.008 C 
ENDROOT
BRANCH   1   2
ATOM      2  C   UNL     1     -27.186  36.411  -9.033  1.00  0.00     0.000 C 
BRANCH   2   3
ATOM      3  C   UNL     1     -26.113  35.526  -8.376  1.00  0.00    -0.003 C 
ATOM      4  C   UNL     1     -26.344  35.320  -6.880  1.00  0.00     0.004 C 
ENDBRANCH   2   3
ENDBRANCH   1   2
BRANCH   1   5
ATOM      5  C   UNL     1     -26.624  34.983 -11.121  1.00  0.00     0.080 C 
BRANCH   5   6
ATOM      6  C   UNL     1     -27.218  34.367 -12.356  1.00  0.00     0.155 C 
ATOM      7  O   UNL     1     -26.454  33.981 -13.282  1.00  0.00    -0.295 OA
BRANCH   6   8
ATOM      8  C   UNL     1     -28.679  34.191 -12.464  1.00  0.00     0.039 C 
ATOM      9  C   UNL     1     -29.271  33.816 -13.597  1.00  0.00     0.012 C 
ENDBRANCH   6   8
ENDBRANCH   5   6
ENDBRANCH   1   5
TORSDOF 5
ENDMDL
MODEL 5
REMARK VINA RESULT:    -1.651      1.649      2.312
REMARK INTER + INTRA:          -2.646
REMARK INTER:                  -2.752
REMARK INTRA:                   0.106
REMARK UNBOUND:                -0.512
REMARK SMILES C=CC(=O)CCCCC
REMARK SMILES IDX 6 1 7 2 8 3 9 4 5 5 3 6 4 7 2 8 1 9
REMARK H PARENT
REMARK Flexibility Score: inf
ROOT
ATOM      1  C   UNL     1     -29.553  41.469 -25.681  1.00  0.00     0.008 C 
ENDROOT
BRANCH   1   2
ATOM      2  C   UNL     1     -30.994  41.892 -25.327  1.00  0.00     0.000 C 
BRANCH   2   3
ATOM      3  C   UNL     1     -32.065  40.816 -25.580  1.00  0.00    -0.003 C 
ATOM      4  C   UNL     1     -32.125  39.762 -24.476  1.00  0.00     0.004 C 
ENDBRANCH   2   3
ENDBRANCH   1   2
BRANCH   1   5
ATOM      5  C   UNL     1     -28.763  40.855 -24.513  1.00  0.00     0.080 C 
BRANCH   5   6
ATOM      6  C   UNL     1     -28.423  39.412 -24.756  1.00  0.00     0.155 C 
ATOM      7  O   UNL     1     -27.259  38.999 -24.496  1.00  0.00    -0.295 OA
BRANCH   6   8
ATOM      8  C   UNL     1     -29.452  38.487 -25.267  1.00  0.00     0.039 C 
ATOM      9  C   UNL     1     -29.150  37.420 -26.005  1.00  0.00     0.012 C 
ENDBRANCH   6   8
ENDBRANCH   5   6
ENDBRANCH   1   5
TORSDOF 5
ENDMDL
MODEL 6
REMARK VINA RESULT:    -1.475     15.512     16.683
REMARK INTER + INTRA:          -2.419
REMARK INTER:                  -2.335
REMARK INTRA:                  -0.084
REMARK UNBOUND:                -0.512
REMARK SMILES C=CC(=O)CCCCC
REMARK SMILES IDX 6 1 7 2 8 3 9 4 5 5 3 6 4 7 2 8 1 9
REMARK H PARENT
REMARK Flexibility Score: inf
ROOT
ATOM      1  C   UNL     1     -27.082  35.222 -11.582  1.00  0.00     0.008 C 
ENDROOT
BRANCH   1   2
ATOM      2  C   UNL     1     -28.544  34.860 -11.917  1.00  0.00     0.000 C 
BRANCH   2   3
ATOM      3  C   UNL     1     -28.719  33.573 -12.743  1.00  0.00    -0.003 C 
ATOM      4  C   UNL     1     -29.682  33.743 -13.917  1.00  0.00     0.004 C 
ENDBRANCH   2   3
ENDBRANCH   1   2
BRANCH   1   5
ATOM      5  C   UNL     1     -26.621  34.782 -10.182  1.00  0.00     0.080 C 
BRANCH   5   6
ATOM      6  C   UNL     1     -26.725  35.893  -9.176  1.00  0.00     0.155 C 
ATOM      7  O   UNL     1     -27.466  36.884  -9.424  1.00  0.00    -0.295 OA
BRANCH   6   8
ATOM      8  C   UNL     1     -25.987  35.806  -7.902  1.00  0.00     0.039 C 
ATOM      9  C   UNL     1     -26.419  35.075  -6.875  1.00  0.00     0.012 C 
ENDBRANCH   6   8
ENDBRANCH   5   6
ENDBRANCH   1   5
TORSDOF 5
ENDMDL
MODEL 7
REMARK VINA RESULT:    -1.044     16.159     17.290
REMARK INTER + INTRA:          -1.862
REMARK INTER:                  -1.713
REMARK INTRA:                  -0.149
REMARK UNBOUND:                -0.512
REMARK SMILES C=CC(=O)CCCCC
REMARK SMILES IDX 6 1 7 2 8 3 9 4 5 5 3 6 4 7 2 8 1 9
REMARK H PARENT
REMARK Flexibility Score: inf
ROOT
ATOM      1  C   UNL     1     -26.841  35.034 -10.507  1.00  0.00     0.008 C 
ENDROOT
BRANCH   1   2
ATOM      2  C   UNL     1     -27.771  35.240 -11.720  1.00  0.00     0.000 C 
BRANCH   2   3
ATOM      3  C   UNL     1     -27.923  34.012 -12.635  1.00  0.00    -0.003 C 
ATOM      4  C   UNL     1     -29.343  33.839 -13.173  1.00  0.00     0.004 C 
ENDBRANCH   2   3
ENDBRANCH   1   2
BRANCH   1   5
ATOM      5  C   UNL     1     -27.081  36.012  -9.345  1.00  0.00     0.080 C 
BRANCH   5   6
ATOM      6  C   UNL     1     -26.050  35.868  -8.262  1.00  0.00     0.155 C 
ATOM      7  O   UNL     1     -24.880  36.294  -8.461  1.00  0.00    -0.295 OA
BRANCH   6   8
ATOM      8  C   UNL     1     -26.419  35.259  -6.969  1.00  0.00     0.039 C 
ATOM      9  C   UNL     1     -26.904  34.022  -6.875  1.00  0.00     0.012 C 
ENDBRANCH   6   8
ENDBRANCH   5   6
ENDBRANCH   1   5
TORSDOF 5
ENDMDL
