MODEL 1
REMARK VINA RESULT:    -5.669      0.000      0.000
REMARK INTER + INTRA:          -5.624
REMARK INTER:                  -6.167
REMARK INTRA:                   0.543
REMARK UNBOUND:                 0.543
REMARK SMILES C[C@H]1[C@H]2C3=CC[C@H]4[C@]5(C)CC[C@H](O)C(C)(C)[C@@H]5CC[C@@]4(C)[C@]3(C)CC[C@]2(C(=O)[O-])CC[C@@H]1C
REMARK SMILES IDX 26 1 30 2 25 3 3 4 31 5 24 6 4 7 2 8 32 9 22 10 5 11 1 12
REMARK SMILES IDX 33 13 23 14 20 15 6 16 7 17 19 18 21 19 8 20 18 21 17 22
REMARK SMILES IDX 10 23 9 24 14 25 11 26 12 27 15 28 16 29 27 30 28 31 29 32
REMARK SMILES IDX 13 33
REMARK H PARENT 13 34
REMARK Flexibility Score: inf
ROOT
ATOM      1  C   UNL     1       0.445 -21.807 -10.287  1.00  0.00     0.017 C 
ATOM      2  C   UNL     1       1.496 -20.704  -9.984  1.00  0.00     0.014 C 
ATOM      3  C   UNL     1       1.178 -22.991 -10.944  1.00  0.00     0.014 C 
ATOM      4  C   UNL     1      -0.158 -22.311  -8.937  1.00  0.00     0.030 C 
ATOM      5  C   UNL     1       0.883 -19.526  -9.215  1.00  0.00     0.004 C 
ATOM      6  C   UNL     1       0.218 -24.121 -11.328  1.00  0.00     0.013 C 
ATOM      7  C   UNL     1      -0.990 -23.614  -9.064  1.00  0.00    -0.063 C 
ATOM      8  C   UNL     1      -0.724 -21.153  -8.029  1.00  0.00    -0.003 C 
ATOM      9  C   UNL     1       0.273 -19.967  -7.871  1.00  0.00    -0.011 C 
ATOM     10  C   UNL     1      -0.753 -24.651 -10.191  1.00  0.00    -0.006 C 
ATOM     11  C   UNL     1      -1.710 -24.036  -7.995  1.00  0.00    -0.027 C 
ATOM     12  C   UNL     1      -2.119 -20.646  -8.429  1.00  0.00     0.008 C 
ATOM     13  C   UNL     1       1.369 -20.266  -6.831  1.00  0.00     0.008 C 
ATOM     14  C   UNL     1      -2.124 -24.825 -10.932  1.00  0.00     0.017 C 
ATOM     15  C   UNL     1      -0.206 -26.040  -9.523  1.00  0.00    -0.020 C 
ATOM     16  C   UNL     1      -2.091 -25.480  -7.800  1.00  0.00     0.032 C 
ATOM     17  C   UNL     1      -0.884 -26.405  -8.108  1.00  0.00     0.006 C 
ATOM     18  C   UNL     1      -0.366 -27.232 -10.514  1.00  0.00     0.008 C 
ATOM     19  C   UNL     1       1.320 -25.870  -9.235  1.00  0.00     0.012 C 
ATOM     20  C   UNL     1      -1.124 -27.976  -7.783  1.00  0.00    -0.025 C 
ATOM     21  C   UNL     1      -1.676 -28.001 -10.327  1.00  0.00     0.005 C 
ATOM     22  C   UNL     1      -1.767 -28.783  -8.991  1.00  0.00     0.003 C 
ATOM     23  C   UNL     1       0.215 -28.654  -7.285  1.00  0.00     0.010 C 
ATOM     24  C   UNL     1      -2.102 -28.070  -6.563  1.00  0.00     0.012 C 
ATOM     25  C   UNL     1      -1.352 -30.318  -9.088  1.00  0.00    -0.006 C 
ATOM     26  C   UNL     1       1.010 -29.516  -8.283  1.00  0.00     0.033 C 
ATOM     27  C   UNL     1       0.198 -30.497  -9.166  1.00  0.00     0.120 C 
ATOM     28  C   UNL     1      -2.034 -31.015 -10.309  1.00  0.00     0.014 C 
ATOM     29  C   UNL     1      -1.883 -31.113  -7.857  1.00  0.00     0.014 C 
ENDROOT
BRANCH   1  30
ATOM     30  C   UNL     1      -0.584 -21.254 -11.276  1.00  0.00     0.048 C 
ATOM     31  O   UNL     1      -0.208 -20.548 -12.251  1.00  0.00    -0.550 OA
ATOM     32  O   UNL     1      -1.927 -21.580 -11.178  1.00  0.00    -0.550 OA
ENDBRANCH   1  30
BRANCH  27  33
ATOM     33  O   UNL     1       0.645 -30.388 -10.496  1.00  0.00    -0.393 OA
ATOM     34  H   UNL     1       0.269 -29.543 -10.864  1.00  0.00     0.210 HD
ENDBRANCH  27  33
TORSDOF 2
ENDMDL
MODEL 2
REMARK VINA RESULT:    -2.786     10.707     14.558
REMARK INTER + INTRA:          -2.487
REMARK INTER:                  -3.233
REMARK INTRA:                   0.746
REMARK UNBOUND:                 0.543
REMARK SMILES C[C@H]1[C@H]2C3=CC[C@H]4[C@]5(C)CC[C@H](O)C(C)(C)[C@@H]5CC[C@@]4(C)[C@]3(C)CC[C@]2(C(=O)[O-])CC[C@@H]1C
REMARK SMILES IDX 26 1 30 2 25 3 3 4 31 5 24 6 4 7 2 8 32 9 22 10 5 11 1 12
REMARK SMILES IDX 33 13 23 14 20 15 6 16 7 17 19 18 21 19 8 20 18 21 17 22
REMARK SMILES IDX 10 23 9 24 14 25 11 26 12 27 15 28 16 29 27 30 28 31 29 32
REMARK SMILES IDX 13 33
REMARK H PARENT 13 34
REMARK Flexibility Score: inf
ROOT
ATOM      1  C   UNL     1       0.672 -34.534 -22.987  1.00  0.00     0.017 C 
ATOM      2  C   UNL     1       1.754 -34.058 -23.996  1.00  0.00     0.014 C 
ATOM      3  C   UNL     1       1.377 -35.356 -21.891  1.00  0.00     0.014 C 
ATOM      4  C   UNL     1       0.035 -33.281 -22.306  1.00  0.00     0.030 C 
ATOM      5  C   UNL     1       1.168 -33.126 -25.064  1.00  0.00     0.004 C 
ATOM      6  C   UNL     1       0.386 -35.915 -20.864  1.00  0.00     0.013 C 
ATOM      7  C   UNL     1      -0.836 -33.611 -21.065  1.00  0.00    -0.063 C 
ATOM      8  C   UNL     1      -0.507 -32.214 -23.333  1.00  0.00    -0.003 C 
ATOM      9  C   UNL     1       0.526 -31.870 -24.447  1.00  0.00    -0.011 C 
ATOM     10  C   UNL     1      -0.617 -34.879 -20.202  1.00  0.00    -0.006 C 
ATOM     11  C   UNL     1      -1.585 -32.624 -20.512  1.00  0.00    -0.027 C 
ATOM     12  C   UNL     1      -1.879 -32.546 -23.940  1.00  0.00     0.008 C 
ATOM     13  C   UNL     1       1.596 -30.877 -23.958  1.00  0.00     0.008 C 
ATOM     14  C   UNL     1      -1.982 -35.650 -20.188  1.00  0.00     0.017 C 
ATOM     15  C   UNL     1      -0.124 -34.424 -18.711  1.00  0.00    -0.020 C 
ATOM     16  C   UNL     1      -2.014 -32.653 -19.069  1.00  0.00     0.032 C 
ATOM     17  C   UNL     1      -0.833 -33.087 -18.161  1.00  0.00     0.006 C 
ATOM     18  C   UNL     1      -0.308 -35.585 -17.688  1.00  0.00     0.008 C 
ATOM     19  C   UNL     1       1.403 -34.099 -18.785  1.00  0.00     0.012 C 
ATOM     20  C   UNL     1      -1.128 -33.004 -16.567  1.00  0.00    -0.025 C 
ATOM     21  C   UNL     1      -1.644 -35.528 -16.945  1.00  0.00     0.005 C 
ATOM     22  C   UNL     1      -1.779 -34.325 -15.974  1.00  0.00     0.003 C 
ATOM     23  C   UNL     1       0.182 -32.601 -15.777  1.00  0.00     0.010 C 
ATOM     24  C   UNL     1      -2.125 -31.821 -16.324  1.00  0.00     0.012 C 
ATOM     25  C   UNL     1      -1.412 -34.650 -14.457  1.00  0.00    -0.006 C 
ATOM     26  C   UNL     1       0.964 -33.711 -15.049  1.00  0.00     0.033 C 
ATOM     27  C   UNL     1       0.133 -34.740 -14.241  1.00  0.00     0.120 C 
ATOM     28  C   UNL     1      -2.098 -35.968 -13.976  1.00  0.00     0.014 C 
ATOM     29  C   UNL     1      -1.985 -33.557 -13.505  1.00  0.00     0.014 C 
ENDROOT
BRANCH   1  30
ATOM     30  C   UNL     1      -0.324 -35.438 -23.717  1.00  0.00     0.048 C 
ATOM     31  O   UNL     1       0.041 -36.091 -24.731  1.00  0.00    -0.550 OA
ATOM     32  O   UNL     1      -1.611 -35.626 -23.240  1.00  0.00    -0.550 OA
ENDBRANCH   1  30
BRANCH  27  33
ATOM     33  O   UNL     1       0.602 -36.034 -14.534  1.00  0.00    -0.393 OA
ATOM     34  H   UNL     1       1.082 -36.362 -13.726  1.00  0.00     0.210 HD
ENDBRANCH  27  33
TORSDOF 2
ENDMDL
