MODEL 1
REMARK VINA RESULT:    -3.542      0.000      0.000
REMARK INTER + INTRA:          -6.454
REMARK INTER:                  -5.406
REMARK INTRA:                  -1.048
REMARK UNBOUND:                -1.048
REMARK SMILES CCCCCCCCCC=CC(=O)[O-]
REMARK SMILES IDX 7 1 8 2 9 3 10 4 11 5 12 6 13 7 14 8 6 9 5 10 4 11 3 12 2 13
REMARK SMILES IDX 1 14
REMARK H PARENT
REMARK Flexibility Score: inf
ROOT
ATOM      1  C   UNL     1     -17.937 -23.654   3.502  1.00  0.00     0.000 C 
ENDROOT
BRANCH   1   2
ATOM      2  C   UNL     1     -18.028 -22.161   3.850  1.00  0.00     0.004 C 
BRANCH   2   3
ATOM      3  C   UNL     1     -16.954 -21.721   4.858  1.00  0.00     0.027 C 
BRANCH   3   4
ATOM      4  C   UNL     1     -17.225 -22.287   6.225  1.00  0.00    -0.025 C 
ATOM      5  C   UNL     1     -16.755 -21.802   7.386  1.00  0.00     0.020 C 
BRANCH   5   6
ATOM      6  C   UNL     1     -15.906 -20.604   7.564  1.00  0.00     0.064 C 
ATOM      7  O   UNL     1     -16.373 -19.437   7.499  1.00  0.00    -0.545 OA
ATOM      8  O   UNL     1     -14.554 -20.774   7.826  1.00  0.00    -0.545 OA
ENDBRANCH   5   6
ENDBRANCH   3   4
ENDBRANCH   2   3
ENDBRANCH   1   2
BRANCH   1   9
ATOM      9  C   UNL     1     -16.591 -24.032   2.866  1.00  0.00     0.000 C 
BRANCH   9  10
ATOM     10  C   UNL     1     -16.750 -24.310   1.366  1.00  0.00     0.000 C 
BRANCH  10  11
ATOM     11  C   UNL     1     -15.873 -23.361   0.536  1.00  0.00    -0.000 C 
BRANCH  11  12
ATOM     12  C   UNL     1     -14.803 -22.652   1.381  1.00  0.00    -0.000 C 
BRANCH  12  13
ATOM     13  C   UNL     1     -14.576 -21.197   0.947  1.00  0.00    -0.003 C 
ATOM     14  C   UNL     1     -15.358 -20.232   1.833  1.00  0.00     0.004 C 
ENDBRANCH  12  13
ENDBRANCH  11  12
ENDBRANCH  10  11
ENDBRANCH   9  10
ENDBRANCH   1   9
TORSDOF 9
ENDMDL
MODEL 2
REMARK VINA RESULT:    -3.503      0.971      1.648
REMARK INTER + INTRA:          -6.394
REMARK INTER:                  -5.475
REMARK INTRA:                  -0.919
REMARK UNBOUND:                -1.048
REMARK SMILES CCCCCCCCCC=CC(=O)[O-]
REMARK SMILES IDX 7 1 8 2 9 3 10 4 11 5 12 6 13 7 14 8 6 9 5 10 4 11 3 12 2 13
REMARK SMILES IDX 1 14
REMARK H PARENT
REMARK Flexibility Score: inf
ROOT
ATOM      1  C   UNL     1     -17.260 -21.981   4.785  1.00  0.00     0.000 C 
ENDROOT
BRANCH   1   2
ATOM      2  C   UNL     1     -16.939 -23.106   5.780  1.00  0.00     0.004 C 
BRANCH   2   3
ATOM      3  C   UNL     1     -16.181 -22.603   7.018  1.00  0.00     0.027 C 
BRANCH   3   4
ATOM      4  C   UNL     1     -17.063 -21.750   7.889  1.00  0.00    -0.025 C 
ATOM      5  C   UNL     1     -16.951 -20.423   8.064  1.00  0.00     0.020 C 
BRANCH   5   6
ATOM      6  C   UNL     1     -15.966 -19.527   7.420  1.00  0.00     0.064 C 
ATOM      7  O   UNL     1     -16.243 -18.857   6.391  1.00  0.00    -0.545 OA
ATOM      8  O   UNL     1     -14.701 -19.410   7.979  1.00  0.00    -0.545 OA
ENDBRANCH   5   6
ENDBRANCH   3   4
ENDBRANCH   2   3
ENDBRANCH   1   2
BRANCH   1   9
ATOM      9  C   UNL     1     -17.520 -22.503   3.364  1.00  0.00     0.000 C 
BRANCH   9  10
ATOM     10  C   UNL     1     -16.802 -23.838   3.129  1.00  0.00     0.000 C 
BRANCH  10  11
ATOM     11  C   UNL     1     -15.555 -23.644   2.254  1.00  0.00    -0.000 C 
BRANCH  11  12
ATOM     12  C   UNL     1     -15.763 -22.594   1.151  1.00  0.00    -0.000 C 
BRANCH  12  13
ATOM     13  C   UNL     1     -14.648 -21.539   1.123  1.00  0.00    -0.003 C 
ATOM     14  C   UNL     1     -15.147 -20.199   1.656  1.00  0.00     0.004 C 
ENDBRANCH  12  13
ENDBRANCH  11  12
ENDBRANCH  10  11
ENDBRANCH   9  10
ENDBRANCH   1   9
TORSDOF 9
ENDMDL
MODEL 3
REMARK VINA RESULT:    -3.451      1.073      2.390
REMARK INTER + INTRA:          -6.316
REMARK INTER:                  -5.385
REMARK INTRA:                  -0.931
REMARK UNBOUND:                -1.048
REMARK SMILES CCCCCCCCCC=CC(=O)[O-]
REMARK SMILES IDX 7 1 8 2 9 3 10 4 11 5 12 6 13 7 14 8 6 9 5 10 4 11 3 12 2 13
REMARK SMILES IDX 1 14
REMARK H PARENT
REMARK Flexibility Score: inf
ROOT
ATOM      1  C   UNL     1     -17.263 -22.004   4.978  1.00  0.00     0.000 C 
ENDROOT
BRANCH   1   2
ATOM      2  C   UNL     1     -16.835 -23.110   5.954  1.00  0.00     0.004 C 
BRANCH   2   3
ATOM      3  C   UNL     1     -16.113 -22.558   7.194  1.00  0.00     0.027 C 
BRANCH   3   4
ATOM      4  C   UNL     1     -17.002 -21.626   7.973  1.00  0.00    -0.025 C 
ATOM      5  C   UNL     1     -16.857 -20.294   8.067  1.00  0.00     0.020 C 
BRANCH   5   6
ATOM      6  C   UNL     1     -15.821 -19.469   7.408  1.00  0.00     0.064 C 
ATOM      7  O   UNL     1     -14.647 -19.390   7.852  1.00  0.00    -0.545 OA
ATOM      8  O   UNL     1     -16.153 -18.774   6.253  1.00  0.00    -0.545 OA
ENDBRANCH   5   6
ENDBRANCH   3   4
ENDBRANCH   2   3
ENDBRANCH   1   2
BRANCH   1   9
ATOM      9  C   UNL     1     -18.108 -22.538   3.812  1.00  0.00     0.000 C 
BRANCH   9  10
ATOM     10  C   UNL     1     -18.151 -24.072   3.822  1.00  0.00     0.000 C 
BRANCH  10  11
ATOM     11  C   UNL     1     -17.801 -24.640   2.439  1.00  0.00    -0.000 C 
BRANCH  11  12
ATOM     12  C   UNL     1     -16.307 -24.504   2.104  1.00  0.00    -0.000 C 
BRANCH  12  13
ATOM     13  C   UNL     1     -16.055 -23.607   0.884  1.00  0.00    -0.003 C 
ATOM     14  C   UNL     1     -15.382 -22.300   1.295  1.00  0.00     0.004 C 
ENDBRANCH  12  13
ENDBRANCH  11  12
ENDBRANCH  10  11
ENDBRANCH   9  10
ENDBRANCH   1   9
TORSDOF 9
ENDMDL
MODEL 4
REMARK VINA RESULT:    -3.422      2.981      5.569
REMARK INTER + INTRA:          -6.270
REMARK INTER:                  -5.296
REMARK INTRA:                  -0.974
REMARK UNBOUND:                -1.048
REMARK SMILES CCCCCCCCCC=CC(=O)[O-]
REMARK SMILES IDX 7 1 8 2 9 3 10 4 11 5 12 6 13 7 14 8 6 9 5 10 4 11 3 12 2 13
REMARK SMILES IDX 1 14
REMARK H PARENT
REMARK Flexibility Score: inf
ROOT
ATOM      1  C   UNL     1     -18.055 -22.448   3.856  1.00  0.00     0.000 C 
ENDROOT
BRANCH   1   2
ATOM      2  C   UNL     1     -18.148 -23.979   3.790  1.00  0.00     0.004 C 
BRANCH   2   3
ATOM      3  C   UNL     1     -17.562 -24.552   2.490  1.00  0.00     0.027 C 
BRANCH   3   4
ATOM      4  C   UNL     1     -16.070 -24.720   2.592  1.00  0.00    -0.025 C 
ATOM      5  C   UNL     1     -15.148 -23.965   1.972  1.00  0.00     0.020 C 
BRANCH   5   6
ATOM      6  C   UNL     1     -15.403 -22.804   1.092  1.00  0.00     0.064 C 
ATOM      7  O   UNL     1     -15.487 -21.631   1.539  1.00  0.00    -0.545 OA
ATOM      8  O   UNL     1     -15.540 -23.015  -0.274  1.00  0.00    -0.545 OA
ENDBRANCH   5   6
ENDBRANCH   3   4
ENDBRANCH   2   3
ENDBRANCH   1   2
BRANCH   1   9
ATOM      9  C   UNL     1     -17.084 -21.960   4.942  1.00  0.00     0.000 C 
BRANCH   9  10
ATOM     10  C   UNL     1     -17.251 -22.770   6.233  1.00  0.00     0.000 C 
BRANCH  10  11
ATOM     11  C   UNL     1     -16.973 -21.900   7.468  1.00  0.00    -0.000 C 
BRANCH  11  12
ATOM     12  C   UNL     1     -15.693 -21.062   7.326  1.00  0.00    -0.000 C 
BRANCH  12  13
ATOM     13  C   UNL     1     -15.914 -19.582   7.671  1.00  0.00    -0.003 C 
ATOM     14  C   UNL     1     -16.120 -18.750   6.408  1.00  0.00     0.004 C 
ENDBRANCH  12  13
ENDBRANCH  11  12
ENDBRANCH  10  11
ENDBRANCH   9  10
ENDBRANCH   1   9
TORSDOF 9
ENDMDL
MODEL 5
REMARK VINA RESULT:    -3.277      1.226      1.910
REMARK INTER + INTRA:          -6.049
REMARK INTER:                  -5.217
REMARK INTRA:                  -0.833
REMARK UNBOUND:                -1.048
REMARK SMILES CCCCCCCCCC=CC(=O)[O-]
REMARK SMILES IDX 7 1 8 2 9 3 10 4 11 5 12 6 13 7 14 8 6 9 5 10 4 11 3 12 2 13
REMARK SMILES IDX 1 14
REMARK H PARENT
REMARK Flexibility Score: inf
ROOT
ATOM      1  C   UNL     1     -17.076 -24.987   4.696  1.00  0.00     0.000 C 
ENDROOT
BRANCH   1   2
ATOM      2  C   UNL     1     -17.487 -24.481   6.087  1.00  0.00     0.004 C 
BRANCH   2   3
ATOM      3  C   UNL     1     -16.606 -23.323   6.580  1.00  0.00     0.027 C 
BRANCH   3   4
ATOM      4  C   UNL     1     -17.317 -22.502   7.622  1.00  0.00    -0.025 C 
ATOM      5  C   UNL     1     -17.002 -21.248   7.988  1.00  0.00     0.020 C 
BRANCH   5   6
ATOM      6  C   UNL     1     -15.920 -20.410   7.427  1.00  0.00     0.064 C 
ATOM      7  O   UNL     1     -16.150 -19.478   6.613  1.00  0.00    -0.545 OA
ATOM      8  O   UNL     1     -14.612 -20.650   7.824  1.00  0.00    -0.545 OA
ENDBRANCH   5   6
ENDBRANCH   3   4
ENDBRANCH   2   3
ENDBRANCH   1   2
BRANCH   1   9
ATOM      9  C   UNL     1     -17.838 -24.285   3.562  1.00  0.00     0.000 C 
BRANCH   9  10
ATOM     10  C   UNL     1     -16.934 -24.073   2.341  1.00  0.00     0.000 C 
BRANCH  10  11
ATOM     11  C   UNL     1     -16.392 -22.637   2.303  1.00  0.00    -0.000 C 
BRANCH  11  12
ATOM     12  C   UNL     1     -17.062 -21.722   3.340  1.00  0.00    -0.000 C 
BRANCH  12  13
ATOM     13  C   UNL     1     -16.571 -20.270   3.253  1.00  0.00    -0.003 C 
ATOM     14  C   UNL     1     -15.556 -20.101   2.125  1.00  0.00     0.004 C 
ENDBRANCH  12  13
ENDBRANCH  11  12
ENDBRANCH  10  11
ENDBRANCH   9  10
ENDBRANCH   1   9
TORSDOF 9
ENDMDL
MODEL 6
REMARK VINA RESULT:    -3.233      3.055      5.738
REMARK INTER + INTRA:          -5.982
REMARK INTER:                  -4.712
REMARK INTRA:                  -1.271
REMARK UNBOUND:                -1.048
REMARK SMILES CCCCCCCCCC=CC(=O)[O-]
REMARK SMILES IDX 7 1 8 2 9 3 10 4 11 5 12 6 13 7 14 8 6 9 5 10 4 11 3 12 2 13
REMARK SMILES IDX 1 14
REMARK H PARENT
REMARK Flexibility Score: inf
ROOT
ATOM      1  C   UNL     1     -17.902 -24.890   7.128  1.00  0.00     0.000 C 
ENDROOT
BRANCH   1   2
ATOM      2  C   UNL     1     -17.419 -25.093   5.684  1.00  0.00     0.004 C 
BRANCH   2   3
ATOM      3  C   UNL     1     -16.568 -23.918   5.175  1.00  0.00     0.027 C 
BRANCH   3   4
ATOM      4  C   UNL     1     -17.433 -22.768   4.736  1.00  0.00    -0.025 C 
ATOM      5  C   UNL     1     -17.383 -22.155   3.542  1.00  0.00     0.020 C 
BRANCH   5   6
ATOM      6  C   UNL     1     -16.498 -22.499   2.409  1.00  0.00     0.064 C 
ATOM      7  O   UNL     1     -16.439 -23.663   1.935  1.00  0.00    -0.545 OA
ATOM      8  O   UNL     1     -15.719 -21.501   1.840  1.00  0.00    -0.545 OA
ENDBRANCH   5   6
ENDBRANCH   3   4
ENDBRANCH   2   3
ENDBRANCH   1   2
BRANCH   1   9
ATOM      9  C   UNL     1     -16.746 -24.855   8.139  1.00  0.00     0.000 C 
BRANCH   9  10
ATOM     10  C   UNL     1     -16.830 -23.606   9.026  1.00  0.00     0.000 C 
BRANCH  10  11
ATOM     11  C   UNL     1     -18.054 -22.754   8.662  1.00  0.00    -0.000 C 
BRANCH  11  12
ATOM     12  C   UNL     1     -17.691 -21.290   8.368  1.00  0.00    -0.000 C 
BRANCH  12  13
ATOM     13  C   UNL     1     -16.261 -21.133   7.833  1.00  0.00    -0.003 C 
ATOM     14  C   UNL     1     -16.167 -19.968   6.851  1.00  0.00     0.004 C 
ENDBRANCH  12  13
ENDBRANCH  11  12
ENDBRANCH  10  11
ENDBRANCH   9  10
ENDBRANCH   1   9
TORSDOF 9
ENDMDL
MODEL 7
REMARK VINA RESULT:    -3.232      3.118      5.856
REMARK INTER + INTRA:          -5.981
REMARK INTER:                  -5.078
REMARK INTRA:                  -0.902
REMARK UNBOUND:                -1.048
REMARK SMILES CCCCCCCCCC=CC(=O)[O-]
REMARK SMILES IDX 7 1 8 2 9 3 10 4 11 5 12 6 13 7 14 8 6 9 5 10 4 11 3 12 2 13
REMARK SMILES IDX 1 14
REMARK H PARENT
REMARK Flexibility Score: inf
ROOT
ATOM      1  C   UNL     1     -16.739 -23.524   5.666  1.00  0.00     0.000 C 
ENDROOT
BRANCH   1   2
ATOM      2  C   UNL     1     -17.355 -22.258   5.051  1.00  0.00     0.004 C 
BRANCH   2   3
ATOM      3  C   UNL     1     -17.465 -22.338   3.520  1.00  0.00     0.027 C 
BRANCH   3   4
ATOM      4  C   UNL     1     -17.637 -23.760   3.058  1.00  0.00    -0.025 C 
ATOM      5  C   UNL     1     -16.992 -24.339   2.032  1.00  0.00     0.020 C 
BRANCH   5   6
ATOM      6  C   UNL     1     -15.965 -23.716   1.170  1.00  0.00     0.064 C 
ATOM      7  O   UNL     1     -14.835 -23.382   1.609  1.00  0.00    -0.545 OA
ATOM      8  O   UNL     1     -16.254 -23.508  -0.172  1.00  0.00    -0.545 OA
ENDBRANCH   5   6
ENDBRANCH   3   4
ENDBRANCH   2   3
ENDBRANCH   1   2
BRANCH   1   9
ATOM      9  C   UNL     1     -17.153 -23.732   7.131  1.00  0.00     0.000 C 
BRANCH   9  10
ATOM     10  C   UNL     1     -16.912 -22.461   7.955  1.00  0.00     0.000 C 
BRANCH  10  11
ATOM     11  C   UNL     1     -15.411 -22.159   8.074  1.00  0.00    -0.000 C 
BRANCH  11  12
ATOM     12  C   UNL     1     -15.101 -20.656   7.977  1.00  0.00    -0.000 C 
BRANCH  12  13
ATOM     13  C   UNL     1     -16.338 -19.819   7.624  1.00  0.00    -0.003 C 
ATOM     14  C   UNL     1     -16.061 -18.905   6.433  1.00  0.00     0.004 C 
ENDBRANCH  12  13
ENDBRANCH  11  12
ENDBRANCH  10  11
ENDBRANCH   9  10
ENDBRANCH   1   9
TORSDOF 9
ENDMDL
MODEL 8
REMARK VINA RESULT:    -3.196      4.013      6.601
REMARK INTER + INTRA:          -5.925
REMARK INTER:                  -5.285
REMARK INTRA:                  -0.640
REMARK UNBOUND:                -1.048
REMARK SMILES CCCCCCCCCC=CC(=O)[O-]
REMARK SMILES IDX 7 1 8 2 9 3 10 4 11 5 12 6 13 7 14 8 6 9 5 10 4 11 3 12 2 13
REMARK SMILES IDX 1 14
REMARK H PARENT
REMARK Flexibility Score: inf
ROOT
ATOM      1  C   UNL     1     -16.889 -22.233   3.124  1.00  0.00     0.000 C 
ENDROOT
BRANCH   1   2
ATOM      2  C   UNL     1     -16.903 -23.650   2.532  1.00  0.00     0.004 C 
BRANCH   2   3
ATOM      3  C   UNL     1     -15.620 -23.978   1.751  1.00  0.00     0.027 C 
BRANCH   3   4
ATOM      4  C   UNL     1     -15.082 -22.760   1.050  1.00  0.00    -0.025 C 
ATOM      5  C   UNL     1     -14.960 -22.606  -0.279  1.00  0.00     0.020 C 
BRANCH   5   6
ATOM      6  C   UNL     1     -15.352 -23.580  -1.321  1.00  0.00     0.064 C 
ATOM      7  O   UNL     1     -14.514 -24.327  -1.888  1.00  0.00    -0.545 OA
ATOM      8  O   UNL     1     -16.691 -23.682  -1.673  1.00  0.00    -0.545 OA
ENDBRANCH   5   6
ENDBRANCH   3   4
ENDBRANCH   2   3
ENDBRANCH   1   2
BRANCH   1   9
ATOM      9  C   UNL     1     -17.730 -22.117   4.404  1.00  0.00     0.000 C 
BRANCH   9  10
ATOM     10  C   UNL     1     -16.987 -22.712   5.606  1.00  0.00     0.000 C 
BRANCH  10  11
ATOM     11  C   UNL     1     -17.151 -21.824   6.848  1.00  0.00    -0.000 C 
BRANCH  11  12
ATOM     12  C   UNL     1     -15.808 -21.309   7.389  1.00  0.00    -0.000 C 
BRANCH  12  13
ATOM     13  C   UNL     1     -15.843 -19.812   7.729  1.00  0.00    -0.003 C 
ATOM     14  C   UNL     1     -16.140 -18.975   6.487  1.00  0.00     0.004 C 
ENDBRANCH  12  13
ENDBRANCH  11  12
ENDBRANCH  10  11
ENDBRANCH   9  10
ENDBRANCH   1   9
TORSDOF 9
ENDMDL
MODEL 9
REMARK VINA RESULT:    -3.085      1.768      3.696
REMARK INTER + INTRA:          -5.756
REMARK INTER:                  -4.888
REMARK INTRA:                  -0.867
REMARK UNBOUND:                -1.048
REMARK SMILES CCCCCCCCCC=CC(=O)[O-]
REMARK SMILES IDX 7 1 8 2 9 3 10 4 11 5 12 6 13 7 14 8 6 9 5 10 4 11 3 12 2 13
REMARK SMILES IDX 1 14
REMARK H PARENT
REMARK Flexibility Score: inf
ROOT
ATOM      1  C   UNL     1     -17.051 -23.272   7.576  1.00  0.00     0.000 C 
ENDROOT
BRANCH   1   2
ATOM      2  C   UNL     1     -15.746 -23.182   8.380  1.00  0.00     0.004 C 
BRANCH   2   3
ATOM      3  C   UNL     1     -14.628 -22.456   7.614  1.00  0.00     0.027 C 
BRANCH   3   4
ATOM      4  C   UNL     1     -14.134 -21.257   8.377  1.00  0.00    -0.025 C 
ATOM      5  C   UNL     1     -14.715 -20.046   8.404  1.00  0.00     0.020 C 
BRANCH   5   6
ATOM      6  C   UNL     1     -15.964 -19.650   7.719  1.00  0.00     0.064 C 
ATOM      7  O   UNL     1     -17.099 -19.959   8.165  1.00  0.00    -0.545 OA
ATOM      8  O   UNL     1     -15.881 -18.900   6.554  1.00  0.00    -0.545 OA
ENDBRANCH   5   6
ENDBRANCH   3   4
ENDBRANCH   2   3
ENDBRANCH   1   2
BRANCH   1   9
ATOM      9  C   UNL     1     -16.808 -23.392   6.064  1.00  0.00     0.000 C 
BRANCH   9  10
ATOM     10  C   UNL     1     -17.271 -22.127   5.330  1.00  0.00     0.000 C 
BRANCH  10  11
ATOM     11  C   UNL     1     -17.959 -22.482   4.004  1.00  0.00    -0.000 C 
BRANCH  11  12
ATOM     12  C   UNL     1     -18.062 -23.998   3.777  1.00  0.00    -0.000 C 
BRANCH  12  13
ATOM     13  C   UNL     1     -17.587 -24.420   2.378  1.00  0.00    -0.003 C 
ATOM     14  C   UNL     1     -16.343 -23.638   1.963  1.00  0.00     0.004 C 
ENDBRANCH  12  13
ENDBRANCH  11  12
ENDBRANCH  10  11
ENDBRANCH   9  10
ENDBRANCH   1   9
TORSDOF 9
ENDMDL
