MODEL 1
REMARK VINA RESULT:   -11.705      0.000      0.000
REMARK INTER + INTRA:         -20.317
REMARK INTER:                 -19.232
REMARK INTRA:                  -1.085
REMARK UNBOUND:                -1.085
REMARK SMILES CC[C@H](CC[C@H](C)[C@@H]1CC[C@H]2[C@@H]3CC=C4C[C@@H](O[C@@H]5O[C@H](CO)[C@@H](O)[C@H](O)[C@@H]5O)CC[C@@]4(C)[C@@H]3CC[C@]21C)C(C)C
REMARK SMILES IDX 8 1 9 2 10 3 11 4 37 5 36 6 35 7 34 8 12 9 13 10 14 11 15 12
REMARK SMILES IDX 32 13 31 14 30 15 17 16 16 17 33 18 38 19 6 20 7 21 5 22
REMARK SMILES IDX 4 23 3 24 2 25 1 26 39 27 40 28 41 29 18 30 19 31 28 32
REMARK SMILES IDX 20 33 26 34 21 35 24 36 29 37 27 39 22 41 23 42 25 44
REMARK H PARENT 29 38 27 40 23 43 25 45
REMARK Flexibility Score: inf
ROOT
ATOM      1  C   UNL     1       9.400  20.800  44.394  1.00  0.00    -0.002 C 
ATOM      2  C   UNL     1       9.576  21.882  45.487  1.00  0.00     0.005 C 
ATOM      3  C   UNL     1       8.168  22.298  45.907  1.00  0.00     0.005 C 
ATOM      4  C   UNL     1       7.178  21.621  44.938  1.00  0.00    -0.001 C 
ATOM      5  C   UNL     1       8.028  21.213  43.727  1.00  0.00    -0.026 C 
ATOM      6  C   UNL     1       8.275  22.467  42.815  1.00  0.00     0.007 C 
ATOM      7  C   UNL     1       6.996  23.192  42.390  1.00  0.00     0.005 C 
ATOM      8  C   UNL     1       6.125  23.647  43.589  1.00  0.00     0.003 C 
ATOM      9  C   UNL     1       5.933  22.517  44.653  1.00  0.00     0.000 C 
ATOM     10  C   UNL     1       4.648  21.724  44.365  1.00  0.00     0.031 C 
ATOM     11  C   UNL     1       3.496  22.676  44.550  1.00  0.00    -0.027 C 
ATOM     12  C   UNL     1       3.593  23.941  44.091  1.00  0.00    -0.065 C 
ATOM     13  C   UNL     1       4.740  24.335  43.146  1.00  0.00    -0.008 C 
ATOM     14  C   UNL     1       4.906  25.882  43.188  1.00  0.00     0.014 C 
ATOM     15  C   UNL     1       3.602  26.669  42.926  1.00  0.00     0.033 C 
ATOM     16  C   UNL     1       2.318  26.016  43.505  1.00  0.00     0.125 C 
ATOM     17  C   UNL     1       2.645  25.004  44.614  1.00  0.00     0.063 C 
ATOM     18  C   UNL     1       4.297  23.927  41.709  1.00  0.00     0.016 C 
ATOM     19  C   UNL     1       7.370  20.107  42.857  1.00  0.00     0.012 C 
ENDROOT
BRANCH   1  20
ATOM     20  C   UNL     1       9.654  19.373  45.074  1.00  0.00    -0.011 C 
ATOM     21  C   UNL     1       9.380  18.111  44.250  1.00  0.00     0.008 C 
BRANCH  20  22
ATOM     22  C   UNL     1      11.102  19.283  45.641  1.00  0.00     0.004 C 
BRANCH  22  23
ATOM     23  C   UNL     1      11.538  17.838  45.960  1.00  0.00     0.004 C 
BRANCH  23  24
ATOM     24  C   UNL     1      13.027  17.486  45.688  1.00  0.00    -0.009 C 
BRANCH  24  25
ATOM     25  C   UNL     1      13.865  17.141  46.955  1.00  0.00     0.000 C 
ATOM     26  C   UNL     1      13.244  16.149  47.944  1.00  0.00     0.004 C 
ENDBRANCH  24  25
BRANCH  24  27
ATOM     27  C   UNL     1      13.268  16.575  44.433  1.00  0.00    -0.014 C 
ATOM     28  C   UNL     1      12.299  15.388  44.307  1.00  0.00     0.007 C 
ATOM     29  C   UNL     1      14.715  16.051  44.395  1.00  0.00     0.007 C 
ENDBRANCH  24  27
ENDBRANCH  23  24
ENDBRANCH  22  23
ENDBRANCH  20  22
ENDBRANCH   1  20
BRANCH  16  30
ATOM     30  O   UNL     1       1.474  27.047  44.002  1.00  0.00    -0.346 OA
BRANCH  30  31
ATOM     31  C   UNL     1       0.244  27.119  43.295  1.00  0.00     0.282 C 
ATOM     32  C   UNL     1      -0.765  27.965  44.118  1.00  0.00     0.202 C 
ATOM     33  O   UNL     1       0.490  27.573  41.959  1.00  0.00    -0.341 OA
ATOM     34  C   UNL     1      -0.507  29.482  43.980  1.00  0.00     0.179 C 
ATOM     35  C   UNL     1      -0.259  28.707  41.561  1.00  0.00     0.178 C 
ATOM     36  C   UNL     1      -0.036  29.872  42.556  1.00  0.00     0.177 C 
BRANCH  32  37
ATOM     37  O   UNL     1      -0.740  27.592  45.474  1.00  0.00    -0.385 OA
ATOM     38  H   UNL     1      -0.913  26.613  45.512  1.00  0.00     0.211 HD
ENDBRANCH  32  37
BRANCH  34  39
ATOM     39  O   UNL     1       0.402  29.951  44.948  1.00  0.00    -0.387 OA
ATOM     40  H   UNL     1      -0.025  29.859  45.835  1.00  0.00     0.211 HD
ENDBRANCH  34  39
BRANCH  35  41
ATOM     41  C   UNL     1       0.187  29.081  40.137  1.00  0.00     0.191 C 
BRANCH  41  42
ATOM     42  O   UNL     1       1.267  28.290  39.721  1.00  0.00    -0.394 OA
ATOM     43  H   UNL     1       1.325  28.387  38.732  1.00  0.00     0.210 HD
ENDBRANCH  41  42
ENDBRANCH  35  41
BRANCH  36  44
ATOM     44  O   UNL     1      -0.672  31.053  42.132  1.00  0.00    -0.387 OA
ATOM     45  H   UNL     1      -0.007  31.788  42.185  1.00  0.00     0.211 HD
ENDBRANCH  36  44
ENDBRANCH  30  31
ENDBRANCH  16  30
TORSDOF 13
ENDMDL
MODEL 2
REMARK VINA RESULT:   -11.621      1.263      3.217
REMARK INTER + INTRA:         -20.178
REMARK INTER:                 -19.154
REMARK INTRA:                  -1.024
REMARK UNBOUND:                -1.085
REMARK SMILES CC[C@H](CC[C@H](C)[C@@H]1CC[C@H]2[C@@H]3CC=C4C[C@@H](O[C@@H]5O[C@H](CO)[C@@H](O)[C@H](O)[C@@H]5O)CC[C@@]4(C)[C@@H]3CC[C@]21C)C(C)C
REMARK SMILES IDX 8 1 9 2 10 3 11 4 37 5 36 6 35 7 34 8 12 9 13 10 14 11 15 12
REMARK SMILES IDX 32 13 31 14 30 15 17 16 16 17 33 18 38 19 6 20 7 21 5 22
REMARK SMILES IDX 4 23 3 24 2 25 1 26 39 27 40 28 41 29 18 30 19 31 28 32
REMARK SMILES IDX 20 33 26 34 21 35 24 36 29 37 27 39 22 41 23 42 25 44
REMARK H PARENT 29 38 27 40 23 43 25 45
REMARK Flexibility Score: inf
ROOT
ATOM      1  C   UNL     1       8.098  19.740  44.880  1.00  0.00    -0.002 C 
ATOM      2  C   UNL     1       7.302  19.317  43.622  1.00  0.00     0.005 C 
ATOM      3  C   UNL     1       6.942  20.608  42.889  1.00  0.00     0.005 C 
ATOM      4  C   UNL     1       7.343  21.784  43.802  1.00  0.00    -0.001 C 
ATOM      5  C   UNL     1       7.494  21.165  45.199  1.00  0.00    -0.026 C 
ATOM      6  C   UNL     1       6.074  20.972  45.841  1.00  0.00     0.007 C 
ATOM      7  C   UNL     1       5.226  22.246  45.875  1.00  0.00     0.005 C 
ATOM      8  C   UNL     1       5.026  22.883  44.476  1.00  0.00     0.003 C 
ATOM      9  C   UNL     1       6.362  22.989  43.670  1.00  0.00     0.000 C 
ATOM     10  C   UNL     1       7.020  24.358  43.905  1.00  0.00     0.031 C 
ATOM     11  C   UNL     1       6.095  25.394  43.324  1.00  0.00    -0.027 C 
ATOM     12  C   UNL     1       4.763  25.278  43.504  1.00  0.00    -0.065 C 
ATOM     13  C   UNL     1       4.205  24.266  44.518  1.00  0.00    -0.008 C 
ATOM     14  C   UNL     1       2.715  23.983  44.166  1.00  0.00     0.014 C 
ATOM     15  C   UNL     1       1.843  25.251  44.025  1.00  0.00     0.033 C 
ATOM     16  C   UNL     1       2.564  26.473  43.396  1.00  0.00     0.125 C 
ATOM     17  C   UNL     1       3.814  26.052  42.608  1.00  0.00     0.063 C 
ATOM     18  C   UNL     1       4.258  24.957  45.914  1.00  0.00     0.016 C 
ATOM     19  C   UNL     1       8.347  22.031  46.167  1.00  0.00     0.012 C 
ENDROOT
BRANCH   1  20
ATOM     20  C   UNL     1       9.651  19.488  44.582  1.00  0.00    -0.011 C 
ATOM     21  C   UNL     1      10.683  20.020  45.582  1.00  0.00     0.008 C 
BRANCH  20  22
ATOM     22  C   UNL     1       9.929  17.974  44.349  1.00  0.00     0.004 C 
BRANCH  22  23
ATOM     23  C   UNL     1      11.432  17.628  44.348  1.00  0.00     0.004 C 
BRANCH  23  24
ATOM     24  C   UNL     1      11.844  16.315  45.071  1.00  0.00    -0.009 C 
BRANCH  24  25
ATOM     25  C   UNL     1      12.583  15.274  44.178  1.00  0.00     0.000 C 
ATOM     26  C   UNL     1      13.566  15.828  43.142  1.00  0.00     0.004 C 
ENDBRANCH  24  25
BRANCH  24  27
ATOM     27  C   UNL     1      12.419  16.515  46.518  1.00  0.00    -0.014 C 
ATOM     28  C   UNL     1      13.729  17.318  46.581  1.00  0.00     0.007 C 
ATOM     29  C   UNL     1      12.621  15.164  47.227  1.00  0.00     0.007 C 
ENDBRANCH  24  27
ENDBRANCH  23  24
ENDBRANCH  22  23
ENDBRANCH  20  22
ENDBRANCH   1  20
BRANCH  16  30
ATOM     30  O   UNL     1       1.645  27.151  42.550  1.00  0.00    -0.346 OA
BRANCH  30  31
ATOM     31  C   UNL     1       1.315  28.442  43.044  1.00  0.00     0.282 C 
ATOM     32  C   UNL     1       0.854  29.335  41.860  1.00  0.00     0.202 C 
ATOM     33  O   UNL     1       0.383  28.313  44.123  1.00  0.00    -0.341 OA
ATOM     34  C   UNL     1      -0.602  29.039  41.436  1.00  0.00     0.179 C 
ATOM     35  C   UNL     1      -0.813  29.058  43.979  1.00  0.00     0.178 C 
ATOM     36  C   UNL     1      -1.510  28.698  42.645  1.00  0.00     0.177 C 
BRANCH  32  37
ATOM     37  O   UNL     1       1.717  29.189  40.759  1.00  0.00    -0.385 OA
ATOM     38  H   UNL     1       1.473  28.337  40.306  1.00  0.00     0.211 HD
ENDBRANCH  32  37
BRANCH  34  39
ATOM     39  O   UNL     1      -0.671  28.023  40.463  1.00  0.00    -0.387 OA
ATOM     40  H   UNL     1      -1.315  28.312  39.769  1.00  0.00     0.211 HD
ENDBRANCH  34  39
BRANCH  35  41
ATOM     41  C   UNL     1      -1.706  28.742  45.191  1.00  0.00     0.191 C 
BRANCH  41  42
ATOM     42  O   UNL     1      -0.957  28.706  46.376  1.00  0.00    -0.394 OA
ATOM     43  H   UNL     1      -1.488  29.193  47.063  1.00  0.00     0.210 HD
ENDBRANCH  41  42
ENDBRANCH  35  41
BRANCH  36  44
ATOM     44  O   UNL     1      -2.759  29.332  42.518  1.00  0.00    -0.387 OA
ATOM     45  H   UNL     1      -2.837  29.993  43.255  1.00  0.00     0.211 HD
ENDBRANCH  36  44
ENDBRANCH  30  31
ENDBRANCH  16  30
TORSDOF 13
ENDMDL
MODEL 3
REMARK VINA RESULT:   -11.576      6.331     13.444
REMARK INTER + INTRA:         -20.105
REMARK INTER:                 -18.923
REMARK INTRA:                  -1.182
REMARK UNBOUND:                -1.085
REMARK SMILES CC[C@H](CC[C@H](C)[C@@H]1CC[C@H]2[C@@H]3CC=C4C[C@@H](O[C@@H]5O[C@H](CO)[C@@H](O)[C@H](O)[C@@H]5O)CC[C@@]4(C)[C@@H]3CC[C@]21C)C(C)C
REMARK SMILES IDX 8 1 9 2 10 3 11 4 37 5 36 6 35 7 34 8 12 9 13 10 14 11 15 12
REMARK SMILES IDX 32 13 31 14 30 15 17 16 16 17 33 18 38 19 6 20 7 21 5 22
REMARK SMILES IDX 4 23 3 24 2 25 1 26 39 27 40 28 41 29 18 30 19 31 28 32
REMARK SMILES IDX 20 33 26 34 21 35 24 36 29 37 27 39 22 41 23 42 25 44
REMARK H PARENT 29 38 27 40 23 43 25 45
REMARK Flexibility Score: inf
ROOT
ATOM      1  C   UNL     1       4.113  23.675  43.371  1.00  0.00    -0.002 C 
ATOM      2  C   UNL     1       3.587  22.680  44.433  1.00  0.00     0.005 C 
ATOM      3  C   UNL     1       4.785  22.310  45.305  1.00  0.00     0.005 C 
ATOM      4  C   UNL     1       6.040  22.918  44.646  1.00  0.00    -0.001 C 
ATOM      5  C   UNL     1       5.618  23.224  43.202  1.00  0.00    -0.026 C 
ATOM      6  C   UNL     1       5.650  21.900  42.358  1.00  0.00     0.007 C 
ATOM      7  C   UNL     1       6.986  21.156  42.412  1.00  0.00     0.005 C 
ATOM      8  C   UNL     1       7.430  20.804  43.855  1.00  0.00     0.003 C 
ATOM      9  C   UNL     1       7.297  22.015  44.836  1.00  0.00     0.000 C 
ATOM     10  C   UNL     1       8.620  22.794  44.905  1.00  0.00     0.031 C 
ATOM     11  C   UNL     1       9.640  21.870  45.515  1.00  0.00    -0.027 C 
ATOM     12  C   UNL     1       9.672  20.572  45.147  1.00  0.00    -0.065 C 
ATOM     13  C   UNL     1       8.873  20.096  43.924  1.00  0.00    -0.008 C 
ATOM     14  C   UNL     1       8.678  18.555  44.030  1.00  0.00     0.014 C 
ATOM     15  C   UNL     1       9.986  17.762  44.251  1.00  0.00     0.033 C 
ATOM     16  C   UNL     1      11.034  18.469  45.151  1.00  0.00     0.125 C 
ATOM     17  C   UNL     1      10.391  19.562  46.021  1.00  0.00     0.063 C 
ATOM     18  C   UNL     1       9.751  20.395  42.671  1.00  0.00     0.016 C 
ATOM     19  C   UNL     1       6.534  24.265  42.500  1.00  0.00     0.012 C 
ENDROOT
BRANCH   1  20
ATOM     20  C   UNL     1       3.682  25.148  43.826  1.00  0.00    -0.011 C 
ATOM     21  C   UNL     1       4.114  26.337  42.960  1.00  0.00     0.008 C 
BRANCH  20  22
ATOM     22  C   UNL     1       2.141  25.230  44.038  1.00  0.00     0.004 C 
BRANCH  22  23
ATOM     23  C   UNL     1       1.615  26.679  44.100  1.00  0.00     0.004 C 
BRANCH  23  24
ATOM     24  C   UNL     1       0.349  26.996  43.256  1.00  0.00    -0.009 C 
BRANCH  24  25
ATOM     25  C   UNL     1      -0.916  27.376  44.081  1.00  0.00     0.000 C 
ATOM     26  C   UNL     1      -0.715  28.356  45.241  1.00  0.00     0.004 C 
ENDBRANCH  24  25
BRANCH  24  27
ATOM     27  C   UNL     1       0.617  27.854  41.969  1.00  0.00    -0.014 C 
ATOM     28  C   UNL     1       1.532  29.070  42.188  1.00  0.00     0.007 C 
ATOM     29  C   UNL     1      -0.702  28.324  41.330  1.00  0.00     0.007 C 
ENDBRANCH  24  27
ENDBRANCH  23  24
ENDBRANCH  22  23
ENDBRANCH  20  22
ENDBRANCH   1  20
BRANCH  16  30
ATOM     30  O   UNL     1      11.662  17.488  45.966  1.00  0.00    -0.346 OA
BRANCH  30  31
ATOM     31  C   UNL     1      13.042  17.342  45.658  1.00  0.00     0.282 C 
ATOM     32  C   UNL     1      13.755  16.646  46.849  1.00  0.00     0.202 C 
ATOM     33  O   UNL     1      13.178  16.693  44.388  1.00  0.00    -0.341 OA
ATOM     34  C   UNL     1      13.516  15.119  46.864  1.00  0.00     0.179 C 
ATOM     35  C   UNL     1      13.986  15.530  44.389  1.00  0.00     0.178 C 
ATOM     36  C   UNL     1      13.464  14.517  45.437  1.00  0.00     0.177 C 
BRANCH  32  37
ATOM     37  O   UNL     1      13.352  17.211  48.072  1.00  0.00    -0.385 OA
ATOM     38  H   UNL     1      13.549  18.185  48.024  1.00  0.00     0.211 HD
ENDBRANCH  32  37
BRANCH  34  39
ATOM     39  O   UNL     1      12.359  14.775  47.589  1.00  0.00    -0.387 OA
ATOM     40  H   UNL     1      12.237  15.450  48.302  1.00  0.00     0.211 HD
ENDBRANCH  34  39
BRANCH  35  41
ATOM     41  C   UNL     1      13.958  14.944  42.967  1.00  0.00     0.191 C 
BRANCH  41  42
ATOM     42  O   UNL     1      13.390  15.849  42.058  1.00  0.00    -0.394 OA
ATOM     43  H   UNL     1      13.528  16.757  42.440  1.00  0.00     0.210 HD
ENDBRANCH  41  42
ENDBRANCH  35  41
BRANCH  36  44
ATOM     44  O   UNL     1      14.170  13.302  45.389  1.00  0.00    -0.387 OA
ATOM     45  H   UNL     1      13.504  12.570  45.300  1.00  0.00     0.211 HD
ENDBRANCH  36  44
ENDBRANCH  30  31
ENDBRANCH  16  30
TORSDOF 13
ENDMDL
MODEL 4
REMARK VINA RESULT:   -11.561      6.372     13.593
REMARK INTER + INTRA:         -20.081
REMARK INTER:                 -18.951
REMARK INTRA:                  -1.130
REMARK UNBOUND:                -1.085
REMARK SMILES CC[C@H](CC[C@H](C)[C@@H]1CC[C@H]2[C@@H]3CC=C4C[C@@H](O[C@@H]5O[C@H](CO)[C@@H](O)[C@H](O)[C@@H]5O)CC[C@@]4(C)[C@@H]3CC[C@]21C)C(C)C
REMARK SMILES IDX 8 1 9 2 10 3 11 4 37 5 36 6 35 7 34 8 12 9 13 10 14 11 15 12
REMARK SMILES IDX 32 13 31 14 30 15 17 16 16 17 33 18 38 19 6 20 7 21 5 22
REMARK SMILES IDX 4 23 3 24 2 25 1 26 39 27 40 28 41 29 18 30 19 31 28 32
REMARK SMILES IDX 20 33 26 34 21 35 24 36 29 37 27 39 22 41 23 42 25 44
REMARK H PARENT 29 38 27 40 23 43 25 45
REMARK Flexibility Score: inf
ROOT
ATOM      1  C   UNL     1       5.059  24.820  44.179  1.00  0.00    -0.002 C 
ATOM      2  C   UNL     1       6.240  25.183  43.247  1.00  0.00     0.005 C 
ATOM      3  C   UNL     1       6.826  23.858  42.762  1.00  0.00     0.005 C 
ATOM      4  C   UNL     1       6.131  22.730  43.553  1.00  0.00    -0.001 C 
ATOM      5  C   UNL     1       5.512  23.427  44.772  1.00  0.00    -0.026 C 
ATOM      6  C   UNL     1       6.625  23.682  45.850  1.00  0.00     0.007 C 
ATOM      7  C   UNL     1       7.406  22.428  46.250  1.00  0.00     0.005 C 
ATOM      8  C   UNL     1       8.072  21.714  45.046  1.00  0.00     0.003 C 
ATOM      9  C   UNL     1       7.094  21.537  43.838  1.00  0.00     0.000 C 
ATOM     10  C   UNL     1       6.391  20.173  43.916  1.00  0.00     0.031 C 
ATOM     11  C   UNL     1       7.456  19.122  43.752  1.00  0.00    -0.027 C 
ATOM     12  C   UNL     1       8.645  19.272  44.370  1.00  0.00    -0.065 C 
ATOM     13  C   UNL     1       8.824  20.350  45.450  1.00  0.00    -0.008 C 
ATOM     14  C   UNL     1      10.345  20.639  45.614  1.00  0.00     0.014 C 
ATOM     15  C   UNL     1      11.208  19.381  45.859  1.00  0.00     0.033 C 
ATOM     16  C   UNL     1      10.744  18.111  45.096  1.00  0.00     0.125 C 
ATOM     17  C   UNL     1       9.842  18.464  43.903  1.00  0.00     0.063 C 
ATOM     18  C   UNL     1       8.293  19.741  46.783  1.00  0.00     0.016 C 
ATOM     19  C   UNL     1       4.375  22.604  45.440  1.00  0.00     0.012 C 
ENDROOT
BRANCH   1  20
ATOM     20  C   UNL     1       3.704  25.026  43.352  1.00  0.00    -0.011 C 
ATOM     21  C   UNL     1       2.380  24.604  44.000  1.00  0.00     0.008 C 
BRANCH  20  22
ATOM     22  C   UNL     1       3.568  26.503  42.877  1.00  0.00     0.004 C 
BRANCH  22  23
ATOM     23  C   UNL     1       2.125  26.881  42.482  1.00  0.00     0.004 C 
BRANCH  23  24
ATOM     24  C   UNL     1       1.633  28.290  42.916  1.00  0.00    -0.009 C 
BRANCH  24  25
ATOM     25  C   UNL     1       1.383  29.290  41.749  1.00  0.00     0.000 C 
ATOM     26  C   UNL     1       0.625  28.753  40.531  1.00  0.00     0.004 C 
ENDBRANCH  24  25
BRANCH  24  27
ATOM     27  C   UNL     1       0.560  28.286  44.063  1.00  0.00    -0.014 C 
ATOM     28  C   UNL     1      -0.516  27.196  43.930  1.00  0.00     0.007 C 
ATOM     29  C   UNL     1      -0.125  29.659  44.188  1.00  0.00     0.007 C 
ENDBRANCH  24  27
ENDBRANCH  23  24
ENDBRANCH  22  23
ENDBRANCH  20  22
ENDBRANCH   1  20
BRANCH  16  30
ATOM     30  O   UNL     1      11.895  17.402  44.660  1.00  0.00    -0.346 OA
BRANCH  30  31
ATOM     31  C   UNL     1      11.984  16.112  45.249  1.00  0.00     0.282 C 
ATOM     32  C   UNL     1      12.921  15.224  44.385  1.00  0.00     0.202 C 
ATOM     33  O   UNL     1      12.350  16.244  46.627  1.00  0.00    -0.341 OA
ATOM     34  C   UNL     1      14.415  15.529  44.640  1.00  0.00     0.179 C 
ATOM     35  C   UNL     1      13.493  15.506  47.020  1.00  0.00     0.178 C 
ATOM     36  C   UNL     1      14.701  15.873  46.124  1.00  0.00     0.177 C 
BRANCH  32  37
ATOM     37  O   UNL     1      12.625  15.367  43.018  1.00  0.00    -0.385 OA
ATOM     38  H   UNL     1      11.963  14.661  42.786  1.00  0.00     0.211 HD
ENDBRANCH  32  37
BRANCH  34  39
ATOM     39  O   UNL     1      14.895  16.547  43.794  1.00  0.00    -0.387 OA
ATOM     40  H   UNL     1      15.846  16.355  43.599  1.00  0.00     0.211 HD
ENDBRANCH  34  39
BRANCH  35  41
ATOM     41  C   UNL     1      13.766  15.824  48.500  1.00  0.00     0.191 C 
BRANCH  41  42
ATOM     42  O   UNL     1      12.632  16.375  49.116  1.00  0.00    -0.394 OA
ATOM     43  H   UNL     1      12.817  16.384  50.094  1.00  0.00     0.210 HD
ENDBRANCH  41  42
ENDBRANCH  35  41
BRANCH  36  44
ATOM     44  O   UNL     1      15.884  15.246  46.556  1.00  0.00    -0.387 OA
ATOM     45  H   UNL     1      15.626  14.496  47.153  1.00  0.00     0.211 HD
ENDBRANCH  36  44
ENDBRANCH  30  31
ENDBRANCH  16  30
TORSDOF 13
ENDMDL
MODEL 5
REMARK VINA RESULT:    -9.132      1.469      2.689
REMARK INTER + INTRA:         -16.090
REMARK INTER:                 -15.133
REMARK INTRA:                  -0.957
REMARK UNBOUND:                -1.085
REMARK SMILES CC[C@H](CC[C@H](C)[C@@H]1CC[C@H]2[C@@H]3CC=C4C[C@@H](O[C@@H]5O[C@H](CO)[C@@H](O)[C@H](O)[C@@H]5O)CC[C@@]4(C)[C@@H]3CC[C@]21C)C(C)C
REMARK SMILES IDX 8 1 9 2 10 3 11 4 37 5 36 6 35 7 34 8 12 9 13 10 14 11 15 12
REMARK SMILES IDX 32 13 31 14 30 15 17 16 16 17 33 18 38 19 6 20 7 21 5 22
REMARK SMILES IDX 4 23 3 24 2 25 1 26 39 27 40 28 41 29 18 30 19 31 28 32
REMARK SMILES IDX 20 33 26 34 21 35 24 36 29 37 27 39 22 41 23 42 25 44
REMARK H PARENT 29 38 27 40 23 43 25 45
REMARK Flexibility Score: inf
ROOT
ATOM      1  C   UNL     1       9.180  19.236  44.086  1.00  0.00    -0.002 C 
ATOM      2  C   UNL     1       9.716  20.010  42.858  1.00  0.00     0.005 C 
ATOM      3  C   UNL     1       9.331  21.472  43.071  1.00  0.00     0.005 C 
ATOM      4  C   UNL     1       8.407  21.530  44.305  1.00  0.00    -0.001 C 
ATOM      5  C   UNL     1       7.915  20.089  44.497  1.00  0.00    -0.026 C 
ATOM      6  C   UNL     1       6.759  19.791  43.476  1.00  0.00     0.007 C 
ATOM      7  C   UNL     1       5.606  20.795  43.528  1.00  0.00     0.005 C 
ATOM      8  C   UNL     1       6.062  22.261  43.307  1.00  0.00     0.003 C 
ATOM      9  C   UNL     1       7.314  22.634  44.166  1.00  0.00     0.000 C 
ATOM     10  C   UNL     1       6.880  23.252  45.504  1.00  0.00     0.031 C 
ATOM     11  C   UNL     1       6.188  24.551  45.182  1.00  0.00    -0.027 C 
ATOM     12  C   UNL     1       5.341  24.616  44.134  1.00  0.00    -0.065 C 
ATOM     13  C   UNL     1       4.866  23.328  43.444  1.00  0.00    -0.008 C 
ATOM     14  C   UNL     1       4.346  23.691  42.022  1.00  0.00     0.014 C 
ATOM     15  C   UNL     1       3.291  24.821  42.000  1.00  0.00     0.033 C 
ATOM     16  C   UNL     1       3.515  25.943  43.049  1.00  0.00     0.125 C 
ATOM     17  C   UNL     1       4.966  25.967  43.555  1.00  0.00     0.063 C 
ATOM     18  C   UNL     1       3.668  22.787  44.281  1.00  0.00     0.016 C 
ATOM     19  C   UNL     1       7.378  19.807  45.928  1.00  0.00     0.012 C 
ENDROOT
BRANCH   1  20
ATOM     20  C   UNL     1      10.415  18.962  45.068  1.00  0.00    -0.011 C 
ATOM     21  C   UNL     1      10.167  18.995  46.580  1.00  0.00     0.008 C 
BRANCH  20  22
ATOM     22  C   UNL     1      11.112  17.616  44.714  1.00  0.00     0.004 C 
BRANCH  22  23
ATOM     23  C   UNL     1      12.066  17.120  45.820  1.00  0.00     0.004 C 
BRANCH  23  24
ATOM     24  C   UNL     1      13.381  16.437  45.350  1.00  0.00    -0.009 C 
BRANCH  24  25
ATOM     25  C   UNL     1      14.510  16.373  46.420  1.00  0.00     0.000 C 
ATOM     26  C   UNL     1      14.070  16.363  47.888  1.00  0.00     0.004 C 
ENDBRANCH  24  25
BRANCH  24  27
ATOM     27  C   UNL     1      13.175  15.143  44.485  1.00  0.00    -0.014 C 
ATOM     28  C   UNL     1      13.780  13.866  45.089  1.00  0.00     0.007 C 
ATOM     29  C   UNL     1      13.721  15.335  43.058  1.00  0.00     0.007 C 
ENDBRANCH  24  27
ENDBRANCH  23  24
ENDBRANCH  22  23
ENDBRANCH  20  22
ENDBRANCH   1  20
BRANCH  16  30
ATOM     30  O   UNL     1       3.173  27.188  42.455  1.00  0.00    -0.346 OA
BRANCH  30  31
ATOM     31  C   UNL     1       2.368  27.987  43.312  1.00  0.00     0.282 C 
ATOM     32  C   UNL     1       2.108  29.358  42.630  1.00  0.00     0.202 C 
ATOM     33  O   UNL     1       1.199  27.250  43.688  1.00  0.00    -0.341 OA
ATOM     34  C   UNL     1       1.010  29.275  41.547  1.00  0.00     0.179 C 
ATOM     35  C   UNL     1      -0.032  27.899  43.427  1.00  0.00     0.178 C 
ATOM     36  C   UNL     1      -0.124  28.290  41.932  1.00  0.00     0.177 C 
BRANCH  32  37
ATOM     37  O   UNL     1       3.294  29.874  42.077  1.00  0.00    -0.385 OA
ATOM     38  H   UNL     1       4.044  29.569  42.656  1.00  0.00     0.211 HD
ENDBRANCH  32  37
BRANCH  34  39
ATOM     39  O   UNL     1       1.540  28.950  40.284  1.00  0.00    -0.387 OA
ATOM     40  H   UNL     1       1.177  29.595  39.628  1.00  0.00     0.211 HD
ENDBRANCH  34  39
BRANCH  35  41
ATOM     41  C   UNL     1      -1.160  26.934  43.832  1.00  0.00     0.191 C 
BRANCH  41  42
ATOM     42  O   UNL     1      -2.295  27.637  44.266  1.00  0.00    -0.394 OA
ATOM     43  H   UNL     1      -2.742  27.985  43.448  1.00  0.00     0.210 HD
ENDBRANCH  41  42
ENDBRANCH  35  41
BRANCH  36  44
ATOM     44  O   UNL     1      -1.380  28.834  41.608  1.00  0.00    -0.387 OA
ATOM     45  H   UNL     1      -2.069  28.160  41.845  1.00  0.00     0.211 HD
ENDBRANCH  36  44
ENDBRANCH  30  31
ENDBRANCH  16  30
TORSDOF 13
ENDMDL
MODEL 6
REMARK VINA RESULT:    -8.977      1.355      2.484
REMARK INTER + INTRA:         -15.835
REMARK INTER:                 -15.365
REMARK INTRA:                  -0.469
REMARK UNBOUND:                -1.085
REMARK SMILES CC[C@H](CC[C@H](C)[C@@H]1CC[C@H]2[C@@H]3CC=C4C[C@@H](O[C@@H]5O[C@H](CO)[C@@H](O)[C@H](O)[C@@H]5O)CC[C@@]4(C)[C@@H]3CC[C@]21C)C(C)C
REMARK SMILES IDX 8 1 9 2 10 3 11 4 37 5 36 6 35 7 34 8 12 9 13 10 14 11 15 12
REMARK SMILES IDX 32 13 31 14 30 15 17 16 16 17 33 18 38 19 6 20 7 21 5 22
REMARK SMILES IDX 4 23 3 24 2 25 1 26 39 27 40 28 41 29 18 30 19 31 28 32
REMARK SMILES IDX 20 33 26 34 21 35 24 36 29 37 27 39 22 41 23 42 25 44
REMARK H PARENT 29 38 27 40 23 43 25 45
REMARK Flexibility Score: inf
ROOT
ATOM      1  C   UNL     1       9.435  19.032  44.005  1.00  0.00    -0.002 C 
ATOM      2  C   UNL     1       9.763  19.740  42.669  1.00  0.00     0.005 C 
ATOM      3  C   UNL     1       9.415  21.213  42.867  1.00  0.00     0.005 C 
ATOM      4  C   UNL     1       8.702  21.340  44.229  1.00  0.00    -0.001 C 
ATOM      5  C   UNL     1       8.251  19.913  44.572  1.00  0.00    -0.026 C 
ATOM      6  C   UNL     1       6.946  19.571  43.767  1.00  0.00     0.007 C 
ATOM      7  C   UNL     1       5.814  20.584  43.954  1.00  0.00     0.005 C 
ATOM      8  C   UNL     1       6.225  22.033  43.588  1.00  0.00     0.003 C 
ATOM      9  C   UNL     1       7.599  22.442  44.213  1.00  0.00     0.000 C 
ATOM     10  C   UNL     1       7.385  23.129  45.571  1.00  0.00     0.031 C 
ATOM     11  C   UNL     1       6.648  24.414  45.299  1.00  0.00    -0.027 C 
ATOM     12  C   UNL     1       5.643  24.431  44.400  1.00  0.00    -0.065 C 
ATOM     13  C   UNL     1       5.064  23.113  43.862  1.00  0.00    -0.008 C 
ATOM     14  C   UNL     1       4.320  23.407  42.526  1.00  0.00     0.014 C 
ATOM     15  C   UNL     1       3.274  24.541  42.618  1.00  0.00     0.033 C 
ATOM     16  C   UNL     1       3.662  25.713  43.558  1.00  0.00     0.125 C 
ATOM     17  C   UNL     1       5.175  25.754  43.821  1.00  0.00     0.063 C 
ATOM     18  C   UNL     1       4.019  22.622  44.909  1.00  0.00     0.016 C 
ATOM     19  C   UNL     1       7.953  19.707  46.083  1.00  0.00     0.012 C 
ENDROOT
BRANCH   1  20
ATOM     20  C   UNL     1      10.813  18.802  44.787  1.00  0.00    -0.011 C 
ATOM     21  C   UNL     1      10.907  19.250  46.250  1.00  0.00     0.008 C 
BRANCH  20  22
ATOM     22  C   UNL     1      11.251  17.310  44.702  1.00  0.00     0.004 C 
BRANCH  22  23
ATOM     23  C   UNL     1      12.193  16.890  45.850  1.00  0.00     0.004 C 
BRANCH  23  24
ATOM     24  C   UNL     1      13.474  16.108  45.445  1.00  0.00    -0.009 C 
BRANCH  24  25
ATOM     25  C   UNL     1      13.992  16.391  44.004  1.00  0.00     0.000 C 
ATOM     26  C   UNL     1      14.039  15.199  43.042  1.00  0.00     0.004 C 
ENDBRANCH  24  25
BRANCH  24  27
ATOM     27  C   UNL     1      14.570  16.020  46.567  1.00  0.00    -0.014 C 
ATOM     28  C   UNL     1      14.992  14.589  46.938  1.00  0.00     0.007 C 
ATOM     29  C   UNL     1      14.123  16.761  47.840  1.00  0.00     0.007 C 
ENDBRANCH  24  27
ENDBRANCH  23  24
ENDBRANCH  22  23
ENDBRANCH  20  22
ENDBRANCH   1  20
BRANCH  16  30
ATOM     30  O   UNL     1       3.225  26.929  42.965  1.00  0.00    -0.346 OA
BRANCH  30  31
ATOM     31  C   UNL     1       1.913  26.822  42.431  1.00  0.00     0.282 C 
ATOM     32  C   UNL     1       0.885  27.180  43.539  1.00  0.00     0.202 C 
ATOM     33  O   UNL     1       1.825  27.596  41.229  1.00  0.00    -0.341 OA
ATOM     34  C   UNL     1       0.759  28.705  43.750  1.00  0.00     0.179 C 
ATOM     35  C   UNL     1       0.778  28.551  41.203  1.00  0.00     0.178 C 
ATOM     36  C   UNL     1       0.887  29.496  42.424  1.00  0.00     0.177 C 
BRANCH  32  37
ATOM     37  O   UNL     1       1.217  26.549  44.751  1.00  0.00    -0.385 OA
ATOM     38  H   UNL     1       0.726  25.684  44.776  1.00  0.00     0.211 HD
ENDBRANCH  32  37
BRANCH  34  39
ATOM     39  O   UNL     1       1.681  29.182  44.702  1.00  0.00    -0.387 OA
ATOM     40  H   UNL     1       2.583  29.134  44.299  1.00  0.00     0.211 HD
ENDBRANCH  34  39
BRANCH  35  41
ATOM     41  C   UNL     1       0.886  29.321  39.876  1.00  0.00     0.191 C 
BRANCH  41  42
ATOM     42  O   UNL     1      -0.250  29.115  39.078  1.00  0.00    -0.394 OA
ATOM     43  H   UNL     1      -0.195  28.180  38.743  1.00  0.00     0.210 HD
ENDBRANCH  41  42
ENDBRANCH  35  41
BRANCH  36  44
ATOM     44  O   UNL     1      -0.066  30.530  42.373  1.00  0.00    -0.387 OA
ATOM     45  H   UNL     1      -0.379  30.697  43.300  1.00  0.00     0.211 HD
ENDBRANCH  36  44
ENDBRANCH  30  31
ENDBRANCH  16  30
TORSDOF 13
ENDMDL
MODEL 7
REMARK VINA RESULT:    -8.822      6.065     13.397
REMARK INTER + INTRA:         -15.580
REMARK INTER:                 -14.785
REMARK INTRA:                  -0.795
REMARK UNBOUND:                -1.085
REMARK SMILES CC[C@H](CC[C@H](C)[C@@H]1CC[C@H]2[C@@H]3CC=C4C[C@@H](O[C@@H]5O[C@H](CO)[C@@H](O)[C@H](O)[C@@H]5O)CC[C@@]4(C)[C@@H]3CC[C@]21C)C(C)C
REMARK SMILES IDX 8 1 9 2 10 3 11 4 37 5 36 6 35 7 34 8 12 9 13 10 14 11 15 12
REMARK SMILES IDX 32 13 31 14 30 15 17 16 16 17 33 18 38 19 6 20 7 21 5 22
REMARK SMILES IDX 4 23 3 24 2 25 1 26 39 27 40 28 41 29 18 30 19 31 28 32
REMARK SMILES IDX 20 33 26 34 21 35 24 36 29 37 27 39 22 41 23 42 25 44
REMARK H PARENT 29 38 27 40 23 43 25 45
REMARK Flexibility Score: inf
ROOT
ATOM      1  C   UNL     1       4.369  25.335  43.013  1.00  0.00    -0.002 C 
ATOM      2  C   UNL     1       4.297  24.495  41.716  1.00  0.00     0.005 C 
ATOM      3  C   UNL     1       4.565  23.049  42.126  1.00  0.00     0.005 C 
ATOM      4  C   UNL     1       4.988  23.061  43.609  1.00  0.00    -0.001 C 
ATOM      5  C   UNL     1       5.395  24.514  43.891  1.00  0.00    -0.026 C 
ATOM      6  C   UNL     1       6.842  24.768  43.335  1.00  0.00     0.007 C 
ATOM      7  C   UNL     1       7.890  23.777  43.846  1.00  0.00     0.005 C 
ATOM      8  C   UNL     1       7.527  22.299  43.551  1.00  0.00     0.003 C 
ATOM      9  C   UNL     1       6.047  21.960  43.925  1.00  0.00     0.000 C 
ATOM     10  C   UNL     1       5.969  21.414  45.359  1.00  0.00     0.031 C 
ATOM     11  C   UNL     1       6.716  20.106  45.371  1.00  0.00    -0.027 C 
ATOM     12  C   UNL     1       7.880  19.995  44.698  1.00  0.00    -0.065 C 
ATOM     13  C   UNL     1       8.585  21.250  44.159  1.00  0.00    -0.008 C 
ATOM     14  C   UNL     1       9.573  20.818  43.036  1.00  0.00     0.014 C 
ATOM     15  C   UNL     1      10.553  19.697  43.449  1.00  0.00     0.033 C 
ATOM     16  C   UNL     1       9.959  18.628  44.404  1.00  0.00     0.125 C 
ATOM     17  C   UNL     1       8.423  18.619  44.361  1.00  0.00     0.063 C 
ATOM     18  C   UNL     1       9.411  21.842  45.340  1.00  0.00     0.016 C 
ATOM     19  C   UNL     1       5.390  24.872  45.403  1.00  0.00     0.012 C 
ENDROOT
BRANCH   1  20
ATOM     20  C   UNL     1       2.869  25.648  43.476  1.00  0.00    -0.011 C 
ATOM     21  C   UNL     1       2.552  25.655  44.975  1.00  0.00     0.008 C 
BRANCH  20  22
ATOM     22  C   UNL     1       2.373  26.992  42.864  1.00  0.00     0.004 C 
BRANCH  22  23
ATOM     23  C   UNL     1       0.971  27.402  43.360  1.00  0.00     0.004 C 
BRANCH  23  24
ATOM     24  C   UNL     1       0.548  28.875  43.106  1.00  0.00    -0.009 C 
BRANCH  24  25
ATOM     25  C   UNL     1       1.014  29.469  41.743  1.00  0.00     0.000 C 
ATOM     26  C   UNL     1      -0.084  29.903  40.767  1.00  0.00     0.004 C 
ENDBRANCH  24  25
BRANCH  24  27
ATOM     27  C   UNL     1      -0.920  29.221  43.543  1.00  0.00    -0.014 C 
ATOM     28  C   UNL     1      -1.063  30.538  44.323  1.00  0.00     0.007 C 
ATOM     29  C   UNL     1      -1.539  28.077  44.366  1.00  0.00     0.007 C 
ENDBRANCH  24  27
ENDBRANCH  23  24
ENDBRANCH  22  23
ENDBRANCH  20  22
ENDBRANCH   1  20
BRANCH  16  30
ATOM     30  O   UNL     1      10.477  17.357  44.034  1.00  0.00    -0.346 OA
BRANCH  30  31
ATOM     31  C   UNL     1      11.014  16.654  45.147  1.00  0.00     0.282 C 
ATOM     32  C   UNL     1      11.566  15.286  44.663  1.00  0.00     0.202 C 
ATOM     33  O   UNL     1      11.950  17.494  45.831  1.00  0.00    -0.341 OA
ATOM     34  C   UNL     1      12.946  15.419  43.981  1.00  0.00     0.179 C 
ATOM     35  C   UNL     1      13.240  16.936  46.011  1.00  0.00     0.178 C 
ATOM     36  C   UNL     1      13.830  16.503  44.648  1.00  0.00     0.177 C 
BRANCH  32  37
ATOM     37  O   UNL     1      10.655  14.659  43.793  1.00  0.00    -0.385 OA
ATOM     38  H   UNL     1      10.089  15.375  43.397  1.00  0.00     0.211 HD
ENDBRANCH  32  37
BRANCH  34  39
ATOM     39  O   UNL     1      12.828  15.658  42.598  1.00  0.00    -0.387 OA
ATOM     40  H   UNL     1      12.350  16.516  42.479  1.00  0.00     0.211 HD
ENDBRANCH  34  39
BRANCH  35  41
ATOM     41  C   UNL     1      14.114  18.000  46.697  1.00  0.00     0.191 C 
BRANCH  41  42
ATOM     42  O   UNL     1      14.507  17.583  47.978  1.00  0.00    -0.394 OA
ATOM     43  H   UNL     1      14.344  16.602  48.018  1.00  0.00     0.210 HD
ENDBRANCH  41  42
ENDBRANCH  35  41
BRANCH  36  44
ATOM     44  O   UNL     1      15.157  16.049  44.771  1.00  0.00    -0.387 OA
ATOM     45  H   UNL     1      15.339  15.443  44.005  1.00  0.00     0.211 HD
ENDBRANCH  36  44
ENDBRANCH  30  31
ENDBRANCH  16  30
TORSDOF 13
ENDMDL
