MODEL 1
REMARK VINA RESULT:    -3.482      0.000      0.000
REMARK INTER + INTRA:          -4.144
REMARK INTER:                  -4.092
REMARK INTRA:                  -0.051
REMARK UNBOUND:                -0.051
REMARK SMILES CCCCC(=O)[O-]
REMARK SMILES IDX 4 1 5 2 6 3 7 4 3 5 2 6 1 7
REMARK H PARENT
REMARK Flexibility Score: inf
ROOT
ATOM      1  C   UNL     1      13.941  45.203   0.243  1.00  0.00     0.053 C 
ENDROOT
BRANCH   1   2
ATOM      2  C   UNL     1      15.427  45.168   0.085  1.00  0.00     0.041 C 
ATOM      3  O   UNL     1      15.991  45.893  -0.778  1.00  0.00    -0.550 OA
ATOM      4  O   UNL     1      16.198  44.373   0.922  1.00  0.00    -0.550 OA
ENDBRANCH   1   2
BRANCH   1   5
ATOM      5  C   UNL     1      13.406  43.812   0.595  1.00  0.00     0.006 C 
BRANCH   5   6
ATOM      6  C   UNL     1      12.292  43.392  -0.369  1.00  0.00    -0.003 C 
ATOM      7  C   UNL     1      11.707  44.600  -1.096  1.00  0.00     0.004 C 
ENDBRANCH   5   6
ENDBRANCH   1   5
TORSDOF 3
ENDMDL
MODEL 2
REMARK VINA RESULT:    -3.423      1.403      2.115
REMARK INTER + INTRA:          -4.075
REMARK INTER:                  -4.018
REMARK INTRA:                  -0.057
REMARK UNBOUND:                -0.051
REMARK SMILES CCCCC(=O)[O-]
REMARK SMILES IDX 4 1 5 2 6 3 7 4 3 5 2 6 1 7
REMARK H PARENT
REMARK Flexibility Score: inf
ROOT
ATOM      1  C   UNL     1      13.601  45.985  -0.497  1.00  0.00     0.053 C 
ENDROOT
BRANCH   1   2
ATOM      2  C   UNL     1      14.756  46.649  -1.176  1.00  0.00     0.041 C 
ATOM      3  O   UNL     1      15.915  46.165  -1.076  1.00  0.00    -0.550 OA
ATOM      4  O   UNL     1      14.547  47.775  -1.962  1.00  0.00    -0.550 OA
ENDBRANCH   1   2
BRANCH   1   5
ATOM      5  C   UNL     1      14.073  44.757   0.287  1.00  0.00     0.006 C 
BRANCH   5   6
ATOM      6  C   UNL     1      13.003  43.659   0.286  1.00  0.00    -0.003 C 
ATOM      7  C   UNL     1      11.908  43.958  -0.734  1.00  0.00     0.004 C 
ENDBRANCH   5   6
ENDBRANCH   1   5
TORSDOF 3
ENDMDL
MODEL 3
REMARK VINA RESULT:    -3.382      2.442      3.464
REMARK INTER + INTRA:          -4.026
REMARK INTER:                  -3.971
REMARK INTRA:                  -0.055
REMARK UNBOUND:                -0.051
REMARK SMILES CCCCC(=O)[O-]
REMARK SMILES IDX 4 1 5 2 6 3 7 4 3 5 2 6 1 7
REMARK H PARENT
REMARK Flexibility Score: inf
ROOT
ATOM      1  C   UNL     1      13.831  45.042   0.313  1.00  0.00     0.053 C 
ENDROOT
BRANCH   1   2
ATOM      2  C   UNL     1      12.964  43.824   0.336  1.00  0.00     0.041 C 
ATOM      3  O   UNL     1      12.082  43.657  -0.547  1.00  0.00    -0.550 OA
ATOM      4  O   UNL     1      13.161  42.848   1.304  1.00  0.00    -0.550 OA
ENDBRANCH   1   2
BRANCH   1   5
ATOM      5  C   UNL     1      13.266  46.086  -0.655  1.00  0.00     0.006 C 
BRANCH   5   6
ATOM      6  C   UNL     1      14.386  46.950  -1.246  1.00  0.00    -0.003 C 
ATOM      7  C   UNL     1      15.756  46.329  -0.988  1.00  0.00     0.004 C 
ENDBRANCH   5   6
ENDBRANCH   1   5
TORSDOF 3
ENDMDL
MODEL 4
REMARK VINA RESULT:    -3.377      2.711      3.724
REMARK INTER + INTRA:          -4.020
REMARK INTER:                  -3.995
REMARK INTRA:                  -0.025
REMARK UNBOUND:                -0.051
REMARK SMILES CCCCC(=O)[O-]
REMARK SMILES IDX 4 1 5 2 6 3 7 4 3 5 2 6 1 7
REMARK H PARENT
REMARK Flexibility Score: inf
ROOT
ATOM      1  C   UNL     1      14.072  44.940   0.250  1.00  0.00     0.053 C 
ENDROOT
BRANCH   1   2
ATOM      2  C   UNL     1      12.984  43.913   0.245  1.00  0.00     0.041 C 
ATOM      3  O   UNL     1      13.030  42.936   1.038  1.00  0.00    -0.550 OA
ATOM      4  O   UNL     1      11.893  44.060  -0.602  1.00  0.00    -0.550 OA
ENDBRANCH   1   2
BRANCH   1   5
ATOM      5  C   UNL     1      13.772  46.046  -0.766  1.00  0.00     0.006 C 
BRANCH   5   6
ATOM      6  C   UNL     1      15.065  46.597  -1.375  1.00  0.00    -0.003 C 
ATOM      7  C   UNL     1      14.816  47.920  -2.095  1.00  0.00     0.004 C 
ENDBRANCH   5   6
ENDBRANCH   1   5
TORSDOF 3
ENDMDL
MODEL 5
REMARK VINA RESULT:    -2.835     11.074     12.113
REMARK INTER + INTRA:          -3.383
REMARK INTER:                  -3.367
REMARK INTRA:                  -0.016
REMARK UNBOUND:                -0.051
REMARK SMILES CCCCC(=O)[O-]
REMARK SMILES IDX 4 1 5 2 6 3 7 4 3 5 2 6 1 7
REMARK H PARENT
REMARK Flexibility Score: inf
ROOT
ATOM      1  C   UNL     1      14.116  37.751  10.258  1.00  0.00     0.053 C 
ENDROOT
BRANCH   1   2
ATOM      2  C   UNL     1      15.189  37.691  11.298  1.00  0.00     0.041 C 
ATOM      3  O   UNL     1      15.777  36.604  11.540  1.00  0.00    -0.550 OA
ATOM      4  O   UNL     1      15.575  38.846  11.967  1.00  0.00    -0.550 OA
ENDBRANCH   1   2
BRANCH   1   5
ATOM      5  C   UNL     1      14.492  38.746   9.155  1.00  0.00     0.006 C 
BRANCH   5   6
ATOM      6  C   UNL     1      13.830  38.367   7.826  1.00  0.00    -0.003 C 
ATOM      7  C   UNL     1      14.728  38.719   6.643  1.00  0.00     0.004 C 
ENDBRANCH   5   6
ENDBRANCH   1   5
TORSDOF 3
ENDMDL
MODEL 6
REMARK VINA RESULT:    -2.780     10.625     11.676
REMARK INTER + INTRA:          -3.318
REMARK INTER:                  -3.298
REMARK INTRA:                  -0.021
REMARK UNBOUND:                -0.051
REMARK SMILES CCCCC(=O)[O-]
REMARK SMILES IDX 4 1 5 2 6 3 7 4 3 5 2 6 1 7
REMARK H PARENT
REMARK Flexibility Score: inf
ROOT
ATOM      1  C   UNL     1      14.796  39.019   9.257  1.00  0.00     0.053 C 
ENDROOT
BRANCH   1   2
ATOM      2  C   UNL     1      14.487  38.792   7.812  1.00  0.00     0.041 C 
ATOM      3  O   UNL     1      15.254  39.243   6.921  1.00  0.00    -0.550 OA
ATOM      4  O   UNL     1      13.377  38.040   7.448  1.00  0.00    -0.550 OA
ENDBRANCH   1   2
BRANCH   1   5
ATOM      5  C   UNL     1      14.108  37.962  10.127  1.00  0.00     0.006 C 
BRANCH   5   6
ATOM      6  C   UNL     1      14.936  37.657  11.379  1.00  0.00    -0.003 C 
ATOM      7  C   UNL     1      14.315  38.291  12.620  1.00  0.00     0.004 C 
ENDBRANCH   5   6
ENDBRANCH   1   5
TORSDOF 3
ENDMDL
MODEL 7
REMARK VINA RESULT:    -2.777     10.631     11.709
REMARK INTER + INTRA:          -3.315
REMARK INTER:                  -3.296
REMARK INTRA:                  -0.019
REMARK UNBOUND:                -0.051
REMARK SMILES CCCCC(=O)[O-]
REMARK SMILES IDX 4 1 5 2 6 3 7 4 3 5 2 6 1 7
REMARK H PARENT
REMARK Flexibility Score: inf
ROOT
ATOM      1  C   UNL     1      14.684  39.053   9.246  1.00  0.00     0.053 C 
ENDROOT
BRANCH   1   2
ATOM      2  C   UNL     1      14.485  38.678   7.812  1.00  0.00     0.041 C 
ATOM      3  O   UNL     1      13.398  38.166   7.435  1.00  0.00    -0.550 OA
ATOM      4  O   UNL     1      15.482  38.937   6.880  1.00  0.00    -0.550 OA
ENDBRANCH   1   2
BRANCH   1   5
ATOM      5  C   UNL     1      14.118  37.970  10.169  1.00  0.00     0.006 C 
BRANCH   5   6
ATOM      6  C   UNL     1      14.946  37.855  11.454  1.00  0.00    -0.003 C 
ATOM      7  C   UNL     1      14.159  38.355  12.662  1.00  0.00     0.004 C 
ENDBRANCH   5   6
ENDBRANCH   1   5
TORSDOF 3
ENDMDL
MODEL 8
REMARK VINA RESULT:    -2.772      2.345      3.067
REMARK INTER + INTRA:          -3.310
REMARK INTER:                  -3.293
REMARK INTRA:                  -0.017
REMARK UNBOUND:                -0.051
REMARK SMILES CCCCC(=O)[O-]
REMARK SMILES IDX 4 1 5 2 6 3 7 4 3 5 2 6 1 7
REMARK H PARENT
REMARK Flexibility Score: inf
ROOT
ATOM      1  C   UNL     1      14.493  47.308  -1.425  1.00  0.00     0.053 C 
ENDROOT
BRANCH   1   2
ATOM      2  C   UNL     1      15.620  47.495  -2.390  1.00  0.00     0.041 C 
ATOM      3  O   UNL     1      15.411  48.021  -3.515  1.00  0.00    -0.550 OA
ATOM      4  O   UNL     1      16.912  47.134  -2.030  1.00  0.00    -0.550 OA
ENDBRANCH   1   2
BRANCH   1   5
ATOM      5  C   UNL     1      14.576  45.930  -0.763  1.00  0.00     0.006 C 
BRANCH   5   6
ATOM      6  C   UNL     1      13.182  45.418  -0.383  1.00  0.00    -0.003 C 
ATOM      7  C   UNL     1      13.269  44.114   0.405  1.00  0.00     0.004 C 
ENDBRANCH   5   6
ENDBRANCH   1   5
TORSDOF 3
ENDMDL
MODEL 9
REMARK VINA RESULT:    -2.714      9.045      9.833
REMARK INTER + INTRA:          -3.241
REMARK INTER:                  -3.125
REMARK INTRA:                  -0.116
REMARK UNBOUND:                -0.051
REMARK SMILES CCCCC(=O)[O-]
REMARK SMILES IDX 4 1 5 2 6 3 7 4 3 5 2 6 1 7
REMARK H PARENT
REMARK Flexibility Score: inf
ROOT
ATOM      1  C   UNL     1      15.361  39.129   6.996  1.00  0.00     0.053 C 
ENDROOT
BRANCH   1   2
ATOM      2  C   UNL     1      14.299  38.673   7.943  1.00  0.00     0.041 C 
ATOM      3  O   UNL     1      13.332  37.980   7.526  1.00  0.00    -0.550 OA
ATOM      4  O   UNL     1      14.399  38.969   9.296  1.00  0.00    -0.550 OA
ENDBRANCH   1   2
BRANCH   1   5
ATOM      5  C   UNL     1      16.151  40.296   7.596  1.00  0.00     0.006 C 
BRANCH   5   6
ATOM      6  C   UNL     1      15.547  41.641   7.179  1.00  0.00    -0.003 C 
ATOM      7  C   UNL     1      15.113  42.453   8.396  1.00  0.00     0.004 C 
ENDBRANCH   5   6
ENDBRANCH   1   5
TORSDOF 3
ENDMDL
