MODEL 1
REMARK VINA RESULT:    -4.543      0.000      0.000
REMARK INTER + INTRA:          -5.016
REMARK INTER:                  -4.941
REMARK INTRA:                  -0.075
REMARK UNBOUND:                -0.075
REMARK SMILES CCc1cccc(O)c1
REMARK SMILES IDX 3 1 9 2 7 3 6 4 5 5 4 6 2 7 1 8 8 9
REMARK H PARENT 8 10
REMARK Flexibility Score: inf
ROOT
ATOM      1  C   UNL     1     -27.650 101.596   0.240  1.00  0.00    -0.045 A 
ATOM      2  C   UNL     1     -28.749 100.733   0.391  1.00  0.00     0.049 A 
ATOM      3  C   UNL     1     -28.553  99.348   0.487  1.00  0.00     0.115 A 
ATOM      4  C   UNL     1     -27.257  98.824   0.441  1.00  0.00     0.046 A 
ATOM      5  C   UNL     1     -26.159  99.678   0.305  1.00  0.00     0.004 A 
ATOM      6  C   UNL     1     -26.353 101.059   0.209  1.00  0.00     0.004 A 
ENDROOT
BRANCH   1   7
ATOM      7  C   UNL     1     -27.857 103.084   0.171  1.00  0.00     0.032 C 
ATOM      8  C   UNL     1     -26.562 103.826   0.483  1.00  0.00     0.009 C 
ENDBRANCH   1   7
BRANCH   3   9
ATOM      9  O   UNL     1     -29.638  98.485   0.630  1.00  0.00    -0.508 OA
ATOM     10  H   UNL     1     -30.209  98.487   1.467  1.00  0.00     0.293 HD
ENDBRANCH   3   9
TORSDOF 2
ENDMDL
MODEL 2
REMARK VINA RESULT:    -4.543      1.296      2.088
REMARK INTER + INTRA:          -5.016
REMARK INTER:                  -4.941
REMARK INTRA:                  -0.076
REMARK UNBOUND:                -0.075
REMARK SMILES CCc1cccc(O)c1
REMARK SMILES IDX 3 1 9 2 7 3 6 4 5 5 4 6 2 7 1 8 8 9
REMARK H PARENT 8 10
REMARK Flexibility Score: inf
ROOT
ATOM      1  C   UNL     1     -27.373 101.420   0.304  1.00  0.00    -0.045 A 
ATOM      2  C   UNL     1     -26.566 100.270   0.343  1.00  0.00     0.049 A 
ATOM      3  C   UNL     1     -27.152  98.997   0.398  1.00  0.00     0.115 A 
ATOM      4  C   UNL     1     -28.545  98.872   0.406  1.00  0.00     0.046 A 
ATOM      5  C   UNL     1     -29.353 100.011   0.353  1.00  0.00     0.004 A 
ATOM      6  C   UNL     1     -28.771 101.280   0.297  1.00  0.00     0.004 A 
ENDROOT
BRANCH   1   7
ATOM      7  C   UNL     1     -26.746 102.784   0.210  1.00  0.00     0.032 C 
ATOM      8  C   UNL     1     -27.816 103.870   0.172  1.00  0.00     0.009 C 
ENDBRANCH   1   7
BRANCH   3   9
ATOM      9  O   UNL     1     -26.358  97.852   0.444  1.00  0.00    -0.508 OA
ATOM     10  H   UNL     1     -25.881  97.572   1.293  1.00  0.00     0.293 HD
ENDBRANCH   3   9
TORSDOF 2
ENDMDL
MODEL 3
REMARK VINA RESULT:    -4.480     10.859     11.918
REMARK INTER + INTRA:          -4.948
REMARK INTER:                  -4.873
REMARK INTRA:                  -0.075
REMARK UNBOUND:                -0.075
REMARK SMILES CCc1cccc(O)c1
REMARK SMILES IDX 3 1 9 2 7 3 6 4 5 5 4 6 2 7 1 8 8 9
REMARK H PARENT 8 10
REMARK Flexibility Score: inf
ROOT
ATOM      1  C   UNL     1     -34.330  93.914   7.064  1.00  0.00    -0.045 A 
ATOM      2  C   UNL     1     -35.196  92.809   6.989  1.00  0.00     0.049 A 
ATOM      3  C   UNL     1     -34.725  91.572   6.526  1.00  0.00     0.115 A 
ATOM      4  C   UNL     1     -33.386  91.435   6.147  1.00  0.00     0.046 A 
ATOM      5  C   UNL     1     -32.517  92.526   6.232  1.00  0.00     0.004 A 
ATOM      6  C   UNL     1     -32.984  93.760   6.694  1.00  0.00     0.004 A 
ENDROOT
BRANCH   1   7
ATOM      7  C   UNL     1     -34.826  95.232   7.593  1.00  0.00     0.032 C 
ATOM      8  C   UNL     1     -33.787  96.327   7.376  1.00  0.00     0.009 C 
ENDBRANCH   1   7
BRANCH   3   9
ATOM      9  O   UNL     1     -35.579  90.474   6.442  1.00  0.00    -0.508 OA
ATOM     10  H   UNL     1     -35.998  90.064   7.269  1.00  0.00     0.293 HD
ENDBRANCH   3   9
TORSDOF 2
ENDMDL
MODEL 4
REMARK VINA RESULT:    -4.391     10.383     11.913
REMARK INTER + INTRA:          -4.851
REMARK INTER:                  -4.801
REMARK INTRA:                  -0.050
REMARK UNBOUND:                -0.075
REMARK SMILES CCc1cccc(O)c1
REMARK SMILES IDX 3 1 9 2 7 3 6 4 5 5 4 6 2 7 1 8 8 9
REMARK H PARENT 8 10
REMARK Flexibility Score: inf
ROOT
ATOM      1  C   UNL     1     -34.573  94.011   7.213  1.00  0.00    -0.045 A 
ATOM      2  C   UNL     1     -33.632  93.732   6.208  1.00  0.00     0.049 A 
ATOM      3  C   UNL     1     -33.470  92.422   5.734  1.00  0.00     0.115 A 
ATOM      4  C   UNL     1     -34.256  91.391   6.258  1.00  0.00     0.046 A 
ATOM      5  C   UNL     1     -35.204  91.664   7.248  1.00  0.00     0.004 A 
ATOM      6  C   UNL     1     -35.367  92.969   7.721  1.00  0.00     0.004 A 
ENDROOT
BRANCH   1   7
ATOM      7  C   UNL     1     -34.771  95.421   7.698  1.00  0.00     0.032 C 
ATOM      8  C   UNL     1     -33.581  96.296   7.318  1.00  0.00     0.009 C 
ENDBRANCH   1   7
BRANCH   3   9
ATOM      9  O   UNL     1     -32.534  92.137   4.742  1.00  0.00    -0.508 OA
ATOM     10  H   UNL     1     -32.280  92.822   4.040  1.00  0.00     0.293 HD
ENDBRANCH   3   9
TORSDOF 2
ENDMDL
MODEL 5
REMARK VINA RESULT:    -4.359      1.925      2.522
REMARK INTER + INTRA:          -4.817
REMARK INTER:                  -4.741
REMARK INTRA:                  -0.076
REMARK UNBOUND:                -0.075
REMARK SMILES CCc1cccc(O)c1
REMARK SMILES IDX 3 1 9 2 7 3 6 4 5 5 4 6 2 7 1 8 8 9
REMARK H PARENT 8 10
REMARK Flexibility Score: inf
ROOT
ATOM      1  C   UNL     1     -28.215  99.970   0.530  1.00  0.00    -0.045 A 
ATOM      2  C   UNL     1     -27.930  98.714   1.093  1.00  0.00     0.049 A 
ATOM      3  C   UNL     1     -26.602  98.313   1.293  1.00  0.00     0.115 A 
ATOM      4  C   UNL     1     -25.556  99.171   0.938  1.00  0.00     0.046 A 
ATOM      5  C   UNL     1     -25.832 100.427   0.391  1.00  0.00     0.004 A 
ATOM      6  C   UNL     1     -27.156 100.828   0.192  1.00  0.00     0.004 A 
ENDROOT
BRANCH   1   7
ATOM      7  C   UNL     1     -29.641 100.414   0.347  1.00  0.00     0.032 C 
ATOM      8  C   UNL     1     -29.702 101.888  -0.038  1.00  0.00     0.009 C 
ENDBRANCH   1   7
BRANCH   3   9
ATOM      9  O   UNL     1     -26.311  97.067   1.843  1.00  0.00    -0.508 OA
ATOM     10  H   UNL     1     -25.960  96.305   1.275  1.00  0.00     0.293 HD
ENDBRANCH   3   9
TORSDOF 2
ENDMDL
MODEL 6
REMARK VINA RESULT:    -4.359      8.645      9.014
REMARK INTER + INTRA:          -4.816
REMARK INTER:                  -4.766
REMARK INTRA:                  -0.050
REMARK UNBOUND:                -0.075
REMARK SMILES CCc1cccc(O)c1
REMARK SMILES IDX 3 1 9 2 7 3 6 4 5 5 4 6 2 7 1 8 8 9
REMARK H PARENT 8 10
REMARK Flexibility Score: inf
ROOT
ATOM      1  C   UNL     1     -29.748 101.310   9.624  1.00  0.00    -0.045 A 
ATOM      2  C   UNL     1     -28.588 101.184   8.841  1.00  0.00     0.049 A 
ATOM      3  C   UNL     1     -28.640 100.533   7.600  1.00  0.00     0.115 A 
ATOM      4  C   UNL     1     -29.853 100.015   7.137  1.00  0.00     0.046 A 
ATOM      5  C   UNL     1     -31.013 100.149   7.905  1.00  0.00     0.004 A 
ATOM      6  C   UNL     1     -30.963 100.798   9.141  1.00  0.00     0.004 A 
ENDROOT
BRANCH   1   7
ATOM      7  C   UNL     1     -29.700 102.038  10.940  1.00  0.00     0.032 C 
ATOM      8  C   UNL     1     -29.048 103.407  10.778  1.00  0.00     0.009 C 
ENDBRANCH   1   7
BRANCH   3   9
ATOM      9  O   UNL     1     -27.493 100.399   6.821  1.00  0.00    -0.508 OA
ATOM     10  H   UNL     1     -27.506 100.574   5.823  1.00  0.00     0.293 HD
ENDBRANCH   3   9
TORSDOF 2
ENDMDL
MODEL 7
REMARK VINA RESULT:    -4.294      9.776     10.900
REMARK INTER + INTRA:          -4.746
REMARK INTER:                  -4.679
REMARK INTRA:                  -0.067
REMARK UNBOUND:                -0.075
REMARK SMILES CCc1cccc(O)c1
REMARK SMILES IDX 3 1 9 2 7 3 6 4 5 5 4 6 2 7 1 8 8 9
REMARK H PARENT 8 10
REMARK Flexibility Score: inf
ROOT
ATOM      1  C   UNL     1     -19.897  98.108  -5.816  1.00  0.00    -0.045 A 
ATOM      2  C   UNL     1     -18.502  98.120  -5.642  1.00  0.00     0.049 A 
ATOM      3  C   UNL     1     -17.858  97.046  -5.011  1.00  0.00     0.115 A 
ATOM      4  C   UNL     1     -18.607  95.954  -4.561  1.00  0.00     0.046 A 
ATOM      5  C   UNL     1     -19.992  95.929  -4.743  1.00  0.00     0.004 A 
ATOM      6  C   UNL     1     -20.636  96.998  -5.372  1.00  0.00     0.004 A 
ENDROOT
BRANCH   1   7
ATOM      7  C   UNL     1     -20.585  99.244  -6.522  1.00  0.00     0.032 C 
ATOM      8  C   UNL     1     -21.850  99.657  -5.779  1.00  0.00     0.009 C 
ENDBRANCH   1   7
BRANCH   3   9
ATOM      9  O   UNL     1     -16.477  97.055  -4.829  1.00  0.00    -0.508 OA
ATOM     10  H   UNL     1     -15.843  97.250  -5.595  1.00  0.00     0.293 HD
ENDBRANCH   3   9
TORSDOF 2
ENDMDL
MODEL 8
REMARK VINA RESULT:    -4.250      8.273      9.012
REMARK INTER + INTRA:          -4.698
REMARK INTER:                  -4.627
REMARK INTRA:                  -0.071
REMARK UNBOUND:                -0.075
REMARK SMILES CCc1cccc(O)c1
REMARK SMILES IDX 3 1 9 2 7 3 6 4 5 5 4 6 2 7 1 8 8 9
REMARK H PARENT 8 10
REMARK Flexibility Score: inf
ROOT
ATOM      1  C   UNL     1     -30.962 100.226   8.105  1.00  0.00    -0.045 A 
ATOM      2  C   UNL     1     -29.854 100.089   7.252  1.00  0.00     0.049 A 
ATOM      3  C   UNL     1     -28.581 100.499   7.673  1.00  0.00     0.115 A 
ATOM      4  C   UNL     1     -28.413 101.039   8.952  1.00  0.00     0.046 A 
ATOM      5  C   UNL     1     -29.508 101.166   9.811  1.00  0.00     0.004 A 
ATOM      6  C   UNL     1     -30.777 100.757   9.393  1.00  0.00     0.004 A 
ENDROOT
BRANCH   1   7
ATOM      7  C   UNL     1     -32.322  99.755   7.666  1.00  0.00     0.032 C 
ATOM      8  C   UNL     1     -33.057  99.079   8.818  1.00  0.00     0.009 C 
ENDBRANCH   1   7
BRANCH   3   9
ATOM      9  O   UNL     1     -27.479 100.372   6.830  1.00  0.00    -0.508 OA
ATOM     10  H   UNL     1     -27.373  99.576   6.213  1.00  0.00     0.293 HD
ENDBRANCH   3   9
TORSDOF 2
ENDMDL
MODEL 9
REMARK VINA RESULT:    -4.197     10.560     11.829
REMARK INTER + INTRA:          -4.640
REMARK INTER:                  -4.591
REMARK INTRA:                  -0.049
REMARK UNBOUND:                -0.075
REMARK SMILES CCc1cccc(O)c1
REMARK SMILES IDX 3 1 9 2 7 3 6 4 5 5 4 6 2 7 1 8 8 9
REMARK H PARENT 8 10
REMARK Flexibility Score: inf
ROOT
ATOM      1  C   UNL     1     -17.844  96.686  -4.972  1.00  0.00    -0.045 A 
ATOM      2  C   UNL     1     -18.631  96.288  -3.877  1.00  0.00     0.049 A 
ATOM      3  C   UNL     1     -18.278  95.158  -3.126  1.00  0.00     0.115 A 
ATOM      4  C   UNL     1     -17.134  94.427  -3.464  1.00  0.00     0.046 A 
ATOM      5  C   UNL     1     -16.341  94.825  -4.544  1.00  0.00     0.004 A 
ATOM      6  C   UNL     1     -16.690  95.952  -5.293  1.00  0.00     0.004 A 
ENDROOT
BRANCH   1   7
ATOM      7  C   UNL     1     -18.203  97.918  -5.757  1.00  0.00     0.032 C 
ATOM      8  C   UNL     1     -19.703  98.180  -5.698  1.00  0.00     0.009 C 
ENDBRANCH   1   7
BRANCH   3   9
ATOM      9  O   UNL     1     -19.057  94.754  -2.044  1.00  0.00    -0.508 OA
ATOM     10  H   UNL     1     -19.395  95.418  -1.357  1.00  0.00     0.293 HD
ENDBRANCH   3   9
TORSDOF 2
ENDMDL
