MODEL 1
REMARK VINA RESULT:    -4.978      0.000      0.000
REMARK INTER + INTRA:          -5.444
REMARK INTER:                  -5.414
REMARK INTRA:                  -0.030
REMARK UNBOUND:                -0.030
REMARK SMILES O=C([O-])c1ccc(O)cc1
REMARK SMILES IDX 4 1 5 2 10 3 6 4 9 5 7 6 2 7 1 8 3 9 8 10
REMARK H PARENT 8 11
REMARK Flexibility Score: inf
ROOT
ATOM      1  C   UNL     1      47.400  49.017  34.609  1.00  0.00    -0.003 A 
ATOM      2  C   UNL     1      46.281  48.628  35.367  1.00  0.00     0.014 A 
ATOM      3  C   UNL     1      48.086  48.044  33.858  1.00  0.00     0.014 A 
ATOM      4  C   UNL     1      45.857  47.296  35.373  1.00  0.00     0.047 A 
ATOM      5  C   UNL     1      47.659  46.712  33.866  1.00  0.00     0.047 A 
ATOM      6  C   UNL     1      46.545  46.334  34.622  1.00  0.00     0.115 A 
ENDROOT
BRANCH   1   7
ATOM      7  C   UNL     1      47.847  50.427  34.605  1.00  0.00     0.071 C 
ATOM      8  O   UNL     1      47.050  51.352  34.296  1.00  0.00    -0.545 OA
ATOM      9  O   UNL     1      49.156  50.751  34.944  1.00  0.00    -0.545 OA
ENDBRANCH   1   7
BRANCH   6  10
ATOM     10  O   UNL     1      46.132  45.004  34.619  1.00  0.00    -0.508 OA
ATOM     11  H   UNL     1      46.158  44.441  35.460  1.00  0.00     0.293 HD
ENDBRANCH   6  10
TORSDOF 2
ENDMDL
MODEL 2
REMARK VINA RESULT:    -4.951      2.006      4.093
REMARK INTER + INTRA:          -5.414
REMARK INTER:                  -5.384
REMARK INTRA:                  -0.030
REMARK UNBOUND:                -0.030
REMARK SMILES O=C([O-])c1ccc(O)cc1
REMARK SMILES IDX 4 1 5 2 10 3 6 4 9 5 7 6 2 7 1 8 3 9 8 10
REMARK H PARENT 8 11
REMARK Flexibility Score: inf
ROOT
ATOM      1  C   UNL     1      47.020  48.571  35.545  1.00  0.00    -0.003 A 
ATOM      2  C   UNL     1      47.302  49.728  34.800  1.00  0.00     0.014 A 
ATOM      3  C   UNL     1      48.053  47.970  36.290  1.00  0.00     0.014 A 
ATOM      4  C   UNL     1      48.588  50.275  34.799  1.00  0.00     0.047 A 
ATOM      5  C   UNL     1      49.339  48.520  36.287  1.00  0.00     0.047 A 
ATOM      6  C   UNL     1      49.611  49.672  35.543  1.00  0.00     0.115 A 
ENDROOT
BRANCH   1   7
ATOM      7  C   UNL     1      45.658  47.993  35.543  1.00  0.00     0.071 C 
ATOM      8  O   UNL     1      44.656  48.713  35.800  1.00  0.00    -0.545 OA
ATOM      9  O   UNL     1      45.464  46.646  35.258  1.00  0.00    -0.545 OA
ENDBRANCH   1   7
BRANCH   6  10
ATOM     10  O   UNL     1      50.896  50.209  35.551  1.00  0.00    -0.508 OA
ATOM     11  H   UNL     1      51.488  50.176  34.730  1.00  0.00     0.293 HD
ENDBRANCH   6  10
TORSDOF 2
ENDMDL
MODEL 3
REMARK VINA RESULT:    -4.947      2.010      4.109
REMARK INTER + INTRA:          -5.410
REMARK INTER:                  -5.380
REMARK INTRA:                  -0.030
REMARK UNBOUND:                -0.030
REMARK SMILES O=C([O-])c1ccc(O)cc1
REMARK SMILES IDX 4 1 5 2 10 3 6 4 9 5 7 6 2 7 1 8 3 9 8 10
REMARK H PARENT 8 11
REMARK Flexibility Score: inf
ROOT
ATOM      1  C   UNL     1      47.026  48.506  35.535  1.00  0.00    -0.003 A 
ATOM      2  C   UNL     1      48.044  47.934  36.317  1.00  0.00     0.014 A 
ATOM      3  C   UNL     1      47.309  49.665  34.788  1.00  0.00     0.014 A 
ATOM      4  C   UNL     1      49.319  48.508  36.351  1.00  0.00     0.047 A 
ATOM      5  C   UNL     1      48.586  50.236  34.824  1.00  0.00     0.047 A 
ATOM      6  C   UNL     1      49.593  49.661  35.604  1.00  0.00     0.115 A 
ENDROOT
BRANCH   1   7
ATOM      7  C   UNL     1      45.678  47.898  35.502  1.00  0.00     0.071 C 
ATOM      8  O   UNL     1      44.655  48.590  35.753  1.00  0.00    -0.545 OA
ATOM      9  O   UNL     1      45.520  46.552  35.192  1.00  0.00    -0.545 OA
ENDBRANCH   1   7
BRANCH   6  10
ATOM     10  O   UNL     1      50.859  50.240  35.629  1.00  0.00    -0.508 OA
ATOM     11  H   UNL     1      51.682  49.726  35.338  1.00  0.00     0.293 HD
ENDBRANCH   6  10
TORSDOF 2
ENDMDL
MODEL 4
REMARK VINA RESULT:    -4.669      1.001      4.180
REMARK INTER + INTRA:          -5.108
REMARK INTER:                  -5.073
REMARK INTRA:                  -0.035
REMARK UNBOUND:                -0.030
REMARK SMILES O=C([O-])c1ccc(O)cc1
REMARK SMILES IDX 4 1 5 2 10 3 6 4 9 5 7 6 2 7 1 8 3 9 8 10
REMARK H PARENT 8 11
REMARK Flexibility Score: inf
ROOT
ATOM      1  C   UNL     1      47.360  47.225  34.210  1.00  0.00    -0.003 A 
ATOM      2  C   UNL     1      46.591  48.112  34.983  1.00  0.00     0.014 A 
ATOM      3  C   UNL     1      48.501  47.711  33.545  1.00  0.00     0.014 A 
ATOM      4  C   UNL     1      46.956  49.458  35.089  1.00  0.00     0.047 A 
ATOM      5  C   UNL     1      48.863  49.058  33.654  1.00  0.00     0.047 A 
ATOM      6  C   UNL     1      48.093  49.935  34.424  1.00  0.00     0.115 A 
ENDROOT
BRANCH   1   7
ATOM      7  C   UNL     1      46.972  45.802  34.099  1.00  0.00     0.071 C 
ATOM      8  O   UNL     1      45.836  45.414  34.484  1.00  0.00    -0.545 OA
ATOM      9  O   UNL     1      47.856  44.870  33.567  1.00  0.00    -0.545 OA
ENDBRANCH   1   7
BRANCH   6  10
ATOM     10  O   UNL     1      48.467  51.273  34.523  1.00  0.00    -0.508 OA
ATOM     11  H   UNL     1      48.024  51.897  35.187  1.00  0.00     0.293 HD
ENDBRANCH   6  10
TORSDOF 2
ENDMDL
MODEL 5
REMARK VINA RESULT:    -4.634      2.214      2.725
REMARK INTER + INTRA:          -5.069
REMARK INTER:                  -5.042
REMARK INTRA:                  -0.027
REMARK UNBOUND:                -0.030
REMARK SMILES O=C([O-])c1ccc(O)cc1
REMARK SMILES IDX 4 1 5 2 10 3 6 4 9 5 7 6 2 7 1 8 3 9 8 10
REMARK H PARENT 8 11
REMARK Flexibility Score: inf
ROOT
ATOM      1  C   UNL     1      48.988  49.079  35.703  1.00  0.00    -0.003 A 
ATOM      2  C   UNL     1      48.692  47.942  36.474  1.00  0.00     0.014 A 
ATOM      3  C   UNL     1      47.956  49.694  34.970  1.00  0.00     0.014 A 
ATOM      4  C   UNL     1      47.391  47.430  36.512  1.00  0.00     0.047 A 
ATOM      5  C   UNL     1      46.655  49.180  35.010  1.00  0.00     0.047 A 
ATOM      6  C   UNL     1      46.369  48.049  35.780  1.00  0.00     0.115 A 
ENDROOT
BRANCH   1   7
ATOM      7  C   UNL     1      50.365  49.618  35.663  1.00  0.00     0.071 C 
ATOM      8  O   UNL     1      50.664  50.664  36.299  1.00  0.00    -0.545 OA
ATOM      9  O   UNL     1      51.351  48.976  34.922  1.00  0.00    -0.545 OA
ENDBRANCH   1   7
BRANCH   6  10
ATOM     10  O   UNL     1      45.069  47.549  35.811  1.00  0.00    -0.508 OA
ATOM     11  H   UNL     1      44.711  46.960  35.069  1.00  0.00     0.293 HD
ENDBRANCH   6  10
TORSDOF 2
ENDMDL
MODEL 6
REMARK VINA RESULT:    -4.625      2.180      2.717
REMARK INTER + INTRA:          -5.061
REMARK INTER:                  -5.032
REMARK INTRA:                  -0.029
REMARK UNBOUND:                -0.030
REMARK SMILES O=C([O-])c1ccc(O)cc1
REMARK SMILES IDX 4 1 5 2 10 3 6 4 9 5 7 6 2 7 1 8 3 9 8 10
REMARK H PARENT 8 11
REMARK Flexibility Score: inf
ROOT
ATOM      1  C   UNL     1      48.977  49.034  35.704  1.00  0.00    -0.003 A 
ATOM      2  C   UNL     1      47.964  49.686  34.980  1.00  0.00     0.014 A 
ATOM      3  C   UNL     1      48.651  47.887  36.452  1.00  0.00     0.014 A 
ATOM      4  C   UNL     1      46.653  49.200  35.002  1.00  0.00     0.047 A 
ATOM      5  C   UNL     1      47.338  47.404  36.472  1.00  0.00     0.047 A 
ATOM      6  C   UNL     1      46.336  48.058  35.748  1.00  0.00     0.115 A 
ENDROOT
BRANCH   1   7
ATOM      7  C   UNL     1      50.363  49.549  35.680  1.00  0.00     0.071 C 
ATOM      8  O   UNL     1      50.629  50.695  36.132  1.00  0.00    -0.545 OA
ATOM      9  O   UNL     1      51.393  48.775  35.158  1.00  0.00    -0.545 OA
ENDBRANCH   1   7
BRANCH   6  10
ATOM     10  O   UNL     1      45.034  47.564  35.777  1.00  0.00    -0.508 OA
ATOM     11  H   UNL     1      44.265  48.122  36.130  1.00  0.00     0.293 HD
ENDBRANCH   6  10
TORSDOF 2
ENDMDL
MODEL 7
REMARK VINA RESULT:    -4.588      2.263      2.992
REMARK INTER + INTRA:          -5.019
REMARK INTER:                  -4.990
REMARK INTRA:                  -0.029
REMARK UNBOUND:                -0.030
REMARK SMILES O=C([O-])c1ccc(O)cc1
REMARK SMILES IDX 4 1 5 2 10 3 6 4 9 5 7 6 2 7 1 8 3 9 8 10
REMARK H PARENT 8 11
REMARK Flexibility Score: inf
ROOT
ATOM      1  C   UNL     1      48.442  48.100  33.626  1.00  0.00    -0.003 A 
ATOM      2  C   UNL     1      47.983  49.295  34.205  1.00  0.00     0.014 A 
ATOM      3  C   UNL     1      47.747  46.904  33.887  1.00  0.00     0.014 A 
ATOM      4  C   UNL     1      46.853  49.296  35.028  1.00  0.00     0.047 A 
ATOM      5  C   UNL     1      46.616  46.908  34.711  1.00  0.00     0.047 A 
ATOM      6  C   UNL     1      46.166  48.102  35.283  1.00  0.00     0.115 A 
ENDROOT
BRANCH   1   7
ATOM      7  C   UNL     1      49.639  48.101  32.756  1.00  0.00     0.071 C 
ATOM      8  O   UNL     1      50.741  48.539  33.182  1.00  0.00    -0.545 OA
ATOM      9  O   UNL     1      49.564  47.620  31.454  1.00  0.00    -0.545 OA
ENDBRANCH   1   7
BRANCH   6  10
ATOM     10  O   UNL     1      45.038  48.090  36.100  1.00  0.00    -0.508 OA
ATOM     11  H   UNL     1      44.816  47.292  36.682  1.00  0.00     0.293 HD
ENDBRANCH   6  10
TORSDOF 2
ENDMDL
MODEL 8
REMARK VINA RESULT:    -4.566      2.337      4.328
REMARK INTER + INTRA:          -4.996
REMARK INTER:                  -4.968
REMARK INTRA:                  -0.028
REMARK UNBOUND:                -0.030
REMARK SMILES O=C([O-])c1ccc(O)cc1
REMARK SMILES IDX 4 1 5 2 10 3 6 4 9 5 7 6 2 7 1 8 3 9 8 10
REMARK H PARENT 8 11
REMARK Flexibility Score: inf
ROOT
ATOM      1  C   UNL     1      47.855  47.566  36.513  1.00  0.00    -0.003 A 
ATOM      2  C   UNL     1      46.654  47.935  35.883  1.00  0.00     0.014 A 
ATOM      3  C   UNL     1      49.003  48.354  36.309  1.00  0.00     0.014 A 
ATOM      4  C   UNL     1      46.602  49.069  35.067  1.00  0.00     0.047 A 
ATOM      5  C   UNL     1      48.948  49.488  35.491  1.00  0.00     0.047 A 
ATOM      6  C   UNL     1      47.749  49.849  34.868  1.00  0.00     0.115 A 
ENDROOT
BRANCH   1   7
ATOM      7  C   UNL     1      47.908  46.366  37.376  1.00  0.00     0.071 C 
ATOM      8  O   UNL     1      48.131  46.473  38.612  1.00  0.00    -0.545 OA
ATOM      9  O   UNL     1      47.713  45.100  36.835  1.00  0.00    -0.545 OA
ENDBRANCH   1   7
BRANCH   6  10
ATOM     10  O   UNL     1      47.709  50.981  34.058  1.00  0.00    -0.508 OA
ATOM     11  H   UNL     1      47.076  51.044  33.269  1.00  0.00     0.293 HD
ENDBRANCH   6  10
TORSDOF 2
ENDMDL
