MODEL 1
REMARK VINA RESULT:    -3.676      0.000      0.000
REMARK INTER + INTRA:          -4.649
REMARK INTER:                  -4.428
REMARK INTRA:                  -0.221
REMARK UNBOUND:                -0.221
REMARK SMILES OCC(O)CO
REMARK SMILES IDX 3 1 5 2 6 3 2 5 1 6 4 8
REMARK H PARENT 6 4 1 7 4 9
REMARK Flexibility Score: inf
ROOT
ATOM      1  C   UNL     1     -16.894  -8.146 -28.775  1.00  0.00     0.165 C 
ENDROOT
BRANCH   1   2
ATOM      2  C   UNL     1     -16.820  -8.983 -27.490  1.00  0.00     0.190 C 
BRANCH   2   3
ATOM      3  O   UNL     1     -15.559  -8.846 -26.890  1.00  0.00    -0.394 OA
ATOM      4  H   UNL     1     -14.890  -9.145 -27.561  1.00  0.00     0.210 HD
ENDBRANCH   2   3
ENDBRANCH   1   2
BRANCH   1   5
ATOM      5  C   UNL     1     -16.268  -8.894 -29.961  1.00  0.00     0.190 C 
BRANCH   5   6
ATOM      6  O   UNL     1     -14.944  -9.253 -29.669  1.00  0.00    -0.394 OA
ATOM      7  H   UNL     1     -14.847 -10.198 -29.954  1.00  0.00     0.210 HD
ENDBRANCH   5   6
ENDBRANCH   1   5
BRANCH   1   8
ATOM      8  O   UNL     1     -16.235  -6.923 -28.573  1.00  0.00    -0.388 OA
ATOM      9  H   UNL     1     -16.154  -6.798 -27.591  1.00  0.00     0.211 HD
ENDBRANCH   1   8
TORSDOF 5
ENDMDL
MODEL 2
REMARK VINA RESULT:    -3.603      0.657      2.503
REMARK INTER + INTRA:          -4.561
REMARK INTER:                  -4.339
REMARK INTRA:                  -0.222
REMARK UNBOUND:                -0.221
REMARK SMILES OCC(O)CO
REMARK SMILES IDX 3 1 5 2 6 3 2 5 1 6 4 8
REMARK H PARENT 6 4 1 7 4 9
REMARK Flexibility Score: inf
ROOT
ATOM      1  C   UNL     1     -16.437  -8.742 -29.244  1.00  0.00     0.165 C 
ENDROOT
BRANCH   1   2
ATOM      2  C   UNL     1     -16.538  -7.261 -29.632  1.00  0.00     0.190 C 
BRANCH   2   3
ATOM      3  O   UNL     1     -16.216  -6.446 -28.536  1.00  0.00    -0.394 OA
ATOM      4  H   UNL     1     -16.981  -6.503 -27.905  1.00  0.00     0.210 HD
ENDBRANCH   2   3
ENDBRANCH   1   2
BRANCH   1   5
ATOM      5  C   UNL     1     -16.748  -8.949 -27.754  1.00  0.00     0.190 C 
BRANCH   5   6
ATOM      6  O   UNL     1     -15.584  -8.796 -26.986  1.00  0.00    -0.394 OA
ATOM      7  H   UNL     1     -15.350  -9.702 -26.660  1.00  0.00     0.210 HD
ENDBRANCH   5   6
ENDBRANCH   1   5
BRANCH   1   8
ATOM      8  O   UNL     1     -15.147  -9.215 -29.537  1.00  0.00    -0.388 OA
ATOM      9  H   UNL     1     -14.802  -9.640 -28.709  1.00  0.00     0.211 HD
ENDBRANCH   1   8
TORSDOF 5
ENDMDL
MODEL 3
REMARK VINA RESULT:    -3.451      7.381      8.569
REMARK INTER + INTRA:          -4.378
REMARK INTER:                  -4.155
REMARK INTRA:                  -0.223
REMARK UNBOUND:                -0.221
REMARK SMILES OCC(O)CO
REMARK SMILES IDX 3 1 5 2 6 3 2 5 1 6 4 8
REMARK H PARENT 6 4 1 7 4 9
REMARK Flexibility Score: inf
ROOT
ATOM      1  C   UNL     1     -17.198  -1.071 -30.323  1.00  0.00     0.165 C 
ENDROOT
BRANCH   1   2
ATOM      2  C   UNL     1     -17.911  -0.336 -31.467  1.00  0.00     0.190 C 
BRANCH   2   3
ATOM      3  O   UNL     1     -17.187  -0.472 -32.661  1.00  0.00    -0.394 OA
ATOM      4  H   UNL     1     -16.297  -0.839 -32.414  1.00  0.00     0.210 HD
ENDBRANCH   2   3
ENDBRANCH   1   2
BRANCH   1   5
ATOM      5  C   UNL     1     -16.099  -0.197 -29.701  1.00  0.00     0.190 C 
BRANCH   5   6
ATOM      6  O   UNL     1     -15.086   0.054 -30.637  1.00  0.00    -0.394 OA
ATOM      7  H   UNL     1     -14.723  -0.833 -30.893  1.00  0.00     0.210 HD
ENDBRANCH   5   6
ENDBRANCH   1   5
BRANCH   1   8
ATOM      8  O   UNL     1     -16.646  -2.267 -30.810  1.00  0.00    -0.388 OA
ATOM      9  H   UNL     1     -16.598  -2.894 -30.042  1.00  0.00     0.211 HD
ENDBRANCH   1   8
TORSDOF 5
ENDMDL
MODEL 4
REMARK VINA RESULT:    -3.346      1.241      2.852
REMARK INTER + INTRA:          -4.252
REMARK INTER:                  -4.028
REMARK INTRA:                  -0.224
REMARK UNBOUND:                -0.221
REMARK SMILES OCC(O)CO
REMARK SMILES IDX 3 1 5 2 6 3 2 5 1 6 4 8
REMARK H PARENT 6 4 1 7 4 9
REMARK Flexibility Score: inf
ROOT
ATOM      1  C   UNL     1     -17.149  -9.624 -28.636  1.00  0.00     0.165 C 
ENDROOT
BRANCH   1   2
ATOM      2  C   UNL     1     -16.353  -8.811 -29.666  1.00  0.00     0.190 C 
BRANCH   2   3
ATOM      3  O   UNL     1     -15.064  -9.343 -29.818  1.00  0.00    -0.394 OA
ATOM      4  H   UNL     1     -14.766  -9.629 -28.914  1.00  0.00     0.210 HD
ENDBRANCH   2   3
ENDBRANCH   1   2
BRANCH   1   5
ATOM      5  C   UNL     1     -16.951  -9.070 -27.217  1.00  0.00     0.190 C 
BRANCH   5   6
ATOM      6  O   UNL     1     -15.597  -8.782 -26.990  1.00  0.00    -0.394 OA
ATOM      7  H   UNL     1     -15.567  -7.846 -26.664  1.00  0.00     0.210 HD
ENDBRANCH   5   6
ENDBRANCH   1   5
BRANCH   1   8
ATOM      8  O   UNL     1     -16.746 -10.968 -28.690  1.00  0.00    -0.388 OA
ATOM      9  H   UNL     1     -17.377 -11.481 -28.120  1.00  0.00     0.211 HD
ENDBRANCH   1   8
TORSDOF 5
ENDMDL
MODEL 5
REMARK VINA RESULT:    -3.344      8.489      9.160
REMARK INTER + INTRA:          -4.250
REMARK INTER:                  -4.029
REMARK INTRA:                  -0.221
REMARK UNBOUND:                -0.221
REMARK SMILES OCC(O)CO
REMARK SMILES IDX 3 1 5 2 6 3 2 5 1 6 4 8
REMARK H PARENT 6 4 1 7 4 9
REMARK Flexibility Score: inf
ROOT
ATOM      1  C   UNL     1     -17.331  -0.703 -31.008  1.00  0.00     0.165 C 
ENDROOT
BRANCH   1   2
ATOM      2  C   UNL     1     -18.312   0.477 -30.970  1.00  0.00     0.190 C 
BRANCH   2   3
ATOM      3  O   UNL     1     -17.622   1.680 -30.762  1.00  0.00    -0.394 OA
ATOM      4  H   UNL     1     -17.868   2.282 -31.513  1.00  0.00     0.210 HD
ENDBRANCH   2   3
ENDBRANCH   1   2
BRANCH   1   5
ATOM      5  C   UNL     1     -16.239  -0.552 -29.939  1.00  0.00     0.190 C 
BRANCH   5   6
ATOM      6  O   UNL     1     -15.108   0.075 -30.481  1.00  0.00    -0.394 OA
ATOM      7  H   UNL     1     -15.445   0.857 -30.990  1.00  0.00     0.210 HD
ENDBRANCH   5   6
ENDBRANCH   1   5
BRANCH   1   8
ATOM      8  O   UNL     1     -16.750  -0.785 -32.284  1.00  0.00    -0.388 OA
ATOM      9  H   UNL     1     -16.068  -0.064 -32.336  1.00  0.00     0.211 HD
ENDBRANCH   1   8
TORSDOF 5
ENDMDL
MODEL 6
REMARK VINA RESULT:    -3.331      1.430      2.078
REMARK INTER + INTRA:          -4.233
REMARK INTER:                  -4.011
REMARK INTRA:                  -0.222
REMARK UNBOUND:                -0.221
REMARK SMILES OCC(O)CO
REMARK SMILES IDX 3 1 5 2 6 3 2 5 1 6 4 8
REMARK H PARENT 6 4 1 7 4 9
REMARK Flexibility Score: inf
ROOT
ATOM      1  C   UNL     1     -16.242  -9.125 -29.733  1.00  0.00     0.165 C 
ENDROOT
BRANCH   1   2
ATOM      2  C   UNL     1     -16.377  -8.250 -28.479  1.00  0.00     0.190 C 
BRANCH   2   3
ATOM      3  O   UNL     1     -15.384  -8.578 -27.544  1.00  0.00    -0.394 OA
ATOM      4  H   UNL     1     -15.624  -9.470 -27.175  1.00  0.00     0.210 HD
ENDBRANCH   2   3
ENDBRANCH   1   2
BRANCH   1   5
ATOM      5  C   UNL     1     -17.011 -10.445 -29.575  1.00  0.00     0.190 C 
BRANCH   5   6
ATOM      6  O   UNL     1     -16.830 -10.965 -28.285  1.00  0.00    -0.394 OA
ATOM      7  H   UNL     1     -17.267 -10.324 -27.667  1.00  0.00     0.210 HD
ENDBRANCH   5   6
ENDBRANCH   1   5
BRANCH   1   8
ATOM      8  O   UNL     1     -14.884  -9.384 -29.975  1.00  0.00    -0.388 OA
ATOM      9  H   UNL     1     -14.806 -10.357 -30.163  1.00  0.00     0.211 HD
ENDBRANCH   1   8
TORSDOF 5
ENDMDL
MODEL 7
REMARK VINA RESULT:    -3.317      1.158      2.237
REMARK INTER + INTRA:          -4.216
REMARK INTER:                  -3.999
REMARK INTRA:                  -0.218
REMARK UNBOUND:                -0.221
REMARK SMILES OCC(O)CO
REMARK SMILES IDX 3 1 5 2 6 3 2 5 1 6 4 8
REMARK H PARENT 6 4 1 7 4 9
REMARK Flexibility Score: inf
ROOT
ATOM      1  C   UNL     1     -16.499  -8.350 -28.572  1.00  0.00     0.165 C 
ENDROOT
BRANCH   1   2
ATOM      2  C   UNL     1     -16.550  -9.488 -29.601  1.00  0.00     0.190 C 
BRANCH   2   3
ATOM      3  O   UNL     1     -15.252  -9.853 -29.990  1.00  0.00    -0.394 OA
ATOM      4  H   UNL     1     -15.020  -9.286 -30.772  1.00  0.00     0.210 HD
ENDBRANCH   2   3
ENDBRANCH   1   2
BRANCH   1   5
ATOM      5  C   UNL     1     -16.401  -6.981 -29.262  1.00  0.00     0.190 C 
BRANCH   5   6
ATOM      6  O   UNL     1     -15.815  -7.113 -30.529  1.00  0.00    -0.394 OA
ATOM      7  H   UNL     1     -16.015  -8.038 -30.828  1.00  0.00     0.210 HD
ENDBRANCH   5   6
ENDBRANCH   1   5
BRANCH   1   8
ATOM      8  O   UNL     1     -15.400  -8.541 -27.720  1.00  0.00    -0.388 OA
ATOM      9  H   UNL     1     -15.496  -9.448 -27.326  1.00  0.00     0.211 HD
ENDBRANCH   1   8
TORSDOF 5
ENDMDL
MODEL 8
REMARK VINA RESULT:    -3.304      8.379      9.308
REMARK INTER + INTRA:          -4.201
REMARK INTER:                  -3.978
REMARK INTRA:                  -0.223
REMARK UNBOUND:                -0.221
REMARK SMILES OCC(O)CO
REMARK SMILES IDX 3 1 5 2 6 3 2 5 1 6 4 8
REMARK H PARENT 6 4 1 7 4 9
REMARK Flexibility Score: inf
ROOT
ATOM      1  C   UNL     1     -16.229  -0.162 -29.908  1.00  0.00     0.165 C 
ENDROOT
BRANCH   1   2
ATOM      2  C   UNL     1     -17.049  -1.015 -30.886  1.00  0.00     0.190 C 
BRANCH   2   3
ATOM      3  O   UNL     1     -16.685  -0.726 -32.210  1.00  0.00    -0.394 OA
ATOM      4  H   UNL     1     -17.169  -1.374 -32.786  1.00  0.00     0.210 HD
ENDBRANCH   2   3
ENDBRANCH   1   2
BRANCH   1   5
ATOM      5  C   UNL     1     -16.953   1.151 -29.576  1.00  0.00     0.190 C 
BRANCH   5   6
ATOM      6  O   UNL     1     -17.534   1.694 -30.730  1.00  0.00    -0.394 OA
ATOM      7  H   UNL     1     -18.103   0.978 -31.114  1.00  0.00     0.210 HD
ENDBRANCH   5   6
ENDBRANCH   1   5
BRANCH   1   8
ATOM      8  O   UNL     1     -14.970   0.108 -30.467  1.00  0.00    -0.388 OA
ATOM      9  H   UNL     1     -14.391   0.433 -29.727  1.00  0.00     0.211 HD
ENDBRANCH   1   8
TORSDOF 5
ENDMDL
MODEL 9
REMARK VINA RESULT:    -3.250      1.363      1.926
REMARK INTER + INTRA:          -4.136
REMARK INTER:                  -3.931
REMARK INTRA:                  -0.205
REMARK UNBOUND:                -0.221
REMARK SMILES OCC(O)CO
REMARK SMILES IDX 3 1 5 2 6 3 2 5 1 6 4 8
REMARK H PARENT 6 4 1 7 4 9
REMARK Flexibility Score: inf
ROOT
ATOM      1  C   UNL     1     -17.153  -8.804 -28.882  1.00  0.00     0.165 C 
ENDROOT
BRANCH   1   2
ATOM      2  C   UNL     1     -16.967  -8.814 -27.359  1.00  0.00     0.190 C 
BRANCH   2   3
ATOM      3  O   UNL     1     -15.603  -8.842 -27.034  1.00  0.00    -0.394 OA
ATOM      4  H   UNL     1     -15.157  -9.398 -27.726  1.00  0.00     0.210 HD
ENDBRANCH   2   3
ENDBRANCH   1   2
BRANCH   1   5
ATOM      5  C   UNL     1     -16.534  -7.546 -29.509  1.00  0.00     0.190 C 
BRANCH   5   6
ATOM      6  O   UNL     1     -16.269  -6.587 -28.522  1.00  0.00    -0.394 OA
ATOM      7  H   UNL     1     -16.138  -5.728 -29.001  1.00  0.00     0.210 HD
ENDBRANCH   5   6
ENDBRANCH   1   5
BRANCH   1   8
ATOM      8  O   UNL     1     -18.523  -8.869 -29.185  1.00  0.00    -0.388 OA
ATOM      9  H   UNL     1     -19.009  -8.873 -28.318  1.00  0.00     0.211 HD
ENDBRANCH   1   8
TORSDOF 5
ENDMDL
