MODEL 1
REMARK VINA RESULT:    -1.477      0.000      0.000
REMARK INTER + INTRA:          -0.661
REMARK INTER:                  -2.167
REMARK INTRA:                   1.506
REMARK UNBOUND:                 1.506
REMARK SMILES Cc1cc2c(C(C)C)c(O)c(O)c(C=O)c2c(O)c1-c1c(C)cc2c(C(C)C)c(O)c(O)c(C=O)c2c1O
REMARK SMILES IDX 1 1 2 2 3 3 4 4 16 5 13 6 11 7 9 8 5 9 17 10 19 11 20 12
REMARK SMILES IDX 37 13 21 14 36 15 23 16 22 17 24 18 33 19 25 20 31 21 29 22
REMARK SMILES IDX 38 23 34 25 35 26 26 27 27 28 28 29 32 30 30 32 18 34 6 36
REMARK SMILES IDX 7 37 8 38 14 39 15 40 10 41 12 43
REMARK H PARENT 38 24 32 31 30 33 18 35 10 42 12 44
REMARK Flexibility Score: inf
ROOT
ATOM      1  C   UNL     1      23.076  23.567  15.489  1.00  0.00     0.045 C 
ATOM      2  C   UNL     1      23.927  22.578  16.248  1.00  0.00    -0.039 A 
ATOM      3  C   UNL     1      25.314  22.620  16.106  1.00  0.00     0.013 A 
ATOM      4  C   UNL     1      26.163  21.708  16.774  1.00  0.00    -0.006 A 
ATOM      5  C   UNL     1      25.582  20.772  17.683  1.00  0.00     0.039 A 
ATOM      6  C   UNL     1      26.437  19.868  18.380  1.00  0.00     0.072 A 
ATOM      7  C   UNL     1      27.832  20.027  18.309  1.00  0.00     0.169 A 
ATOM      8  C   UNL     1      28.395  21.016  17.483  1.00  0.00     0.162 A 
ATOM      9  C   UNL     1      27.579  21.744  16.590  1.00  0.00     0.008 A 
ATOM     10  C   UNL     1      24.172  20.800  17.900  1.00  0.00     0.132 A 
ATOM     11  C   UNL     1      23.350  21.669  17.151  1.00  0.00     0.031 A 
ENDROOT
BRANCH  11  12
ATOM     12  C   UNL     1      21.876  21.652  17.342  1.00  0.00     0.031 A 
ATOM     13  C   UNL     1      21.214  22.770  17.891  1.00  0.00     0.132 A 
ATOM     14  C   UNL     1      21.142  20.522  16.952  1.00  0.00    -0.039 A 
ATOM     15  C   UNL     1      19.798  22.750  18.090  1.00  0.00     0.039 A 
ATOM     16  C   UNL     1      19.759  20.505  17.129  1.00  0.00     0.013 A 
ATOM     17  C   UNL     1      21.824  19.327  16.331  1.00  0.00     0.045 C 
ATOM     18  C   UNL     1      19.066  21.573  17.733  1.00  0.00    -0.006 A 
ATOM     19  C   UNL     1      19.084  23.874  18.605  1.00  0.00     0.072 A 
ATOM     20  C   UNL     1      17.655  21.504  17.960  1.00  0.00     0.008 A 
ATOM     21  C   UNL     1      17.677  23.841  18.670  1.00  0.00     0.169 A 
ATOM     22  C   UNL     1      16.974  22.696  18.304  1.00  0.00     0.162 A 
BRANCH  13  23
ATOM     23  O   UNL     1      21.962  23.905  18.226  1.00  0.00    -0.507 OA
ATOM     24  H   UNL     1      22.820  24.175  17.763  1.00  0.00     0.293 HD
ENDBRANCH  13  23
BRANCH  19  25
ATOM     25  C   UNL     1      19.773  25.095  19.070  1.00  0.00     0.264 C 
ATOM     26  O   UNL     1      19.218  26.221  18.973  1.00  0.00    -0.298 OA
ENDBRANCH  19  25
BRANCH  20  27
ATOM     27  C   UNL     1      16.849  20.189  17.936  1.00  0.00     0.017 C 
ATOM     28  C   UNL     1      17.378  19.160  18.944  1.00  0.00     0.012 C 
ATOM     29  C   UNL     1      15.319  20.374  18.015  1.00  0.00     0.012 C 
ENDBRANCH  20  27
BRANCH  21  30
ATOM     30  O   UNL     1      16.930  24.935  19.122  1.00  0.00    -0.504 OA
ATOM     31  H   UNL     1      16.344  25.507  18.528  1.00  0.00     0.293 HD
ENDBRANCH  21  30
BRANCH  22  32
ATOM     32  O   UNL     1      15.577  22.787  18.302  1.00  0.00    -0.504 OA
ATOM     33  H   UNL     1      15.059  23.560  18.696  1.00  0.00     0.293 HD
ENDBRANCH  22  32
ENDBRANCH  11  12
BRANCH  10  34
ATOM     34  O   UNL     1      23.592  20.000  18.891  1.00  0.00    -0.507 OA
ATOM     35  H   UNL     1      22.644  20.112  19.226  1.00  0.00     0.293 HD
ENDBRANCH  10  34
BRANCH   9  36
ATOM     36  C   UNL     1      28.230  22.592  15.481  1.00  0.00     0.017 C 
ATOM     37  C   UNL     1      27.358  22.609  14.221  1.00  0.00     0.012 C 
ATOM     38  C   UNL     1      28.599  24.019  15.926  1.00  0.00     0.012 C 
ENDBRANCH   9  36
BRANCH   6  39
ATOM     39  C   UNL     1      25.909  18.697  19.121  1.00  0.00     0.264 C 
ATOM     40  O   UNL     1      26.150  17.522  18.738  1.00  0.00    -0.298 OA
ENDBRANCH   6  39
BRANCH   8  41
ATOM     41  O   UNL     1      29.761  21.297  17.541  1.00  0.00    -0.504 OA
ATOM     42  H   UNL     1      30.181  21.932  18.206  1.00  0.00     0.293 HD
ENDBRANCH   8  41
BRANCH   7  43
ATOM     43  O   UNL     1      28.647  19.149  19.033  1.00  0.00    -0.504 OA
ATOM     44  H   UNL     1      29.223  18.433  18.611  1.00  0.00     0.293 HD
ENDBRANCH   7  43
TORSDOF 11
ENDMDL
MODEL 2
REMARK VINA RESULT:    -0.757     16.741     18.393
REMARK INTER + INTRA:           0.395
REMARK INTER:                  -2.451
REMARK INTRA:                   2.845
REMARK UNBOUND:                 1.506
REMARK SMILES Cc1cc2c(C(C)C)c(O)c(O)c(C=O)c2c(O)c1-c1c(C)cc2c(C(C)C)c(O)c(O)c(C=O)c2c1O
REMARK SMILES IDX 1 1 2 2 3 3 4 4 16 5 13 6 11 7 9 8 5 9 17 10 19 11 20 12
REMARK SMILES IDX 37 13 21 14 36 15 23 16 22 17 24 18 33 19 25 20 31 21 29 22
REMARK SMILES IDX 38 23 34 25 35 26 26 27 27 28 28 29 32 30 30 32 18 34 6 36
REMARK SMILES IDX 7 37 8 38 14 39 15 40 10 41 12 43
REMARK H PARENT 38 24 32 31 30 33 18 35 10 42 12 44
REMARK Flexibility Score: inf
ROOT
ATOM      1  C   UNL     1      24.515  18.486   0.949  1.00  0.00     0.045 C 
ATOM      2  C   UNL     1      24.228  17.060   0.545  1.00  0.00    -0.039 A 
ATOM      3  C   UNL     1      25.268  16.131   0.532  1.00  0.00     0.013 A 
ATOM      4  C   UNL     1      25.067  14.787   0.143  1.00  0.00    -0.006 A 
ATOM      5  C   UNL     1      23.741  14.354  -0.164  1.00  0.00     0.039 A 
ATOM      6  C   UNL     1      23.529  12.993  -0.530  1.00  0.00     0.072 A 
ATOM      7  C   UNL     1      24.575  12.062  -0.407  1.00  0.00     0.169 A 
ATOM      8  C   UNL     1      25.857  12.482  -0.011  1.00  0.00     0.162 A 
ATOM      9  C   UNL     1      26.151  13.859   0.103  1.00  0.00     0.008 A 
ATOM     10  C   UNL     1      22.665  15.286  -0.052  1.00  0.00     0.132 A 
ATOM     11  C   UNL     1      22.919  16.639   0.257  1.00  0.00     0.031 A 
ENDROOT
BRANCH  11  12
ATOM     12  C   UNL     1      21.798  17.614   0.316  1.00  0.00     0.031 A 
ATOM     13  C   UNL     1      20.634  17.320   1.058  1.00  0.00     0.132 A 
ATOM     14  C   UNL     1      21.914  18.841  -0.353  1.00  0.00    -0.039 A 
ATOM     15  C   UNL     1      19.549  18.250   1.103  1.00  0.00     0.039 A 
ATOM     16  C   UNL     1      20.864  19.757  -0.297  1.00  0.00     0.013 A 
ATOM     17  C   UNL     1      23.163  19.191  -1.125  1.00  0.00     0.045 C 
ATOM     18  C   UNL     1      19.658  19.477   0.376  1.00  0.00    -0.006 A 
ATOM     19  C   UNL     1      18.371  18.009   1.874  1.00  0.00     0.072 A 
ATOM     20  C   UNL     1      18.573  20.409   0.366  1.00  0.00     0.008 A 
ATOM     21  C   UNL     1      17.385  19.010   1.977  1.00  0.00     0.169 A 
ATOM     22  C   UNL     1      17.510  20.207   1.279  1.00  0.00     0.162 A 
BRANCH  13  23
ATOM     23  O   UNL     1      20.564  16.110   1.759  1.00  0.00    -0.507 OA
ATOM     24  H   UNL     1      21.368  15.626   2.136  1.00  0.00     0.293 HD
ENDBRANCH  13  23
BRANCH  19  25
ATOM     25  C   UNL     1      18.147  16.736   2.588  1.00  0.00     0.264 C 
ATOM     26  O   UNL     1      17.380  16.686   3.585  1.00  0.00    -0.298 OA
ENDBRANCH  19  25
BRANCH  20  27
ATOM     27  C   UNL     1      18.454  21.571  -0.641  1.00  0.00     0.017 C 
ATOM     28  C   UNL     1      17.013  21.779  -1.125  1.00  0.00     0.012 C 
ATOM     29  C   UNL     1      19.130  22.883  -0.191  1.00  0.00     0.012 C 
ENDBRANCH  20  27
BRANCH  21  30
ATOM     30  O   UNL     1      16.235  18.840   2.758  1.00  0.00    -0.504 OA
ATOM     31  H   UNL     1      16.028  18.005   3.288  1.00  0.00     0.293 HD
ENDBRANCH  21  30
BRANCH  22  32
ATOM     32  O   UNL     1      16.536  21.184   1.520  1.00  0.00    -0.504 OA
ATOM     33  H   UNL     1      15.592  20.981   1.818  1.00  0.00     0.293 HD
ENDBRANCH  22  32
ENDBRANCH  11  12
BRANCH  10  34
ATOM     34  O   UNL     1      21.340  14.857  -0.200  1.00  0.00    -0.507 OA
ATOM     35  H   UNL     1      20.981  14.406  -1.031  1.00  0.00     0.293 HD
ENDBRANCH  10  34
BRANCH   9  36
ATOM     36  C   UNL     1      27.616  14.317   0.229  1.00  0.00     0.017 C 
ATOM     37  C   UNL     1      28.074  15.044  -1.040  1.00  0.00     0.012 C 
ATOM     38  C   UNL     1      27.898  15.158   1.488  1.00  0.00     0.012 C 
ENDBRANCH   9  36
BRANCH   6  39
ATOM     39  C   UNL     1      22.252  12.527  -1.125  1.00  0.00     0.264 C 
ATOM     40  O   UNL     1      21.718  11.447  -0.757  1.00  0.00    -0.298 OA
ENDBRANCH   6  39
BRANCH   8  41
ATOM     41  O   UNL     1      26.851  11.547   0.286  1.00  0.00    -0.504 OA
ATOM     42  H   UNL     1      26.786  10.868   1.032  1.00  0.00     0.293 HD
ENDBRANCH   8  41
BRANCH   7  43
ATOM     43  O   UNL     1      24.329  10.725  -0.737  1.00  0.00    -0.504 OA
ATOM     44  H   UNL     1      23.930  10.048  -0.102  1.00  0.00     0.293 HD
ENDBRANCH   7  43
TORSDOF 11
ENDMDL
MODEL 3
REMARK VINA RESULT:     0.248      2.173      3.483
REMARK INTER + INTRA:           1.870
REMARK INTER:                  -0.668
REMARK INTRA:                   2.539
REMARK UNBOUND:                 1.506
REMARK SMILES Cc1cc2c(C(C)C)c(O)c(O)c(C=O)c2c(O)c1-c1c(C)cc2c(C(C)C)c(O)c(O)c(C=O)c2c1O
REMARK SMILES IDX 1 1 2 2 3 3 4 4 16 5 13 6 11 7 9 8 5 9 17 10 19 11 20 12
REMARK SMILES IDX 37 13 21 14 36 15 23 16 22 17 24 18 33 19 25 20 31 21 29 22
REMARK SMILES IDX 38 23 34 25 35 26 26 27 27 28 28 29 32 30 30 32 18 34 6 36
REMARK SMILES IDX 7 37 8 38 14 39 15 40 10 41 12 43
REMARK H PARENT 38 24 32 31 30 33 18 35 10 42 12 44
REMARK Flexibility Score: inf
ROOT
ATOM      1  C   UNL     1      22.984  23.180  15.468  1.00  0.00     0.045 C 
ATOM      2  C   UNL     1      24.069  22.433  16.207  1.00  0.00    -0.039 A 
ATOM      3  C   UNL     1      25.405  22.725  15.935  1.00  0.00     0.013 A 
ATOM      4  C   UNL     1      26.465  22.046  16.579  1.00  0.00    -0.006 A 
ATOM      5  C   UNL     1      26.152  21.093  17.595  1.00  0.00     0.039 A 
ATOM      6  C   UNL     1      27.219  20.426  18.266  1.00  0.00     0.072 A 
ATOM      7  C   UNL     1      28.546  20.839  18.056  1.00  0.00     0.169 A 
ATOM      8  C   UNL     1      28.838  21.847  17.120  1.00  0.00     0.162 A 
ATOM      9  C   UNL     1      27.828  22.335  16.262  1.00  0.00     0.008 A 
ATOM     10  C   UNL     1      24.785  20.871  17.938  1.00  0.00     0.132 A 
ATOM     11  C   UNL     1      23.753  21.507  17.215  1.00  0.00     0.031 A 
ENDROOT
BRANCH  11  12
ATOM     12  C   UNL     1      22.330  21.226  17.542  1.00  0.00     0.031 A 
ATOM     13  C   UNL     1      21.850  19.900  17.561  1.00  0.00     0.132 A 
ATOM     14  C   UNL     1      21.471  22.290  17.855  1.00  0.00    -0.039 A 
ATOM     15  C   UNL     1      20.478  19.629  17.861  1.00  0.00     0.039 A 
ATOM     16  C   UNL     1      20.136  22.027  18.165  1.00  0.00     0.013 A 
ATOM     17  C   UNL     1      21.971  23.714  17.875  1.00  0.00     0.045 C 
ATOM     18  C   UNL     1      19.599  20.726  18.131  1.00  0.00    -0.006 A 
ATOM     19  C   UNL     1      19.961  18.300  17.929  1.00  0.00     0.072 A 
ATOM     20  C   UNL     1      18.213  20.492  18.392  1.00  0.00     0.008 A 
ATOM     21  C   UNL     1      18.631  18.086  18.345  1.00  0.00     0.169 A 
ATOM     22  C   UNL     1      17.791  19.160  18.621  1.00  0.00     0.162 A 
BRANCH  13  23
ATOM     23  O   UNL     1      22.739  18.852  17.295  1.00  0.00    -0.507 OA
ATOM     24  H   UNL     1      23.400  18.850  16.528  1.00  0.00     0.293 HD
ENDBRANCH  13  23
BRANCH  19  25
ATOM     25  C   UNL     1      20.781  17.120  17.589  1.00  0.00     0.264 C 
ATOM     26  O   UNL     1      21.152  16.316  18.483  1.00  0.00    -0.298 OA
ENDBRANCH  19  25
BRANCH  20  27
ATOM     27  C   UNL     1      17.137  21.597  18.351  1.00  0.00     0.017 C 
ATOM     28  C   UNL     1      17.585  22.875  19.071  1.00  0.00     0.012 C 
ATOM     29  C   UNL     1      16.552  21.872  16.950  1.00  0.00     0.012 C 
ENDBRANCH  20  27
BRANCH  21  30
ATOM     30  O   UNL     1      18.093  16.800  18.474  1.00  0.00    -0.504 OA
ATOM     31  H   UNL     1      17.136  16.609  18.739  1.00  0.00     0.293 HD
ENDBRANCH  21  30
BRANCH  22  32
ATOM     32  O   UNL     1      16.520  18.855  19.125  1.00  0.00    -0.504 OA
ATOM     33  H   UNL     1      15.792  18.402  18.589  1.00  0.00     0.293 HD
ENDBRANCH  22  32
ENDBRANCH  11  12
BRANCH  10  34
ATOM     34  O   UNL     1      24.452  20.058  19.028  1.00  0.00    -0.507 OA
ATOM     35  H   UNL     1      24.944  20.065  19.911  1.00  0.00     0.293 HD
ENDBRANCH  10  34
BRANCH   9  36
ATOM     36  C   UNL     1      28.213  23.199  15.047  1.00  0.00     0.017 C 
ATOM     37  C   UNL     1      29.690  23.602  15.108  1.00  0.00     0.012 C 
ATOM     38  C   UNL     1      27.865  22.555  13.692  1.00  0.00     0.012 C 
ENDBRANCH   9  36
BRANCH   6  39
ATOM     39  C   UNL     1      26.989  19.238  19.125  1.00  0.00     0.264 C 
ATOM     40  O   UNL     1      27.242  18.076  18.710  1.00  0.00    -0.298 OA
ENDBRANCH   6  39
BRANCH   8  41
ATOM     41  O   UNL     1      30.124  22.386  17.035  1.00  0.00    -0.504 OA
ATOM     42  H   UNL     1      30.339  23.271  16.596  1.00  0.00     0.293 HD
ENDBRANCH   8  41
BRANCH   7  43
ATOM     43  O   UNL     1      29.571  20.191  18.755  1.00  0.00    -0.504 OA
ATOM     44  H   UNL     1      29.428  19.399  19.366  1.00  0.00     0.293 HD
ENDBRANCH   7  43
TORSDOF 11
ENDMDL
MODEL 4
REMARK VINA RESULT:     1.285      2.144      8.843
REMARK INTER + INTRA:           3.392
REMARK INTER:                   2.321
REMARK INTRA:                   1.072
REMARK UNBOUND:                 1.506
REMARK SMILES Cc1cc2c(C(C)C)c(O)c(O)c(C=O)c2c(O)c1-c1c(C)cc2c(C(C)C)c(O)c(O)c(C=O)c2c1O
REMARK SMILES IDX 1 1 2 2 3 3 4 4 16 5 13 6 11 7 9 8 5 9 17 10 19 11 20 12
REMARK SMILES IDX 37 13 21 14 36 15 23 16 22 17 24 18 33 19 25 20 31 21 29 22
REMARK SMILES IDX 38 23 34 25 35 26 26 27 27 28 28 29 32 30 30 32 18 34 6 36
REMARK SMILES IDX 7 37 8 38 14 39 15 40 10 41 12 43
REMARK H PARENT 38 24 32 31 30 33 18 35 10 42 12 44
REMARK Flexibility Score: inf
ROOT
ATOM      1  C   UNL     1      23.017  20.651  14.494  1.00  0.00     0.045 C 
ATOM      2  C   UNL     1      22.096  21.434  15.399  1.00  0.00    -0.039 A 
ATOM      3  C   UNL     1      20.795  21.706  14.978  1.00  0.00     0.013 A 
ATOM      4  C   UNL     1      19.892  22.451  15.770  1.00  0.00    -0.006 A 
ATOM      5  C   UNL     1      20.303  22.863  17.074  1.00  0.00     0.039 A 
ATOM      6  C   UNL     1      19.386  23.591  17.887  1.00  0.00     0.072 A 
ATOM      7  C   UNL     1      18.048  23.733  17.480  1.00  0.00     0.169 A 
ATOM      8  C   UNL     1      17.627  23.239  16.233  1.00  0.00     0.162 A 
ATOM      9  C   UNL     1      18.573  22.749  15.306  1.00  0.00     0.008 A 
ATOM     10  C   UNL     1      21.601  22.495  17.538  1.00  0.00     0.132 A 
ATOM     11  C   UNL     1      22.503  21.824  16.686  1.00  0.00     0.031 A 
ENDROOT
BRANCH  11  12
ATOM     12  C   UNL     1      23.873  21.495  17.159  1.00  0.00     0.031 A 
ATOM     13  C   UNL     1      24.980  22.256  16.727  1.00  0.00     0.132 A 
ATOM     14  C   UNL     1      24.057  20.434  18.059  1.00  0.00    -0.039 A 
ATOM     15  C   UNL     1      26.301  21.931  17.170  1.00  0.00     0.039 A 
ATOM     16  C   UNL     1      25.342  20.126  18.505  1.00  0.00     0.013 A 
ATOM     17  C   UNL     1      22.884  19.628  18.562  1.00  0.00     0.045 C 
ATOM     18  C   UNL     1      26.482  20.817  18.049  1.00  0.00    -0.006 A 
ATOM     19  C   UNL     1      27.443  22.699  16.789  1.00  0.00     0.072 A 
ATOM     20  C   UNL     1      27.794  20.440  18.476  1.00  0.00     0.008 A 
ATOM     21  C   UNL     1      28.702  22.406  17.348  1.00  0.00     0.169 A 
ATOM     22  C   UNL     1      28.863  21.330  18.215  1.00  0.00     0.162 A 
BRANCH  13  23
ATOM     23  O   UNL     1      24.765  23.341  15.869  1.00  0.00    -0.507 OA
ATOM     24  H   UNL     1      24.559  23.251  14.883  1.00  0.00     0.293 HD
ENDBRANCH  13  23
BRANCH  19  25
ATOM     25  C   UNL     1      27.352  23.814  15.825  1.00  0.00     0.264 C 
ATOM     26  O   UNL     1      27.452  23.603  14.588  1.00  0.00    -0.298 OA
ENDBRANCH  19  25
BRANCH  20  27
ATOM     27  C   UNL     1      28.124  19.080  19.125  1.00  0.00     0.017 C 
ATOM     28  C   UNL     1      27.230  17.949  18.599  1.00  0.00     0.012 C 
ATOM     29  C   UNL     1      29.622  18.712  19.117  1.00  0.00     0.012 C 
ENDBRANCH  20  27
BRANCH  21  30
ATOM     30  O   UNL     1      29.842  23.160  17.043  1.00  0.00    -0.504 OA
ATOM     31  H   UNL     1      30.325  23.753  17.705  1.00  0.00     0.293 HD
ENDBRANCH  21  30
BRANCH  22  32
ATOM     32  O   UNL     1      30.125  21.175  18.803  1.00  0.00    -0.504 OA
ATOM     33  H   UNL     1      30.501  21.794  19.508  1.00  0.00     0.293 HD
ENDBRANCH  22  32
ENDBRANCH  11  12
BRANCH  10  34
ATOM     34  O   UNL     1      21.978  22.754  18.861  1.00  0.00    -0.507 OA
ATOM     35  H   UNL     1      22.297  23.654  19.194  1.00  0.00     0.293 HD
ENDBRANCH  10  34
BRANCH   9  36
ATOM     36  C   UNL     1      18.153  22.504  13.845  1.00  0.00     0.017 C 
ATOM     37  C   UNL     1      16.656  22.191  13.752  1.00  0.00     0.012 C 
ATOM     38  C   UNL     1      18.546  23.643  12.886  1.00  0.00     0.012 C 
ENDBRANCH   9  36
BRANCH   6  39
ATOM     39  C   UNL     1      19.813  24.290  19.124  1.00  0.00     0.264 C 
ATOM     40  O   UNL     1      20.435  25.384  19.073  1.00  0.00    -0.298 OA
ENDBRANCH   6  39
BRANCH   8  41
ATOM     41  O   UNL     1      16.271  23.216  15.899  1.00  0.00    -0.504 OA
ATOM     42  H   UNL     1      15.705  24.043  15.771  1.00  0.00     0.293 HD
ENDBRANCH   8  41
BRANCH   7  43
ATOM     43  O   UNL     1      17.159  24.421  18.315  1.00  0.00    -0.504 OA
ATOM     44  H   UNL     1      16.942  24.144  19.262  1.00  0.00     0.293 HD
ENDBRANCH   7  43
TORSDOF 11
ENDMDL
