MODEL 1
REMARK VINA RESULT:    -1.777      0.000      0.000
REMARK INTER + INTRA:          -1.777
REMARK INTER:                  -1.777
REMARK INTRA:                   0.000
REMARK UNBOUND:                 0.000
REMARK SMILES CC(=O)[O-]
REMARK SMILES IDX 1 1 2 2 3 3 4 4
REMARK H PARENT
REMARK Flexibility Score: inf
ROOT
ATOM      1  C   UNL     1      22.669  21.878  19.461  1.00  0.00     0.063 C 
ATOM      2  C   UNL     1      22.041  20.626  18.950  1.00  0.00     0.038 C 
ATOM      3  O   UNL     1      22.629  19.936  18.077  1.00  0.00    -0.550 OA
ATOM      4  O   UNL     1      20.832  20.190  19.474  1.00  0.00    -0.550 OA
ENDROOT
TORSDOF 0
ENDMDL
MODEL 2
REMARK VINA RESULT:    -1.776      1.841      2.110
REMARK INTER + INTRA:          -1.776
REMARK INTER:                  -1.776
REMARK INTRA:                   0.000
REMARK UNBOUND:                 0.000
REMARK SMILES CC(=O)[O-]
REMARK SMILES IDX 1 1 2 2 3 3 4 4
REMARK H PARENT
REMARK Flexibility Score: inf
ROOT
ATOM      1  C   UNL     1      22.494  20.023  18.450  1.00  0.00     0.063 C 
ATOM      2  C   UNL     1      22.289  21.323  19.151  1.00  0.00     0.038 C 
ATOM      3  O   UNL     1      21.691  22.266  18.571  1.00  0.00    -0.550 OA
ATOM      4  O   UNL     1      22.710  21.479  20.465  1.00  0.00    -0.550 OA
ENDROOT
TORSDOF 0
ENDMDL
MODEL 3
REMARK VINA RESULT:    -1.611     15.177     15.615
REMARK INTER + INTRA:          -1.611
REMARK INTER:                  -1.611
REMARK INTRA:                   0.000
REMARK UNBOUND:                 0.000
REMARK SMILES CC(=O)[O-]
REMARK SMILES IDX 1 1 2 2 3 3 4 4
REMARK H PARENT
REMARK Flexibility Score: inf
ROOT
ATOM      1  C   UNL     1      23.738   4.879  13.814  1.00  0.00     0.063 C 
ATOM      2  C   UNL     1      24.176   5.879  14.829  1.00  0.00     0.038 C 
ATOM      3  O   UNL     1      25.340   6.359  14.782  1.00  0.00    -0.550 OA
ATOM      4  O   UNL     1      23.285   6.326  15.795  1.00  0.00    -0.550 OA
ENDROOT
TORSDOF 0
ENDMDL
MODEL 4
REMARK VINA RESULT:    -1.592      7.918      8.393
REMARK INTER + INTRA:          -1.592
REMARK INTER:                  -1.592
REMARK INTRA:                   0.000
REMARK UNBOUND:                 0.000
REMARK SMILES CC(=O)[O-]
REMARK SMILES IDX 1 1 2 2 3 3 4 4
REMARK H PARENT
REMARK Flexibility Score: inf
ROOT
ATOM      1  C   UNL     1      21.227  11.284  17.042  1.00  0.00     0.063 C 
ATOM      2  C   UNL     1      21.302  12.771  16.971  1.00  0.00     0.038 C 
ATOM      3  O   UNL     1      21.665  13.336  15.906  1.00  0.00    -0.550 OA
ATOM      4  O   UNL     1      20.920  13.540  18.063  1.00  0.00    -0.550 OA
ENDROOT
TORSDOF 0
ENDMDL
MODEL 5
REMARK VINA RESULT:    -1.532     13.804     14.339
REMARK INTER + INTRA:          -1.532
REMARK INTER:                  -1.532
REMARK INTRA:                   0.000
REMARK UNBOUND:                 0.000
REMARK SMILES CC(=O)[O-]
REMARK SMILES IDX 1 1 2 2 3 3 4 4
REMARK H PARENT
REMARK Flexibility Score: inf
ROOT
ATOM      1  C   UNL     1      24.956   6.313  15.073  1.00  0.00     0.063 C 
ATOM      2  C   UNL     1      25.247   7.058  16.331  1.00  0.00     0.038 C 
ATOM      3  O   UNL     1      26.201   6.702  17.071  1.00  0.00    -0.550 OA
ATOM      4  O   UNL     1      24.500   8.181  16.663  1.00  0.00    -0.550 OA
ENDROOT
TORSDOF 0
ENDMDL
MODEL 6
REMARK VINA RESULT:    -1.503     15.411     15.896
REMARK INTER + INTRA:          -1.503
REMARK INTER:                  -1.503
REMARK INTRA:                   0.000
REMARK UNBOUND:                 0.000
REMARK SMILES CC(=O)[O-]
REMARK SMILES IDX 1 1 2 2 3 3 4 4
REMARK H PARENT
REMARK Flexibility Score: inf
ROOT
ATOM      1  C   UNL     1      24.980   6.348  15.037  1.00  0.00     0.063 C 
ATOM      2  C   UNL     1      23.783   5.496  14.779  1.00  0.00     0.038 C 
ATOM      3  O   UNL     1      22.890   5.378  15.658  1.00  0.00    -0.550 OA
ATOM      4  O   UNL     1      23.624   4.875  13.547  1.00  0.00    -0.550 OA
ENDROOT
TORSDOF 0
ENDMDL
MODEL 7
REMARK VINA RESULT:    -1.501     14.102     14.686
REMARK INTER + INTRA:          -1.501
REMARK INTER:                  -1.501
REMARK INTRA:                   0.000
REMARK UNBOUND:                 0.000
REMARK SMILES CC(=O)[O-]
REMARK SMILES IDX 1 1 2 2 3 3 4 4
REMARK H PARENT
REMARK Flexibility Score: inf
ROOT
ATOM      1  C   UNL     1      24.759   6.025  14.783  1.00  0.00     0.063 C 
ATOM      2  C   UNL     1      24.933   6.790  16.051  1.00  0.00     0.038 C 
ATOM      3  O   UNL     1      23.958   7.403  16.558  1.00  0.00    -0.550 OA
ATOM      4  O   UNL     1      26.159   6.785  16.704  1.00  0.00    -0.550 OA
ENDROOT
TORSDOF 0
ENDMDL
MODEL 8
REMARK VINA RESULT:    -1.498      2.278      2.680
REMARK INTER + INTRA:          -1.498
REMARK INTER:                  -1.498
REMARK INTRA:                   0.000
REMARK UNBOUND:                 0.000
REMARK SMILES CC(=O)[O-]
REMARK SMILES IDX 1 1 2 2 3 3 4 4
REMARK H PARENT
REMARK Flexibility Score: inf
ROOT
ATOM      1  C   UNL     1      22.886  23.213  19.456  1.00  0.00     0.063 C 
ATOM      2  C   UNL     1      21.555  22.813  18.917  1.00  0.00     0.038 C 
ATOM      3  O   UNL     1      20.961  21.805  19.382  1.00  0.00    -0.550 OA
ATOM      4  O   UNL     1      20.942  23.584  17.937  1.00  0.00    -0.550 OA
ENDROOT
TORSDOF 0
ENDMDL
MODEL 9
REMARK VINA RESULT:    -1.458      2.324      2.451
REMARK INTER + INTRA:          -1.458
REMARK INTER:                  -1.458
REMARK INTRA:                   0.000
REMARK UNBOUND:                 0.000
REMARK SMILES CC(=O)[O-]
REMARK SMILES IDX 1 1 2 2 3 3 4 4
REMARK H PARENT
REMARK Flexibility Score: inf
ROOT
ATOM      1  C   UNL     1      20.888  23.418  18.441  1.00  0.00     0.063 C 
ATOM      2  C   UNL     1      22.001  22.529  18.882  1.00  0.00     0.038 C 
ATOM      3  O   UNL     1      23.049  23.024  19.372  1.00  0.00    -0.550 OA
ATOM      4  O   UNL     1      21.861  21.149  18.802  1.00  0.00    -0.550 OA
ENDROOT
TORSDOF 0
ENDMDL
