MODEL 1
REMARK VINA RESULT:    -4.315      0.000      0.000
REMARK INTER + INTRA:          -9.267
REMARK INTER:                  -7.847
REMARK INTRA:                  -1.421
REMARK UNBOUND:                -1.421
REMARK SMILES CCCCCCCCCCCCCCCC(=O)[O-]
REMARK SMILES IDX 9 1 10 2 11 3 12 4 13 5 14 6 15 7 16 8 17 9 18 10 8 11 7 12
REMARK SMILES IDX 6 13 5 14 4 15 3 16 2 17 1 18
REMARK H PARENT
REMARK Flexibility Score: inf
ROOT
ATOM      1  C   UNL     1      32.854  -9.909  17.669  1.00  0.00     0.000 C 
ENDROOT
BRANCH   1   2
ATOM      2  C   UNL     1      32.728 -11.440  17.663  1.00  0.00     0.000 C 
BRANCH   2   3
ATOM      3  C   UNL     1      32.401 -12.011  19.052  1.00  0.00     0.000 C 
BRANCH   3   4
ATOM      4  C   UNL     1      31.819 -10.951  20.004  1.00  0.00     0.000 C 
BRANCH   4   5
ATOM      5  C   UNL     1      30.667 -11.497  20.864  1.00  0.00     0.000 C 
BRANCH   5   6
ATOM      6  C   UNL     1      30.523 -13.026  20.755  1.00  0.00     0.006 C 
BRANCH   6   7
ATOM      7  C   UNL     1      29.081 -13.451  20.450  1.00  0.00     0.053 C 
BRANCH   7   8
ATOM      8  C   UNL     1      28.443 -14.138  21.619  1.00  0.00     0.041 C 
ATOM      9  O   UNL     1      28.385 -13.563  22.737  1.00  0.00    -0.550 OA
ATOM     10  O   UNL     1      27.886 -15.402  21.465  1.00  0.00    -0.550 OA
ENDBRANCH   7   8
ENDBRANCH   6   7
ENDBRANCH   5   6
ENDBRANCH   4   5
ENDBRANCH   3   4
ENDBRANCH   2   3
ENDBRANCH   1   2
BRANCH   1  11
ATOM     11  C   UNL     1      32.242  -9.304  16.400  1.00  0.00     0.000 C 
BRANCH  11  12
ATOM     12  C   UNL     1      32.058  -7.785  16.548  1.00  0.00    -0.000 C 
BRANCH  12  13
ATOM     13  C   UNL     1      31.468  -7.390  17.911  1.00  0.00    -0.000 C 
BRANCH  13  14
ATOM     14  C   UNL     1      32.135  -6.141  18.506  1.00  0.00    -0.000 C 
BRANCH  14  15
ATOM     15  C   UNL     1      32.427  -6.333  19.999  1.00  0.00    -0.000 C 
BRANCH  15  16
ATOM     16  C   UNL     1      31.496  -7.391  20.610  1.00  0.00    -0.000 C 
BRANCH  16  17
ATOM     17  C   UNL     1      31.170  -7.109  22.085  1.00  0.00    -0.003 C 
ATOM     18  C   UNL     1      29.907  -7.826  22.559  1.00  0.00     0.004 C 
ENDBRANCH  16  17
ENDBRANCH  15  16
ENDBRANCH  14  15
ENDBRANCH  13  14
ENDBRANCH  12  13
ENDBRANCH  11  12
ENDBRANCH   1  11
TORSDOF 14
ENDMDL
MODEL 2
REMARK VINA RESULT:    -4.236      0.863      1.319
REMARK INTER + INTRA:          -9.123
REMARK INTER:                  -7.743
REMARK INTRA:                  -1.381
REMARK UNBOUND:                -1.421
REMARK SMILES CCCCCCCCCCCCCCCC(=O)[O-]
REMARK SMILES IDX 9 1 10 2 11 3 12 4 13 5 14 6 15 7 16 8 17 9 18 10 8 11 7 12
REMARK SMILES IDX 6 13 5 14 4 15 3 16 2 17 1 18
REMARK H PARENT
REMARK Flexibility Score: inf
ROOT
ATOM      1  C   UNL     1      33.051 -10.315  18.099  1.00  0.00     0.000 C 
ENDROOT
BRANCH   1   2
ATOM      2  C   UNL     1      32.226 -11.333  18.900  1.00  0.00     0.000 C 
BRANCH   2   3
ATOM      3  C   UNL     1      31.780 -10.789  20.267  1.00  0.00     0.000 C 
BRANCH   3   4
ATOM      4  C   UNL     1      30.688 -11.655  20.919  1.00  0.00     0.000 C 
BRANCH   4   5
ATOM      5  C   UNL     1      30.696 -13.103  20.405  1.00  0.00     0.000 C 
BRANCH   5   6
ATOM      6  C   UNL     1      29.278 -13.671  20.216  1.00  0.00     0.006 C 
BRANCH   6   7
ATOM      7  C   UNL     1      28.528 -13.809  21.548  1.00  0.00     0.053 C 
BRANCH   7   8
ATOM      8  C   UNL     1      28.199 -15.238  21.857  1.00  0.00     0.041 C 
ATOM      9  O   UNL     1      28.083 -15.616  23.052  1.00  0.00    -0.550 OA
ATOM     10  O   UNL     1      27.991 -16.144  20.825  1.00  0.00    -0.550 OA
ENDBRANCH   7   8
ENDBRANCH   6   7
ENDBRANCH   5   6
ENDBRANCH   4   5
ENDBRANCH   3   4
ENDBRANCH   2   3
ENDBRANCH   1   2
BRANCH   1  11
ATOM     11  C   UNL     1      32.528 -10.193  16.663  1.00  0.00     0.000 C 
BRANCH  11  12
ATOM     12  C   UNL     1      32.227  -8.729  16.309  1.00  0.00    -0.000 C 
BRANCH  12  13
ATOM     13  C   UNL     1      32.753  -7.744  17.364  1.00  0.00    -0.000 C 
BRANCH  13  14
ATOM     14  C   UNL     1      31.647  -6.848  17.943  1.00  0.00    -0.000 C 
BRANCH  14  15
ATOM     15  C   UNL     1      31.240  -7.315  19.346  1.00  0.00    -0.000 C 
BRANCH  15  16
ATOM     16  C   UNL     1      32.174  -6.725  20.414  1.00  0.00    -0.000 C 
BRANCH  16  17
ATOM     17  C   UNL     1      31.637  -6.921  21.840  1.00  0.00    -0.003 C 
ATOM     18  C   UNL     1      30.368  -7.771  21.882  1.00  0.00     0.004 C 
ENDBRANCH  16  17
ENDBRANCH  15  16
ENDBRANCH  14  15
ENDBRANCH  13  14
ENDBRANCH  12  13
ENDBRANCH  11  12
ENDBRANCH   1  11
TORSDOF 14
ENDMDL
MODEL 3
REMARK VINA RESULT:    -4.164      7.488     11.717
REMARK INTER + INTRA:          -8.993
REMARK INTER:                  -6.542
REMARK INTRA:                  -2.451
REMARK UNBOUND:                -1.421
REMARK SMILES CCCCCCCCCCCCCCCC(=O)[O-]
REMARK SMILES IDX 9 1 10 2 11 3 12 4 13 5 14 6 15 7 16 8 17 9 18 10 8 11 7 12
REMARK SMILES IDX 6 13 5 14 4 15 3 16 2 17 1 18
REMARK H PARENT
REMARK Flexibility Score: inf
ROOT
ATOM      1  C   UNL     1      30.114 -21.957  23.107  1.00  0.00     0.000 C 
ENDROOT
BRANCH   1   2
ATOM      2  C   UNL     1      28.806 -21.338  22.592  1.00  0.00     0.000 C 
BRANCH   2   3
ATOM      3  C   UNL     1      28.942 -19.837  22.291  1.00  0.00     0.000 C 
BRANCH   3   4
ATOM      4  C   UNL     1      30.407 -19.395  22.134  1.00  0.00     0.000 C 
BRANCH   4   5
ATOM      5  C   UNL     1      30.643 -17.951  22.605  1.00  0.00     0.000 C 
BRANCH   5   6
ATOM      6  C   UNL     1      29.495 -17.421  23.481  1.00  0.00     0.006 C 
BRANCH   6   7
ATOM      7  C   UNL     1      29.395 -15.890  23.442  1.00  0.00     0.053 C 
BRANCH   7   8
ATOM      8  C   UNL     1      28.253 -15.427  22.590  1.00  0.00     0.041 C 
ATOM      9  O   UNL     1      27.590 -14.409  22.918  1.00  0.00    -0.550 OA
ATOM     10  O   UNL     1      27.940 -16.104  21.417  1.00  0.00    -0.550 OA
ENDBRANCH   7   8
ENDBRANCH   6   7
ENDBRANCH   5   6
ENDBRANCH   4   5
ENDBRANCH   3   4
ENDBRANCH   2   3
ENDBRANCH   1   2
BRANCH   1  11
ATOM     11  C   UNL     1      29.902 -22.636  24.466  1.00  0.00     0.000 C 
BRANCH  11  12
ATOM     12  C   UNL     1      28.405 -22.827  24.757  1.00  0.00    -0.000 C 
BRANCH  12  13
ATOM     13  C   UNL     1      27.960 -22.133  26.054  1.00  0.00    -0.000 C 
BRANCH  13  14
ATOM     14  C   UNL     1      27.096 -20.889  25.794  1.00  0.00    -0.000 C 
BRANCH  14  15
ATOM     15  C   UNL     1      27.917 -19.605  25.966  1.00  0.00    -0.000 C 
BRANCH  15  16
ATOM     16  C   UNL     1      28.923 -19.746  27.119  1.00  0.00    -0.000 C 
BRANCH  16  17
ATOM     17  C   UNL     1      30.211 -18.943  26.878  1.00  0.00    -0.003 C 
ATOM     18  C   UNL     1      31.179 -19.649  25.929  1.00  0.00     0.004 C 
ENDBRANCH  16  17
ENDBRANCH  15  16
ENDBRANCH  14  15
ENDBRANCH  13  14
ENDBRANCH  12  13
ENDBRANCH  11  12
ENDBRANCH   1  11
TORSDOF 14
ENDMDL
MODEL 4
REMARK VINA RESULT:    -4.134     10.220     12.561
REMARK INTER + INTRA:          -8.938
REMARK INTER:                  -6.813
REMARK INTRA:                  -2.125
REMARK UNBOUND:                -1.421
REMARK SMILES CCCCCCCCCCCCCCCC(=O)[O-]
REMARK SMILES IDX 9 1 10 2 11 3 12 4 13 5 14 6 15 7 16 8 17 9 18 10 8 11 7 12
REMARK SMILES IDX 6 13 5 14 4 15 3 16 2 17 1 18
REMARK H PARENT
REMARK Flexibility Score: inf
ROOT
ATOM      1  C   UNL     1      28.812 -22.692  22.786  1.00  0.00     0.000 C 
ENDROOT
BRANCH   1   2
ATOM      2  C   UNL     1      29.285 -22.338  24.204  1.00  0.00     0.000 C 
BRANCH   2   3
ATOM      3  C   UNL     1      28.451 -23.030  25.295  1.00  0.00     0.000 C 
BRANCH   3   4
ATOM      4  C   UNL     1      27.939 -22.046  26.361  1.00  0.00     0.000 C 
BRANCH   4   5
ATOM      5  C   UNL     1      27.105 -20.904  25.757  1.00  0.00     0.000 C 
BRANCH   5   6
ATOM      6  C   UNL     1      27.513 -19.523  26.301  1.00  0.00     0.006 C 
BRANCH   6   7
ATOM      7  C   UNL     1      29.037 -19.351  26.357  1.00  0.00     0.053 C 
BRANCH   7   8
ATOM      8  C   UNL     1      29.499 -18.905  27.711  1.00  0.00     0.041 C 
ATOM      9  O   UNL     1      29.260 -19.612  28.725  1.00  0.00    -0.550 OA
ATOM     10  O   UNL     1      30.218 -17.725  27.848  1.00  0.00    -0.550 OA
ENDBRANCH   7   8
ENDBRANCH   6   7
ENDBRANCH   5   6
ENDBRANCH   4   5
ENDBRANCH   3   4
ENDBRANCH   2   3
ENDBRANCH   1   2
BRANCH   1  11
ATOM     11  C   UNL     1      28.596 -21.425  21.948  1.00  0.00     0.000 C 
BRANCH  11  12
ATOM     12  C   UNL     1      28.991 -20.169  22.739  1.00  0.00    -0.000 C 
BRANCH  12  13
ATOM     13  C   UNL     1      30.042 -19.316  22.011  1.00  0.00    -0.000 C 
BRANCH  13  14
ATOM     14  C   UNL     1      31.466 -19.870  22.168  1.00  0.00    -0.000 C 
BRANCH  14  15
ATOM     15  C   UNL     1      32.041 -20.301  20.812  1.00  0.00    -0.000 C 
BRANCH  15  16
ATOM     16  C   UNL     1      32.250 -21.822  20.762  1.00  0.00    -0.000 C 
BRANCH  16  17
ATOM     17  C   UNL     1      32.480 -22.431  22.154  1.00  0.00    -0.003 C 
ATOM     18  C   UNL     1      33.878 -23.024  22.316  1.00  0.00     0.004 C 
ENDBRANCH  16  17
ENDBRANCH  15  16
ENDBRANCH  14  15
ENDBRANCH  13  14
ENDBRANCH  12  13
ENDBRANCH  11  12
ENDBRANCH   1  11
TORSDOF 14
ENDMDL
MODEL 5
REMARK VINA RESULT:    -4.117      2.281      5.204
REMARK INTER + INTRA:          -8.907
REMARK INTER:                  -7.046
REMARK INTRA:                  -1.861
REMARK UNBOUND:                -1.421
REMARK SMILES CCCCCCCCCCCCCCCC(=O)[O-]
REMARK SMILES IDX 9 1 10 2 11 3 12 4 13 5 14 6 15 7 16 8 17 9 18 10 8 11 7 12
REMARK SMILES IDX 6 13 5 14 4 15 3 16 2 17 1 18
REMARK H PARENT
REMARK Flexibility Score: inf
ROOT
ATOM      1  C   UNL     1      31.429  -7.336  17.695  1.00  0.00     0.000 C 
ENDROOT
BRANCH   1   2
ATOM      2  C   UNL     1      32.107  -5.977  17.931  1.00  0.00     0.000 C 
BRANCH   2   3
ATOM      3  C   UNL     1      33.157  -6.028  19.052  1.00  0.00     0.000 C 
BRANCH   3   4
ATOM      4  C   UNL     1      32.529  -6.245  20.440  1.00  0.00     0.000 C 
BRANCH   4   5
ATOM      5  C   UNL     1      33.103  -7.474  21.162  1.00  0.00     0.000 C 
BRANCH   5   6
ATOM      6  C   UNL     1      32.010  -8.467  21.596  1.00  0.00     0.006 C 
BRANCH   6   7
ATOM      7  C   UNL     1      30.610  -7.841  21.558  1.00  0.00     0.053 C 
BRANCH   7   8
ATOM      8  C   UNL     1      30.069  -7.602  22.935  1.00  0.00     0.041 C 
ATOM      9  O   UNL     1      30.071  -6.441  23.423  1.00  0.00    -0.550 OA
ATOM     10  O   UNL     1      29.534  -8.655  23.666  1.00  0.00    -0.550 OA
ENDBRANCH   7   8
ENDBRANCH   6   7
ENDBRANCH   5   6
ENDBRANCH   4   5
ENDBRANCH   3   4
ENDBRANCH   2   3
ENDBRANCH   1   2
BRANCH   1  11
ATOM     11  C   UNL     1      32.019  -8.037  16.465  1.00  0.00     0.000 C 
BRANCH  11  12
ATOM     12  C   UNL     1      32.412  -9.486  16.794  1.00  0.00    -0.000 C 
BRANCH  12  13
ATOM     13  C   UNL     1      32.316  -9.800  18.295  1.00  0.00    -0.000 C 
BRANCH  13  14
ATOM     14  C   UNL     1      33.084 -11.071  18.685  1.00  0.00    -0.000 C 
BRANCH  14  15
ATOM     15  C   UNL     1      32.121 -12.184  19.119  1.00  0.00    -0.000 C 
BRANCH  15  16
ATOM     16  C   UNL     1      31.824 -12.098  20.624  1.00  0.00    -0.000 C 
BRANCH  16  17
ATOM     17  C   UNL     1      30.319 -12.018  20.924  1.00  0.00    -0.003 C 
ATOM     18  C   UNL     1      29.557 -13.257  20.455  1.00  0.00     0.004 C 
ENDBRANCH  16  17
ENDBRANCH  15  16
ENDBRANCH  14  15
ENDBRANCH  13  14
ENDBRANCH  12  13
ENDBRANCH  11  12
ENDBRANCH   1  11
TORSDOF 14
ENDMDL
MODEL 6
REMARK VINA RESULT:    -4.087      1.809      3.925
REMARK INTER + INTRA:          -8.852
REMARK INTER:                  -6.532
REMARK INTRA:                  -2.320
REMARK UNBOUND:                -1.421
REMARK SMILES CCCCCCCCCCCCCCCC(=O)[O-]
REMARK SMILES IDX 9 1 10 2 11 3 12 4 13 5 14 6 15 7 16 8 17 9 18 10 8 11 7 12
REMARK SMILES IDX 6 13 5 14 4 15 3 16 2 17 1 18
REMARK H PARENT
REMARK Flexibility Score: inf
ROOT
ATOM      1  C   UNL     1      32.140  -6.190  18.316  1.00  0.00     0.000 C 
ENDROOT
BRANCH   1   2
ATOM      2  C   UNL     1      32.342  -6.475  19.811  1.00  0.00     0.000 C 
BRANCH   2   3
ATOM      3  C   UNL     1      31.363  -7.532  20.348  1.00  0.00     0.000 C 
BRANCH   3   4
ATOM      4  C   UNL     1      32.080  -8.689  21.067  1.00  0.00     0.000 C 
BRANCH   4   5
ATOM      5  C   UNL     1      31.111  -9.790  21.527  1.00  0.00     0.000 C 
BRANCH   5   6
ATOM      6  C   UNL     1      31.121 -11.013  20.593  1.00  0.00     0.006 C 
BRANCH   6   7
ATOM      7  C   UNL     1      30.420 -12.226  21.219  1.00  0.00     0.053 C 
BRANCH   7   8
ATOM      8  C   UNL     1      30.328 -13.374  20.261  1.00  0.00     0.041 C 
ATOM      9  O   UNL     1      29.479 -14.285  20.443  1.00  0.00    -0.550 OA
ATOM     10  O   UNL     1      31.162 -13.422  19.150  1.00  0.00    -0.550 OA
ENDBRANCH   7   8
ENDBRANCH   6   7
ENDBRANCH   5   6
ENDBRANCH   4   5
ENDBRANCH   3   4
ENDBRANCH   2   3
ENDBRANCH   1   2
BRANCH   1  11
ATOM     11  C   UNL     1      31.427  -7.359  17.625  1.00  0.00     0.000 C 
BRANCH  11  12
ATOM     12  C   UNL     1      32.096  -7.696  16.283  1.00  0.00    -0.000 C 
BRANCH  12  13
ATOM     13  C   UNL     1      32.450  -9.186  16.155  1.00  0.00    -0.000 C 
BRANCH  13  14
ATOM     14  C   UNL     1      32.343  -9.937  17.491  1.00  0.00    -0.000 C 
BRANCH  14  15
ATOM     15  C   UNL     1      33.607 -10.765  17.758  1.00  0.00    -0.000 C 
BRANCH  15  16
ATOM     16  C   UNL     1      34.867  -9.893  17.657  1.00  0.00    -0.000 C 
BRANCH  16  17
ATOM     17  C   UNL     1      35.012  -8.927  18.843  1.00  0.00    -0.003 C 
ATOM     18  C   UNL     1      35.600  -7.576  18.438  1.00  0.00     0.004 C 
ENDBRANCH  16  17
ENDBRANCH  15  16
ENDBRANCH  14  15
ENDBRANCH  13  14
ENDBRANCH  12  13
ENDBRANCH  11  12
ENDBRANCH   1  11
TORSDOF 14
ENDMDL
MODEL 7
REMARK VINA RESULT:    -4.065      6.159     11.171
REMARK INTER + INTRA:          -8.812
REMARK INTER:                  -7.203
REMARK INTRA:                  -1.609
REMARK UNBOUND:                -1.421
REMARK SMILES CCCCCCCCCCCCCCCC(=O)[O-]
REMARK SMILES IDX 9 1 10 2 11 3 12 4 13 5 14 6 15 7 16 8 17 9 18 10 8 11 7 12
REMARK SMILES IDX 6 13 5 14 4 15 3 16 2 17 1 18
REMARK H PARENT
REMARK Flexibility Score: inf
ROOT
ATOM      1  C   UNL     1      29.550 -18.805  22.789  1.00  0.00     0.000 C 
ENDROOT
BRANCH   1   2
ATOM      2  C   UNL     1      30.142 -18.625  24.195  1.00  0.00     0.000 C 
BRANCH   2   3
ATOM      3  C   UNL     1      29.431 -17.527  25.000  1.00  0.00     0.000 C 
BRANCH   3   4
ATOM      4  C   UNL     1      29.496 -16.152  24.311  1.00  0.00     0.000 C 
BRANCH   4   5
ATOM      5  C   UNL     1      28.170 -15.381  24.405  1.00  0.00     0.000 C 
BRANCH   5   6
ATOM      6  C   UNL     1      28.215 -14.037  23.657  1.00  0.00     0.006 C 
BRANCH   6   7
ATOM      7  C   UNL     1      27.543 -14.117  22.280  1.00  0.00     0.053 C 
BRANCH   7   8
ATOM      8  C   UNL     1      28.548 -14.231  21.174  1.00  0.00     0.041 C 
ATOM      9  O   UNL     1      28.778 -15.347  20.640  1.00  0.00    -0.550 OA
ATOM     10  O   UNL     1      29.209 -13.098  20.714  1.00  0.00    -0.550 OA
ENDBRANCH   7   8
ENDBRANCH   6   7
ENDBRANCH   5   6
ENDBRANCH   4   5
ENDBRANCH   3   4
ENDBRANCH   2   3
ENDBRANCH   1   2
BRANCH   1  11
ATOM     11  C   UNL     1      30.538 -19.526  21.865  1.00  0.00     0.000 C 
BRANCH  11  12
ATOM     12  C   UNL     1      30.319 -21.047  21.905  1.00  0.00    -0.000 C 
BRANCH  12  13
ATOM     13  C   UNL     1      28.856 -21.428  22.179  1.00  0.00    -0.000 C 
BRANCH  13  14
ATOM     14  C   UNL     1      28.725 -22.659  23.088  1.00  0.00    -0.000 C 
BRANCH  14  15
ATOM     15  C   UNL     1      29.832 -22.679  24.149  1.00  0.00    -0.000 C 
BRANCH  15  16
ATOM     16  C   UNL     1      29.382 -21.956  25.428  1.00  0.00    -0.000 C 
BRANCH  16  17
ATOM     17  C   UNL     1      27.864 -22.051  25.655  1.00  0.00    -0.003 C 
ATOM     18  C   UNL     1      27.189 -20.683  25.711  1.00  0.00     0.004 C 
ENDBRANCH  16  17
ENDBRANCH  15  16
ENDBRANCH  14  15
ENDBRANCH  13  14
ENDBRANCH  12  13
ENDBRANCH  11  12
ENDBRANCH   1  11
TORSDOF 14
ENDMDL
MODEL 8
REMARK VINA RESULT:    -4.062      7.218     12.015
REMARK INTER + INTRA:          -8.807
REMARK INTER:                  -7.267
REMARK INTRA:                  -1.541
REMARK UNBOUND:                -1.421
REMARK SMILES CCCCCCCCCCCCCCCC(=O)[O-]
REMARK SMILES IDX 9 1 10 2 11 3 12 4 13 5 14 6 15 7 16 8 17 9 18 10 8 11 7 12
REMARK SMILES IDX 6 13 5 14 4 15 3 16 2 17 1 18
REMARK H PARENT
REMARK Flexibility Score: inf
ROOT
ATOM      1  C   UNL     1      27.409 -20.390  25.970  1.00  0.00     0.000 C 
ENDROOT
BRANCH   1   2
ATOM      2  C   UNL     1      27.954 -18.994  26.308  1.00  0.00     0.000 C 
BRANCH   2   3
ATOM      3  C   UNL     1      29.326 -18.725  25.669  1.00  0.00     0.000 C 
BRANCH   3   4
ATOM      4  C   UNL     1      29.328 -17.465  24.785  1.00  0.00     0.000 C 
BRANCH   4   5
ATOM      5  C   UNL     1      28.223 -16.469  25.173  1.00  0.00     0.000 C 
BRANCH   5   6
ATOM      6  C   UNL     1      28.299 -15.160  24.368  1.00  0.00     0.006 C 
BRANCH   6   7
ATOM      7  C   UNL     1      28.992 -15.352  23.013  1.00  0.00     0.053 C 
BRANCH   7   8
ATOM      8  C   UNL     1      28.024 -15.259  21.873  1.00  0.00     0.041 C 
ATOM      9  O   UNL     1      27.494 -14.156  21.581  1.00  0.00    -0.550 OA
ATOM     10  O   UNL     1      27.731 -16.386  21.114  1.00  0.00    -0.550 OA
ENDBRANCH   7   8
ENDBRANCH   6   7
ENDBRANCH   5   6
ENDBRANCH   4   5
ENDBRANCH   3   4
ENDBRANCH   2   3
ENDBRANCH   1   2
BRANCH   1  11
ATOM     11  C   UNL     1      28.456 -21.473  26.258  1.00  0.00     0.000 C 
BRANCH  11  12
ATOM     12  C   UNL     1      27.935 -22.862  25.856  1.00  0.00    -0.000 C 
BRANCH  12  13
ATOM     13  C   UNL     1      28.733 -23.481  24.698  1.00  0.00    -0.000 C 
BRANCH  13  14
ATOM     14  C   UNL     1      29.641 -22.463  23.993  1.00  0.00    -0.000 C 
BRANCH  14  15
ATOM     15  C   UNL     1      29.052 -22.046  22.640  1.00  0.00    -0.000 C 
BRANCH  15  16
ATOM     16  C   UNL     1      28.701 -20.550  22.632  1.00  0.00    -0.000 C 
BRANCH  16  17
ATOM     17  C   UNL     1      29.717 -19.710  21.842  1.00  0.00    -0.003 C 
ATOM     18  C   UNL     1      31.039 -20.442  21.615  1.00  0.00     0.004 C 
ENDBRANCH  16  17
ENDBRANCH  15  16
ENDBRANCH  14  15
ENDBRANCH  13  14
ENDBRANCH  12  13
ENDBRANCH  11  12
ENDBRANCH   1  11
TORSDOF 14
ENDMDL
MODEL 9
REMARK VINA RESULT:    -4.048     10.206     13.011
REMARK INTER + INTRA:          -8.782
REMARK INTER:                  -6.572
REMARK INTRA:                  -2.210
REMARK UNBOUND:                -1.421
REMARK SMILES CCCCCCCCCCCCCCCC(=O)[O-]
REMARK SMILES IDX 9 1 10 2 11 3 12 4 13 5 14 6 15 7 16 8 17 9 18 10 8 11 7 12
REMARK SMILES IDX 6 13 5 14 4 15 3 16 2 17 1 18
REMARK H PARENT
REMARK Flexibility Score: inf
ROOT
ATOM      1  C   UNL     1      28.959 -22.987  25.504  1.00  0.00     0.000 C 
ENDROOT
BRANCH   1   2
ATOM      2  C   UNL     1      27.557 -22.670  26.046  1.00  0.00     0.000 C 
BRANCH   2   3
ATOM      3  C   UNL     1      27.208 -21.177  25.945  1.00  0.00     0.000 C 
BRANCH   3   4
ATOM      4  C   UNL     1      28.436 -20.303  25.632  1.00  0.00     0.000 C 
BRANCH   4   5
ATOM      5  C   UNL     1      28.464 -19.007  26.458  1.00  0.00     0.000 C 
BRANCH   5   6
ATOM      6  C   UNL     1      29.442 -19.084  27.644  1.00  0.00     0.006 C 
BRANCH   6   7
ATOM      7  C   UNL     1      30.409 -20.269  27.522  1.00  0.00     0.053 C 
BRANCH   7   8
ATOM      8  C   UNL     1      30.415 -21.113  28.760  1.00  0.00     0.041 C 
ATOM      9  O   UNL     1      29.709 -22.154  28.820  1.00  0.00    -0.550 OA
ATOM     10  O   UNL     1      31.223 -20.767  29.835  1.00  0.00    -0.550 OA
ENDBRANCH   7   8
ENDBRANCH   6   7
ENDBRANCH   5   6
ENDBRANCH   4   5
ENDBRANCH   3   4
ENDBRANCH   2   3
ENDBRANCH   1   2
BRANCH   1  11
ATOM     11  C   UNL     1      28.880 -23.931  24.298  1.00  0.00     0.000 C 
BRANCH  11  12
ATOM     12  C   UNL     1      29.541 -23.301  23.062  1.00  0.00    -0.000 C 
BRANCH  12  13
ATOM     13  C   UNL     1      28.756 -22.096  22.519  1.00  0.00    -0.000 C 
BRANCH  13  14
ATOM     14  C   UNL     1      29.669 -21.015  21.921  1.00  0.00    -0.000 C 
BRANCH  14  15
ATOM     15  C   UNL     1      29.137 -19.611  22.236  1.00  0.00    -0.000 C 
BRANCH  15  16
ATOM     16  C   UNL     1      30.258 -18.707  22.770  1.00  0.00    -0.000 C 
BRANCH  16  17
ATOM     17  C   UNL     1      31.594 -19.451  22.923  1.00  0.00    -0.003 C 
ATOM     18  C   UNL     1      32.073 -19.515  24.372  1.00  0.00     0.004 C 
ENDBRANCH  16  17
ENDBRANCH  15  16
ENDBRANCH  14  15
ENDBRANCH  13  14
ENDBRANCH  12  13
ENDBRANCH  11  12
ENDBRANCH   1  11
TORSDOF 14
ENDMDL
