MODEL 1
REMARK VINA RESULT:    -3.650      0.000      0.000
REMARK INTER + INTRA:          -5.430
REMARK INTER:                  -5.144
REMARK INTRA:                  -0.286
REMARK UNBOUND:                -0.286
REMARK SMILES CCCCCCCCC(=O)[O-]
REMARK SMILES IDX 6 1 7 2 8 3 9 4 10 5 11 6 5 7 4 8 3 9 2 10 1 11
REMARK H PARENT
REMARK Flexibility Score: inf
ROOT
ATOM      1  C   UNL     1      57.445  28.212  50.263  1.00  0.00     0.000 C 
ENDROOT
BRANCH   1   2
ATOM      2  C   UNL     1      58.469  29.357  50.210  1.00  0.00     0.006 C 
BRANCH   2   3
ATOM      3  C   UNL     1      59.375  29.224  48.981  1.00  0.00     0.053 C 
BRANCH   3   4
ATOM      4  C   UNL     1      60.551  28.354  49.290  1.00  0.00     0.041 C 
ATOM      5  O   UNL     1      60.475  27.107  49.136  1.00  0.00    -0.550 OA
ATOM      6  O   UNL     1      61.717  28.916  49.795  1.00  0.00    -0.550 OA
ENDBRANCH   3   4
ENDBRANCH   2   3
ENDBRANCH   1   2
BRANCH   1   7
ATOM      7  C   UNL     1      56.011  28.709  50.506  1.00  0.00     0.000 C 
BRANCH   7   8
ATOM      8  C   UNL     1      54.953  27.813  49.836  1.00  0.00    -0.000 C 
BRANCH   8   9
ATOM      9  C   UNL     1      55.475  26.394  49.556  1.00  0.00    -0.000 C 
BRANCH   9  10
ATOM     10  C   UNL     1      54.372  25.443  49.066  1.00  0.00    -0.003 C 
ATOM     11  C   UNL     1      53.078  26.202  48.785  1.00  0.00     0.004 C 
ENDBRANCH   9  10
ENDBRANCH   8   9
ENDBRANCH   7   8
ENDBRANCH   1   7
TORSDOF 7
ENDMDL
MODEL 2
REMARK VINA RESULT:    -3.635     12.360     14.339
REMARK INTER + INTRA:          -5.409
REMARK INTER:                  -5.092
REMARK INTRA:                  -0.318
REMARK UNBOUND:                -0.286
REMARK SMILES CCCCCCCCC(=O)[O-]
REMARK SMILES IDX 6 1 7 2 8 3 9 4 10 5 11 6 5 7 4 8 3 9 2 10 1 11
REMARK H PARENT
REMARK Flexibility Score: inf
ROOT
ATOM      1  C   UNL     1      62.119  32.525  60.365  1.00  0.00     0.000 C 
ENDROOT
BRANCH   1   2
ATOM      2  C   UNL     1      60.993  31.481  60.420  1.00  0.00     0.006 C 
BRANCH   2   3
ATOM      3  C   UNL     1      61.158  30.563  61.636  1.00  0.00     0.053 C 
BRANCH   3   4
ATOM      4  C   UNL     1      61.862  29.302  61.249  1.00  0.00     0.041 C 
ATOM      5  O   UNL     1      61.202  28.288  60.903  1.00  0.00    -0.550 OA
ATOM      6  O   UNL     1      63.248  29.232  61.315  1.00  0.00    -0.550 OA
ENDBRANCH   3   4
ENDBRANCH   2   3
ENDBRANCH   1   2
BRANCH   1   7
ATOM      7  C   UNL     1      61.595  33.953  60.146  1.00  0.00     0.000 C 
BRANCH   7   8
ATOM      8  C   UNL     1      62.558  35.026  60.686  1.00  0.00    -0.000 C 
BRANCH   8   9
ATOM      9  C   UNL     1      63.981  34.486  60.902  1.00  0.00    -0.000 C 
BRANCH   9  10
ATOM     10  C   UNL     1      64.907  35.508  61.579  1.00  0.00    -0.003 C 
ATOM     11  C   UNL     1      64.296  36.906  61.548  1.00  0.00     0.004 C 
ENDBRANCH   9  10
ENDBRANCH   8   9
ENDBRANCH   7   8
ENDBRANCH   1   7
TORSDOF 7
ENDMDL
MODEL 3
REMARK VINA RESULT:    -3.479     12.243     14.333
REMARK INTER + INTRA:          -5.189
REMARK INTER:                  -4.734
REMARK INTRA:                  -0.454
REMARK UNBOUND:                -0.286
REMARK SMILES CCCCCCCCC(=O)[O-]
REMARK SMILES IDX 6 1 7 2 8 3 9 4 10 5 11 6 5 7 4 8 3 9 2 10 1 11
REMARK H PARENT
REMARK Flexibility Score: inf
ROOT
ATOM      1  C   UNL     1      61.858  33.346  59.108  1.00  0.00     0.000 C 
ENDROOT
BRANCH   1   2
ATOM      2  C   UNL     1      61.468  31.874  59.315  1.00  0.00     0.006 C 
BRANCH   2   3
ATOM      3  C   UNL     1      62.420  31.189  60.301  1.00  0.00     0.053 C 
BRANCH   3   4
ATOM      4  C   UNL     1      61.648  30.398  61.309  1.00  0.00     0.041 C 
ATOM      5  O   UNL     1      62.008  29.230  61.609  1.00  0.00    -0.550 OA
ATOM      6  O   UNL     1      60.501  30.934  61.882  1.00  0.00    -0.550 OA
ENDBRANCH   3   4
ENDBRANCH   2   3
ENDBRANCH   1   2
BRANCH   1   7
ATOM      7  C   UNL     1      61.500  34.231  60.313  1.00  0.00     0.000 C 
BRANCH   7   8
ATOM      8  C   UNL     1      62.612  35.238  60.659  1.00  0.00    -0.000 C 
BRANCH   8   9
ATOM      9  C   UNL     1      63.964  34.555  60.921  1.00  0.00    -0.000 C 
BRANCH   9  10
ATOM     10  C   UNL     1      65.016  35.521  61.486  1.00  0.00    -0.003 C 
ATOM     11  C   UNL     1      64.493  36.955  61.499  1.00  0.00     0.004 C 
ENDBRANCH   9  10
ENDBRANCH   8   9
ENDBRANCH   7   8
ENDBRANCH   1   7
TORSDOF 7
ENDMDL
MODEL 4
REMARK VINA RESULT:    -3.462      1.045      1.900
REMARK INTER + INTRA:          -5.166
REMARK INTER:                  -4.791
REMARK INTRA:                  -0.375
REMARK UNBOUND:                -0.286
REMARK SMILES CCCCCCCCC(=O)[O-]
REMARK SMILES IDX 6 1 7 2 8 3 9 4 10 5 11 6 5 7 4 8 3 9 2 10 1 11
REMARK H PARENT
REMARK Flexibility Score: inf
ROOT
ATOM      1  C   UNL     1      58.287  29.171  49.879  1.00  0.00     0.000 C 
ENDROOT
BRANCH   1   2
ATOM      2  C   UNL     1      59.586  29.297  49.067  1.00  0.00     0.006 C 
BRANCH   2   3
ATOM      3  C   UNL     1      60.324  27.956  49.002  1.00  0.00     0.053 C 
BRANCH   3   4
ATOM      4  C   UNL     1      61.743  28.118  49.444  1.00  0.00     0.041 C 
ATOM      5  O   UNL     1      62.155  29.233  49.857  1.00  0.00    -0.550 OA
ATOM      6  O   UNL     1      62.625  27.048  49.355  1.00  0.00    -0.550 OA
ENDBRANCH   3   4
ENDBRANCH   2   3
ENDBRANCH   1   2
BRANCH   1   7
ATOM      7  C   UNL     1      58.151  27.807  50.574  1.00  0.00     0.000 C 
BRANCH   7   8
ATOM      8  C   UNL     1      56.882  27.049  50.146  1.00  0.00    -0.000 C 
BRANCH   8   9
ATOM      9  C   UNL     1      55.633  27.945  50.142  1.00  0.00    -0.000 C 
BRANCH   9  10
ATOM     10  C   UNL     1      54.375  27.207  49.661  1.00  0.00    -0.003 C 
ATOM     11  C   UNL     1      54.728  25.834  49.095  1.00  0.00     0.004 C 
ENDBRANCH   9  10
ENDBRANCH   8   9
ENDBRANCH   7   8
ENDBRANCH   1   7
TORSDOF 7
ENDMDL
MODEL 5
REMARK VINA RESULT:    -3.462      3.370      5.609
REMARK INTER + INTRA:          -5.166
REMARK INTER:                  -4.781
REMARK INTRA:                  -0.384
REMARK UNBOUND:                -0.286
REMARK SMILES CCCCCCCCC(=O)[O-]
REMARK SMILES IDX 6 1 7 2 8 3 9 4 10 5 11 6 5 7 4 8 3 9 2 10 1 11
REMARK H PARENT
REMARK Flexibility Score: inf
ROOT
ATOM      1  C   UNL     1      56.394  28.987  50.470  1.00  0.00     0.000 C 
ENDROOT
BRANCH   1   2
ATOM      2  C   UNL     1      55.218  28.074  50.086  1.00  0.00     0.006 C 
BRANCH   2   3
ATOM      3  C   UNL     1      55.703  26.649  49.801  1.00  0.00     0.053 C 
BRANCH   3   4
ATOM      4  C   UNL     1      54.541  25.714  49.689  1.00  0.00     0.041 C 
ATOM      5  O   UNL     1      54.177  25.034  50.683  1.00  0.00    -0.550 OA
ATOM      6  O   UNL     1      53.890  25.558  48.471  1.00  0.00    -0.550 OA
ENDBRANCH   3   4
ENDBRANCH   2   3
ENDBRANCH   1   2
BRANCH   1   7
ATOM      7  C   UNL     1      57.760  28.313  50.269  1.00  0.00     0.000 C 
BRANCH   7   8
ATOM      8  C   UNL     1      58.791  29.251  49.616  1.00  0.00    -0.000 C 
BRANCH   8   9
ATOM      9  C   UNL     1      60.012  28.494  49.069  1.00  0.00    -0.000 C 
BRANCH   9  10
ATOM     10  C   UNL     1      59.939  26.982  49.330  1.00  0.00    -0.003 C 
ATOM     11  C   UNL     1      61.306  26.424  49.715  1.00  0.00     0.004 C 
ENDBRANCH   9  10
ENDBRANCH   8   9
ENDBRANCH   7   8
ENDBRANCH   1   7
TORSDOF 7
ENDMDL
MODEL 6
REMARK VINA RESULT:    -3.383     12.703     13.589
REMARK INTER + INTRA:          -5.054
REMARK INTER:                  -4.462
REMARK INTRA:                  -0.592
REMARK UNBOUND:                -0.286
REMARK SMILES CCCCCCCCC(=O)[O-]
REMARK SMILES IDX 6 1 7 2 8 3 9 4 10 5 11 6 5 7 4 8 3 9 2 10 1 11
REMARK H PARENT
REMARK Flexibility Score: inf
ROOT
ATOM      1  C   UNL     1      61.321  31.803  60.017  1.00  0.00     0.000 C 
ENDROOT
BRANCH   1   2
ATOM      2  C   UNL     1      61.696  33.278  60.231  1.00  0.00     0.006 C 
BRANCH   2   3
ATOM      3  C   UNL     1      63.214  33.444  60.352  1.00  0.00     0.053 C 
BRANCH   3   4
ATOM      4  C   UNL     1      63.549  34.775  60.947  1.00  0.00     0.041 C 
ATOM      5  O   UNL     1      62.721  35.722  60.889  1.00  0.00    -0.550 OA
ATOM      6  O   UNL     1      64.795  34.984  61.525  1.00  0.00    -0.550 OA
ENDBRANCH   3   4
ENDBRANCH   2   3
ENDBRANCH   1   2
BRANCH   1   7
ATOM      7  C   UNL     1      60.884  31.106  61.315  1.00  0.00     0.000 C 
BRANCH   7   8
ATOM      8  C   UNL     1      61.643  29.791  61.565  1.00  0.00    -0.000 C 
BRANCH   8   9
ATOM      9  C   UNL     1      62.467  29.345  60.347  1.00  0.00    -0.000 C 
BRANCH   9  10
ATOM     10  C   UNL     1      63.929  29.033  60.701  1.00  0.00    -0.003 C 
ATOM     11  C   UNL     1      64.850  30.176  60.285  1.00  0.00     0.004 C 
ENDBRANCH   9  10
ENDBRANCH   8   9
ENDBRANCH   7   8
ENDBRANCH   1   7
TORSDOF 7
ENDMDL
MODEL 7
REMARK VINA RESULT:    -3.298     12.330     13.534
REMARK INTER + INTRA:          -4.933
REMARK INTER:                  -4.502
REMARK INTRA:                  -0.431
REMARK UNBOUND:                -0.286
REMARK SMILES CCCCCCCCC(=O)[O-]
REMARK SMILES IDX 6 1 7 2 8 3 9 4 10 5 11 6 5 7 4 8 3 9 2 10 1 11
REMARK H PARENT
REMARK Flexibility Score: inf
ROOT
ATOM      1  C   UNL     1      61.903  30.038  61.449  1.00  0.00     0.000 C 
ENDROOT
BRANCH   1   2
ATOM      2  C   UNL     1      63.384  30.292  61.122  1.00  0.00     0.006 C 
BRANCH   2   3
ATOM      3  C   UNL     1      64.102  28.980  60.788  1.00  0.00     0.053 C 
BRANCH   3   4
ATOM      4  C   UNL     1      65.502  29.251  60.337  1.00  0.00     0.041 C 
ATOM      5  O   UNL     1      65.722  30.084  59.419  1.00  0.00    -0.550 OA
ATOM      6  O   UNL     1      66.561  28.548  60.897  1.00  0.00    -0.550 OA
ENDBRANCH   3   4
ENDBRANCH   2   3
ENDBRANCH   1   2
BRANCH   1   7
ATOM      7  C   UNL     1      61.005  31.237  61.104  1.00  0.00     0.000 C 
BRANCH   7   8
ATOM      8  C   UNL     1      61.572  32.090  59.955  1.00  0.00    -0.000 C 
BRANCH   8   9
ATOM      9  C   UNL     1      61.850  33.541  60.379  1.00  0.00    -0.000 C 
BRANCH   9  10
ATOM     10  C   UNL     1      63.214  34.051  59.891  1.00  0.00    -0.003 C 
ATOM     11  C   UNL     1      64.190  34.204  61.054  1.00  0.00     0.004 C 
ENDBRANCH   9  10
ENDBRANCH   8   9
ENDBRANCH   7   8
ENDBRANCH   1   7
TORSDOF 7
ENDMDL
MODEL 8
REMARK VINA RESULT:    -3.290     12.990     14.508
REMARK INTER + INTRA:          -4.923
REMARK INTER:                  -4.342
REMARK INTRA:                  -0.581
REMARK UNBOUND:                -0.286
REMARK SMILES CCCCCCCCC(=O)[O-]
REMARK SMILES IDX 6 1 7 2 8 3 9 4 10 5 11 6 5 7 4 8 3 9 2 10 1 11
REMARK H PARENT
REMARK Flexibility Score: inf
ROOT
ATOM      1  C   UNL     1      62.018  34.156  59.602  1.00  0.00     0.000 C 
ENDROOT
BRANCH   1   2
ATOM      2  C   UNL     1      62.259  32.784  60.252  1.00  0.00     0.006 C 
BRANCH   2   3
ATOM      3  C   UNL     1      63.755  32.544  60.483  1.00  0.00     0.053 C 
BRANCH   3   4
ATOM      4  C   UNL     1      64.038  31.080  60.598  1.00  0.00     0.041 C 
ATOM      5  O   UNL     1      63.318  30.350  61.328  1.00  0.00    -0.550 OA
ATOM      6  O   UNL     1      65.127  30.529  59.934  1.00  0.00    -0.550 OA
ENDBRANCH   3   4
ENDBRANCH   2   3
ENDBRANCH   1   2
BRANCH   1   7
ATOM      7  C   UNL     1      61.116  35.065  60.451  1.00  0.00     0.000 C 
BRANCH   7   8
ATOM      8  C   UNL     1      61.699  36.479  60.627  1.00  0.00    -0.000 C 
BRANCH   8   9
ATOM      9  C   UNL     1      63.187  36.553  60.250  1.00  0.00    -0.000 C 
BRANCH   9  10
ATOM     10  C   UNL     1      64.104  36.676  61.477  1.00  0.00    -0.003 C 
ATOM     11  C   UNL     1      65.222  35.638  61.432  1.00  0.00     0.004 C 
ENDBRANCH   9  10
ENDBRANCH   8   9
ENDBRANCH   7   8
ENDBRANCH   1   7
TORSDOF 7
ENDMDL
MODEL 9
REMARK VINA RESULT:    -3.265     12.269     14.205
REMARK INTER + INTRA:          -4.888
REMARK INTER:                  -4.200
REMARK INTRA:                  -0.688
REMARK UNBOUND:                -0.286
REMARK SMILES CCCCCCCCC(=O)[O-]
REMARK SMILES IDX 6 1 7 2 8 3 9 4 10 5 11 6 5 7 4 8 3 9 2 10 1 11
REMARK H PARENT
REMARK Flexibility Score: inf
ROOT
ATOM      1  C   UNL     1      64.079  32.965  59.595  1.00  0.00     0.000 C 
ENDROOT
BRANCH   1   2
ATOM      2  C   UNL     1      62.711  32.347  59.262  1.00  0.00     0.006 C 
BRANCH   2   3
ATOM      3  C   UNL     1      61.777  32.402  60.475  1.00  0.00     0.053 C 
BRANCH   3   4
ATOM      4  C   UNL     1      61.302  31.029  60.831  1.00  0.00     0.041 C 
ATOM      5  O   UNL     1      60.616  30.845  61.870  1.00  0.00    -0.550 OA
ATOM      6  O   UNL     1      61.659  29.943  60.040  1.00  0.00    -0.550 OA
ENDBRANCH   3   4
ENDBRANCH   2   3
ENDBRANCH   1   2
BRANCH   1   7
ATOM      7  C   UNL     1      64.093  33.679  60.956  1.00  0.00     0.000 C 
BRANCH   7   8
ATOM      8  C   UNL     1      64.751  35.069  60.888  1.00  0.00    -0.000 C 
BRANCH   8   9
ATOM      9  C   UNL     1      63.760  36.206  61.186  1.00  0.00    -0.000 C 
BRANCH   9  10
ATOM     10  C   UNL     1      62.730  36.405  60.064  1.00  0.00    -0.003 C 
ATOM     11  C   UNL     1      61.315  36.123  60.561  1.00  0.00     0.004 C 
ENDBRANCH   9  10
ENDBRANCH   8   9
ENDBRANCH   7   8
ENDBRANCH   1   7
TORSDOF 7
ENDMDL
