MODEL 1
REMARK VINA RESULT:    -2.239      0.000      0.000
REMARK INTER + INTRA:          -2.239
REMARK INTER:                  -2.239
REMARK INTRA:                   0.000
REMARK UNBOUND:                 0.000
REMARK SMILES C=C1CCC[C@@]2(C)CC(=O)C(=C(C)C)C[C@H]12
REMARK SMILES IDX 13 1 12 2 11 3 15 4 16 5 2 6 1 7 3 8 4 9 5 10 6 11 8 12 9 13
REMARK SMILES IDX 10 14 7 15 14 16
REMARK H PARENT
REMARK Flexibility Score: inf
ROOT
ATOM      1  C   UNL     1      10.955 -30.618  17.011  1.00  0.00     0.039 C 
ATOM      2  C   UNL     1       9.560 -31.192  17.110  1.00  0.00    -0.070 C 
ATOM      3  C   UNL     1       9.108 -32.118  16.212  1.00  0.00    -0.006 C 
ATOM      4  C   UNL     1      10.000 -32.626  15.089  1.00  0.00     0.047 C 
ATOM      5  C   UNL     1       9.676 -34.083  14.677  1.00  0.00     0.025 C 
ATOM      6  C   UNL     1      10.514 -34.635  13.524  1.00  0.00    -0.073 C 
ATOM      7  C   UNL     1      11.466 -33.932  12.879  1.00  0.00     0.008 C 
ATOM      8  C   UNL     1      10.260 -36.074  13.142  1.00  0.00     0.031 C 
ATOM      9  C   UNL     1       8.768 -36.298  12.875  1.00  0.00     0.005 C 
ATOM     10  C   UNL     1       7.901 -35.794  14.041  1.00  0.00     0.008 C 
ATOM     11  C   UNL     1       8.156 -34.295  14.387  1.00  0.00    -0.018 C 
ATOM     12  C   UNL     1       7.357 -33.954  15.669  1.00  0.00     0.088 C 
ATOM     13  C   UNL     1       7.693 -32.590  16.200  1.00  0.00     0.159 C 
ATOM     14  O   UNL     1       6.755 -31.859  16.618  1.00  0.00    -0.295 OA
ATOM     15  C   UNL     1       7.660 -33.399  13.219  1.00  0.00     0.012 C 
ATOM     16  C   UNL     1       8.708 -30.722  18.267  1.00  0.00     0.039 C 
ENDROOT
TORSDOF 0
ENDMDL
MODEL 2
REMARK VINA RESULT:    -2.236      2.111      3.883
REMARK INTER + INTRA:          -2.236
REMARK INTER:                  -2.236
REMARK INTRA:                   0.000
REMARK UNBOUND:                 0.000
REMARK SMILES C=C1CCC[C@@]2(C)CC(=O)C(=C(C)C)C[C@H]12
REMARK SMILES IDX 13 1 12 2 11 3 15 4 16 5 2 6 1 7 3 8 4 9 5 10 6 11 8 12 9 13
REMARK SMILES IDX 10 14 7 15 14 16
REMARK H PARENT
REMARK Flexibility Score: inf
ROOT
ATOM      1  C   UNL     1      12.907 -34.457  12.879  1.00  0.00     0.039 C 
ATOM      2  C   UNL     1      12.266 -33.187  13.392  1.00  0.00    -0.070 C 
ATOM      3  C   UNL     1      10.920 -33.110  13.612  1.00  0.00    -0.006 C 
ATOM      4  C   UNL     1      10.013 -34.308  13.369  1.00  0.00     0.047 C 
ATOM      5  C   UNL     1       8.780 -34.326  14.306  1.00  0.00     0.025 C 
ATOM      6  C   UNL     1       7.809 -35.486  14.080  1.00  0.00    -0.073 C 
ATOM      7  C   UNL     1       7.974 -36.437  13.140  1.00  0.00     0.008 C 
ATOM      8  C   UNL     1       6.629 -35.562  15.019  1.00  0.00     0.031 C 
ATOM      9  C   UNL     1       5.875 -34.229  15.035  1.00  0.00     0.005 C 
ATOM     10  C   UNL     1       6.820 -33.045  15.305  1.00  0.00     0.008 C 
ATOM     11  C   UNL     1       8.007 -32.970  14.297  1.00  0.00    -0.018 C 
ATOM     12  C   UNL     1       8.968 -31.851  14.768  1.00  0.00     0.088 C 
ATOM     13  C   UNL     1      10.245 -31.832  13.977  1.00  0.00     0.159 C 
ATOM     14  O   UNL     1      10.718 -30.717  13.624  1.00  0.00    -0.295 OA
ATOM     15  C   UNL     1       7.466 -32.621  12.882  1.00  0.00     0.012 C 
ATOM     16  C   UNL     1      13.189 -32.027  13.685  1.00  0.00     0.039 C 
ENDROOT
TORSDOF 0
ENDMDL
MODEL 3
REMARK VINA RESULT:    -1.699      2.384      4.119
REMARK INTER + INTRA:          -1.699
REMARK INTER:                  -1.699
REMARK INTRA:                   0.000
REMARK UNBOUND:                 0.000
REMARK SMILES C=C1CCC[C@@]2(C)CC(=O)C(=C(C)C)C[C@H]12
REMARK SMILES IDX 13 1 12 2 11 3 15 4 16 5 2 6 1 7 3 8 4 9 5 10 6 11 8 12 9 13
REMARK SMILES IDX 10 14 7 15 14 16
REMARK H PARENT
REMARK Flexibility Score: inf
ROOT
ATOM      1  C   UNL     1      12.165 -30.776  14.744  1.00  0.00     0.039 C 
ATOM      2  C   UNL     1      12.131 -32.095  14.007  1.00  0.00    -0.070 C 
ATOM      3  C   UNL     1      11.011 -32.877  14.000  1.00  0.00    -0.006 C 
ATOM      4  C   UNL     1       9.741 -32.438  14.716  1.00  0.00     0.047 C 
ATOM      5  C   UNL     1       8.455 -32.975  14.040  1.00  0.00     0.025 C 
ATOM      6  C   UNL     1       7.148 -32.600  14.740  1.00  0.00    -0.073 C 
ATOM      7  C   UNL     1       7.079 -31.868  15.869  1.00  0.00     0.008 C 
ATOM      8  C   UNL     1       5.876 -33.059  14.068  1.00  0.00     0.031 C 
ATOM      9  C   UNL     1       5.928 -34.566  13.803  1.00  0.00     0.005 C 
ATOM     10  C   UNL     1       7.213 -34.968  13.059  1.00  0.00     0.008 C 
ATOM     11  C   UNL     1       8.511 -34.515  13.794  1.00  0.00    -0.018 C 
ATOM     12  C   UNL     1       9.718 -34.825  12.876  1.00  0.00     0.088 C 
ATOM     13  C   UNL     1      10.998 -34.245  13.406  1.00  0.00     0.159 C 
ATOM     14  O   UNL     1      12.046 -34.944  13.348  1.00  0.00    -0.295 OA
ATOM     15  C   UNL     1       8.659 -35.308  15.123  1.00  0.00     0.012 C 
ATOM     16  C   UNL     1      13.380 -32.487  13.251  1.00  0.00     0.039 C 
ENDROOT
TORSDOF 0
ENDMDL
MODEL 4
REMARK VINA RESULT:    -1.266      2.153      4.008
REMARK INTER + INTRA:          -1.266
REMARK INTER:                  -1.266
REMARK INTRA:                   0.000
REMARK UNBOUND:                 0.000
REMARK SMILES C=C1CCC[C@@]2(C)CC(=O)C(=C(C)C)C[C@H]12
REMARK SMILES IDX 13 1 12 2 11 3 15 4 16 5 2 6 1 7 3 8 4 9 5 10 6 11 8 12 9 13
REMARK SMILES IDX 10 14 7 15 14 16
REMARK H PARENT
REMARK Flexibility Score: inf
ROOT
ATOM      1  C   UNL     1       7.753 -35.455  18.849  1.00  0.00     0.039 C 
ATOM      2  C   UNL     1       7.362 -35.803  17.430  1.00  0.00    -0.070 C 
ATOM      3  C   UNL     1       7.662 -34.972  16.388  1.00  0.00    -0.006 C 
ATOM      4  C   UNL     1       8.422 -33.673  16.610  1.00  0.00     0.047 C 
ATOM      5  C   UNL     1       9.290 -33.269  15.392  1.00  0.00     0.025 C 
ATOM      6  C   UNL     1      10.047 -31.949  15.542  1.00  0.00    -0.073 C 
ATOM      7  C   UNL     1       9.981 -31.161  16.633  1.00  0.00     0.008 C 
ATOM      8  C   UNL     1      10.948 -31.561  14.394  1.00  0.00     0.031 C 
ATOM      9  C   UNL     1      10.169 -31.585  13.075  1.00  0.00     0.005 C 
ATOM     10  C   UNL     1       9.433 -32.921  12.875  1.00  0.00     0.008 C 
ATOM     11  C   UNL     1       8.481 -33.276  14.057  1.00  0.00    -0.018 C 
ATOM     12  C   UNL     1       7.931 -34.705  13.821  1.00  0.00     0.088 C 
ATOM     13  C   UNL     1       7.162 -35.219  15.005  1.00  0.00     0.159 C 
ATOM     14  O   UNL     1       6.088 -35.846  14.798  1.00  0.00    -0.295 OA
ATOM     15  C   UNL     1       7.297 -32.270  14.094  1.00  0.00     0.012 C 
ATOM     16  C   UNL     1       6.660 -37.125  17.219  1.00  0.00     0.039 C 
ENDROOT
TORSDOF 0
ENDMDL
MODEL 5
REMARK VINA RESULT:    -0.619      1.588      2.742
REMARK INTER + INTRA:          -0.619
REMARK INTER:                  -0.619
REMARK INTRA:                   0.000
REMARK UNBOUND:                 0.000
REMARK SMILES C=C1CCC[C@@]2(C)CC(=O)C(=C(C)C)C[C@H]12
REMARK SMILES IDX 13 1 12 2 11 3 15 4 16 5 2 6 1 7 3 8 4 9 5 10 6 11 8 12 9 13
REMARK SMILES IDX 10 14 7 15 14 16
REMARK H PARENT
REMARK Flexibility Score: inf
ROOT
ATOM      1  C   UNL     1      11.860 -31.648  13.657  1.00  0.00     0.039 C 
ATOM      2  C   UNL     1      11.193 -31.474  15.002  1.00  0.00    -0.070 C 
ATOM      3  C   UNL     1      10.087 -32.198  15.345  1.00  0.00    -0.006 C 
ATOM      4  C   UNL     1       9.495 -33.228  14.394  1.00  0.00     0.047 C 
ATOM      5  C   UNL     1       8.808 -34.403  15.133  1.00  0.00     0.025 C 
ATOM      6  C   UNL     1       8.158 -35.450  14.228  1.00  0.00    -0.073 C 
ATOM      7  C   UNL     1       8.152 -35.385  12.882  1.00  0.00     0.008 C 
ATOM      8  C   UNL     1       7.533 -36.637  14.922  1.00  0.00     0.031 C 
ATOM      9  C   UNL     1       6.545 -36.168  15.993  1.00  0.00     0.005 C 
ATOM     10  C   UNL     1       7.185 -35.147  16.948  1.00  0.00     0.008 C 
ATOM     11  C   UNL     1       7.787 -33.913  16.208  1.00  0.00    -0.018 C 
ATOM     12  C   UNL     1       8.542 -33.049  17.248  1.00  0.00     0.088 C 
ATOM     13  C   UNL     1       9.327 -31.943  16.602  1.00  0.00     0.159 C 
ATOM     14  O   UNL     1       9.313 -30.802  17.139  1.00  0.00    -0.295 OA
ATOM     15  C   UNL     1       6.641 -33.075  15.577  1.00  0.00     0.012 C 
ATOM     16  C   UNL     1      11.830 -30.491  15.958  1.00  0.00     0.039 C 
ENDROOT
TORSDOF 0
ENDMDL
MODEL 6
REMARK VINA RESULT:     0.214      2.632      4.541
REMARK INTER + INTRA:           0.214
REMARK INTER:                   0.214
REMARK INTRA:                   0.000
REMARK UNBOUND:                 0.000
REMARK SMILES C=C1CCC[C@@]2(C)CC(=O)C(=C(C)C)C[C@H]12
REMARK SMILES IDX 13 1 12 2 11 3 15 4 16 5 2 6 1 7 3 8 4 9 5 10 6 11 8 12 9 13
REMARK SMILES IDX 10 14 7 15 14 16
REMARK H PARENT
REMARK Flexibility Score: inf
ROOT
ATOM      1  C   UNL     1      13.735 -30.364  14.851  1.00  0.00     0.039 C 
ATOM      2  C   UNL     1      13.456 -31.537  13.940  1.00  0.00    -0.070 C 
ATOM      3  C   UNL     1      12.288 -32.241  14.026  1.00  0.00    -0.006 C 
ATOM      4  C   UNL     1      11.210 -31.857  15.029  1.00  0.00     0.047 C 
ATOM      5  C   UNL     1       9.782 -32.198  14.535  1.00  0.00     0.025 C 
ATOM      6  C   UNL     1       8.658 -31.872  15.519  1.00  0.00    -0.073 C 
ATOM      7  C   UNL     1       8.856 -31.336  16.740  1.00  0.00     0.008 C 
ATOM      8  C   UNL     1       7.251 -32.138  15.039  1.00  0.00     0.031 C 
ATOM      9  C   UNL     1       7.124 -33.580  14.540  1.00  0.00     0.005 C 
ATOM     10  C   UNL     1       8.216 -33.924  13.513  1.00  0.00     0.008 C 
ATOM     11  C   UNL     1       9.658 -33.676  14.049  1.00  0.00    -0.018 C 
ATOM     12  C   UNL     1      10.651 -33.896  12.881  1.00  0.00     0.088 C 
ATOM     13  C   UNL     1      12.050 -33.487  13.242  1.00  0.00     0.159 C 
ATOM     14  O   UNL     1      13.006 -34.225  12.879  1.00  0.00    -0.295 OA
ATOM     15  C   UNL     1       9.971 -34.687  15.187  1.00  0.00     0.012 C 
ATOM     16  C   UNL     1      14.511 -31.868  12.909  1.00  0.00     0.039 C 
ENDROOT
TORSDOF 0
ENDMDL
