MODEL 1
REMARK VINA RESULT:    -4.719      0.000      0.000
REMARK INTER + INTRA:          -5.549
REMARK INTER:                  -5.409
REMARK INTRA:                  -0.140
REMARK UNBOUND:                -0.140
REMARK SMILES O=C([O-])C=Cc1ccc(O)cc1
REMARK SMILES IDX 6 1 7 2 12 3 8 4 11 5 9 6 5 7 4 8 2 9 1 10 3 11 10 12
REMARK H PARENT 10 13
REMARK Flexibility Score: inf
ROOT
ATOM      1  C   UNL     1      29.123  30.000  25.447  1.00  0.00    -0.025 A 
ATOM      2  C   UNL     1      29.116  29.773  26.834  1.00  0.00     0.012 A 
ATOM      3  C   UNL     1      29.109  28.890  24.577  1.00  0.00     0.012 A 
ATOM      4  C   UNL     1      29.120  28.471  27.343  1.00  0.00     0.047 A 
ATOM      5  C   UNL     1      29.112  27.590  25.089  1.00  0.00     0.047 A 
ATOM      6  C   UNL     1      29.120  27.376  26.474  1.00  0.00     0.115 A 
ENDROOT
BRANCH   1   7
ATOM      7  C   UNL     1      29.109  31.401  24.956  1.00  0.00     0.010 C 
ATOM      8  C   UNL     1      28.828  31.745  23.692  1.00  0.00     0.025 C 
BRANCH   8   9
ATOM      9  C   UNL     1      28.834  33.146  23.239  1.00  0.00     0.064 C 
ATOM     10  O   UNL     1      28.737  33.437  22.017  1.00  0.00    -0.545 OA
ATOM     11  O   UNL     1      28.950  34.164  24.176  1.00  0.00    -0.545 OA
ENDBRANCH   8   9
ENDBRANCH   1   7
BRANCH   6  12
ATOM     12  O   UNL     1      29.125  26.084  26.994  1.00  0.00    -0.508 OA
ATOM     13  H   UNL     1      29.216  25.273  26.394  1.00  0.00     0.293 HD
ENDBRANCH   6  12
TORSDOF 3
ENDMDL
MODEL 2
REMARK VINA RESULT:    -3.820      1.277      5.722
REMARK INTER + INTRA:          -4.518
REMARK INTER:                  -4.383
REMARK INTRA:                  -0.135
REMARK UNBOUND:                -0.140
REMARK SMILES O=C([O-])C=Cc1ccc(O)cc1
REMARK SMILES IDX 6 1 7 2 12 3 8 4 11 5 9 6 5 7 4 8 2 9 1 10 3 11 10 12
REMARK H PARENT 10 13
REMARK Flexibility Score: inf
ROOT
ATOM      1  C   UNL     1      29.016  29.769  24.498  1.00  0.00    -0.025 A 
ATOM      2  C   UNL     1      28.993  30.909  25.320  1.00  0.00     0.012 A 
ATOM      3  C   UNL     1      29.095  29.940  23.100  1.00  0.00     0.012 A 
ATOM      4  C   UNL     1      29.022  32.190  24.761  1.00  0.00     0.047 A 
ATOM      5  C   UNL     1      29.125  31.223  22.546  1.00  0.00     0.047 A 
ATOM      6  C   UNL     1      29.086  32.351  23.374  1.00  0.00     0.115 A 
ENDROOT
BRANCH   1   7
ATOM      7  C   UNL     1      28.993  28.430  25.139  1.00  0.00     0.010 C 
ATOM      8  C   UNL     1      27.877  27.708  25.317  1.00  0.00     0.025 C 
BRANCH   8   9
ATOM      9  C   UNL     1      27.892  26.388  25.967  1.00  0.00     0.064 C 
ATOM     10  O   UNL     1      26.849  25.684  26.038  1.00  0.00    -0.545 OA
ATOM     11  O   UNL     1      29.076  25.910  26.513  1.00  0.00    -0.545 OA
ENDBRANCH   8   9
ENDBRANCH   1   7
BRANCH   6  12
ATOM     12  O   UNL     1      29.114  33.634  22.832  1.00  0.00    -0.508 OA
ATOM     13  H   UNL     1      29.915  34.243  22.954  1.00  0.00     0.293 HD
ENDBRANCH   6  12
TORSDOF 3
ENDMDL
MODEL 3
REMARK VINA RESULT:    -3.598      2.451      3.381
REMARK INTER + INTRA:          -4.264
REMARK INTER:                  -4.126
REMARK INTRA:                  -0.139
REMARK UNBOUND:                -0.140
REMARK SMILES O=C([O-])C=Cc1ccc(O)cc1
REMARK SMILES IDX 6 1 7 2 12 3 8 4 11 5 9 6 5 7 4 8 2 9 1 10 3 11 10 12
REMARK H PARENT 10 13
REMARK Flexibility Score: inf
ROOT
ATOM      1  C   UNL     1      28.010  27.057  25.637  1.00  0.00    -0.025 A 
ATOM      2  C   UNL     1      26.841  26.429  26.101  1.00  0.00     0.012 A 
ATOM      3  C   UNL     1      29.125  26.259  25.307  1.00  0.00     0.012 A 
ATOM      4  C   UNL     1      26.793  25.041  26.258  1.00  0.00     0.047 A 
ATOM      5  C   UNL     1      29.073  24.871  25.464  1.00  0.00     0.047 A 
ATOM      6  C   UNL     1      27.908  24.258  25.943  1.00  0.00     0.115 A 
ENDROOT
BRANCH   1   7
ATOM      7  C   UNL     1      28.007  28.533  25.478  1.00  0.00     0.010 C 
ATOM      8  C   UNL     1      28.985  29.218  24.868  1.00  0.00     0.025 C 
BRANCH   8   9
ATOM      9  C   UNL     1      28.953  30.685  24.739  1.00  0.00     0.064 C 
ATOM     10  O   UNL     1      29.123  31.431  25.739  1.00  0.00    -0.545 OA
ATOM     11  O   UNL     1      28.730  31.254  23.492  1.00  0.00    -0.545 OA
ENDBRANCH   8   9
ENDBRANCH   1   7
BRANCH   6  12
ATOM     12  O   UNL     1      27.846  22.876  26.105  1.00  0.00    -0.508 OA
ATOM     13  H   UNL     1      27.535  22.269  25.355  1.00  0.00     0.293 HD
ENDBRANCH   6  12
TORSDOF 3
ENDMDL
MODEL 4
REMARK VINA RESULT:    -3.316      1.608      6.003
REMARK INTER + INTRA:          -3.941
REMARK INTER:                  -3.801
REMARK INTRA:                  -0.140
REMARK UNBOUND:                -0.140
REMARK SMILES O=C([O-])C=Cc1ccc(O)cc1
REMARK SMILES IDX 6 1 7 2 12 3 8 4 11 5 9 6 5 7 4 8 2 9 1 10 3 11 10 12
REMARK H PARENT 10 13
REMARK Flexibility Score: inf
ROOT
ATOM      1  C   UNL     1      28.880  31.642  24.132  1.00  0.00    -0.025 A 
ATOM      2  C   UNL     1      29.125  31.453  22.761  1.00  0.00     0.012 A 
ATOM      3  C   UNL     1      28.582  32.940  24.596  1.00  0.00     0.012 A 
ATOM      4  C   UNL     1      29.098  32.536  21.877  1.00  0.00     0.047 A 
ATOM      5  C   UNL     1      28.556  34.020  23.709  1.00  0.00     0.047 A 
ATOM      6  C   UNL     1      28.816  33.821  22.347  1.00  0.00     0.115 A 
ENDROOT
BRANCH   1   7
ATOM      7  C   UNL     1      28.910  30.460  25.028  1.00  0.00     0.010 C 
ATOM      8  C   UNL     1      28.010  29.467  24.983  1.00  0.00     0.025 C 
BRANCH   8   9
ATOM      9  C   UNL     1      28.066  28.314  25.896  1.00  0.00     0.064 C 
ATOM     10  O   UNL     1      27.259  27.353  25.785  1.00  0.00    -0.545 OA
ATOM     11  O   UNL     1      29.026  28.285  26.900  1.00  0.00    -0.545 OA
ENDBRANCH   8   9
ENDBRANCH   1   7
BRANCH   6  12
ATOM     12  O   UNL     1      28.794  34.891  21.455  1.00  0.00    -0.508 OA
ATOM     13  H   UNL     1      28.645  35.841  21.772  1.00  0.00     0.293 HD
ENDBRANCH   6  12
TORSDOF 3
ENDMDL
MODEL 5
REMARK VINA RESULT:    -3.074      1.705      2.431
REMARK INTER + INTRA:          -3.663
REMARK INTER:                  -3.524
REMARK INTRA:                  -0.139
REMARK UNBOUND:                -0.140
REMARK SMILES O=C([O-])C=Cc1ccc(O)cc1
REMARK SMILES IDX 6 1 7 2 12 3 8 4 11 5 9 6 5 7 4 8 2 9 1 10 3 11 10 12
REMARK H PARENT 10 13
REMARK Flexibility Score: inf
ROOT
ATOM      1  C   UNL     1      29.041  31.736  23.859  1.00  0.00    -0.025 A 
ATOM      2  C   UNL     1      29.123  31.864  25.256  1.00  0.00     0.012 A 
ATOM      3  C   UNL     1      28.911  30.447  23.301  1.00  0.00     0.012 A 
ATOM      4  C   UNL     1      29.100  30.733  26.078  1.00  0.00     0.047 A 
ATOM      5  C   UNL     1      28.888  29.319  24.126  1.00  0.00     0.047 A 
ATOM      6  C   UNL     1      28.985  29.458  25.516  1.00  0.00     0.115 A 
ENDROOT
BRANCH   1   7
ATOM      7  C   UNL     1      29.060  32.968  23.031  1.00  0.00     0.010 C 
ATOM      8  C   UNL     1      28.703  33.003  21.740  1.00  0.00     0.025 C 
BRANCH   8   9
ATOM      9  C   UNL     1      28.744  34.243  20.947  1.00  0.00     0.064 C 
ATOM     10  O   UNL     1      29.114  34.235  19.743  1.00  0.00    -0.545 OA
ATOM     11  O   UNL     1      28.369  35.443  21.538  1.00  0.00    -0.545 OA
ENDBRANCH   8   9
ENDBRANCH   1   7
BRANCH   6  12
ATOM     12  O   UNL     1      28.965  28.340  26.346  1.00  0.00    -0.508 OA
ATOM     13  H   UNL     1      28.138  28.090  26.877  1.00  0.00     0.293 HD
ENDBRANCH   6  12
TORSDOF 3
ENDMDL
MODEL 6
REMARK VINA RESULT:    -2.017      7.613      8.999
REMARK INTER + INTRA:          -2.452
REMARK INTER:                  -2.315
REMARK INTRA:                  -0.137
REMARK UNBOUND:                -0.140
REMARK SMILES O=C([O-])C=Cc1ccc(O)cc1
REMARK SMILES IDX 6 1 7 2 12 3 8 4 11 5 9 6 5 7 4 8 2 9 1 10 3 11 10 12
REMARK H PARENT 10 13
REMARK Flexibility Score: inf
ROOT
ATOM      1  C   UNL     1      25.336  23.081  25.803  1.00  0.00    -0.025 A 
ATOM      2  C   UNL     1      25.463  23.363  24.432  1.00  0.00     0.012 A 
ATOM      3  C   UNL     1      26.505  22.878  26.566  1.00  0.00     0.012 A 
ATOM      4  C   UNL     1      26.723  23.415  23.829  1.00  0.00     0.047 A 
ATOM      5  C   UNL     1      27.763  22.931  25.959  1.00  0.00     0.047 A 
ATOM      6  C   UNL     1      27.876  23.198  24.589  1.00  0.00     0.115 A 
ENDROOT
BRANCH   1   7
ATOM      7  C   UNL     1      23.977  23.046  26.398  1.00  0.00     0.010 C 
ATOM      8  C   UNL     1      23.413  24.085  27.031  1.00  0.00     0.025 C 
BRANCH   8   9
ATOM      9  C   UNL     1      22.065  24.009  27.618  1.00  0.00     0.064 C 
ATOM     10  O   UNL     1      21.488  22.902  27.786  1.00  0.00    -0.545 OA
ATOM     11  O   UNL     1      21.419  25.180  27.993  1.00  0.00    -0.545 OA
ENDBRANCH   8   9
ENDBRANCH   1   7
BRANCH   6  12
ATOM     12  O   UNL     1      29.125  23.253  23.975  1.00  0.00    -0.508 OA
ATOM     13  H   UNL     1      29.269  22.899  23.036  1.00  0.00     0.293 HD
ENDBRANCH   6  12
TORSDOF 3
ENDMDL
MODEL 7
REMARK VINA RESULT:    -1.864      5.250      7.163
REMARK INTER + INTRA:          -2.276
REMARK INTER:                  -2.129
REMARK INTRA:                  -0.147
REMARK UNBOUND:                -0.140
REMARK SMILES O=C([O-])C=Cc1ccc(O)cc1
REMARK SMILES IDX 6 1 7 2 12 3 8 4 11 5 9 6 5 7 4 8 2 9 1 10 3 11 10 12
REMARK H PARENT 10 13
REMARK Flexibility Score: inf
ROOT
ATOM      1  C   UNL     1      25.375  24.364  26.525  1.00  0.00    -0.025 A 
ATOM      2  C   UNL     1      24.707  25.037  27.562  1.00  0.00     0.012 A 
ATOM      3  C   UNL     1      24.730  23.283  25.889  1.00  0.00     0.012 A 
ATOM      4  C   UNL     1      23.434  24.628  27.973  1.00  0.00     0.047 A 
ATOM      5  C   UNL     1      23.458  22.876  26.303  1.00  0.00     0.047 A 
ATOM      6  C   UNL     1      22.807  23.547  27.347  1.00  0.00     0.115 A 
ENDROOT
BRANCH   1   7
ATOM      7  C   UNL     1      26.720  24.843  26.119  1.00  0.00     0.010 C 
ATOM      8  C   UNL     1      27.054  26.138  26.027  1.00  0.00     0.025 C 
BRANCH   8   9
ATOM      9  C   UNL     1      28.396  26.576  25.610  1.00  0.00     0.064 C 
ATOM     10  O   UNL     1      29.122  25.848  24.881  1.00  0.00    -0.545 OA
ATOM     11  O   UNL     1      28.870  27.812  26.029  1.00  0.00    -0.545 OA
ENDBRANCH   8   9
ENDBRANCH   1   7
BRANCH   6  12
ATOM     12  O   UNL     1      21.540  23.149  27.767  1.00  0.00    -0.508 OA
ATOM     13  H   UNL     1      20.864  22.765  27.117  1.00  0.00     0.293 HD
ENDBRANCH   6  12
TORSDOF 3
ENDMDL
