MODEL 1
REMARK VINA RESULT:    -4.853      0.000      0.000
REMARK INTER + INTRA:          -5.459
REMARK INTER:                  -5.421
REMARK INTRA:                  -0.038
REMARK UNBOUND:                -0.038
REMARK SMILES O=C([O-])c1ccc(O)c(O)c1
REMARK SMILES IDX 4 1 11 2 5 3 9 4 6 5 7 6 2 7 1 8 3 9 10 10 8 12
REMARK H PARENT 10 11 8 13
REMARK Flexibility Score: inf
ROOT
ATOM      1  C   UNL     1      11.551   0.931  14.491  1.00  0.00     0.001 A 
ATOM      2  C   UNL     1      11.810   0.272  13.275  1.00  0.00     0.060 A 
ATOM      3  C   UNL     1      11.158   0.173  15.607  1.00  0.00     0.014 A 
ATOM      4  C   UNL     1      11.676  -1.122  13.176  1.00  0.00     0.158 A 
ATOM      5  C   UNL     1      11.025  -1.214  15.509  1.00  0.00     0.051 A 
ATOM      6  C   UNL     1      11.281  -1.867  14.299  1.00  0.00     0.157 A 
ENDROOT
BRANCH   1   7
ATOM      7  C   UNL     1      11.692   2.399  14.598  1.00  0.00     0.072 C 
ATOM      8  O   UNL     1      11.063   3.163  13.817  1.00  0.00    -0.545 OA
ATOM      9  O   UNL     1      12.521   2.959  15.563  1.00  0.00    -0.545 OA
ENDBRANCH   1   7
BRANCH   4  10
ATOM     10  O   UNL     1      11.934  -1.765  11.967  1.00  0.00    -0.504 OA
ATOM     11  H   UNL     1      12.327  -1.271  11.174  1.00  0.00     0.293 HD
ENDBRANCH   4  10
BRANCH   6  12
ATOM     12  O   UNL     1      11.139  -3.252  14.233  1.00  0.00    -0.504 OA
ATOM     13  H   UNL     1      11.221  -3.841  15.053  1.00  0.00     0.293 HD
ENDBRANCH   6  12
TORSDOF 3
ENDMDL
MODEL 2
REMARK VINA RESULT:    -4.786      1.163      4.717
REMARK INTER + INTRA:          -5.384
REMARK INTER:                  -5.340
REMARK INTRA:                  -0.044
REMARK UNBOUND:                -0.038
REMARK SMILES O=C([O-])c1ccc(O)c(O)c1
REMARK SMILES IDX 4 1 11 2 5 3 9 4 6 5 7 6 2 7 1 8 3 9 10 10 8 12
REMARK H PARENT 10 11 8 13
REMARK Flexibility Score: inf
ROOT
ATOM      1  C   UNL     1      11.606  -0.352  14.480  1.00  0.00     0.001 A 
ATOM      2  C   UNL     1      11.674   0.141  15.797  1.00  0.00     0.060 A 
ATOM      3  C   UNL     1      11.857   0.524  13.411  1.00  0.00     0.014 A 
ATOM      4  C   UNL     1      11.986   1.487  16.040  1.00  0.00     0.158 A 
ATOM      5  C   UNL     1      12.168   1.865  13.652  1.00  0.00     0.051 A 
ATOM      6  C   UNL     1      12.233   2.352  14.961  1.00  0.00     0.157 A 
ENDROOT
BRANCH   1   7
ATOM      7  C   UNL     1      11.277  -1.771  14.222  1.00  0.00     0.072 C 
ATOM      8  O   UNL     1      11.247  -2.605  15.166  1.00  0.00    -0.545 OA
ATOM      9  O   UNL     1      10.995  -2.205  12.932  1.00  0.00    -0.545 OA
ENDBRANCH   1   7
BRANCH   4  10
ATOM     10  O   UNL     1      12.050   1.965  17.347  1.00  0.00    -0.504 OA
ATOM     11  H   UNL     1      11.266   2.443  17.778  1.00  0.00     0.293 HD
ENDBRANCH   4  10
BRANCH   6  12
ATOM     12  O   UNL     1      12.546   3.695  15.170  1.00  0.00    -0.504 OA
ATOM     13  H   UNL     1      13.432   3.986  15.565  1.00  0.00     0.293 HD
ENDBRANCH   6  12
TORSDOF 3
ENDMDL
MODEL 3
REMARK VINA RESULT:    -4.774      1.982      4.518
REMARK INTER + INTRA:          -5.370
REMARK INTER:                  -5.327
REMARK INTRA:                  -0.044
REMARK UNBOUND:                -0.038
REMARK SMILES O=C([O-])c1ccc(O)c(O)c1
REMARK SMILES IDX 4 1 11 2 5 3 9 4 6 5 7 6 2 7 1 8 3 9 10 10 8 12
REMARK H PARENT 10 11 8 13
REMARK Flexibility Score: inf
ROOT
ATOM      1  C   UNL     1      12.401  -2.669  14.091  1.00  0.00     0.001 A 
ATOM      2  C   UNL     1      12.309  -1.466  13.368  1.00  0.00     0.060 A 
ATOM      3  C   UNL     1      11.874  -2.724  15.393  1.00  0.00     0.014 A 
ATOM      4  C   UNL     1      11.702  -0.336  13.936  1.00  0.00     0.158 A 
ATOM      5  C   UNL     1      11.270  -1.599  15.959  1.00  0.00     0.051 A 
ATOM      6  C   UNL     1      11.181  -0.404  15.238  1.00  0.00     0.157 A 
ENDROOT
BRANCH   1   7
ATOM      7  C   UNL     1      13.040  -3.862  13.494  1.00  0.00     0.072 C 
ATOM      8  O   UNL     1      13.755  -3.757  12.461  1.00  0.00    -0.545 OA
ATOM      9  O   UNL     1      12.862  -5.117  14.064  1.00  0.00    -0.545 OA
ENDBRANCH   1   7
BRANCH   4  10
ATOM     10  O   UNL     1      11.616   0.851  13.212  1.00  0.00    -0.504 OA
ATOM     11  H   UNL     1      10.770   1.113  12.718  1.00  0.00     0.293 HD
ENDBRANCH   4  10
BRANCH   6  12
ATOM     12  O   UNL     1      10.572   0.702  15.831  1.00  0.00    -0.504 OA
ATOM     13  H   UNL     1      10.855   1.048  16.740  1.00  0.00     0.293 HD
ENDBRANCH   6  12
TORSDOF 3
ENDMDL
MODEL 4
REMARK VINA RESULT:    -4.767      2.006      5.042
REMARK INTER + INTRA:          -5.363
REMARK INTER:                  -5.319
REMARK INTRA:                  -0.044
REMARK UNBOUND:                -0.038
REMARK SMILES O=C([O-])c1ccc(O)c(O)c1
REMARK SMILES IDX 4 1 11 2 5 3 9 4 6 5 7 6 2 7 1 8 3 9 10 10 8 12
REMARK H PARENT 10 11 8 13
REMARK Flexibility Score: inf
ROOT
ATOM      1  C   UNL     1      12.263  -2.889  14.034  1.00  0.00     0.001 A 
ATOM      2  C   UNL     1      11.330  -2.284  14.896  1.00  0.00     0.060 A 
ATOM      3  C   UNL     1      12.914  -2.099  13.072  1.00  0.00     0.014 A 
ATOM      4  C   UNL     1      11.050  -0.912  14.796  1.00  0.00     0.158 A 
ATOM      5  C   UNL     1      12.637  -0.734  12.971  1.00  0.00     0.051 A 
ATOM      6  C   UNL     1      11.708  -0.135  13.828  1.00  0.00     0.157 A 
ENDROOT
BRANCH   1   7
ATOM      7  C   UNL     1      12.559  -4.335  14.139  1.00  0.00     0.072 C 
ATOM      8  O   UNL     1      12.124  -5.010  15.109  1.00  0.00    -0.545 OA
ATOM      9  O   UNL     1      13.323  -4.969  13.166  1.00  0.00    -0.545 OA
ENDBRANCH   1   7
BRANCH   4  10
ATOM     10  O   UNL     1      10.124  -0.322  15.652  1.00  0.00    -0.504 OA
ATOM     11  H   UNL     1      10.308  -0.216  16.644  1.00  0.00     0.293 HD
ENDBRANCH   4  10
BRANCH   6  12
ATOM     12  O   UNL     1      11.452   1.230  13.703  1.00  0.00    -0.504 OA
ATOM     13  H   UNL     1      10.959   1.614  12.905  1.00  0.00     0.293 HD
ENDBRANCH   6  12
TORSDOF 3
ENDMDL
MODEL 5
REMARK VINA RESULT:    -4.702      1.207      1.357
REMARK INTER + INTRA:          -5.290
REMARK INTER:                  -5.247
REMARK INTRA:                  -0.043
REMARK UNBOUND:                -0.038
REMARK SMILES O=C([O-])c1ccc(O)c(O)c1
REMARK SMILES IDX 4 1 11 2 5 3 9 4 6 5 7 6 2 7 1 8 3 9 10 10 8 12
REMARK H PARENT 10 11 8 13
REMARK Flexibility Score: inf
ROOT
ATOM      1  C   UNL     1      11.456  -0.199  14.760  1.00  0.00     0.001 A 
ATOM      2  C   UNL     1      11.794  -0.440  13.416  1.00  0.00     0.060 A 
ATOM      3  C   UNL     1      11.413  -1.280  15.656  1.00  0.00     0.014 A 
ATOM      4  C   UNL     1      12.083  -1.740  12.974  1.00  0.00     0.158 A 
ATOM      5  C   UNL     1      11.701  -2.575  15.218  1.00  0.00     0.051 A 
ATOM      6  C   UNL     1      12.035  -2.812  13.881  1.00  0.00     0.157 A 
ENDROOT
BRANCH   1   7
ATOM      7  C   UNL     1      11.151   1.171  15.227  1.00  0.00     0.072 C 
ATOM      8  O   UNL     1      10.741   2.048  14.420  1.00  0.00    -0.545 OA
ATOM      9  O   UNL     1      11.312   1.511  16.566  1.00  0.00    -0.545 OA
ENDBRANCH   1   7
BRANCH   4  10
ATOM     10  O   UNL     1      12.416  -1.969  11.641  1.00  0.00    -0.504 OA
ATOM     11  H   UNL     1      13.192  -1.491  11.196  1.00  0.00     0.293 HD
ENDBRANCH   4  10
BRANCH   6  12
ATOM     12  O   UNL     1      12.317  -4.115  13.473  1.00  0.00    -0.504 OA
ATOM     13  H   UNL     1      13.266  -4.459  13.389  1.00  0.00     0.293 HD
ENDBRANCH   6  12
TORSDOF 3
ENDMDL
MODEL 6
REMARK VINA RESULT:    -4.697      1.750      4.643
REMARK INTER + INTRA:          -5.284
REMARK INTER:                  -5.244
REMARK INTRA:                  -0.041
REMARK UNBOUND:                -0.038
REMARK SMILES O=C([O-])c1ccc(O)c(O)c1
REMARK SMILES IDX 4 1 11 2 5 3 9 4 6 5 7 6 2 7 1 8 3 9 10 10 8 12
REMARK H PARENT 10 11 8 13
REMARK Flexibility Score: inf
ROOT
ATOM      1  C   UNL     1      11.870   1.123  14.715  1.00  0.00     0.001 A 
ATOM      2  C   UNL     1      11.773   2.059  13.668  1.00  0.00     0.060 A 
ATOM      3  C   UNL     1      12.431   1.526  15.938  1.00  0.00     0.014 A 
ATOM      4  C   UNL     1      12.230   3.374  13.840  1.00  0.00     0.158 A 
ATOM      5  C   UNL     1      12.887   2.836  16.111  1.00  0.00     0.051 A 
ATOM      6  C   UNL     1      12.790   3.763  15.068  1.00  0.00     0.157 A 
ENDROOT
BRANCH   1   7
ATOM      7  C   UNL     1      11.389  -0.263  14.534  1.00  0.00     0.072 C 
ATOM      8  O   UNL     1      11.578  -0.873  13.448  1.00  0.00    -0.545 OA
ATOM      9  O   UNL     1      10.719  -0.916  15.563  1.00  0.00    -0.545 OA
ENDBRANCH   1   7
BRANCH   4  10
ATOM     10  O   UNL     1      12.130   4.292  12.797  1.00  0.00    -0.504 OA
ATOM     11  H   UNL     1      12.617   5.181  12.822  1.00  0.00     0.293 HD
ENDBRANCH   4  10
BRANCH   6  12
ATOM     12  O   UNL     1      13.254   5.062  15.271  1.00  0.00    -0.504 OA
ATOM     13  H   UNL     1      14.075   5.420  14.799  1.00  0.00     0.293 HD
ENDBRANCH   6  12
TORSDOF 3
ENDMDL
MODEL 7
REMARK VINA RESULT:    -4.693      1.762      2.432
REMARK INTER + INTRA:          -5.280
REMARK INTER:                  -5.236
REMARK INTRA:                  -0.044
REMARK UNBOUND:                -0.038
REMARK SMILES O=C([O-])c1ccc(O)c(O)c1
REMARK SMILES IDX 4 1 11 2 5 3 9 4 6 5 7 6 2 7 1 8 3 9 10 10 8 12
REMARK H PARENT 10 11 8 13
REMARK Flexibility Score: inf
ROOT
ATOM      1  C   UNL     1      12.226   1.859  13.803  1.00  0.00     0.001 A 
ATOM      2  C   UNL     1      11.157   1.327  14.548  1.00  0.00     0.060 A 
ATOM      3  C   UNL     1      13.317   1.032  13.490  1.00  0.00     0.014 A 
ATOM      4  C   UNL     1      11.180  -0.009  14.975  1.00  0.00     0.158 A 
ATOM      5  C   UNL     1      13.341  -0.299  13.915  1.00  0.00     0.051 A 
ATOM      6  C   UNL     1      12.278  -0.825  14.656  1.00  0.00     0.157 A 
ENDROOT
BRANCH   1   7
ATOM      7  C   UNL     1      12.203   3.268  13.352  1.00  0.00     0.072 C 
ATOM      8  O   UNL     1      11.152   3.956  13.450  1.00  0.00    -0.545 OA
ATOM      9  O   UNL     1      13.344   3.854  12.814  1.00  0.00    -0.545 OA
ENDBRANCH   1   7
BRANCH   4  10
ATOM     10  O   UNL     1      10.118  -0.527  15.713  1.00  0.00    -0.504 OA
ATOM     11  H   UNL     1       9.174  -0.172  15.607  1.00  0.00     0.293 HD
ENDBRANCH   4  10
BRANCH   6  12
ATOM     12  O   UNL     1      12.331  -2.157  15.066  1.00  0.00    -0.504 OA
ATOM     13  H   UNL     1      11.533  -2.776  14.988  1.00  0.00     0.293 HD
ENDBRANCH   6  12
TORSDOF 3
ENDMDL
MODEL 8
REMARK VINA RESULT:    -4.660      1.898      2.467
REMARK INTER + INTRA:          -5.243
REMARK INTER:                  -5.199
REMARK INTRA:                  -0.044
REMARK UNBOUND:                -0.038
REMARK SMILES O=C([O-])c1ccc(O)c(O)c1
REMARK SMILES IDX 4 1 11 2 5 3 9 4 6 5 7 6 2 7 1 8 3 9 10 10 8 12
REMARK H PARENT 10 11 8 13
REMARK Flexibility Score: inf
ROOT
ATOM      1  C   UNL     1      12.814   2.555  14.578  1.00  0.00     0.001 A 
ATOM      2  C   UNL     1      12.563   1.624  13.553  1.00  0.00     0.060 A 
ATOM      3  C   UNL     1      12.225   2.356  15.838  1.00  0.00     0.014 A 
ATOM      4  C   UNL     1      11.737   0.514  13.783  1.00  0.00     0.158 A 
ATOM      5  C   UNL     1      11.402   1.251  16.068  1.00  0.00     0.051 A 
ATOM      6  C   UNL     1      11.154   0.328  15.047  1.00  0.00     0.157 A 
ENDROOT
BRANCH   1   7
ATOM      7  C   UNL     1      13.685   3.726  14.338  1.00  0.00     0.072 C 
ATOM      8  O   UNL     1      14.066   4.451  15.296  1.00  0.00    -0.545 OA
ATOM      9  O   UNL     1      14.097   4.044  13.048  1.00  0.00    -0.545 OA
ENDBRANCH   1   7
BRANCH   4  10
ATOM     10  O   UNL     1      11.495  -0.402  12.762  1.00  0.00    -0.504 OA
ATOM     11  H   UNL     1      12.250  -0.896  12.299  1.00  0.00     0.293 HD
ENDBRANCH   4  10
BRANCH   6  12
ATOM     12  O   UNL     1      10.328  -0.765  15.308  1.00  0.00    -0.504 OA
ATOM     13  H   UNL     1       9.326  -0.728  15.165  1.00  0.00     0.293 HD
ENDBRANCH   6  12
TORSDOF 3
ENDMDL
MODEL 9
REMARK VINA RESULT:    -4.657      1.255      4.251
REMARK INTER + INTRA:          -5.240
REMARK INTER:                  -5.201
REMARK INTRA:                  -0.039
REMARK UNBOUND:                -0.038
REMARK SMILES O=C([O-])c1ccc(O)c(O)c1
REMARK SMILES IDX 4 1 11 2 5 3 9 4 6 5 7 6 2 7 1 8 3 9 10 10 8 12
REMARK H PARENT 10 11 8 13
REMARK Flexibility Score: inf
ROOT
ATOM      1  C   UNL     1      11.588  -0.684  14.233  1.00  0.00     0.001 A 
ATOM      2  C   UNL     1      12.544   0.034  13.492  1.00  0.00     0.060 A 
ATOM      3  C   UNL     1      10.951  -0.054  15.316  1.00  0.00     0.014 A 
ATOM      4  C   UNL     1      12.862   1.359  13.829  1.00  0.00     0.158 A 
ATOM      5  C   UNL     1      11.266   1.265  15.652  1.00  0.00     0.051 A 
ATOM      6  C   UNL     1      12.219   1.976  14.915  1.00  0.00     0.157 A 
ENDROOT
BRANCH   1   7
ATOM      7  C   UNL     1      11.252  -2.080  13.879  1.00  0.00     0.072 C 
ATOM      8  O   UNL     1      11.220  -2.977  14.764  1.00  0.00    -0.545 OA
ATOM      9  O   UNL     1      10.966  -2.423  12.562  1.00  0.00    -0.545 OA
ENDBRANCH   1   7
BRANCH   4  10
ATOM     10  O   UNL     1      13.811   2.061  13.090  1.00  0.00    -0.504 OA
ATOM     11  H   UNL     1      13.831   2.024  12.077  1.00  0.00     0.293 HD
ENDBRANCH   4  10
BRANCH   6  12
ATOM     12  O   UNL     1      12.512   3.291  15.275  1.00  0.00    -0.504 OA
ATOM     13  H   UNL     1      12.050   3.752  16.050  1.00  0.00     0.293 HD
ENDBRANCH   6  12
TORSDOF 3
ENDMDL
