MODEL 1
REMARK VINA RESULT:    -4.866      0.000      0.000
REMARK INTER + INTRA:          -6.234
REMARK INTER:                  -6.003
REMARK INTRA:                  -0.231
REMARK UNBOUND:                -0.231
REMARK SMILES CCCCC=CC(C)=O
REMARK SMILES IDX 4 1 3 2 2 3 1 4 5 5 6 6 7 7 9 8 8 9
REMARK H PARENT
REMARK Flexibility Score: inf
ROOT
ATOM      1  C   UNL     1     -33.312 -23.153  22.559  1.00  0.00     0.027 C 
ENDROOT
BRANCH   1   2
ATOM      2  C   UNL     1     -33.908 -24.367  21.829  1.00  0.00     0.004 C 
BRANCH   2   3
ATOM      3  C   UNL     1     -33.191 -25.678  22.187  1.00  0.00    -0.003 C 
ATOM      4  C   UNL     1     -31.669 -25.530  22.211  1.00  0.00     0.004 C 
ENDBRANCH   2   3
ENDBRANCH   1   2
BRANCH   1   5
ATOM      5  C   UNL     1     -33.080 -22.012  21.609  1.00  0.00    -0.023 C 
ATOM      6  C   UNL     1     -31.902 -21.378  21.557  1.00  0.00     0.042 C 
BRANCH   6   7
ATOM      7  C   UNL     1     -31.623 -20.260  20.633  1.00  0.00     0.152 C 
ATOM      8  O   UNL     1     -30.450 -19.804  20.574  1.00  0.00    -0.295 OA
ATOM      9  C   UNL     1     -32.683 -19.649  19.765  1.00  0.00     0.093 C 
ENDBRANCH   6   7
ENDBRANCH   1   5
TORSDOF 4
ENDMDL
MODEL 2
REMARK VINA RESULT:    -4.849      2.759      4.931
REMARK INTER + INTRA:          -6.213
REMARK INTER:                  -5.932
REMARK INTRA:                  -0.281
REMARK UNBOUND:                -0.231
REMARK SMILES CCCCC=CC(C)=O
REMARK SMILES IDX 4 1 3 2 2 3 1 4 5 5 6 6 7 7 9 8 8 9
REMARK H PARENT
REMARK Flexibility Score: inf
ROOT
ATOM      1  C   UNL     1     -33.363 -23.767  22.241  1.00  0.00     0.027 C 
ENDROOT
BRANCH   1   2
ATOM      2  C   UNL     1     -32.812 -22.568  23.027  1.00  0.00     0.004 C 
BRANCH   2   3
ATOM      3  C   UNL     1     -32.854 -21.264  22.217  1.00  0.00    -0.003 C 
ATOM      4  C   UNL     1     -31.735 -21.179  21.177  1.00  0.00     0.004 C 
ENDBRANCH   2   3
ENDBRANCH   1   2
BRANCH   1   5
ATOM      5  C   UNL     1     -32.360 -24.885  22.187  1.00  0.00    -0.023 C 
ATOM      6  C   UNL     1     -31.091 -24.701  22.569  1.00  0.00     0.042 C 
BRANCH   6   7
ATOM      7  C   UNL     1     -30.073 -25.771  22.545  1.00  0.00     0.152 C 
ATOM      8  O   UNL     1     -30.349 -26.854  21.961  1.00  0.00    -0.295 OA
ATOM      9  C   UNL     1     -28.728 -25.618  23.189  1.00  0.00     0.093 C 
ENDBRANCH   6   7
ENDBRANCH   1   5
TORSDOF 4
ENDMDL
MODEL 3
REMARK VINA RESULT:    -4.669      2.630      5.010
REMARK INTER + INTRA:          -5.991
REMARK INTER:                  -5.783
REMARK INTRA:                  -0.208
REMARK UNBOUND:                -0.231
REMARK SMILES CCCCC=CC(C)=O
REMARK SMILES IDX 4 1 3 2 2 3 1 4 5 5 6 6 7 7 9 8 8 9
REMARK H PARENT
REMARK Flexibility Score: inf
ROOT
ATOM      1  C   UNL     1     -32.996 -21.955  22.531  1.00  0.00     0.027 C 
ENDROOT
BRANCH   1   2
ATOM      2  C   UNL     1     -32.807 -21.446  21.094  1.00  0.00     0.004 C 
BRANCH   2   3
ATOM      3  C   UNL     1     -32.325 -19.988  21.044  1.00  0.00    -0.003 C 
ATOM      4  C   UNL     1     -32.014 -19.422  22.431  1.00  0.00     0.004 C 
ENDBRANCH   2   3
ENDBRANCH   1   2
BRANCH   1   5
ATOM      5  C   UNL     1     -32.669 -23.418  22.634  1.00  0.00    -0.023 C 
ATOM      6  C   UNL     1     -31.408 -23.858  22.548  1.00  0.00     0.042 C 
BRANCH   6   7
ATOM      7  C   UNL     1     -31.037 -25.283  22.656  1.00  0.00     0.152 C 
ATOM      8  O   UNL     1     -31.952 -26.134  22.823  1.00  0.00    -0.295 OA
ATOM      9  C   UNL     1     -29.616 -25.753  22.575  1.00  0.00     0.093 C 
ENDBRANCH   6   7
ENDBRANCH   1   5
TORSDOF 4
ENDMDL
MODEL 4
REMARK VINA RESULT:    -4.601      8.272     10.888
REMARK INTER + INTRA:          -5.907
REMARK INTER:                  -5.743
REMARK INTRA:                  -0.164
REMARK UNBOUND:                -0.231
REMARK SMILES CCCCC=CC(C)=O
REMARK SMILES IDX 4 1 3 2 2 3 1 4 5 5 6 6 7 7 9 8 8 9
REMARK H PARENT
REMARK Flexibility Score: inf
ROOT
ATOM      1  C   UNL     1     -26.533 -27.886  24.483  1.00  0.00     0.027 C 
ENDROOT
BRANCH   1   2
ATOM      2  C   UNL     1     -25.810 -26.531  24.432  1.00  0.00     0.004 C 
BRANCH   2   3
ATOM      3  C   UNL     1     -26.747 -25.380  24.035  1.00  0.00    -0.003 C 
ATOM      4  C   UNL     1     -28.070 -25.872  23.446  1.00  0.00     0.004 C 
ENDBRANCH   2   3
ENDBRANCH   1   2
BRANCH   1   5
ATOM      5  C   UNL     1     -25.828 -28.840  25.405  1.00  0.00    -0.023 C 
ATOM      6  C   UNL     1     -26.487 -29.485  26.376  1.00  0.00     0.042 C 
BRANCH   6   7
ATOM      7  C   UNL     1     -25.841 -30.440  27.299  1.00  0.00     0.152 C 
ATOM      8  O   UNL     1     -26.156 -30.408  28.519  1.00  0.00    -0.295 OA
ATOM      9  C   UNL     1     -24.826 -31.443  26.838  1.00  0.00     0.093 C 
ENDBRANCH   6   7
ENDBRANCH   1   5
TORSDOF 4
ENDMDL
MODEL 5
REMARK VINA RESULT:    -4.532      8.306     10.314
REMARK INTER + INTRA:          -5.823
REMARK INTER:                  -5.668
REMARK INTRA:                  -0.155
REMARK UNBOUND:                -0.231
REMARK SMILES CCCCC=CC(C)=O
REMARK SMILES IDX 4 1 3 2 2 3 1 4 5 5 6 6 7 7 9 8 8 9
REMARK H PARENT
REMARK Flexibility Score: inf
ROOT
ATOM      1  C   UNL     1     -26.240 -30.237  26.185  1.00  0.00     0.027 C 
ENDROOT
BRANCH   1   2
ATOM      2  C   UNL     1     -24.963 -31.015  26.537  1.00  0.00     0.004 C 
BRANCH   2   3
ATOM      3  C   UNL     1     -25.063 -31.728  27.894  1.00  0.00    -0.003 C 
ATOM      4  C   UNL     1     -25.804 -30.897  28.943  1.00  0.00     0.004 C 
ENDBRANCH   2   3
ENDBRANCH   1   2
BRANCH   1   5
ATOM      5  C   UNL     1     -25.916 -28.833  25.757  1.00  0.00    -0.023 C 
ATOM      6  C   UNL     1     -26.646 -28.203  24.828  1.00  0.00     0.042 C 
BRANCH   6   7
ATOM      7  C   UNL     1     -26.375 -26.822  24.383  1.00  0.00     0.152 C 
ATOM      8  O   UNL     1     -25.207 -26.364  24.511  1.00  0.00    -0.295 OA
ATOM      9  C   UNL     1     -27.435 -25.945  23.787  1.00  0.00     0.093 C 
ENDBRANCH   6   7
ENDBRANCH   1   5
TORSDOF 4
ENDMDL
MODEL 6
REMARK VINA RESULT:    -4.484      1.084      1.406
REMARK INTER + INTRA:          -5.763
REMARK INTER:                  -5.561
REMARK INTRA:                  -0.202
REMARK UNBOUND:                -0.231
REMARK SMILES CCCCC=CC(C)=O
REMARK SMILES IDX 4 1 3 2 2 3 1 4 5 5 6 6 7 7 9 8 8 9
REMARK H PARENT
REMARK Flexibility Score: inf
ROOT
ATOM      1  C   UNL     1     -31.995 -22.840  22.455  1.00  0.00     0.027 C 
ENDROOT
BRANCH   1   2
ATOM      2  C   UNL     1     -33.478 -23.200  22.631  1.00  0.00     0.004 C 
BRANCH   2   3
ATOM      3  C   UNL     1     -33.895 -24.410  21.781  1.00  0.00    -0.003 C 
ATOM      4  C   UNL     1     -33.063 -25.657  22.082  1.00  0.00     0.004 C 
ENDBRANCH   2   3
ENDBRANCH   1   2
BRANCH   1   5
ATOM      5  C   UNL     1     -31.827 -21.684  21.511  1.00  0.00    -0.023 C 
ATOM      6  C   UNL     1     -32.531 -20.555  21.661  1.00  0.00     0.042 C 
BRANCH   6   7
ATOM      7  C   UNL     1     -32.391 -19.388  20.766  1.00  0.00     0.152 C 
ATOM      8  O   UNL     1     -31.995 -18.296  21.255  1.00  0.00    -0.295 OA
ATOM      9  C   UNL     1     -32.705 -19.454  19.301  1.00  0.00     0.093 C 
ENDBRANCH   6   7
ENDBRANCH   1   5
TORSDOF 4
ENDMDL
MODEL 7
REMARK VINA RESULT:    -4.479      1.678      2.647
REMARK INTER + INTRA:          -5.757
REMARK INTER:                  -5.531
REMARK INTRA:                  -0.226
REMARK UNBOUND:                -0.231
REMARK SMILES CCCCC=CC(C)=O
REMARK SMILES IDX 4 1 3 2 2 3 1 4 5 5 6 6 7 7 9 8 8 9
REMARK H PARENT
REMARK Flexibility Score: inf
ROOT
ATOM      1  C   UNL     1     -33.248 -25.708  22.229  1.00  0.00     0.027 C 
ENDROOT
BRANCH   1   2
ATOM      2  C   UNL     1     -31.937 -25.971  22.985  1.00  0.00     0.004 C 
BRANCH   2   3
ATOM      3  C   UNL     1     -30.758 -26.247  22.039  1.00  0.00    -0.003 C 
ATOM      4  C   UNL     1     -29.414 -25.820  22.632  1.00  0.00     0.004 C 
ENDBRANCH   2   3
ENDBRANCH   1   2
BRANCH   1   5
ATOM      5  C   UNL     1     -33.377 -24.258  21.858  1.00  0.00    -0.023 C 
ATOM      6  C   UNL     1     -32.816 -23.296  22.602  1.00  0.00     0.042 C 
BRANCH   6   7
ATOM      7  C   UNL     1     -32.905 -21.860  22.272  1.00  0.00     0.152 C 
ATOM      8  O   UNL     1     -33.042 -21.031  23.212  1.00  0.00    -0.295 OA
ATOM      9  C   UNL     1     -32.841 -21.352  20.862  1.00  0.00     0.093 C 
ENDBRANCH   6   7
ENDBRANCH   1   5
TORSDOF 4
ENDMDL
MODEL 8
REMARK VINA RESULT:    -4.285      2.054      2.446
REMARK INTER + INTRA:          -5.517
REMARK INTER:                  -5.427
REMARK INTRA:                  -0.090
REMARK UNBOUND:                -0.231
REMARK SMILES CCCCC=CC(C)=O
REMARK SMILES IDX 4 1 3 2 2 3 1 4 5 5 6 6 7 7 9 8 8 9
REMARK H PARENT
REMARK Flexibility Score: inf
ROOT
ATOM      1  C   UNL     1     -32.819 -22.104  21.690  1.00  0.00     0.027 C 
ENDROOT
BRANCH   1   2
ATOM      2  C   UNL     1     -33.325 -23.226  22.610  1.00  0.00     0.004 C 
BRANCH   2   3
ATOM      3  C   UNL     1     -33.775 -24.469  21.829  1.00  0.00    -0.003 C 
ATOM      4  C   UNL     1     -33.001 -25.727  22.226  1.00  0.00     0.004 C 
ENDBRANCH   2   3
ENDBRANCH   1   2
BRANCH   1   5
ATOM      5  C   UNL     1     -32.667 -20.813  22.445  1.00  0.00    -0.023 C 
ATOM      6  C   UNL     1     -32.075 -19.749  21.890  1.00  0.00     0.042 C 
BRANCH   6   7
ATOM      7  C   UNL     1     -31.913 -18.457  22.587  1.00  0.00     0.152 C 
ATOM      8  O   UNL     1     -32.695 -17.512  22.297  1.00  0.00    -0.295 OA
ATOM      9  C   UNL     1     -30.854 -18.228  23.624  1.00  0.00     0.093 C 
ENDBRANCH   6   7
ENDBRANCH   1   5
TORSDOF 4
ENDMDL
MODEL 9
REMARK VINA RESULT:    -4.099      1.931      2.279
REMARK INTER + INTRA:          -5.288
REMARK INTER:                  -5.201
REMARK INTRA:                  -0.087
REMARK UNBOUND:                -0.231
REMARK SMILES CCCCC=CC(C)=O
REMARK SMILES IDX 4 1 3 2 2 3 1 4 5 5 6 6 7 7 9 8 8 9
REMARK H PARENT
REMARK Flexibility Score: inf
ROOT
ATOM      1  C   UNL     1     -32.504 -22.031  21.591  1.00  0.00     0.027 C 
ENDROOT
BRANCH   1   2
ATOM      2  C   UNL     1     -32.743 -23.164  22.601  1.00  0.00     0.004 C 
BRANCH   2   3
ATOM      3  C   UNL     1     -33.808 -24.163  22.123  1.00  0.00    -0.003 C 
ATOM      4  C   UNL     1     -33.272 -25.591  22.016  1.00  0.00     0.004 C 
ENDBRANCH   2   3
ENDBRANCH   1   2
BRANCH   1   5
ATOM      5  C   UNL     1     -32.605 -20.686  22.254  1.00  0.00    -0.023 C 
ATOM      6  C   UNL     1     -32.158 -19.578  21.651  1.00  0.00     0.042 C 
BRANCH   6   7
ATOM      7  C   UNL     1     -32.246 -18.234  22.256  1.00  0.00     0.152 C 
ATOM      8  O   UNL     1     -31.675 -18.030  23.360  1.00  0.00    -0.295 OA
ATOM      9  C   UNL     1     -32.990 -17.105  21.605  1.00  0.00     0.093 C 
ENDBRANCH   6   7
ENDBRANCH   1   5
TORSDOF 4
ENDMDL
