MODEL 1
REMARK VINA RESULT:    -5.513      0.000      0.000
REMARK INTER + INTRA:          -6.188
REMARK INTER:                  -5.997
REMARK INTRA:                  -0.191
REMARK UNBOUND:                -0.191
REMARK SMILES C=C(C)[C@H]1CC[C@H](C)C[C@H]1O
REMARK SMILES IDX 8 1 7 2 6 3 5 4 4 5 10 6 9 7 11 8 2 10 1 11 3 12
REMARK H PARENT 11 9
REMARK Flexibility Score: inf
ROOT
ATOM      1  C   UNL     1      15.077  14.749  29.935  1.00  0.00     0.008 C 
ATOM      2  C   UNL     1      14.384  15.175  28.637  1.00  0.00    -0.012 C 
ATOM      3  C   UNL     1      13.511  16.423  28.877  1.00  0.00     0.004 C 
ATOM      4  C   UNL     1      12.831  16.879  27.579  1.00  0.00     0.011 C 
ATOM      5  C   UNL     1      13.879  17.149  26.478  1.00  0.00     0.043 C 
ATOM      6  C   UNL     1      14.760  15.902  26.221  1.00  0.00     0.121 C 
ATOM      7  C   UNL     1      15.425  15.441  27.530  1.00  0.00     0.035 C 
ENDROOT
BRANCH   6   8
ATOM      8  O   UNL     1      14.000  14.842  25.695  1.00  0.00    -0.392 OA
ATOM      9  H   UNL     1      14.109  14.068  26.308  1.00  0.00     0.210 HD
ENDBRANCH   6   8
BRANCH   5  10
ATOM     10  C   UNL     1      13.248  17.688  25.198  1.00  0.00    -0.075 C 
ATOM     11  C   UNL     1      13.995  18.123  24.169  1.00  0.00     0.008 C 
ATOM     12  C   UNL     1      11.747  17.735  25.061  1.00  0.00     0.039 C 
ENDBRANCH   5  10
TORSDOF 2
ENDMDL
MODEL 2
REMARK VINA RESULT:    -5.506      0.059      1.045
REMARK INTER + INTRA:          -6.180
REMARK INTER:                  -5.987
REMARK INTRA:                  -0.193
REMARK UNBOUND:                -0.191
REMARK SMILES C=C(C)[C@H]1CC[C@H](C)C[C@H]1O
REMARK SMILES IDX 8 1 7 2 6 3 5 4 4 5 10 6 9 7 11 8 2 10 1 11 3 12
REMARK H PARENT 11 9
REMARK Flexibility Score: inf
ROOT
ATOM      1  C   UNL     1      15.119  14.749  29.927  1.00  0.00     0.008 C 
ATOM      2  C   UNL     1      14.405  15.166  28.636  1.00  0.00    -0.012 C 
ATOM      3  C   UNL     1      13.510  16.395  28.889  1.00  0.00     0.004 C 
ATOM      4  C   UNL     1      12.809  16.842  27.599  1.00  0.00     0.011 C 
ATOM      5  C   UNL     1      13.841  17.137  26.490  1.00  0.00     0.043 C 
ATOM      6  C   UNL     1      14.744  15.909  26.220  1.00  0.00     0.121 C 
ATOM      7  C   UNL     1      15.431  15.457  27.521  1.00  0.00     0.035 C 
ENDROOT
BRANCH   6   8
ATOM      8  O   UNL     1      14.001  14.836  25.697  1.00  0.00    -0.392 OA
ATOM      9  H   UNL     1      13.562  14.380  26.463  1.00  0.00     0.210 HD
ENDBRANCH   6   8
BRANCH   5  10
ATOM     10  C   UNL     1      13.187  17.668  25.218  1.00  0.00    -0.075 C 
ATOM     11  C   UNL     1      11.852  17.750  25.089  1.00  0.00     0.008 C 
ATOM     12  C   UNL     1      14.045  18.125  24.065  1.00  0.00     0.039 C 
ENDBRANCH   5  10
TORSDOF 2
ENDMDL
MODEL 3
REMARK VINA RESULT:    -5.384      1.674      4.387
REMARK INTER + INTRA:          -6.047
REMARK INTER:                  -5.988
REMARK INTRA:                  -0.059
REMARK UNBOUND:                -0.191
REMARK SMILES C=C(C)[C@H]1CC[C@H](C)C[C@H]1O
REMARK SMILES IDX 8 1 7 2 6 3 5 4 4 5 10 6 9 7 11 8 2 10 1 11 3 12
REMARK H PARENT 11 9
REMARK Flexibility Score: inf
ROOT
ATOM      1  C   UNL     1      12.130  17.553  23.163  1.00  0.00     0.008 C 
ATOM      2  C   UNL     1      12.400  17.228  24.636  1.00  0.00    -0.012 C 
ATOM      3  C   UNL     1      12.267  15.712  24.886  1.00  0.00     0.004 C 
ATOM      4  C   UNL     1      12.562  15.366  26.352  1.00  0.00     0.011 C 
ATOM      5  C   UNL     1      13.964  15.866  26.760  1.00  0.00     0.043 C 
ATOM      6  C   UNL     1      14.111  17.389  26.521  1.00  0.00     0.121 C 
ATOM      7  C   UNL     1      13.798  17.729  25.053  1.00  0.00     0.035 C 
ENDROOT
BRANCH   6   8
ATOM      8  O   UNL     1      13.249  18.121  27.356  1.00  0.00    -0.392 OA
ATOM      9  H   UNL     1      13.144  17.605  28.198  1.00  0.00     0.210 HD
ENDBRANCH   6   8
BRANCH   5  10
ATOM     10  C   UNL     1      14.329  15.465  28.186  1.00  0.00    -0.075 C 
ATOM     11  C   UNL     1      15.575  15.087  28.518  1.00  0.00     0.008 C 
ATOM     12  C   UNL     1      13.279  15.492  29.268  1.00  0.00     0.039 C 
ENDBRANCH   5  10
TORSDOF 2
ENDMDL
MODEL 4
REMARK VINA RESULT:    -5.373      1.296      4.623
REMARK INTER + INTRA:          -6.036
REMARK INTER:                  -5.848
REMARK INTRA:                  -0.187
REMARK UNBOUND:                -0.191
REMARK SMILES C=C(C)[C@H]1CC[C@H](C)C[C@H]1O
REMARK SMILES IDX 8 1 7 2 6 3 5 4 4 5 10 6 9 7 11 8 2 10 1 11 3 12
REMARK H PARENT 11 9
REMARK Flexibility Score: inf
ROOT
ATOM      1  C   UNL     1      12.206  18.068  22.349  1.00  0.00     0.008 C 
ATOM      2  C   UNL     1      12.767  17.303  23.552  1.00  0.00    -0.012 C 
ATOM      3  C   UNL     1      14.061  17.970  24.060  1.00  0.00     0.004 C 
ATOM      4  C   UNL     1      14.619  17.231  25.283  1.00  0.00     0.011 C 
ATOM      5  C   UNL     1      13.565  17.158  26.408  1.00  0.00     0.043 C 
ATOM      6  C   UNL     1      12.261  16.485  25.914  1.00  0.00     0.121 C 
ATOM      7  C   UNL     1      11.716  17.222  24.678  1.00  0.00     0.035 C 
ENDROOT
BRANCH   6   8
ATOM      8  O   UNL     1      12.478  15.135  25.585  1.00  0.00    -0.392 OA
ATOM      9  H   UNL     1      12.836  14.687  26.396  1.00  0.00     0.210 HD
ENDBRANCH   6   8
BRANCH   5  10
ATOM     10  C   UNL     1      14.112  16.507  27.673  1.00  0.00    -0.075 C 
ATOM     11  C   UNL     1      13.511  16.659  28.866  1.00  0.00     0.008 C 
ATOM     12  C   UNL     1      15.357  15.658  27.605  1.00  0.00     0.039 C 
ENDBRANCH   5  10
TORSDOF 2
ENDMDL
MODEL 5
REMARK VINA RESULT:    -5.174      1.360      2.204
REMARK INTER + INTRA:          -5.819
REMARK INTER:                  -5.631
REMARK INTRA:                  -0.188
REMARK UNBOUND:                -0.191
REMARK SMILES C=C(C)[C@H]1CC[C@H](C)C[C@H]1O
REMARK SMILES IDX 8 1 7 2 6 3 5 4 4 5 10 6 9 7 11 8 2 10 1 11 3 12
REMARK H PARENT 11 9
REMARK Flexibility Score: inf
ROOT
ATOM      1  C   UNL     1      14.784  14.733  29.969  1.00  0.00     0.008 C 
ATOM      2  C   UNL     1      14.405  15.675  28.822  1.00  0.00    -0.012 C 
ATOM      3  C   UNL     1      15.372  15.495  27.635  1.00  0.00     0.004 C 
ATOM      4  C   UNL     1      14.988  16.412  26.466  1.00  0.00     0.011 C 
ATOM      5  C   UNL     1      13.530  16.157  26.027  1.00  0.00     0.043 C 
ATOM      6  C   UNL     1      12.546  16.340  27.208  1.00  0.00     0.121 C 
ATOM      7  C   UNL     1      12.947  15.429  28.381  1.00  0.00     0.035 C 
ENDROOT
BRANCH   6   8
ATOM      8  O   UNL     1      12.524  17.675  27.649  1.00  0.00    -0.392 OA
ATOM      9  H   UNL     1      11.578  17.978  27.627  1.00  0.00     0.210 HD
ENDBRANCH   6   8
BRANCH   5  10
ATOM     10  C   UNL     1      13.139  16.989  24.810  1.00  0.00    -0.075 C 
ATOM     11  C   UNL     1      11.935  16.867  24.225  1.00  0.00     0.008 C 
ATOM     12  C   UNL     1      14.113  17.987  24.236  1.00  0.00     0.039 C 
ENDBRANCH   5  10
TORSDOF 2
ENDMDL
MODEL 6
REMARK VINA RESULT:    -4.860      1.203      4.287
REMARK INTER + INTRA:          -5.477
REMARK INTER:                  -5.701
REMARK INTRA:                   0.224
REMARK UNBOUND:                -0.191
REMARK SMILES C=C(C)[C@H]1CC[C@H](C)C[C@H]1O
REMARK SMILES IDX 8 1 7 2 6 3 5 4 4 5 10 6 9 7 11 8 2 10 1 11 3 12
REMARK H PARENT 11 9
REMARK Flexibility Score: inf
ROOT
ATOM      1  C   UNL     1      11.789  17.595  23.436  1.00  0.00     0.008 C 
ATOM      2  C   UNL     1      12.629  17.327  24.689  1.00  0.00    -0.012 C 
ATOM      3  C   UNL     1      11.859  17.751  25.955  1.00  0.00     0.004 C 
ATOM      4  C   UNL     1      12.677  17.462  27.221  1.00  0.00     0.011 C 
ATOM      5  C   UNL     1      13.067  15.971  27.292  1.00  0.00     0.043 C 
ATOM      6  C   UNL     1      13.847  15.531  26.029  1.00  0.00     0.121 C 
ATOM      7  C   UNL     1      13.027  15.838  24.764  1.00  0.00     0.035 C 
ENDROOT
BRANCH   6   8
ATOM      8  O   UNL     1      15.087  16.188  25.943  1.00  0.00    -0.392 OA
ATOM      9  H   UNL     1      15.160  16.786  26.733  1.00  0.00     0.210 HD
ENDBRANCH   6   8
BRANCH   5  10
ATOM     10  C   UNL     1      13.807  15.627  28.581  1.00  0.00    -0.075 C 
ATOM     11  C   UNL     1      13.377  16.056  29.781  1.00  0.00     0.008 C 
ATOM     12  C   UNL     1      15.052  14.778  28.531  1.00  0.00     0.039 C 
ENDBRANCH   5  10
TORSDOF 2
ENDMDL
MODEL 7
REMARK VINA RESULT:    -3.827      1.524      4.340
REMARK INTER + INTRA:          -4.353
REMARK INTER:                  -4.853
REMARK INTRA:                   0.500
REMARK UNBOUND:                -0.191
REMARK SMILES C=C(C)[C@H]1CC[C@H](C)C[C@H]1O
REMARK SMILES IDX 8 1 7 2 6 3 5 4 4 5 10 6 9 7 11 8 2 10 1 11 3 12
REMARK H PARENT 11 9
REMARK Flexibility Score: inf
ROOT
ATOM      1  C   UNL     1      11.123  17.726  25.313  1.00  0.00     0.008 C 
ATOM      2  C   UNL     1      11.999  16.815  26.181  1.00  0.00    -0.012 C 
ATOM      3  C   UNL     1      13.259  16.382  25.407  1.00  0.00     0.004 C 
ATOM      4  C   UNL     1      14.161  15.492  26.273  1.00  0.00     0.011 C 
ATOM      5  C   UNL     1      14.545  16.213  27.582  1.00  0.00     0.043 C 
ATOM      6  C   UNL     1      13.288  16.649  28.375  1.00  0.00     0.121 C 
ATOM      7  C   UNL     1      12.382  17.527  27.495  1.00  0.00     0.035 C 
ENDROOT
BRANCH   6   8
ATOM      8  O   UNL     1      12.555  15.534  28.820  1.00  0.00    -0.392 OA
ATOM      9  H   UNL     1      13.199  14.788  28.944  1.00  0.00     0.210 HD
ENDBRANCH   6   8
BRANCH   5  10
ATOM     10  C   UNL     1      15.512  15.393  28.431  1.00  0.00    -0.075 C 
ATOM     11  C   UNL     1      16.819  15.306  28.131  1.00  0.00     0.008 C 
ATOM     12  C   UNL     1      15.009  14.660  29.649  1.00  0.00     0.039 C 
ENDBRANCH   5  10
TORSDOF 2
ENDMDL
MODEL 8
REMARK VINA RESULT:    -3.357      1.653      2.055
REMARK INTER + INTRA:          -3.842
REMARK INTER:                  -3.733
REMARK INTRA:                  -0.110
REMARK UNBOUND:                -0.191
REMARK SMILES C=C(C)[C@H]1CC[C@H](C)C[C@H]1O
REMARK SMILES IDX 8 1 7 2 6 3 5 4 4 5 10 6 9 7 11 8 2 10 1 11 3 12
REMARK H PARENT 11 9
REMARK Flexibility Score: inf
ROOT
ATOM      1  C   UNL     1      16.469  15.258  27.730  1.00  0.00     0.008 C 
ATOM      2  C   UNL     1      15.043  15.767  27.494  1.00  0.00    -0.012 C 
ATOM      3  C   UNL     1      15.061  17.259  27.107  1.00  0.00     0.004 C 
ATOM      4  C   UNL     1      13.641  17.777  26.840  1.00  0.00     0.011 C 
ATOM      5  C   UNL     1      12.949  16.937  25.746  1.00  0.00     0.043 C 
ATOM      6  C   UNL     1      12.918  15.435  26.124  1.00  0.00     0.121 C 
ATOM      7  C   UNL     1      14.343  14.928  26.405  1.00  0.00     0.035 C 
ENDROOT
BRANCH   6   8
ATOM      8  O   UNL     1      12.119  15.213  27.260  1.00  0.00    -0.392 OA
ATOM      9  H   UNL     1      11.777  14.282  27.202  1.00  0.00     0.210 HD
ENDBRANCH   6   8
BRANCH   5  10
ATOM     10  C   UNL     1      11.566  17.475  25.391  1.00  0.00    -0.075 C 
ATOM     11  C   UNL     1      11.068  17.383  24.146  1.00  0.00     0.008 C 
ATOM     12  C   UNL     1      10.716  18.125  26.453  1.00  0.00     0.039 C 
ENDBRANCH   5  10
TORSDOF 2
ENDMDL
