MODEL 1
REMARK VINA RESULT:    -3.329      0.000      0.000
REMARK INTER + INTRA:          -4.287
REMARK INTER:                  -4.886
REMARK INTRA:                   0.599
REMARK UNBOUND:                 0.599
REMARK SMILES C=C1CC=CC(C)(C)CC=C(C)CCC1
REMARK SMILES IDX 2 1 1 2 15 3 14 4 13 5 11 6 12 7 10 8 3 10 4 11 5 12 6 13
REMARK SMILES IDX 7 14 8 15 9 16
REMARK H PARENT
REMARK Flexibility Score: 60.00
ROOT
ATOM      1  C   UNL     1       8.082  19.663  26.829  1.00  0.00    -0.074 C 
ATOM      2  C   UNL     1       7.699  18.507  27.395  1.00  0.00     0.008 C 
ENDROOT
BRANCH   1   3
ATOM      3  C   UNL     1       7.110  20.450  25.967  1.00  0.00     0.031 C 
BRANCH   3   4
ATOM      4  C   UNL     1       6.770  19.714  24.653  1.00  0.00     0.009 C 
BRANCH   4   5
ATOM      5  C   UNL     1       7.425  20.358  23.411  1.00  0.00     0.030 C 
BRANCH   5   6
ATOM      6  C   UNL     1       8.543  19.490  22.855  1.00  0.00    -0.077 C 
ATOM      7  C   UNL     1       8.151  18.295  22.025  1.00  0.00     0.039 C 
ATOM      8  C   UNL     1       9.866  19.699  23.073  1.00  0.00    -0.027 CG0
ATOM      9  G   UNL     1      10.499  20.825  23.873  1.00  0.00     0.000 G0
ENDBRANCH   5   6
ENDBRANCH   4   5
ENDBRANCH   3   4
ENDBRANCH   1   3
BRANCH   1  10
ATOM     10  C   UNL     1       9.493  20.165  27.040  1.00  0.00     0.057 C 
BRANCH  10  11
ATOM     11  C   UNL     1      10.482  19.110  26.612  1.00  0.00    -0.026 C 
ATOM     12  C   UNL     1      11.421  19.218  25.649  1.00  0.00    -0.024 C 
BRANCH  12  13
ATOM     13  C   UNL     1      11.714  20.407  24.726  1.00  0.00    -0.014 C 
ATOM     14  C   UNL     1      12.240  21.611  25.539  1.00  0.00     0.016 C 
ATOM     15  C   UNL     1      12.850  19.983  23.761  1.00  0.00     0.016 C 
BRANCH  13  16
ATOM     16  C   UNL     1      10.474  20.833  23.879  1.00  0.00     0.038 CG0
ATOM     17  G   UNL     1       9.885  19.700  23.057  1.00  0.00     0.000 G0
ENDBRANCH  13  16
ENDBRANCH  12  13
ENDBRANCH  10  11
ENDBRANCH   1  10
TORSDOF 0
ENDMDL
MODEL 2
REMARK VINA RESULT:    -3.220      1.291      3.250
REMARK INTER + INTRA:          -4.128
REMARK INTER:                  -4.588
REMARK INTRA:                   0.460
REMARK UNBOUND:                 0.599
REMARK SMILES C=C1CC=CC(C)(C)CC=C(C)CCC1
REMARK SMILES IDX 2 1 1 2 15 3 14 4 13 5 11 6 12 7 10 8 3 10 4 11 5 12 6 13
REMARK SMILES IDX 7 14 8 15 9 16
REMARK H PARENT
REMARK Flexibility Score: 60.00
ROOT
ATOM      1  C   UNL     1       6.993  19.808  23.780  1.00  0.00    -0.074 C 
ATOM      2  C   UNL     1       6.250  20.409  22.836  1.00  0.00     0.008 C 
ENDROOT
BRANCH   1   3
ATOM      3  C   UNL     1       8.041  18.781  23.387  1.00  0.00     0.031 C 
BRANCH   3   4
ATOM      4  C   UNL     1       8.855  19.222  22.151  1.00  0.00     0.009 C 
BRANCH   4   5
ATOM      5  C   UNL     1       9.896  20.317  22.472  1.00  0.00     0.030 C 
BRANCH   5   6
ATOM      6  C   UNL     1      10.887  19.854  23.528  1.00  0.00    -0.077 C 
ATOM      7  C   UNL     1      11.853  18.761  23.148  1.00  0.00     0.039 C 
ATOM      8  C   UNL     1      10.948  20.336  24.795  1.00  0.00    -0.027 CG0
ATOM      9  G   UNL     1      10.085  21.426  25.407  1.00  0.00     0.000 G0
ENDBRANCH   5   6
ENDBRANCH   4   5
ENDBRANCH   3   4
ENDBRANCH   1   3
BRANCH   1  10
ATOM     10  C   UNL     1       6.764  20.146  25.236  1.00  0.00     0.057 C 
BRANCH  10  11
ATOM     11  C   UNL     1       7.650  19.291  26.106  1.00  0.00    -0.026 C 
ATOM     12  C   UNL     1       8.763  19.678  26.764  1.00  0.00    -0.024 C 
BRANCH  12  13
ATOM     13  C   UNL     1       9.433  21.057  26.784  1.00  0.00    -0.014 C 
ATOM     14  C   UNL     1       8.425  22.148  27.209  1.00  0.00     0.016 C 
ATOM     15  C   UNL     1      10.544  21.024  27.863  1.00  0.00     0.016 C 
BRANCH  13  16
ATOM     16  C   UNL     1      10.081  21.432  25.413  1.00  0.00     0.038 CG0
ATOM     17  G   UNL     1      10.938  20.324  24.827  1.00  0.00     0.000 G0
ENDBRANCH  13  16
ENDBRANCH  12  13
ENDBRANCH  10  11
ENDBRANCH   1  10
TORSDOF 0
ENDMDL
MODEL 3
REMARK VINA RESULT:    -3.117      2.969      4.710
REMARK INTER + INTRA:          -3.976
REMARK INTER:                  -4.447
REMARK INTRA:                   0.471
REMARK UNBOUND:                 0.599
REMARK SMILES C=C1CC=CC(C)(C)CC=C(C)CCC1
REMARK SMILES IDX 2 1 1 2 15 3 14 4 13 5 11 6 12 7 10 8 3 10 4 11 5 12 6 13
REMARK SMILES IDX 7 14 8 15 9 16
REMARK H PARENT
REMARK Flexibility Score: 60.00
ROOT
ATOM      1  C   UNL     1       7.413  18.881  23.060  1.00  0.00    -0.074 C 
ATOM      2  C   UNL     1       8.132  18.214  22.143  1.00  0.00     0.008 C 
ENDROOT
BRANCH   1   3
ATOM      3  C   UNL     1       5.895  18.820  23.033  1.00  0.00     0.031 C 
BRANCH   3   4
ATOM      4  C   UNL     1       5.305  19.550  21.807  1.00  0.00     0.009 C 
BRANCH   4   5
ATOM      5  C   UNL     1       5.103  21.063  22.043  1.00  0.00     0.030 C 
BRANCH   5   6
ATOM      6  C   UNL     1       4.344  21.332  23.333  1.00  0.00    -0.077 C 
ATOM      7  C   UNL     1       2.900  20.905  23.395  1.00  0.00     0.039 C 
ATOM      8  C   UNL     1       4.865  21.950  24.422  1.00  0.00    -0.027 CG0
ATOM      9  G   UNL     1       6.283  22.469  24.594  1.00  0.00     0.000 G0
ENDBRANCH   5   6
ENDBRANCH   4   5
ENDBRANCH   3   4
ENDBRANCH   1   3
BRANCH   1  10
ATOM     10  C   UNL     1       8.125  19.709  24.106  1.00  0.00     0.057 C 
BRANCH  10  11
ATOM     11  C   UNL     1       7.423  19.573  25.434  1.00  0.00    -0.026 C 
ATOM     12  C   UNL     1       6.928  20.568  26.199  1.00  0.00    -0.024 C 
BRANCH  12  13
ATOM     13  C   UNL     1       6.967  22.080  25.947  1.00  0.00    -0.014 C 
ATOM     14  C   UNL     1       6.303  22.845  27.114  1.00  0.00     0.016 C 
ATOM     15  C   UNL     1       8.454  22.512  25.911  1.00  0.00     0.016 C 
BRANCH  13  16
ATOM     16  C   UNL     1       6.298  22.483  24.594  1.00  0.00     0.038 CG0
ATOM     17  G   UNL     1       4.888  21.940  24.432  1.00  0.00     0.000 G0
ENDBRANCH  13  16
ENDBRANCH  12  13
ENDBRANCH  10  11
ENDBRANCH   1  10
TORSDOF 0
ENDMDL
MODEL 4
REMARK VINA RESULT:    -2.933      2.308      4.555
REMARK INTER + INTRA:          -3.705
REMARK INTER:                  -4.278
REMARK INTRA:                   0.572
REMARK UNBOUND:                 0.599
REMARK SMILES C=C1CC=CC(C)(C)CC=C(C)CCC1
REMARK SMILES IDX 2 1 1 2 15 3 14 4 13 5 11 6 12 7 10 8 3 10 4 11 5 12 6 13
REMARK SMILES IDX 7 14 8 15 9 16
REMARK H PARENT
REMARK Flexibility Score: 60.00
ROOT
ATOM      1  C   UNL     1      10.402  19.339  23.706  1.00  0.00    -0.074 C 
ATOM      2  C   UNL     1       9.368  19.196  22.861  1.00  0.00     0.008 C 
ENDROOT
BRANCH   1   3
ATOM      3  C   UNL     1      11.791  18.879  23.299  1.00  0.00     0.031 C 
BRANCH   3   4
ATOM      4  C   UNL     1      12.598  20.002  22.611  1.00  0.00     0.009 C 
BRANCH   4   5
ATOM      5  C   UNL     1      13.777  20.512  23.469  1.00  0.00     0.030 C 
BRANCH   5   6
ATOM      6  C   UNL     1      13.362  21.676  24.355  1.00  0.00    -0.077 C 
ATOM      7  C   UNL     1      13.156  23.016  23.696  1.00  0.00     0.039 C 
ATOM      8  C   UNL     1      13.189  21.601  25.699  1.00  0.00    -0.027 CG0
ATOM      9  G   UNL     1      13.341  20.372  26.579  1.00  0.00     0.000 G0
ENDBRANCH   5   6
ENDBRANCH   4   5
ENDBRANCH   3   4
ENDBRANCH   1   3
BRANCH   1  10
ATOM     10  C   UNL     1      10.168  19.942  25.073  1.00  0.00     0.057 C 
BRANCH  10  11
ATOM     11  C   UNL     1      10.408  18.903  26.140  1.00  0.00    -0.026 C 
ATOM     12  C   UNL     1      11.229  19.005  27.206  1.00  0.00    -0.024 C 
BRANCH  12  13
ATOM     13  C   UNL     1      12.146  20.169  27.601  1.00  0.00    -0.014 C 
ATOM     14  C   UNL     1      11.338  21.480  27.726  1.00  0.00     0.016 C 
ATOM     15  C   UNL     1      12.722  19.858  29.004  1.00  0.00     0.016 C 
BRANCH  13  16
ATOM     16  C   UNL     1      13.333  20.366  26.606  1.00  0.00     0.038 CG0
ATOM     17  G   UNL     1      13.179  21.584  25.713  1.00  0.00     0.000 G0
ENDBRANCH  13  16
ENDBRANCH  12  13
ENDBRANCH  10  11
ENDBRANCH   1  10
TORSDOF 0
ENDMDL
MODEL 5
REMARK VINA RESULT:    -2.908      1.560      3.355
REMARK INTER + INTRA:          -3.670
REMARK INTER:                  -4.655
REMARK INTRA:                   0.985
REMARK UNBOUND:                 0.599
REMARK SMILES C=C1CC=CC(C)(C)CC=C(C)CCC1
REMARK SMILES IDX 2 1 1 2 15 3 14 4 13 5 11 6 12 7 10 8 3 10 4 11 5 12 6 13
REMARK SMILES IDX 7 14 8 15 9 16
REMARK H PARENT
REMARK Flexibility Score: 60.00
ROOT
ATOM      1  C   UNL     1       8.035  19.103  23.384  1.00  0.00    -0.074 C 
ATOM      2  C   UNL     1       7.565  18.198  22.510  1.00  0.00     0.008 C 
ENDROOT
BRANCH   1   3
ATOM      3  C   UNL     1       7.361  19.284  24.733  1.00  0.00     0.031 C 
BRANCH   3   4
ATOM      4  C   UNL     1       6.481  20.552  24.779  1.00  0.00     0.009 C 
BRANCH   4   5
ATOM      5  C   UNL     1       7.298  21.849  24.969  1.00  0.00     0.030 C 
BRANCH   5   6
ATOM      6  C   UNL     1       8.030  21.860  26.301  1.00  0.00    -0.077 C 
ATOM      7  C   UNL     1       7.222  22.159  27.539  1.00  0.00     0.039 C 
ATOM      8  C   UNL     1       9.361  21.644  26.455  1.00  0.00    -0.027 CG0
ATOM      9  G   UNL     1      10.373  21.330  25.366  1.00  0.00     0.000 G0
ENDBRANCH   5   6
ENDBRANCH   4   5
ENDBRANCH   3   4
ENDBRANCH   1   3
BRANCH   1  10
ATOM     10  C   UNL     1       9.226  19.955  23.006  1.00  0.00     0.057 C 
BRANCH  10  11
ATOM     11  C   UNL     1      10.500  19.171  23.200  1.00  0.00    -0.026 C 
ATOM     12  C   UNL     1      11.308  19.185  24.281  1.00  0.00    -0.024 C 
BRANCH  12  13
ATOM     13  C   UNL     1      11.169  20.006  25.570  1.00  0.00    -0.014 C 
ATOM     14  C   UNL     1      10.494  19.169  26.679  1.00  0.00     0.016 C 
ATOM     15  C   UNL     1      12.597  20.345  26.065  1.00  0.00     0.016 C 
BRANCH  13  16
ATOM     16  C   UNL     1      10.386  21.339  25.353  1.00  0.00     0.038 CG0
ATOM     17  G   UNL     1       9.377  21.632  26.451  1.00  0.00     0.000 G0
ENDBRANCH  13  16
ENDBRANCH  12  13
ENDBRANCH  10  11
ENDBRANCH   1  10
TORSDOF 0
ENDMDL
MODEL 6
REMARK VINA RESULT:    -2.906      1.238      3.473
REMARK INTER + INTRA:          -3.667
REMARK INTER:                  -4.425
REMARK INTRA:                   0.758
REMARK UNBOUND:                 0.599
REMARK SMILES C=C1CC=CC(C)(C)CC=C(C)CCC1
REMARK SMILES IDX 2 1 1 2 15 3 14 4 13 5 11 6 12 7 10 8 3 10 4 11 5 12 6 13
REMARK SMILES IDX 7 14 8 15 9 16
REMARK H PARENT
REMARK Flexibility Score: 60.00
ROOT
ATOM      1  C   UNL     1       7.709  20.099  24.849  1.00  0.00    -0.074 C 
ATOM      2  C   UNL     1       7.462  21.373  24.503  1.00  0.00     0.008 C 
ENDROOT
BRANCH   1   3
ATOM      3  C   UNL     1       7.315  19.591  26.226  1.00  0.00     0.031 C 
BRANCH   3   4
ATOM      4  C   UNL     1       8.540  19.151  27.056  1.00  0.00     0.009 C 
BRANCH   4   5
ATOM      5  C   UNL     1       9.603  20.262  27.204  1.00  0.00     0.030 C 
BRANCH   5   6
ATOM      6  C   UNL     1      10.983  19.775  26.795  1.00  0.00    -0.077 C 
ATOM      7  C   UNL     1      11.712  18.862  27.749  1.00  0.00     0.039 C 
ATOM      8  C   UNL     1      11.617  20.121  25.647  1.00  0.00    -0.027 CG0
ATOM      9  G   UNL     1      11.092  21.022  24.542  1.00  0.00     0.000 G0
ENDBRANCH   5   6
ENDBRANCH   4   5
ENDBRANCH   3   4
ENDBRANCH   1   3
BRANCH   1  10
ATOM     10  C   UNL     1       8.400  19.181  23.866  1.00  0.00     0.057 C 
BRANCH  10  11
ATOM     11  C   UNL     1       8.756  19.943  22.615  1.00  0.00    -0.026 C 
ATOM     12  C   UNL     1       9.962  20.454  22.288  1.00  0.00    -0.024 C 
BRANCH  12  13
ATOM     13  C   UNL     1      11.265  20.425  23.096  1.00  0.00    -0.014 C 
ATOM     14  C   UNL     1      11.820  18.985  23.183  1.00  0.00     0.016 C 
ATOM     15  C   UNL     1      12.313  21.267  22.327  1.00  0.00     0.016 C 
BRANCH  13  16
ATOM     16  C   UNL     1      11.099  21.022  24.529  1.00  0.00     0.038 CG0
ATOM     17  G   UNL     1      11.602  20.102  25.629  1.00  0.00     0.000 G0
ENDBRANCH  13  16
ENDBRANCH  12  13
ENDBRANCH  10  11
ENDBRANCH   1  10
TORSDOF 0
ENDMDL
MODEL 7
REMARK VINA RESULT:    -2.854      2.922      4.822
REMARK INTER + INTRA:          -3.590
REMARK INTER:                  -4.269
REMARK INTRA:                   0.678
REMARK UNBOUND:                 0.599
REMARK SMILES C=C1CC=CC(C)(C)CC=C(C)CCC1
REMARK SMILES IDX 2 1 1 2 15 3 14 4 13 5 11 6 12 7 10 8 3 10 4 11 5 12 6 13
REMARK SMILES IDX 7 14 8 15 9 16
REMARK H PARENT
REMARK Flexibility Score: 60.00
ROOT
ATOM      1  C   UNL     1       3.391  20.708  23.195  1.00  0.00    -0.074 C 
ATOM      2  C   UNL     1       2.159  20.961  23.666  1.00  0.00     0.008 C 
ENDROOT
BRANCH   1   3
ATOM      3  C   UNL     1       3.684  19.396  22.488  1.00  0.00     0.031 C 
BRANCH   3   4
ATOM      4  C   UNL     1       5.103  19.366  21.880  1.00  0.00     0.009 C 
BRANCH   4   5
ATOM      5  C   UNL     1       6.040  18.356  22.580  1.00  0.00     0.030 C 
BRANCH   5   6
ATOM      6  C   UNL     1       7.406  18.961  22.861  1.00  0.00    -0.077 C 
ATOM      7  C   UNL     1       8.495  18.727  21.845  1.00  0.00     0.039 C 
ATOM      8  C   UNL     1       7.722  19.676  23.970  1.00  0.00    -0.027 CG0
ATOM      9  G   UNL     1       6.803  20.036  25.124  1.00  0.00     0.000 G0
ENDBRANCH   5   6
ENDBRANCH   4   5
ENDBRANCH   3   4
ENDBRANCH   1   3
BRANCH   1  10
ATOM     10  C   UNL     1       4.489  21.729  23.394  1.00  0.00     0.057 C 
BRANCH  10  11
ATOM     11  C   UNL     1       4.471  22.231  24.816  1.00  0.00    -0.026 C 
ATOM     12  C   UNL     1       5.474  22.160  25.717  1.00  0.00    -0.024 C 
BRANCH  12  13
ATOM     13  C   UNL     1       6.866  21.538  25.553  1.00  0.00    -0.014 C 
ATOM     14  C   UNL     1       7.701  22.334  24.526  1.00  0.00     0.016 C 
ATOM     15  C   UNL     1       7.595  21.655  26.915  1.00  0.00     0.016 C 
BRANCH  13  16
ATOM     16  C   UNL     1       6.809  20.032  25.146  1.00  0.00     0.038 CG0
ATOM     17  G   UNL     1       7.715  19.687  23.977  1.00  0.00     0.000 G0
ENDBRANCH  13  16
ENDBRANCH  12  13
ENDBRANCH  10  11
ENDBRANCH   1  10
TORSDOF 0
ENDMDL
MODEL 8
REMARK VINA RESULT:    -2.796     12.912     14.952
REMARK INTER + INTRA:          -3.505
REMARK INTER:                  -4.334
REMARK INTRA:                   0.829
REMARK UNBOUND:                 0.599
REMARK SMILES C=C1CC=CC(C)(C)CC=C(C)CCC1
REMARK SMILES IDX 2 1 1 2 15 3 14 4 13 5 11 6 12 7 10 8 3 10 4 11 5 12 6 13
REMARK SMILES IDX 7 14 8 15 9 16
REMARK H PARENT
REMARK Flexibility Score: 60.00
ROOT
ATOM      1  C   UNL     1      14.148  15.282  36.544  1.00  0.00    -0.074 C 
ATOM      2  C   UNL     1      15.455  15.153  36.263  1.00  0.00     0.008 C 
ENDROOT
BRANCH   1   3
ATOM      3  C   UNL     1      13.342  16.411  35.927  1.00  0.00     0.031 C 
BRANCH   3   4
ATOM      4  C   UNL     1      13.938  17.798  36.253  1.00  0.00     0.009 C 
BRANCH   4   5
ATOM      5  C   UNL     1      13.177  18.534  37.378  1.00  0.00     0.030 C 
BRANCH   5   6
ATOM      6  C   UNL     1      13.435  17.901  38.735  1.00  0.00    -0.077 C 
ATOM      7  C   UNL     1      14.780  18.140  39.373  1.00  0.00     0.039 C 
ATOM      8  C   UNL     1      12.552  17.115  39.402  1.00  0.00    -0.027 CG0
ATOM      9  G   UNL     1      11.150  16.731  38.964  1.00  0.00     0.000 G0
ENDBRANCH   5   6
ENDBRANCH   4   5
ENDBRANCH   3   4
ENDBRANCH   1   3
BRANCH   1  10
ATOM     10  C   UNL     1      13.492  14.306  37.495  1.00  0.00     0.057 C 
BRANCH  10  11
ATOM     11  C   UNL     1      12.059  14.077  37.086  1.00  0.00    -0.026 C 
ATOM     12  C   UNL     1      10.950  14.463  37.752  1.00  0.00    -0.024 C 
BRANCH  12  13
ATOM     13  C   UNL     1      10.846  15.201  39.092  1.00  0.00    -0.014 C 
ATOM     14  C   UNL     1       9.452  14.989  39.724  1.00  0.00     0.016 C 
ATOM     15  C   UNL     1      11.880  14.568  40.057  1.00  0.00     0.016 C 
BRANCH  13  16
ATOM     16  C   UNL     1      11.151  16.727  38.966  1.00  0.00     0.038 CG0
ATOM     17  G   UNL     1      12.557  17.101  39.404  1.00  0.00     0.000 G0
ENDBRANCH  13  16
ENDBRANCH  12  13
ENDBRANCH  10  11
ENDBRANCH   1  10
TORSDOF 0
ENDMDL
MODEL 9
REMARK VINA RESULT:    -2.776      1.262      3.743
REMARK INTER + INTRA:          -3.476
REMARK INTER:                  -4.349
REMARK INTRA:                   0.873
REMARK UNBOUND:                 0.599
REMARK SMILES C=C1CC=CC(C)(C)CC=C(C)CCC1
REMARK SMILES IDX 2 1 1 2 15 3 14 4 13 5 11 6 12 7 10 8 3 10 4 11 5 12 6 13
REMARK SMILES IDX 7 14 8 15 9 16
REMARK H PARENT
REMARK Flexibility Score: 60.00
ROOT
ATOM      1  C   UNL     1      10.524  19.729  26.912  1.00  0.00    -0.074 C 
ATOM      2  C   UNL     1      10.796  18.500  27.383  1.00  0.00     0.008 C 
ENDROOT
BRANCH   1   3
ATOM      3  C   UNL     1      11.653  20.643  26.466  1.00  0.00     0.031 C 
BRANCH   3   4
ATOM      4  C   UNL     1      11.194  21.653  25.392  1.00  0.00     0.009 C 
BRANCH   4   5
ATOM      5  C   UNL     1      11.688  21.294  23.973  1.00  0.00     0.030 C 
BRANCH   5   6
ATOM      6  C   UNL     1      10.925  20.112  23.397  1.00  0.00    -0.077 C 
ATOM      7  C   UNL     1      11.728  18.935  22.908  1.00  0.00     0.039 C 
ATOM      8  C   UNL     1       9.575  20.051  23.268  1.00  0.00    -0.027 CG0
ATOM      9  G   UNL     1       8.564  21.106  23.683  1.00  0.00     0.000 G0
ENDBRANCH   5   6
ENDBRANCH   4   5
ENDBRANCH   3   4
ENDBRANCH   1   3
BRANCH   1  10
ATOM     10  C   UNL     1       9.089  20.202  26.850  1.00  0.00     0.057 C 
BRANCH  10  11
ATOM     11  C   UNL     1       8.228  19.145  26.208  1.00  0.00    -0.026 C 
ATOM     12  C   UNL     1       7.454  19.280  25.110  1.00  0.00    -0.024 C 
BRANCH  12  13
ATOM     13  C   UNL     1       7.224  20.529  24.250  1.00  0.00    -0.014 C 
ATOM     14  C   UNL     1       6.236  20.225  23.102  1.00  0.00     0.016 C 
ATOM     15  C   UNL     1       6.557  21.601  25.148  1.00  0.00     0.016 C 
BRANCH  13  16
ATOM     16  C   UNL     1       8.550  21.117  23.673  1.00  0.00     0.038 CG0
ATOM     17  G   UNL     1       9.553  20.054  23.260  1.00  0.00     0.000 G0
ENDBRANCH  13  16
ENDBRANCH  12  13
ENDBRANCH  10  11
ENDBRANCH   1  10
TORSDOF 0
ENDMDL
