MODEL 1
REMARK VINA RESULT:    -4.379      0.000      0.000
REMARK INTER + INTRA:          -7.042
REMARK INTER:                  -6.426
REMARK INTRA:                  -0.616
REMARK UNBOUND:                -0.616
REMARK SMILES O=C([O-])CCCCCCCC(=O)[O-]
REMARK SMILES IDX 7 1 6 2 5 3 4 4 2 5 1 6 3 7 8 8 9 9 10 10 11 11 12 12 13 13
REMARK H PARENT
REMARK Flexibility Score: inf
ROOT
ATOM      1  C   UNL     1     -39.457  23.069 -30.189  1.00  0.00     0.000 C 
ENDROOT
BRANCH   1   2
ATOM      2  C   UNL     1     -38.206  22.196 -29.987  1.00  0.00     0.000 C 
BRANCH   2   3
ATOM      3  C   UNL     1     -38.416  20.716 -30.372  1.00  0.00     0.006 C 
BRANCH   3   4
ATOM      4  C   UNL     1     -39.851  20.437 -30.841  1.00  0.00     0.053 C 
BRANCH   4   5
ATOM      5  C   UNL     1     -40.214  19.007 -30.593  1.00  0.00     0.041 C 
ATOM      6  O   UNL     1     -41.175  18.480 -31.214  1.00  0.00    -0.550 OA
ATOM      7  O   UNL     1     -39.523  18.269 -29.640  1.00  0.00    -0.550 OA
ENDBRANCH   4   5
ENDBRANCH   3   4
ENDBRANCH   2   3
ENDBRANCH   1   2
BRANCH   1   8
ATOM      8  C   UNL     1     -39.718  24.021 -29.014  1.00  0.00     0.000 C 
BRANCH   8   9
ATOM      9  C   UNL     1     -41.141  23.848 -28.472  1.00  0.00     0.006 C 
BRANCH   9  10
ATOM     10  C   UNL     1     -41.822  22.626 -29.096  1.00  0.00     0.053 C 
BRANCH  10  11
ATOM     11  C   UNL     1     -41.944  21.523 -28.093  1.00  0.00     0.041 C 
ATOM     12  O   UNL     1     -43.078  21.099 -27.751  1.00  0.00    -0.550 OA
ATOM     13  O   UNL     1     -40.801  20.928 -27.573  1.00  0.00    -0.550 OA
ENDBRANCH  10  11
ENDBRANCH   9  10
ENDBRANCH   8   9
ENDBRANCH   1   8
TORSDOF 8
ENDMDL
MODEL 2
REMARK VINA RESULT:    -4.242      1.494      2.194
REMARK INTER + INTRA:          -6.842
REMARK INTER:                  -6.110
REMARK INTRA:                  -0.732
REMARK UNBOUND:                -0.616
REMARK SMILES O=C([O-])CCCCCCCC(=O)[O-]
REMARK SMILES IDX 7 1 6 2 5 3 4 4 2 5 1 6 3 7 8 8 9 9 10 10 11 11 12 12 13 13
REMARK H PARENT
REMARK Flexibility Score: inf
ROOT
ATOM      1  C   UNL     1     -37.041  21.373 -29.990  1.00  0.00     0.000 C 
ENDROOT
BRANCH   1   2
ATOM      2  C   UNL     1     -37.227  20.069 -29.195  1.00  0.00     0.000 C 
BRANCH   2   3
ATOM      3  C   UNL     1     -37.928  18.952 -29.996  1.00  0.00     0.006 C 
BRANCH   3   4
ATOM      4  C   UNL     1     -39.398  18.780 -29.588  1.00  0.00     0.053 C 
BRANCH   4   5
ATOM      5  C   UNL     1     -40.304  19.189 -30.706  1.00  0.00     0.041 C 
ATOM      6  O   UNL     1     -40.246  20.358 -31.173  1.00  0.00    -0.550 OA
ATOM      7  O   UNL     1     -41.247  18.297 -31.199  1.00  0.00    -0.550 OA
ENDBRANCH   4   5
ENDBRANCH   3   4
ENDBRANCH   2   3
ENDBRANCH   1   2
BRANCH   1   8
ATOM      8  C   UNL     1     -37.602  22.603 -29.262  1.00  0.00     0.000 C 
BRANCH   8   9
ATOM      9  C   UNL     1     -38.944  22.282 -28.596  1.00  0.00     0.006 C 
BRANCH   9  10
ATOM     10  C   UNL     1     -39.997  23.339 -28.946  1.00  0.00     0.053 C 
BRANCH  10  11
ATOM     11  C   UNL     1     -41.372  22.757 -28.862  1.00  0.00     0.041 C 
ATOM     12  O   UNL     1     -42.352  23.372 -29.359  1.00  0.00    -0.550 OA
ATOM     13  O   UNL     1     -41.566  21.511 -28.278  1.00  0.00    -0.550 OA
ENDBRANCH  10  11
ENDBRANCH   9  10
ENDBRANCH   8   9
ENDBRANCH   1   8
TORSDOF 8
ENDMDL
MODEL 3
REMARK VINA RESULT:    -4.237      1.080      3.939
REMARK INTER + INTRA:          -6.835
REMARK INTER:                  -6.167
REMARK INTRA:                  -0.668
REMARK UNBOUND:                -0.616
REMARK SMILES O=C([O-])CCCCCCCC(=O)[O-]
REMARK SMILES IDX 7 1 6 2 5 3 4 4 2 5 1 6 3 7 8 8 9 9 10 10 11 11 12 12 13 13
REMARK H PARENT
REMARK Flexibility Score: inf
ROOT
ATOM      1  C   UNL     1     -38.870  22.475 -30.746  1.00  0.00     0.000 C 
ENDROOT
BRANCH   1   2
ATOM      2  C   UNL     1     -39.247  23.658 -29.837  1.00  0.00     0.000 C 
BRANCH   2   3
ATOM      3  C   UNL     1     -40.173  23.266 -28.666  1.00  0.00     0.006 C 
BRANCH   3   4
ATOM      4  C   UNL     1     -41.367  22.420 -29.128  1.00  0.00     0.053 C 
BRANCH   4   5
ATOM      5  C   UNL     1     -41.675  21.355 -28.124  1.00  0.00     0.041 C 
ATOM      6  O   UNL     1     -40.741  20.708 -27.580  1.00  0.00    -0.550 OA
ATOM      7  O   UNL     1     -42.995  21.041 -27.826  1.00  0.00    -0.550 OA
ENDBRANCH   4   5
ENDBRANCH   3   4
ENDBRANCH   2   3
ENDBRANCH   1   2
BRANCH   1   8
ATOM      8  C   UNL     1     -37.552  21.804 -30.339  1.00  0.00     0.000 C 
BRANCH   8   9
ATOM      9  C   UNL     1     -37.797  20.682 -29.324  1.00  0.00     0.006 C 
BRANCH   9  10
ATOM     10  C   UNL     1     -37.728  19.308 -29.997  1.00  0.00     0.053 C 
BRANCH  10  11
ATOM     11  C   UNL     1     -39.060  18.630 -29.945  1.00  0.00     0.041 C 
ATOM     12  O   UNL     1     -40.068  19.170 -30.470  1.00  0.00    -0.550 OA
ATOM     13  O   UNL     1     -39.178  17.375 -29.360  1.00  0.00    -0.550 OA
ENDBRANCH  10  11
ENDBRANCH   9  10
ENDBRANCH   8   9
ENDBRANCH   1   8
TORSDOF 8
ENDMDL
MODEL 4
REMARK VINA RESULT:    -4.230      1.512      4.122
REMARK INTER + INTRA:          -6.825
REMARK INTER:                  -6.043
REMARK INTRA:                  -0.782
REMARK UNBOUND:                -0.616
REMARK SMILES O=C([O-])CCCCCCCC(=O)[O-]
REMARK SMILES IDX 7 1 6 2 5 3 4 4 2 5 1 6 3 7 8 8 9 9 10 10 11 11 12 12 13 13
REMARK H PARENT
REMARK Flexibility Score: inf
ROOT
ATOM      1  C   UNL     1     -37.736  20.904 -29.153  1.00  0.00     0.000 C 
ENDROOT
BRANCH   1   2
ATOM      2  C   UNL     1     -37.749  22.202 -29.979  1.00  0.00     0.000 C 
BRANCH   2   3
ATOM      3  C   UNL     1     -39.002  23.072 -29.742  1.00  0.00     0.006 C 
BRANCH   3   4
ATOM      4  C   UNL     1     -39.757  22.667 -28.469  1.00  0.00     0.053 C 
BRANCH   4   5
ATOM      5  C   UNL     1     -41.201  22.417 -28.773  1.00  0.00     0.041 C 
ATOM      6  O   UNL     1     -41.846  23.227 -29.491  1.00  0.00    -0.550 OA
ATOM      7  O   UNL     1     -41.847  21.317 -28.224  1.00  0.00    -0.550 OA
ENDBRANCH   4   5
ENDBRANCH   3   4
ENDBRANCH   2   3
ENDBRANCH   1   2
BRANCH   1   8
ATOM      8  C   UNL     1     -37.127  19.718 -29.913  1.00  0.00     0.000 C 
BRANCH   8   9
ATOM      9  C   UNL     1     -38.142  18.579 -30.058  1.00  0.00     0.006 C 
BRANCH   9  10
ATOM     10  C   UNL     1     -39.535  19.022 -29.598  1.00  0.00     0.053 C 
BRANCH  10  11
ATOM     11  C   UNL     1     -40.434  19.233 -30.775  1.00  0.00     0.041 C 
ATOM     12  O   UNL     1     -41.216  18.319 -31.147  1.00  0.00    -0.550 OA
ATOM     13  O   UNL     1     -40.446  20.458 -31.430  1.00  0.00    -0.550 OA
ENDBRANCH  10  11
ENDBRANCH   9  10
ENDBRANCH   8   9
ENDBRANCH   1   8
TORSDOF 8
ENDMDL
MODEL 5
REMARK VINA RESULT:    -4.181      1.952      4.187
REMARK INTER + INTRA:          -6.752
REMARK INTER:                  -6.030
REMARK INTRA:                  -0.722
REMARK UNBOUND:                -0.616
REMARK SMILES O=C([O-])CCCCCCCC(=O)[O-]
REMARK SMILES IDX 7 1 6 2 5 3 4 4 2 5 1 6 3 7 8 8 9 9 10 10 11 11 12 12 13 13
REMARK H PARENT
REMARK Flexibility Score: inf
ROOT
ATOM      1  C   UNL     1     -41.434  22.822 -29.378  1.00  0.00     0.000 C 
ENDROOT
BRANCH   1   2
ATOM      2  C   UNL     1     -41.073  24.084 -28.575  1.00  0.00     0.000 C 
BRANCH   2   3
ATOM      3  C   UNL     1     -39.562  24.400 -28.570  1.00  0.00     0.006 C 
BRANCH   3   4
ATOM      4  C   UNL     1     -38.885  24.020 -29.893  1.00  0.00     0.053 C 
BRANCH   4   5
ATOM      5  C   UNL     1     -37.717  23.119 -29.645  1.00  0.00     0.041 C 
ATOM      6  O   UNL     1     -37.085  22.619 -30.613  1.00  0.00    -0.550 OA
ATOM      7  O   UNL     1     -37.356  22.790 -28.344  1.00  0.00    -0.550 OA
ENDBRANCH   4   5
ENDBRANCH   3   4
ENDBRANCH   2   3
ENDBRANCH   1   2
BRANCH   1   8
ATOM      8  C   UNL     1     -41.600  21.578 -28.494  1.00  0.00     0.000 C 
BRANCH   8   9
ATOM      9  C   UNL     1     -40.377  20.662 -28.599  1.00  0.00     0.006 C 
BRANCH   9  10
ATOM     10  C   UNL     1     -40.020  20.386 -30.063  1.00  0.00     0.053 C 
BRANCH  10  11
ATOM     11  C   UNL     1     -40.131  18.926 -30.364  1.00  0.00     0.041 C 
ATOM     12  O   UNL     1     -39.296  18.114 -29.886  1.00  0.00    -0.550 OA
ATOM     13  O   UNL     1     -41.188  18.453 -31.133  1.00  0.00    -0.550 OA
ENDBRANCH  10  11
ENDBRANCH   9  10
ENDBRANCH   8   9
ENDBRANCH   1   8
TORSDOF 8
ENDMDL
MODEL 6
REMARK VINA RESULT:    -4.126      2.271      3.655
REMARK INTER + INTRA:          -6.672
REMARK INTER:                  -5.786
REMARK INTRA:                  -0.886
REMARK UNBOUND:                -0.616
REMARK SMILES O=C([O-])CCCCCCCC(=O)[O-]
REMARK SMILES IDX 7 1 6 2 5 3 4 4 2 5 1 6 3 7 8 8 9 9 10 10 11 11 12 12 13 13
REMARK H PARENT
REMARK Flexibility Score: inf
ROOT
ATOM      1  C   UNL     1     -38.339  19.445 -28.855  1.00  0.00     0.000 C 
ENDROOT
BRANCH   1   2
ATOM      2  C   UNL     1     -36.954  19.962 -29.282  1.00  0.00     0.000 C 
BRANCH   2   3
ATOM      3  C   UNL     1     -37.012  21.233 -30.156  1.00  0.00     0.006 C 
BRANCH   3   4
ATOM      4  C   UNL     1     -37.455  22.466 -29.357  1.00  0.00     0.053 C 
BRANCH   4   5
ATOM      5  C   UNL     1     -38.521  23.213 -30.095  1.00  0.00     0.041 C 
ATOM      6  O   UNL     1     -38.947  22.784 -31.200  1.00  0.00    -0.550 OA
ATOM      7  O   UNL     1     -39.010  24.409 -29.586  1.00  0.00    -0.550 OA
ENDBRANCH   4   5
ENDBRANCH   3   4
ENDBRANCH   2   3
ENDBRANCH   1   2
BRANCH   1   8
ATOM      8  C   UNL     1     -39.282  19.208 -30.043  1.00  0.00     0.000 C 
BRANCH   8   9
ATOM      9  C   UNL     1     -40.591  19.985 -29.868  1.00  0.00     0.006 C 
BRANCH   9  10
ATOM     10  C   UNL     1     -40.641  20.678 -28.504  1.00  0.00     0.053 C 
BRANCH  10  11
ATOM     11  C   UNL     1     -41.880  21.506 -28.380  1.00  0.00     0.041 C 
ATOM     12  O   UNL     1     -42.871  21.074 -27.734  1.00  0.00    -0.550 OA
ATOM     13  O   UNL     1     -41.924  22.779 -28.937  1.00  0.00    -0.550 OA
ENDBRANCH  10  11
ENDBRANCH   9  10
ENDBRANCH   8   9
ENDBRANCH   1   8
TORSDOF 8
ENDMDL
MODEL 7
REMARK VINA RESULT:    -4.051      1.822      3.192
REMARK INTER + INTRA:          -6.562
REMARK INTER:                  -5.869
REMARK INTRA:                  -0.693
REMARK UNBOUND:                -0.616
REMARK SMILES O=C([O-])CCCCCCCC(=O)[O-]
REMARK SMILES IDX 7 1 6 2 5 3 4 4 2 5 1 6 3 7 8 8 9 9 10 10 11 11 12 12 13 13
REMARK H PARENT
REMARK Flexibility Score: inf
ROOT
ATOM      1  C   UNL     1     -41.307  23.137 -29.367  1.00  0.00     0.000 C 
ENDROOT
BRANCH   1   2
ATOM      2  C   UNL     1     -41.869  21.952 -28.563  1.00  0.00     0.000 C 
BRANCH   2   3
ATOM      3  C   UNL     1     -41.026  20.665 -28.688  1.00  0.00     0.006 C 
BRANCH   3   4
ATOM      4  C   UNL     1     -40.450  20.484 -30.098  1.00  0.00     0.053 C 
BRANCH   4   5
ATOM      5  C   UNL     1     -40.279  19.031 -30.411  1.00  0.00     0.041 C 
ATOM      6  O   UNL     1     -39.251  18.416 -30.022  1.00  0.00    -0.550 OA
ATOM      7  O   UNL     1     -41.229  18.367 -31.176  1.00  0.00    -0.550 OA
ENDBRANCH   4   5
ENDBRANCH   3   4
ENDBRANCH   2   3
ENDBRANCH   1   2
BRANCH   1   8
ATOM      8  C   UNL     1     -40.378  24.035 -28.538  1.00  0.00     0.000 C 
BRANCH   8   9
ATOM      9  C   UNL     1     -39.117  24.401 -29.329  1.00  0.00     0.006 C 
BRANCH   9  10
ATOM     10  C   UNL     1     -38.170  23.202 -29.437  1.00  0.00     0.053 C 
BRANCH  10  11
ATOM     11  C   UNL     1     -37.644  22.825 -28.089  1.00  0.00     0.041 C 
ATOM     12  O   UNL     1     -37.085  23.688 -27.361  1.00  0.00    -0.550 OA
ATOM     13  O   UNL     1     -37.816  21.531 -27.613  1.00  0.00    -0.550 OA
ENDBRANCH  10  11
ENDBRANCH   9  10
ENDBRANCH   8   9
ENDBRANCH   1   8
TORSDOF 8
ENDMDL
MODEL 8
REMARK VINA RESULT:    -3.995      2.888      4.729
REMARK INTER + INTRA:          -6.479
REMARK INTER:                  -5.773
REMARK INTRA:                  -0.706
REMARK UNBOUND:                -0.616
REMARK SMILES O=C([O-])CCCCCCCC(=O)[O-]
REMARK SMILES IDX 7 1 6 2 5 3 4 4 2 5 1 6 3 7 8 8 9 9 10 10 11 11 12 12 13 13
REMARK H PARENT
REMARK Flexibility Score: inf
ROOT
ATOM      1  C   UNL     1     -40.294  19.969 -30.202  1.00  0.00     0.000 C 
ENDROOT
BRANCH   1   2
ATOM      2  C   UNL     1     -40.080  21.162 -31.150  1.00  0.00     0.000 C 
BRANCH   2   3
ATOM      3  C   UNL     1     -40.512  22.516 -30.547  1.00  0.00     0.006 C 
BRANCH   3   4
ATOM      4  C   UNL     1     -39.321  23.312 -29.997  1.00  0.00     0.053 C 
BRANCH   4   5
ATOM      5  C   UNL     1     -39.751  24.173 -28.851  1.00  0.00     0.041 C 
ATOM      6  O   UNL     1     -38.894  24.805 -28.177  1.00  0.00    -0.550 OA
ATOM      7  O   UNL     1     -41.092  24.240 -28.496  1.00  0.00    -0.550 OA
ENDBRANCH   4   5
ENDBRANCH   3   4
ENDBRANCH   2   3
ENDBRANCH   1   2
BRANCH   1   8
ATOM      8  C   UNL     1     -38.978  19.351 -29.712  1.00  0.00     0.000 C 
BRANCH   8   9
ATOM      9  C   UNL     1     -38.998  19.149 -28.193  1.00  0.00     0.006 C 
BRANCH   9  10
ATOM     10  C   UNL     1     -39.148  20.487 -27.462  1.00  0.00     0.053 C 
BRANCH  10  11
ATOM     11  C   UNL     1     -37.816  20.983 -26.997  1.00  0.00     0.041 C 
ATOM     12  O   UNL     1     -37.108  21.701 -27.751  1.00  0.00    -0.550 OA
ATOM     13  O   UNL     1     -37.378  20.695 -25.711  1.00  0.00    -0.550 OA
ENDBRANCH  10  11
ENDBRANCH   9  10
ENDBRANCH   8   9
ENDBRANCH   1   8
TORSDOF 8
ENDMDL
MODEL 9
REMARK VINA RESULT:    -3.957      2.099      3.699
REMARK INTER + INTRA:          -6.424
REMARK INTER:                  -5.664
REMARK INTRA:                  -0.760
REMARK UNBOUND:                -0.616
REMARK SMILES O=C([O-])CCCCCCCC(=O)[O-]
REMARK SMILES IDX 7 1 6 2 5 3 4 4 2 5 1 6 3 7 8 8 9 9 10 10 11 11 12 12 13 13
REMARK H PARENT
REMARK Flexibility Score: inf
ROOT
ATOM      1  C   UNL     1     -39.145  23.445 -30.094  1.00  0.00     0.000 C 
ENDROOT
BRANCH   1   2
ATOM      2  C   UNL     1     -38.550  23.583 -28.682  1.00  0.00     0.000 C 
BRANCH   2   3
ATOM      3  C   UNL     1     -37.163  22.922 -28.530  1.00  0.00     0.006 C 
BRANCH   3   4
ATOM      4  C   UNL     1     -37.080  22.029 -27.285  1.00  0.00     0.053 C 
BRANCH   4   5
ATOM      5  C   UNL     1     -37.443  20.618 -27.627  1.00  0.00     0.041 C 
ATOM      6  O   UNL     1     -38.425  20.064 -27.066  1.00  0.00    -0.550 OA
ATOM      7  O   UNL     1     -36.668  19.899 -28.527  1.00  0.00    -0.550 OA
ENDBRANCH   4   5
ENDBRANCH   3   4
ENDBRANCH   2   3
ENDBRANCH   1   2
BRANCH   1   8
ATOM      8  C   UNL     1     -38.742  22.137 -30.788  1.00  0.00     0.000 C 
BRANCH   8   9
ATOM      9  C   UNL     1     -39.976  21.305 -31.152  1.00  0.00     0.006 C 
BRANCH   9  10
ATOM     10  C   UNL     1     -40.395  20.404 -29.986  1.00  0.00     0.053 C 
BRANCH  10  11
ATOM     11  C   UNL     1     -40.278  18.963 -30.367  1.00  0.00     0.041 C 
ATOM     12  O   UNL     1     -41.099  18.450 -31.171  1.00  0.00    -0.550 OA
ATOM     13  O   UNL     1     -39.229  18.197 -29.873  1.00  0.00    -0.550 OA
ENDBRANCH  10  11
ENDBRANCH   9  10
ENDBRANCH   8   9
ENDBRANCH   1   8
TORSDOF 8
ENDMDL
