MODEL 1
REMARK VINA RESULT:    -5.296      0.000      0.000
REMARK INTER + INTRA:         -11.778
REMARK INTER:                 -10.249
REMARK INTRA:                  -1.528
REMARK UNBOUND:                -1.528
REMARK SMILES CCCCCCCCCCCCCCCCCC(=O)[O-]
REMARK SMILES IDX 10 1 11 2 12 3 13 4 14 5 15 6 16 7 17 8 18 9 19 10 20 11
REMARK SMILES IDX 9 12 8 13 7 14 6 15 5 16 4 17 3 18 2 19 1 20
REMARK H PARENT
REMARK Flexibility Score: inf
ROOT
ATOM      1  C   UNL     1     -19.647  38.284  86.412  1.00  0.00     0.000 C 
ENDROOT
BRANCH   1   2
ATOM      2  C   UNL     1     -19.685  37.941  84.911  1.00  0.00     0.000 C 
BRANCH   2   3
ATOM      3  C   UNL     1     -18.582  36.979  84.433  1.00  0.00     0.000 C 
BRANCH   3   4
ATOM      4  C   UNL     1     -17.637  37.615  83.403  1.00  0.00     0.000 C 
BRANCH   4   5
ATOM      5  C   UNL     1     -16.441  36.695  83.114  1.00  0.00     0.000 C 
BRANCH   5   6
ATOM      6  C   UNL     1     -16.860  35.320  82.560  1.00  0.00     0.000 C 
BRANCH   6   7
ATOM      7  C   UNL     1     -17.032  35.257  81.031  1.00  0.00     0.006 C 
BRANCH   7   8
ATOM      8  C   UNL     1     -18.403  35.758  80.560  1.00  0.00     0.053 C 
BRANCH   8   9
ATOM      9  C   UNL     1     -18.246  36.963  79.686  1.00  0.00     0.041 C 
ATOM     10  O   UNL     1     -17.244  37.715  79.818  1.00  0.00    -0.550 OA
ATOM     11  O   UNL     1     -19.178  37.225  78.690  1.00  0.00    -0.550 OA
ENDBRANCH   8   9
ENDBRANCH   7   8
ENDBRANCH   6   7
ENDBRANCH   5   6
ENDBRANCH   4   5
ENDBRANCH   3   4
ENDBRANCH   2   3
ENDBRANCH   1   2
BRANCH   1  12
ATOM     12  C   UNL     1     -19.893  39.774  86.694  1.00  0.00     0.000 C 
BRANCH  12  13
ATOM     13  C   UNL     1     -20.906  39.955  87.835  1.00  0.00    -0.000 C 
BRANCH  13  14
ATOM     14  C   UNL     1     -20.359  40.818  88.987  1.00  0.00    -0.000 C 
BRANCH  14  15
ATOM     15  C   UNL     1     -20.887  40.443  90.386  1.00  0.00    -0.000 C 
BRANCH  15  16
ATOM     16  C   UNL     1     -20.105  39.326  91.105  1.00  0.00    -0.000 C 
BRANCH  16  17
ATOM     17  C   UNL     1     -18.573  39.465  91.048  1.00  0.00    -0.000 C 
BRANCH  17  18
ATOM     18  C   UNL     1     -17.907  38.376  90.194  1.00  0.00    -0.000 C 
BRANCH  18  19
ATOM     19  C   UNL     1     -18.902  37.257  89.863  1.00  0.00    -0.003 C 
ATOM     20  C   UNL     1     -18.199  36.072  89.206  1.00  0.00     0.004 C 
ENDBRANCH  18  19
ENDBRANCH  17  18
ENDBRANCH  16  17
ENDBRANCH  15  16
ENDBRANCH  14  15
ENDBRANCH  13  14
ENDBRANCH  12  13
ENDBRANCH   1  12
TORSDOF 16
ENDMDL
MODEL 2
REMARK VINA RESULT:    -5.227      5.879      8.499
REMARK INTER + INTRA:         -11.644
REMARK INTER:                  -9.670
REMARK INTRA:                  -1.974
REMARK UNBOUND:                -1.528
REMARK SMILES CCCCCCCCCCCCCCCCCC(=O)[O-]
REMARK SMILES IDX 10 1 11 2 12 3 13 4 14 5 15 6 16 7 17 8 18 9 19 10 20 11
REMARK SMILES IDX 9 12 8 13 7 14 6 15 5 16 4 17 3 18 2 19 1 20
REMARK H PARENT
REMARK Flexibility Score: inf
ROOT
ATOM      1  C   UNL     1     -19.440  41.156  87.046  1.00  0.00     0.000 C 
ENDROOT
BRANCH   1   2
ATOM      2  C   UNL     1     -20.367  41.060  88.271  1.00  0.00     0.000 C 
BRANCH   2   3
ATOM      3  C   UNL     1     -21.046  39.692  88.470  1.00  0.00     0.000 C 
BRANCH   3   4
ATOM      4  C   UNL     1     -20.444  38.589  87.588  1.00  0.00     0.000 C 
BRANCH   4   5
ATOM      5  C   UNL     1     -19.640  37.588  88.432  1.00  0.00     0.000 C 
BRANCH   5   6
ATOM      6  C   UNL     1     -19.699  37.890  89.941  1.00  0.00     0.000 C 
BRANCH   6   7
ATOM      7  C   UNL     1     -18.335  38.142  90.610  1.00  0.00     0.006 C 
BRANCH   7   8
ATOM      8  C   UNL     1     -17.692  39.467  90.181  1.00  0.00     0.053 C 
BRANCH   8   9
ATOM      9  C   UNL     1     -17.779  40.471  91.287  1.00  0.00     0.041 C 
ATOM     10  O   UNL     1     -16.734  40.859  91.874  1.00  0.00    -0.550 OA
ATOM     11  O   UNL     1     -19.008  41.017  91.635  1.00  0.00    -0.550 OA
ENDBRANCH   8   9
ENDBRANCH   7   8
ENDBRANCH   6   7
ENDBRANCH   5   6
ENDBRANCH   4   5
ENDBRANCH   3   4
ENDBRANCH   2   3
ENDBRANCH   1   2
BRANCH   1  12
ATOM     12  C   UNL     1     -19.720  42.391  86.176  1.00  0.00     0.000 C 
BRANCH  12  13
ATOM     13  C   UNL     1     -20.889  43.209  86.746  1.00  0.00    -0.000 C 
BRANCH  13  14
ATOM     14  C   UNL     1     -20.461  44.609  87.223  1.00  0.00    -0.000 C 
BRANCH  14  15
ATOM     15  C   UNL     1     -20.799  45.757  86.251  1.00  0.00    -0.000 C 
BRANCH  15  16
ATOM     16  C   UNL     1     -21.187  45.317  84.825  1.00  0.00    -0.000 C 
BRANCH  16  17
ATOM     17  C   UNL     1     -20.343  45.942  83.700  1.00  0.00    -0.000 C 
BRANCH  17  18
ATOM     18  C   UNL     1     -18.968  46.424  84.185  1.00  0.00    -0.000 C 
BRANCH  18  19
ATOM     19  C   UNL     1     -17.921  45.311  84.054  1.00  0.00    -0.003 C 
ATOM     20  C   UNL     1     -17.143  45.130  85.354  1.00  0.00     0.004 C 
ENDBRANCH  18  19
ENDBRANCH  17  18
ENDBRANCH  16  17
ENDBRANCH  15  16
ENDBRANCH  14  15
ENDBRANCH  13  14
ENDBRANCH  12  13
ENDBRANCH   1  12
TORSDOF 16
ENDMDL
MODEL 3
REMARK VINA RESULT:    -5.106      1.211      2.188
REMARK INTER + INTRA:         -11.411
REMARK INTER:                  -9.860
REMARK INTRA:                  -1.551
REMARK UNBOUND:                -1.528
REMARK SMILES CCCCCCCCCCCCCCCCCC(=O)[O-]
REMARK SMILES IDX 10 1 11 2 12 3 13 4 14 5 15 6 16 7 17 8 18 9 19 10 20 11
REMARK SMILES IDX 9 12 8 13 7 14 6 15 5 16 4 17 3 18 2 19 1 20
REMARK H PARENT
REMARK Flexibility Score: inf
ROOT
ATOM      1  C   UNL     1     -21.143  40.393  87.342  1.00  0.00     0.000 C 
ENDROOT
BRANCH   1   2
ATOM      2  C   UNL     1     -20.985  38.873  87.153  1.00  0.00     0.000 C 
BRANCH   2   3
ATOM      3  C   UNL     1     -19.666  38.431  86.494  1.00  0.00     0.000 C 
BRANCH   3   4
ATOM      4  C   UNL     1     -19.841  37.995  85.032  1.00  0.00     0.000 C 
BRANCH   4   5
ATOM      5  C   UNL     1     -18.716  37.040  84.605  1.00  0.00     0.000 C 
BRANCH   5   6
ATOM      6  C   UNL     1     -18.258  37.262  83.152  1.00  0.00     0.000 C 
BRANCH   6   7
ATOM      7  C   UNL     1     -16.991  36.487  82.742  1.00  0.00     0.006 C 
BRANCH   7   8
ATOM      8  C   UNL     1     -16.827  36.368  81.221  1.00  0.00     0.053 C 
BRANCH   8   9
ATOM      9  C   UNL     1     -18.017  35.688  80.620  1.00  0.00     0.041 C 
ATOM     10  O   UNL     1     -18.708  36.276  79.746  1.00  0.00    -0.550 OA
ATOM     11  O   UNL     1     -18.332  34.386  80.987  1.00  0.00    -0.550 OA
ENDBRANCH   8   9
ENDBRANCH   7   8
ENDBRANCH   6   7
ENDBRANCH   5   6
ENDBRANCH   4   5
ENDBRANCH   3   4
ENDBRANCH   2   3
ENDBRANCH   1   2
BRANCH   1  12
ATOM     12  C   UNL     1     -20.116  40.987  88.318  1.00  0.00     0.000 C 
BRANCH  12  13
ATOM     13  C   UNL     1     -20.801  41.899  89.347  1.00  0.00    -0.000 C 
BRANCH  13  14
ATOM     14  C   UNL     1     -20.930  41.244  90.733  1.00  0.00    -0.000 C 
BRANCH  14  15
ATOM     15  C   UNL     1     -19.609  40.710  91.324  1.00  0.00    -0.000 C 
BRANCH  15  16
ATOM     16  C   UNL     1     -19.647  39.243  91.796  1.00  0.00    -0.000 C 
BRANCH  16  17
ATOM     17  C   UNL     1     -19.895  38.208  90.684  1.00  0.00    -0.000 C 
BRANCH  17  18
ATOM     18  C   UNL     1     -18.596  37.693  90.049  1.00  0.00    -0.000 C 
BRANCH  18  19
ATOM     19  C   UNL     1     -18.810  36.320  89.400  1.00  0.00    -0.003 C 
ATOM     20  C   UNL     1     -17.495  35.741  88.887  1.00  0.00     0.004 C 
ENDBRANCH  18  19
ENDBRANCH  17  18
ENDBRANCH  16  17
ENDBRANCH  15  16
ENDBRANCH  14  15
ENDBRANCH  13  14
ENDBRANCH  12  13
ENDBRANCH   1  12
TORSDOF 16
ENDMDL
MODEL 4
REMARK VINA RESULT:    -5.092      3.866      8.646
REMARK INTER + INTRA:         -11.383
REMARK INTER:                 -10.436
REMARK INTRA:                  -0.947
REMARK UNBOUND:                -1.528
REMARK SMILES CCCCCCCCCCCCCCCCCC(=O)[O-]
REMARK SMILES IDX 10 1 11 2 12 3 13 4 14 5 15 6 16 7 17 8 18 9 19 10 20 11
REMARK SMILES IDX 9 12 8 13 7 14 6 15 5 16 4 17 3 18 2 19 1 20
REMARK H PARENT
REMARK Flexibility Score: inf
ROOT
ATOM      1  C   UNL     1     -19.466  38.610  85.821  1.00  0.00     0.000 C 
ENDROOT
BRANCH   1   2
ATOM      2  C   UNL     1     -20.570  38.505  86.889  1.00  0.00     0.000 C 
BRANCH   2   3
ATOM      3  C   UNL     1     -20.712  39.736  87.804  1.00  0.00     0.000 C 
BRANCH   3   4
ATOM      4  C   UNL     1     -20.079  41.002  87.209  1.00  0.00     0.000 C 
BRANCH   4   5
ATOM      5  C   UNL     1     -20.715  42.266  87.806  1.00  0.00     0.000 C 
BRANCH   5   6
ATOM      6  C   UNL     1     -20.526  43.511  86.918  1.00  0.00     0.000 C 
BRANCH   6   7
ATOM      7  C   UNL     1     -19.630  43.302  85.683  1.00  0.00     0.006 C 
BRANCH   7   8
ATOM      8  C   UNL     1     -18.761  44.524  85.358  1.00  0.00     0.053 C 
BRANCH   8   9
ATOM      9  C   UNL     1     -19.573  45.569  84.659  1.00  0.00     0.041 C 
ATOM     10  O   UNL     1     -19.275  46.787  84.779  1.00  0.00    -0.550 OA
ATOM     11  O   UNL     1     -20.626  45.195  83.835  1.00  0.00    -0.550 OA
ENDBRANCH   8   9
ENDBRANCH   7   8
ENDBRANCH   6   7
ENDBRANCH   5   6
ENDBRANCH   4   5
ENDBRANCH   3   4
ENDBRANCH   2   3
ENDBRANCH   1   2
BRANCH   1  12
ATOM     12  C   UNL     1     -19.624  37.581  84.691  1.00  0.00     0.000 C 
BRANCH  12  13
ATOM     13  C   UNL     1     -18.342  37.492  83.847  1.00  0.00    -0.000 C 
BRANCH  13  14
ATOM     14  C   UNL     1     -17.611  36.148  84.013  1.00  0.00    -0.000 C 
BRANCH  14  15
ATOM     15  C   UNL     1     -16.695  35.757  82.836  1.00  0.00    -0.000 C 
BRANCH  15  16
ATOM     16  C   UNL     1     -17.285  34.719  81.861  1.00  0.00    -0.000 C 
BRANCH  16  17
ATOM     17  C   UNL     1     -17.395  35.189  80.400  1.00  0.00    -0.000 C 
BRANCH  17  18
ATOM     18  C   UNL     1     -17.623  36.702  80.277  1.00  0.00    -0.000 C 
BRANCH  18  19
ATOM     19  C   UNL     1     -18.972  37.000  79.612  1.00  0.00    -0.003 C 
ATOM     20  C   UNL     1     -18.793  37.379  78.145  1.00  0.00     0.004 C 
ENDBRANCH  18  19
ENDBRANCH  17  18
ENDBRANCH  16  17
ENDBRANCH  15  16
ENDBRANCH  14  15
ENDBRANCH  13  14
ENDBRANCH  12  13
ENDBRANCH   1  12
TORSDOF 16
ENDMDL
MODEL 5
REMARK VINA RESULT:    -5.049      8.050     11.882
REMARK INTER + INTRA:         -11.300
REMARK INTER:                  -9.997
REMARK INTRA:                  -1.303
REMARK UNBOUND:                -1.528
REMARK SMILES CCCCCCCCCCCCCCCCCC(=O)[O-]
REMARK SMILES IDX 10 1 11 2 12 3 13 4 14 5 15 6 16 7 17 8 18 9 19 10 20 11
REMARK SMILES IDX 9 12 8 13 7 14 6 15 5 16 4 17 3 18 2 19 1 20
REMARK H PARENT
REMARK Flexibility Score: inf
ROOT
ATOM      1  C   UNL     1     -21.913  44.312  88.726  1.00  0.00     0.000 C 
ENDROOT
BRANCH   1   2
ATOM      2  C   UNL     1     -22.919  43.375  89.420  1.00  0.00     0.000 C 
BRANCH   2   3
ATOM      3  C   UNL     1     -24.401  43.691  89.145  1.00  0.00     0.000 C 
BRANCH   3   4
ATOM      4  C   UNL     1     -24.597  44.930  88.260  1.00  0.00     0.000 C 
BRANCH   4   5
ATOM      5  C   UNL     1     -25.987  45.547  88.477  1.00  0.00     0.000 C 
BRANCH   5   6
ATOM      6  C   UNL     1     -26.209  46.035  89.921  1.00  0.00     0.000 C 
BRANCH   6   7
ATOM      7  C   UNL     1     -27.433  45.429  90.633  1.00  0.00     0.006 C 
BRANCH   7   8
ATOM      8  C   UNL     1     -27.152  44.047  91.237  1.00  0.00     0.053 C 
BRANCH   8   9
ATOM      9  C   UNL     1     -28.099  43.032  90.678  1.00  0.00     0.041 C 
ATOM     10  O   UNL     1     -29.058  42.609  91.376  1.00  0.00    -0.550 OA
ATOM     11  O   UNL     1     -27.953  42.593  89.369  1.00  0.00    -0.550 OA
ENDBRANCH   8   9
ENDBRANCH   7   8
ENDBRANCH   6   7
ENDBRANCH   5   6
ENDBRANCH   4   5
ENDBRANCH   3   4
ENDBRANCH   2   3
ENDBRANCH   1   2
BRANCH   1  12
ATOM     12  C   UNL     1     -20.876  43.558  87.881  1.00  0.00     0.000 C 
BRANCH  12  13
ATOM     13  C   UNL     1     -20.631  44.277  86.544  1.00  0.00    -0.000 C 
BRANCH  13  14
ATOM     14  C   UNL     1     -19.450  43.684  85.756  1.00  0.00    -0.000 C 
BRANCH  14  15
ATOM     15  C   UNL     1     -18.269  44.649  85.530  1.00  0.00    -0.000 C 
BRANCH  15  16
ATOM     16  C   UNL     1     -18.021  45.051  84.062  1.00  0.00    -0.000 C 
BRANCH  16  17
ATOM     17  C   UNL     1     -17.904  46.565  83.813  1.00  0.00    -0.000 C 
BRANCH  17  18
ATOM     18  C   UNL     1     -19.070  47.125  82.986  1.00  0.00    -0.000 C 
BRANCH  18  19
ATOM     19  C   UNL     1     -20.142  46.052  82.756  1.00  0.00    -0.003 C 
ATOM     20  C   UNL     1     -21.384  46.323  83.600  1.00  0.00     0.004 C 
ENDBRANCH  18  19
ENDBRANCH  17  18
ENDBRANCH  16  17
ENDBRANCH  15  16
ENDBRANCH  14  15
ENDBRANCH  13  14
ENDBRANCH  12  13
ENDBRANCH   1  12
TORSDOF 16
ENDMDL
MODEL 6
REMARK VINA RESULT:    -5.045      8.291     11.732
REMARK INTER + INTRA:         -11.293
REMARK INTER:                  -9.410
REMARK INTRA:                  -1.882
REMARK UNBOUND:                -1.528
REMARK SMILES CCCCCCCCCCCCCCCCCC(=O)[O-]
REMARK SMILES IDX 10 1 11 2 12 3 13 4 14 5 15 6 16 7 17 8 18 9 19 10 20 11
REMARK SMILES IDX 9 12 8 13 7 14 6 15 5 16 4 17 3 18 2 19 1 20
REMARK H PARENT
REMARK Flexibility Score: inf
ROOT
ATOM      1  C   UNL     1     -22.136  45.719  88.663  1.00  0.00     0.000 C 
ENDROOT
BRANCH   1   2
ATOM      2  C   UNL     1     -23.296  46.638  88.239  1.00  0.00     0.000 C 
BRANCH   2   3
ATOM      3  C   UNL     1     -24.270  46.029  87.213  1.00  0.00     0.000 C 
BRANCH   3   4
ATOM      4  C   UNL     1     -25.722  45.991  87.713  1.00  0.00     0.000 C 
BRANCH   4   5
ATOM      5  C   UNL     1     -25.847  46.666  89.087  1.00  0.00     0.000 C 
BRANCH   5   6
ATOM      6  C   UNL     1     -26.573  45.789  90.124  1.00  0.00     0.000 C 
BRANCH   6   7
ATOM      7  C   UNL     1     -26.075  44.334  90.211  1.00  0.00     0.006 C 
BRANCH   7   8
ATOM      8  C   UNL     1     -26.826  43.504  91.261  1.00  0.00     0.053 C 
BRANCH   8   9
ATOM      9  C   UNL     1     -28.015  42.837  90.646  1.00  0.00     0.041 C 
ATOM     10  O   UNL     1     -27.994  42.499  89.433  1.00  0.00    -0.550 OA
ATOM     11  O   UNL     1     -29.126  42.542  91.424  1.00  0.00    -0.550 OA
ENDBRANCH   8   9
ENDBRANCH   7   8
ENDBRANCH   6   7
ENDBRANCH   5   6
ENDBRANCH   4   5
ENDBRANCH   3   4
ENDBRANCH   2   3
ENDBRANCH   1   2
BRANCH   1  12
ATOM     12  C   UNL     1     -22.512  44.230  88.645  1.00  0.00     0.000 C 
BRANCH  12  13
ATOM     13  C   UNL     1     -21.321  43.369  88.196  1.00  0.00    -0.000 C 
BRANCH  13  14
ATOM     14  C   UNL     1     -20.333  44.137  87.301  1.00  0.00    -0.000 C 
BRANCH  14  15
ATOM     15  C   UNL     1     -20.603  44.021  85.787  1.00  0.00    -0.000 C 
BRANCH  15  16
ATOM     16  C   UNL     1     -21.203  45.279  85.128  1.00  0.00    -0.000 C 
BRANCH  16  17
ATOM     17  C   UNL     1     -20.342  45.902  84.015  1.00  0.00    -0.000 C 
BRANCH  17  18
ATOM     18  C   UNL     1     -19.043  46.525  84.545  1.00  0.00    -0.000 C 
BRANCH  18  19
ATOM     19  C   UNL     1     -17.825  45.696  84.119  1.00  0.00    -0.003 C 
ATOM     20  C   UNL     1     -17.038  45.210  85.333  1.00  0.00     0.004 C 
ENDBRANCH  18  19
ENDBRANCH  17  18
ENDBRANCH  16  17
ENDBRANCH  15  16
ENDBRANCH  14  15
ENDBRANCH  13  14
ENDBRANCH  12  13
ENDBRANCH   1  12
TORSDOF 16
ENDMDL
MODEL 7
REMARK VINA RESULT:    -5.036      3.043      4.743
REMARK INTER + INTRA:         -11.275
REMARK INTER:                 -10.401
REMARK INTRA:                  -0.874
REMARK UNBOUND:                -1.528
REMARK SMILES CCCCCCCCCCCCCCCCCC(=O)[O-]
REMARK SMILES IDX 10 1 11 2 12 3 13 4 14 5 15 6 16 7 17 8 18 9 19 10 20 11
REMARK SMILES IDX 9 12 8 13 7 14 6 15 5 16 4 17 3 18 2 19 1 20
REMARK H PARENT
REMARK Flexibility Score: inf
ROOT
ATOM      1  C   UNL     1     -21.021  38.896  87.589  1.00  0.00     0.000 C 
ENDROOT
BRANCH   1   2
ATOM      2  C   UNL     1     -19.888  38.089  86.928  1.00  0.00     0.000 C 
BRANCH   2   3
ATOM      3  C   UNL     1     -19.495  38.553  85.514  1.00  0.00     0.000 C 
BRANCH   3   4
ATOM      4  C   UNL     1     -19.495  37.412  84.486  1.00  0.00     0.000 C 
BRANCH   4   5
ATOM      5  C   UNL     1     -18.201  37.418  83.658  1.00  0.00     0.000 C 
BRANCH   5   6
ATOM      6  C   UNL     1     -17.347  36.154  83.868  1.00  0.00     0.000 C 
BRANCH   6   7
ATOM      7  C   UNL     1     -16.984  35.391  82.580  1.00  0.00     0.006 C 
BRANCH   7   8
ATOM      8  C   UNL     1     -16.976  36.286  81.334  1.00  0.00     0.053 C 
BRANCH   8   9
ATOM      9  C   UNL     1     -18.003  35.820  80.350  1.00  0.00     0.041 C 
ATOM     10  O   UNL     1     -18.326  34.604  80.300  1.00  0.00    -0.550 OA
ATOM     11  O   UNL     1     -18.640  36.737  79.524  1.00  0.00    -0.550 OA
ENDBRANCH   8   9
ENDBRANCH   7   8
ENDBRANCH   6   7
ENDBRANCH   5   6
ENDBRANCH   4   5
ENDBRANCH   3   4
ENDBRANCH   2   3
ENDBRANCH   1   2
BRANCH   1  12
ATOM     12  C   UNL     1     -20.614  39.511  88.935  1.00  0.00     0.000 C 
BRANCH  12  13
ATOM     13  C   UNL     1     -19.741  40.759  88.727  1.00  0.00    -0.000 C 
BRANCH  13  14
ATOM     14  C   UNL     1     -20.570  42.032  88.480  1.00  0.00    -0.000 C 
BRANCH  14  15
ATOM     15  C   UNL     1     -20.925  42.299  87.003  1.00  0.00    -0.000 C 
BRANCH  15  16
ATOM     16  C   UNL     1     -19.734  42.681  86.100  1.00  0.00    -0.000 C 
BRANCH  16  17
ATOM     17  C   UNL     1     -19.326  44.164  86.156  1.00  0.00    -0.000 C 
BRANCH  17  18
ATOM     18  C   UNL     1     -18.830  44.696  84.804  1.00  0.00    -0.000 C 
BRANCH  18  19
ATOM     19  C   UNL     1     -17.434  45.318  84.940  1.00  0.00    -0.003 C 
ATOM     20  C   UNL     1     -17.394  46.719  84.337  1.00  0.00     0.004 C 
ENDBRANCH  18  19
ENDBRANCH  17  18
ENDBRANCH  16  17
ENDBRANCH  15  16
ENDBRANCH  14  15
ENDBRANCH  13  14
ENDBRANCH  12  13
ENDBRANCH   1  12
TORSDOF 16
ENDMDL
MODEL 8
REMARK VINA RESULT:    -5.023      3.866      8.119
REMARK INTER + INTRA:         -11.249
REMARK INTER:                  -9.969
REMARK INTRA:                  -1.281
REMARK UNBOUND:                -1.528
REMARK SMILES CCCCCCCCCCCCCCCCCC(=O)[O-]
REMARK SMILES IDX 10 1 11 2 12 3 13 4 14 5 15 6 16 7 17 8 18 9 19 10 20 11
REMARK SMILES IDX 9 12 8 13 7 14 6 15 5 16 4 17 3 18 2 19 1 20
REMARK H PARENT
REMARK Flexibility Score: inf
ROOT
ATOM      1  C   UNL     1     -19.592  38.015  88.415  1.00  0.00     0.000 C 
ENDROOT
BRANCH   1   2
ATOM      2  C   UNL     1     -19.587  39.018  89.584  1.00  0.00     0.000 C 
BRANCH   2   3
ATOM      3  C   UNL     1     -19.193  40.458  89.207  1.00  0.00     0.000 C 
BRANCH   3   4
ATOM      4  C   UNL     1     -20.373  41.438  89.269  1.00  0.00     0.000 C 
BRANCH   4   5
ATOM      5  C   UNL     1     -20.913  41.737  87.863  1.00  0.00     0.000 C 
BRANCH   5   6
ATOM      6  C   UNL     1     -19.807  41.800  86.793  1.00  0.00     0.000 C 
BRANCH   6   7
ATOM      7  C   UNL     1     -19.806  43.076  85.930  1.00  0.00     0.006 C 
BRANCH   7   8
ATOM      8  C   UNL     1     -20.597  44.228  86.562  1.00  0.00     0.053 C 
BRANCH   8   9
ATOM      9  C   UNL     1     -21.237  45.065  85.500  1.00  0.00     0.041 C 
ATOM     10  O   UNL     1     -20.890  44.936  84.297  1.00  0.00    -0.550 OA
ATOM     11  O   UNL     1     -22.254  45.951  85.832  1.00  0.00    -0.550 OA
ENDBRANCH   8   9
ENDBRANCH   7   8
ENDBRANCH   6   7
ENDBRANCH   5   6
ENDBRANCH   4   5
ENDBRANCH   3   4
ENDBRANCH   2   3
ENDBRANCH   1   2
BRANCH   1  12
ATOM     12  C   UNL     1     -20.847  38.125  87.536  1.00  0.00     0.000 C 
BRANCH  12  13
ATOM     13  C   UNL     1     -20.474  38.496  86.092  1.00  0.00    -0.000 C 
BRANCH  13  14
ATOM     14  C   UNL     1     -19.154  37.851  85.633  1.00  0.00    -0.000 C 
BRANCH  14  15
ATOM     15  C   UNL     1     -19.140  37.374  84.167  1.00  0.00    -0.000 C 
BRANCH  15  16
ATOM     16  C   UNL     1     -17.805  36.771  83.685  1.00  0.00    -0.000 C 
BRANCH  16  17
ATOM     17  C   UNL     1     -17.282  37.334  82.351  1.00  0.00    -0.000 C 
BRANCH  17  18
ATOM     18  C   UNL     1     -17.797  36.554  81.133  1.00  0.00    -0.000 C 
BRANCH  18  19
ATOM     19  C   UNL     1     -17.618  37.368  79.846  1.00  0.00    -0.003 C 
ATOM     20  C   UNL     1     -18.742  37.087  78.854  1.00  0.00     0.004 C 
ENDBRANCH  18  19
ENDBRANCH  17  18
ENDBRANCH  16  17
ENDBRANCH  15  16
ENDBRANCH  14  15
ENDBRANCH  13  14
ENDBRANCH  12  13
ENDBRANCH   1  12
TORSDOF 16
ENDMDL
MODEL 9
REMARK VINA RESULT:    -4.982      8.133     11.754
REMARK INTER + INTRA:         -11.171
REMARK INTER:                  -9.857
REMARK INTRA:                  -1.314
REMARK UNBOUND:                -1.528
REMARK SMILES CCCCCCCCCCCCCCCCCC(=O)[O-]
REMARK SMILES IDX 10 1 11 2 12 3 13 4 14 5 15 6 16 7 17 8 18 9 19 10 20 11
REMARK SMILES IDX 9 12 8 13 7 14 6 15 5 16 4 17 3 18 2 19 1 20
REMARK H PARENT
REMARK Flexibility Score: inf
ROOT
ATOM      1  C   UNL     1     -21.891  46.310  85.757  1.00  0.00     0.000 C 
ENDROOT
BRANCH   1   2
ATOM      2  C   UNL     1     -23.298  46.801  86.143  1.00  0.00     0.000 C 
BRANCH   2   3
ATOM      3  C   UNL     1     -23.676  46.602  87.622  1.00  0.00     0.000 C 
BRANCH   3   4
ATOM      4  C   UNL     1     -24.716  45.492  87.831  1.00  0.00     0.000 C 
BRANCH   4   5
ATOM      5  C   UNL     1     -26.082  46.083  88.212  1.00  0.00     0.000 C 
BRANCH   5   6
ATOM      6  C   UNL     1     -26.490  45.768  89.663  1.00  0.00     0.000 C 
BRANCH   6   7
ATOM      7  C   UNL     1     -25.934  44.447  90.226  1.00  0.00     0.006 C 
BRANCH   7   8
ATOM      8  C   UNL     1     -26.864  43.796  91.258  1.00  0.00     0.053 C 
BRANCH   8   9
ATOM      9  C   UNL     1     -28.017  43.131  90.574  1.00  0.00     0.041 C 
ATOM     10  O   UNL     1     -29.198  43.397  90.923  1.00  0.00    -0.550 OA
ATOM     11  O   UNL     1     -27.790  42.259  89.518  1.00  0.00    -0.550 OA
ENDBRANCH   8   9
ENDBRANCH   7   8
ENDBRANCH   6   7
ENDBRANCH   5   6
ENDBRANCH   4   5
ENDBRANCH   3   4
ENDBRANCH   2   3
ENDBRANCH   1   2
BRANCH   1  12
ATOM     12  C   UNL     1     -21.281  47.095  84.585  1.00  0.00     0.000 C 
BRANCH  12  13
ATOM     13  C   UNL     1     -21.069  46.183  83.366  1.00  0.00    -0.000 C 
BRANCH  13  14
ATOM     14  C   UNL     1     -19.676  46.349  82.733  1.00  0.00    -0.000 C 
BRANCH  14  15
ATOM     15  C   UNL     1     -18.660  47.125  83.594  1.00  0.00    -0.000 C 
BRANCH  15  16
ATOM     16  C   UNL     1     -17.703  46.250  84.429  1.00  0.00    -0.000 C 
BRANCH  16  17
ATOM     17  C   UNL     1     -18.073  44.757  84.488  1.00  0.00    -0.000 C 
BRANCH  17  18
ATOM     18  C   UNL     1     -18.762  44.366  85.803  1.00  0.00    -0.000 C 
BRANCH  18  19
ATOM     19  C   UNL     1     -19.886  43.354  85.551  1.00  0.00    -0.003 C 
ATOM     20  C   UNL     1     -19.800  42.181  86.524  1.00  0.00     0.004 C 
ENDBRANCH  18  19
ENDBRANCH  17  18
ENDBRANCH  16  17
ENDBRANCH  15  16
ENDBRANCH  14  15
ENDBRANCH  13  14
ENDBRANCH  12  13
ENDBRANCH   1  12
TORSDOF 16
ENDMDL
