MODEL 1
REMARK VINA RESULT:    -5.230      0.000      0.000
REMARK INTER + INTRA:         -15.592
REMARK INTER:                 -11.956
REMARK INTRA:                  -3.636
REMARK UNBOUND:                -3.636
REMARK SMILES CCCCCCCCCCCCCCCCCCCCCCCC(=O)[O-]
REMARK SMILES IDX 13 1 14 2 15 3 16 4 17 5 18 6 19 7 20 8 21 9 22 10 23 11
REMARK SMILES IDX 24 12 25 13 26 14 12 15 11 16 10 17 9 18 8 19 7 20 6 21 5 22
REMARK SMILES IDX 4 23 3 24 2 25 1 26
REMARK H PARENT
REMARK Flexibility Score: inf
ROOT
ATOM      1  C   UNL     1      17.163  20.325  10.146  1.00  0.00     0.000 C 
ENDROOT
BRANCH   1   2
ATOM      2  C   UNL     1      17.385  21.730  10.737  1.00  0.00     0.000 C 
BRANCH   2   3
ATOM      3  C   UNL     1      18.735  21.937  11.453  1.00  0.00     0.000 C 
BRANCH   3   4
ATOM      4  C   UNL     1      19.753  22.809  10.697  1.00  0.00     0.000 C 
BRANCH   4   5
ATOM      5  C   UNL     1      20.291  22.132   9.424  1.00  0.00     0.000 C 
BRANCH   5   6
ATOM      6  C   UNL     1      21.125  23.091   8.559  1.00  0.00     0.000 C 
BRANCH   6   7
ATOM      7  C   UNL     1      21.810  22.379   7.382  1.00  0.00     0.000 C 
BRANCH   7   8
ATOM      8  C   UNL     1      21.729  20.857   7.542  1.00  0.00     0.000 C 
BRANCH   8   9
ATOM      9  C   UNL     1      22.351  20.140   6.337  1.00  0.00     0.000 C 
BRANCH   9  10
ATOM     10  C   UNL     1      23.548  19.283   6.764  1.00  0.00     0.006 C 
BRANCH  10  11
ATOM     11  C   UNL     1      24.199  18.605   5.554  1.00  0.00     0.053 C 
BRANCH  11  12
ATOM     12  C   UNL     1      23.537  17.294   5.268  1.00  0.00     0.041 C 
ATOM     13  O   UNL     1      24.050  16.492   4.443  1.00  0.00    -0.550 OA
ATOM     14  O   UNL     1      22.379  16.937   5.946  1.00  0.00    -0.550 OA
ENDBRANCH  11  12
ENDBRANCH  10  11
ENDBRANCH   9  10
ENDBRANCH   8   9
ENDBRANCH   7   8
ENDBRANCH   6   7
ENDBRANCH   5   6
ENDBRANCH   4   5
ENDBRANCH   3   4
ENDBRANCH   2   3
ENDBRANCH   1   2
BRANCH   1  15
ATOM     15  C   UNL     1      17.052  20.333   8.612  1.00  0.00     0.000 C 
BRANCH  15  16
ATOM     16  C   UNL     1      18.279  19.701   7.935  1.00  0.00     0.000 C 
BRANCH  16  17
ATOM     17  C   UNL     1      17.959  19.157   6.531  1.00  0.00     0.000 C 
BRANCH  17  18
ATOM     18  C   UNL     1      17.626  20.273   5.527  1.00  0.00    -0.000 C 
BRANCH  18  19
ATOM     19  C   UNL     1      18.867  21.072   5.092  1.00  0.00    -0.000 C 
BRANCH  19  20
ATOM     20  C   UNL     1      18.882  22.503   5.673  1.00  0.00    -0.000 C 
BRANCH  20  21
ATOM     21  C   UNL     1      17.505  22.993   6.161  1.00  0.00    -0.000 C 
BRANCH  21  22
ATOM     22  C   UNL     1      17.532  24.252   7.049  1.00  0.00    -0.000 C 
BRANCH  22  23
ATOM     23  C   UNL     1      16.915  24.077   8.449  1.00  0.00    -0.000 C 
BRANCH  23  24
ATOM     24  C   UNL     1      17.274  25.227   9.406  1.00  0.00    -0.000 C 
BRANCH  24  25
ATOM     25  C   UNL     1      18.660  25.827   9.112  1.00  0.00    -0.003 C 
ATOM     26  C   UNL     1      18.611  27.329   8.835  1.00  0.00     0.004 C 
ENDBRANCH  24  25
ENDBRANCH  23  24
ENDBRANCH  22  23
ENDBRANCH  21  22
ENDBRANCH  20  21
ENDBRANCH  19  20
ENDBRANCH  18  19
ENDBRANCH  17  18
ENDBRANCH  16  17
ENDBRANCH  15  16
ENDBRANCH   1  15
TORSDOF 22
ENDMDL
MODEL 2
REMARK VINA RESULT:    -5.214      1.780      3.945
REMARK INTER + INTRA:         -15.556
REMARK INTER:                 -11.331
REMARK INTRA:                  -4.225
REMARK UNBOUND:                -3.636
REMARK SMILES CCCCCCCCCCCCCCCCCCCCCCCC(=O)[O-]
REMARK SMILES IDX 13 1 14 2 15 3 16 4 17 5 18 6 19 7 20 8 21 9 22 10 23 11
REMARK SMILES IDX 24 12 25 13 26 14 12 15 11 16 10 17 9 18 8 19 7 20 6 21 5 22
REMARK SMILES IDX 4 23 3 24 2 25 1 26
REMARK H PARENT
REMARK Flexibility Score: inf
ROOT
ATOM      1  C   UNL     1      21.674  23.127   9.867  1.00  0.00     0.000 C 
ENDROOT
BRANCH   1   2
ATOM      2  C   UNL     1      21.556  22.769   8.374  1.00  0.00     0.000 C 
BRANCH   2   3
ATOM      3  C   UNL     1      22.090  21.375   7.988  1.00  0.00     0.000 C 
BRANCH   3   4
ATOM      4  C   UNL     1      21.319  20.665   6.859  1.00  0.00     0.000 C 
BRANCH   4   5
ATOM      5  C   UNL     1      21.156  21.540   5.605  1.00  0.00     0.000 C 
BRANCH   5   6
ATOM      6  C   UNL     1      21.755  20.882   4.350  1.00  0.00     0.000 C 
BRANCH   6   7
ATOM      7  C   UNL     1      22.878  19.888   4.684  1.00  0.00     0.000 C 
BRANCH   7   8
ATOM      8  C   UNL     1      22.721  18.595   3.875  1.00  0.00     0.000 C 
BRANCH   8   9
ATOM      9  C   UNL     1      23.024  17.362   4.737  1.00  0.00     0.000 C 
BRANCH   9  10
ATOM     10  C   UNL     1      21.750  16.556   5.011  1.00  0.00     0.006 C 
BRANCH  10  11
ATOM     11  C   UNL     1      21.050  17.047   6.282  1.00  0.00     0.053 C 
BRANCH  11  12
ATOM     12  C   UNL     1      19.611  17.349   6.006  1.00  0.00     0.041 C 
ATOM     13  O   UNL     1      18.704  16.674   6.561  1.00  0.00    -0.550 OA
ATOM     14  O   UNL     1      19.270  18.407   5.173  1.00  0.00    -0.550 OA
ENDBRANCH  11  12
ENDBRANCH  10  11
ENDBRANCH   9  10
ENDBRANCH   8   9
ENDBRANCH   7   8
ENDBRANCH   6   7
ENDBRANCH   5   6
ENDBRANCH   4   5
ENDBRANCH   3   4
ENDBRANCH   2   3
ENDBRANCH   1   2
BRANCH   1  15
ATOM     15  C   UNL     1      20.332  23.558  10.486  1.00  0.00     0.000 C 
BRANCH  15  16
ATOM     16  C   UNL     1      19.497  22.358  10.961  1.00  0.00     0.000 C 
BRANCH  16  17
ATOM     17  C   UNL     1      17.985  22.646  10.925  1.00  0.00     0.000 C 
BRANCH  17  18
ATOM     18  C   UNL     1      17.217  21.661  10.029  1.00  0.00    -0.000 C 
BRANCH  18  19
ATOM     19  C   UNL     1      18.147  20.702   9.265  1.00  0.00    -0.000 C 
BRANCH  19  20
ATOM     20  C   UNL     1      17.827  20.645   7.756  1.00  0.00    -0.000 C 
BRANCH  20  21
ATOM     21  C   UNL     1      17.105  21.898   7.223  1.00  0.00    -0.000 C 
BRANCH  21  22
ATOM     22  C   UNL     1      18.007  22.922   6.508  1.00  0.00    -0.000 C 
BRANCH  22  23
ATOM     23  C   UNL     1      18.455  24.114   7.374  1.00  0.00    -0.000 C 
BRANCH  23  24
ATOM     24  C   UNL     1      17.271  24.881   7.988  1.00  0.00    -0.000 C 
BRANCH  24  25
ATOM     25  C   UNL     1      17.703  25.815   9.131  1.00  0.00    -0.003 C 
ATOM     26  C   UNL     1      18.966  26.612   8.803  1.00  0.00     0.004 C 
ENDBRANCH  24  25
ENDBRANCH  23  24
ENDBRANCH  22  23
ENDBRANCH  21  22
ENDBRANCH  20  21
ENDBRANCH  19  20
ENDBRANCH  18  19
ENDBRANCH  17  18
ENDBRANCH  16  17
ENDBRANCH  15  16
ENDBRANCH   1  15
TORSDOF 22
ENDMDL
MODEL 3
REMARK VINA RESULT:    -5.091      1.441      3.560
REMARK INTER + INTRA:         -15.274
REMARK INTER:                 -11.097
REMARK INTRA:                  -4.177
REMARK UNBOUND:                -3.636
REMARK SMILES CCCCCCCCCCCCCCCCCCCCCCCC(=O)[O-]
REMARK SMILES IDX 13 1 14 2 15 3 16 4 17 5 18 6 19 7 20 8 21 9 22 10 23 11
REMARK SMILES IDX 24 12 25 13 26 14 12 15 11 16 10 17 9 18 8 19 7 20 6 21 5 22
REMARK SMILES IDX 4 23 3 24 2 25 1 26
REMARK H PARENT
REMARK Flexibility Score: inf
ROOT
ATOM      1  C   UNL     1      19.065  22.020  10.933  1.00  0.00     0.000 C 
ENDROOT
BRANCH   1   2
ATOM      2  C   UNL     1      17.690  21.872  10.258  1.00  0.00     0.000 C 
BRANCH   2   3
ATOM      3  C   UNL     1      17.186  20.423  10.101  1.00  0.00     0.000 C 
BRANCH   3   4
ATOM      4  C   UNL     1      17.593  19.724   8.791  1.00  0.00     0.000 C 
BRANCH   4   5
ATOM      5  C   UNL     1      16.910  20.328   7.553  1.00  0.00     0.000 C 
BRANCH   5   6
ATOM      6  C   UNL     1      16.999  19.407   6.325  1.00  0.00     0.000 C 
BRANCH   6   7
ATOM      7  C   UNL     1      18.340  18.662   6.243  1.00  0.00     0.000 C 
BRANCH   7   8
ATOM      8  C   UNL     1      18.813  18.546   4.789  1.00  0.00     0.000 C 
BRANCH   8   9
ATOM      9  C   UNL     1      20.117  17.744   4.693  1.00  0.00     0.000 C 
BRANCH   9  10
ATOM     10  C   UNL     1      21.336  18.649   4.905  1.00  0.00     0.006 C 
BRANCH  10  11
ATOM     11  C   UNL     1      22.262  18.080   5.984  1.00  0.00     0.053 C 
BRANCH  11  12
ATOM     12  C   UNL     1      23.583  18.783   5.966  1.00  0.00     0.041 C 
ATOM     13  O   UNL     1      24.008  19.359   7.002  1.00  0.00    -0.550 OA
ATOM     14  O   UNL     1      24.366  18.762   4.820  1.00  0.00    -0.550 OA
ENDBRANCH  11  12
ENDBRANCH  10  11
ENDBRANCH   9  10
ENDBRANCH   8   9
ENDBRANCH   7   8
ENDBRANCH   6   7
ENDBRANCH   5   6
ENDBRANCH   4   5
ENDBRANCH   3   4
ENDBRANCH   2   3
ENDBRANCH   1   2
BRANCH   1  15
ATOM     15  C   UNL     1      19.752  23.357  10.603  1.00  0.00     0.000 C 
BRANCH  15  16
ATOM     16  C   UNL     1      21.271  23.202  10.421  1.00  0.00     0.000 C 
BRANCH  16  17
ATOM     17  C   UNL     1      21.685  23.190   8.938  1.00  0.00     0.000 C 
BRANCH  17  18
ATOM     18  C   UNL     1      21.912  21.768   8.400  1.00  0.00    -0.000 C 
BRANCH  18  19
ATOM     19  C   UNL     1      20.812  21.318   7.422  1.00  0.00    -0.000 C 
BRANCH  19  20
ATOM     20  C   UNL     1      20.673  22.269   6.213  1.00  0.00    -0.000 C 
BRANCH  20  21
ATOM     21  C   UNL     1      19.333  22.133   5.463  1.00  0.00    -0.000 C 
BRANCH  21  22
ATOM     22  C   UNL     1      18.253  23.159   5.854  1.00  0.00    -0.000 C 
BRANCH  22  23
ATOM     23  C   UNL     1      18.440  23.807   7.239  1.00  0.00    -0.000 C 
BRANCH  23  24
ATOM     24  C   UNL     1      17.188  24.563   7.715  1.00  0.00    -0.000 C 
BRANCH  24  25
ATOM     25  C   UNL     1      17.491  25.543   8.861  1.00  0.00    -0.003 C 
ATOM     26  C   UNL     1      18.828  26.265   8.688  1.00  0.00     0.004 C 
ENDBRANCH  24  25
ENDBRANCH  23  24
ENDBRANCH  22  23
ENDBRANCH  21  22
ENDBRANCH  20  21
ENDBRANCH  19  20
ENDBRANCH  18  19
ENDBRANCH  17  18
ENDBRANCH  16  17
ENDBRANCH  15  16
ENDBRANCH   1  15
TORSDOF 22
ENDMDL
MODEL 4
REMARK VINA RESULT:    -5.079      1.389      4.372
REMARK INTER + INTRA:         -15.247
REMARK INTER:                 -11.775
REMARK INTRA:                  -3.473
REMARK UNBOUND:                -3.636
REMARK SMILES CCCCCCCCCCCCCCCCCCCCCCCC(=O)[O-]
REMARK SMILES IDX 13 1 14 2 15 3 16 4 17 5 18 6 19 7 20 8 21 9 22 10 23 11
REMARK SMILES IDX 24 12 25 13 26 14 12 15 11 16 10 17 9 18 8 19 7 20 6 21 5 22
REMARK SMILES IDX 4 23 3 24 2 25 1 26
REMARK H PARENT
REMARK Flexibility Score: inf
ROOT
ATOM      1  C   UNL     1      21.013  23.514  10.584  1.00  0.00     0.000 C 
ENDROOT
BRANCH   1   2
ATOM      2  C   UNL     1      22.040  22.965   9.577  1.00  0.00     0.000 C 
BRANCH   2   3
ATOM      3  C   UNL     1      21.464  22.552   8.208  1.00  0.00     0.000 C 
BRANCH   3   4
ATOM      4  C   UNL     1      21.480  21.041   7.916  1.00  0.00     0.000 C 
BRANCH   4   5
ATOM      5  C   UNL     1      22.402  20.669   6.742  1.00  0.00     0.000 C 
BRANCH   5   6
ATOM      6  C   UNL     1      22.009  21.386   5.439  1.00  0.00     0.000 C 
BRANCH   6   7
ATOM      7  C   UNL     1      22.427  20.602   4.185  1.00  0.00     0.000 C 
BRANCH   7   8
ATOM      8  C   UNL     1      21.963  19.143   4.273  1.00  0.00     0.000 C 
BRANCH   8   9
ATOM      9  C   UNL     1      23.135  18.176   4.066  1.00  0.00     0.000 C 
BRANCH   9  10
ATOM     10  C   UNL     1      23.422  17.378   5.342  1.00  0.00     0.006 C 
BRANCH  10  11
ATOM     11  C   UNL     1      22.132  17.101   6.119  1.00  0.00     0.053 C 
BRANCH  11  12
ATOM     12  C   UNL     1      21.881  15.628   6.214  1.00  0.00     0.041 C 
ATOM     13  O   UNL     1      21.098  15.174   7.088  1.00  0.00    -0.550 OA
ATOM     14  O   UNL     1      22.476  14.763   5.305  1.00  0.00    -0.550 OA
ENDBRANCH  11  12
ENDBRANCH  10  11
ENDBRANCH   9  10
ENDBRANCH   8   9
ENDBRANCH   7   8
ENDBRANCH   6   7
ENDBRANCH   5   6
ENDBRANCH   4   5
ENDBRANCH   3   4
ENDBRANCH   2   3
ENDBRANCH   1   2
BRANCH   1  15
ATOM     15  C   UNL     1      19.643  22.822  10.476  1.00  0.00     0.000 C 
BRANCH  15  16
ATOM     16  C   UNL     1      18.490  23.831  10.336  1.00  0.00     0.000 C 
BRANCH  16  17
ATOM     17  C   UNL     1      18.922  25.115   9.604  1.00  0.00     0.000 C 
BRANCH  17  18
ATOM     18  C   UNL     1      18.012  25.449   8.411  1.00  0.00    -0.000 C 
BRANCH  18  19
ATOM     19  C   UNL     1      17.004  24.328   8.099  1.00  0.00    -0.000 C 
BRANCH  19  20
ATOM     20  C   UNL     1      17.196  23.739   6.684  1.00  0.00    -0.000 C 
BRANCH  20  21
ATOM     21  C   UNL     1      18.632  23.260   6.396  1.00  0.00    -0.000 C 
BRANCH  21  22
ATOM     22  C   UNL     1      18.749  22.107   5.382  1.00  0.00    -0.000 C 
BRANCH  22  23
ATOM     23  C   UNL     1      17.860  20.884   5.678  1.00  0.00    -0.000 C 
BRANCH  23  24
ATOM     24  C   UNL     1      18.496  19.918   6.693  1.00  0.00    -0.000 C 
BRANCH  24  25
ATOM     25  C   UNL     1      17.510  19.481   7.789  1.00  0.00    -0.003 C 
ATOM     26  C   UNL     1      17.697  20.248   9.098  1.00  0.00     0.004 C 
ENDBRANCH  24  25
ENDBRANCH  23  24
ENDBRANCH  22  23
ENDBRANCH  21  22
ENDBRANCH  20  21
ENDBRANCH  19  20
ENDBRANCH  18  19
ENDBRANCH  17  18
ENDBRANCH  16  17
ENDBRANCH  15  16
ENDBRANCH   1  15
TORSDOF 22
ENDMDL
MODEL 5
REMARK VINA RESULT:    -4.975      2.101      5.490
REMARK INTER + INTRA:         -15.010
REMARK INTER:                 -11.593
REMARK INTRA:                  -3.418
REMARK UNBOUND:                -3.636
REMARK SMILES CCCCCCCCCCCCCCCCCCCCCCCC(=O)[O-]
REMARK SMILES IDX 13 1 14 2 15 3 16 4 17 5 18 6 19 7 20 8 21 9 22 10 23 11
REMARK SMILES IDX 24 12 25 13 26 14 12 15 11 16 10 17 9 18 8 19 7 20 6 21 5 22
REMARK SMILES IDX 4 23 3 24 2 25 1 26
REMARK H PARENT
REMARK Flexibility Score: inf
ROOT
ATOM      1  C   UNL     1      22.057  20.312   7.245  1.00  0.00     0.000 C 
ENDROOT
BRANCH   1   2
ATOM      2  C   UNL     1      23.265  19.401   6.959  1.00  0.00     0.000 C 
BRANCH   2   3
ATOM      3  C   UNL     1      23.581  19.177   5.466  1.00  0.00     0.000 C 
BRANCH   3   4
ATOM      4  C   UNL     1      24.836  18.332   5.180  1.00  0.00     0.000 C 
BRANCH   4   5
ATOM      5  C   UNL     1      24.513  17.000   4.483  1.00  0.00     0.000 C 
BRANCH   5   6
ATOM      6  C   UNL     1      23.084  16.966   3.917  1.00  0.00     0.000 C 
BRANCH   6   7
ATOM      7  C   UNL     1      22.420  15.589   4.073  1.00  0.00     0.000 C 
BRANCH   7   8
ATOM      8  C   UNL     1      22.492  15.108   5.527  1.00  0.00     0.000 C 
BRANCH   8   9
ATOM      9  C   UNL     1      21.709  16.043   6.458  1.00  0.00     0.000 C 
BRANCH   9  10
ATOM     10  C   UNL     1      20.262  16.210   5.980  1.00  0.00     0.006 C 
BRANCH  10  11
ATOM     11  C   UNL     1      19.874  17.689   5.906  1.00  0.00     0.053 C 
BRANCH  11  12
ATOM     12  C   UNL     1      18.794  17.999   6.895  1.00  0.00     0.041 C 
ATOM     13  O   UNL     1      18.693  19.157   7.380  1.00  0.00    -0.550 OA
ATOM     14  O   UNL     1      17.872  17.023   7.245  1.00  0.00    -0.550 OA
ENDBRANCH  11  12
ENDBRANCH  10  11
ENDBRANCH   9  10
ENDBRANCH   8   9
ENDBRANCH   7   8
ENDBRANCH   6   7
ENDBRANCH   5   6
ENDBRANCH   4   5
ENDBRANCH   3   4
ENDBRANCH   2   3
ENDBRANCH   1   2
BRANCH   1  15
ATOM     15  C   UNL     1      21.743  21.270   6.083  1.00  0.00     0.000 C 
BRANCH  15  16
ATOM     16  C   UNL     1      20.765  22.383   6.494  1.00  0.00     0.000 C 
BRANCH  16  17
ATOM     17  C   UNL     1      19.420  22.285   5.751  1.00  0.00     0.000 C 
BRANCH  17  18
ATOM     18  C   UNL     1      18.214  22.479   6.685  1.00  0.00    -0.000 C 
BRANCH  18  19
ATOM     19  C   UNL     1      17.612  23.893   6.594  1.00  0.00    -0.000 C 
BRANCH  19  20
ATOM     20  C   UNL     1      17.170  24.436   7.970  1.00  0.00    -0.000 C 
BRANCH  20  21
ATOM     21  C   UNL     1      17.835  25.771   8.357  1.00  0.00    -0.000 C 
BRANCH  21  22
ATOM     22  C   UNL     1      19.249  25.652   8.957  1.00  0.00    -0.000 C 
BRANCH  22  23
ATOM     23  C   UNL     1      19.368  24.708  10.168  1.00  0.00    -0.000 C 
BRANCH  23  24
ATOM     24  C   UNL     1      20.380  23.572   9.940  1.00  0.00    -0.000 C 
BRANCH  24  25
ATOM     25  C   UNL     1      19.726  22.181   9.992  1.00  0.00    -0.003 C 
ATOM     26  C   UNL     1      18.503  22.132  10.909  1.00  0.00     0.004 C 
ENDBRANCH  24  25
ENDBRANCH  23  24
ENDBRANCH  22  23
ENDBRANCH  21  22
ENDBRANCH  20  21
ENDBRANCH  19  20
ENDBRANCH  18  19
ENDBRANCH  17  18
ENDBRANCH  16  17
ENDBRANCH  15  16
ENDBRANCH   1  15
TORSDOF 22
ENDMDL
MODEL 6
REMARK VINA RESULT:    -4.971      3.513      7.229
REMARK INTER + INTRA:         -14.999
REMARK INTER:                 -11.598
REMARK INTRA:                  -3.401
REMARK UNBOUND:                -3.636
REMARK SMILES CCCCCCCCCCCCCCCCCCCCCCCC(=O)[O-]
REMARK SMILES IDX 13 1 14 2 15 3 16 4 17 5 18 6 19 7 20 8 21 9 22 10 23 11
REMARK SMILES IDX 24 12 25 13 26 14 12 15 11 16 10 17 9 18 8 19 7 20 6 21 5 22
REMARK SMILES IDX 4 23 3 24 2 25 1 26
REMARK H PARENT
REMARK Flexibility Score: inf
ROOT
ATOM      1  C   UNL     1      21.366  23.436  10.259  1.00  0.00     0.000 C 
ENDROOT
BRANCH   1   2
ATOM      2  C   UNL     1      19.840  23.227  10.259  1.00  0.00     0.000 C 
BRANCH   2   3
ATOM      3  C   UNL     1      19.303  22.300  11.368  1.00  0.00     0.000 C 
BRANCH   3   4
ATOM      4  C   UNL     1      17.794  21.998  11.298  1.00  0.00     0.000 C 
BRANCH   4   5
ATOM      5  C   UNL     1      17.261  21.950   9.856  1.00  0.00     0.000 C 
BRANCH   5   6
ATOM      6  C   UNL     1      17.609  20.631   9.146  1.00  0.00     0.000 C 
BRANCH   6   7
ATOM      7  C   UNL     1      17.987  20.837   7.671  1.00  0.00     0.000 C 
BRANCH   7   8
ATOM      8  C   UNL     1      17.042  21.840   6.999  1.00  0.00     0.000 C 
BRANCH   8   9
ATOM      9  C   UNL     1      17.801  23.090   6.536  1.00  0.00     0.000 C 
BRANCH   9  10
ATOM     10  C   UNL     1      17.208  24.357   7.163  1.00  0.00     0.006 C 
BRANCH  10  11
ATOM     11  C   UNL     1      18.240  25.071   8.041  1.00  0.00     0.053 C 
BRANCH  11  12
ATOM     12  C   UNL     1      17.560  25.966   9.029  1.00  0.00     0.041 C 
ATOM     13  O   UNL     1      16.967  25.474  10.025  1.00  0.00    -0.550 OA
ATOM     14  O   UNL     1      17.622  27.344   8.876  1.00  0.00    -0.550 OA
ENDBRANCH  11  12
ENDBRANCH  10  11
ENDBRANCH   9  10
ENDBRANCH   8   9
ENDBRANCH   7   8
ENDBRANCH   6   7
ENDBRANCH   5   6
ENDBRANCH   4   5
ENDBRANCH   3   4
ENDBRANCH   2   3
ENDBRANCH   1   2
BRANCH   1  15
ATOM     15  C   UNL     1      22.066  22.726   9.088  1.00  0.00     0.000 C 
BRANCH  15  16
ATOM     16  C   UNL     1      21.179  22.657   7.834  1.00  0.00     0.000 C 
BRANCH  16  17
ATOM     17  C   UNL     1      21.512  21.444   6.946  1.00  0.00     0.000 C 
BRANCH  17  18
ATOM     18  C   UNL     1      21.016  21.616   5.501  1.00  0.00    -0.000 C 
BRANCH  18  19
ATOM     19  C   UNL     1      21.756  20.704   4.506  1.00  0.00    -0.000 C 
BRANCH  19  20
ATOM     20  C   UNL     1      22.838  19.840   5.188  1.00  0.00    -0.000 C 
BRANCH  20  21
ATOM     21  C   UNL     1      23.404  18.723   4.289  1.00  0.00    -0.000 C 
BRANCH  21  22
ATOM     22  C   UNL     1      23.301  17.299   4.866  1.00  0.00    -0.000 C 
BRANCH  22  23
ATOM     23  C   UNL     1      22.513  17.184   6.184  1.00  0.00    -0.000 C 
BRANCH  23  24
ATOM     24  C   UNL     1      21.502  16.024   6.173  1.00  0.00    -0.000 C 
BRANCH  24  25
ATOM     25  C   UNL     1      20.090  16.469   6.589  1.00  0.00    -0.003 C 
ATOM     26  C   UNL     1      19.823  17.947   6.302  1.00  0.00     0.004 C 
ENDBRANCH  24  25
ENDBRANCH  23  24
ENDBRANCH  22  23
ENDBRANCH  21  22
ENDBRANCH  20  21
ENDBRANCH  19  20
ENDBRANCH  18  19
ENDBRANCH  17  18
ENDBRANCH  16  17
ENDBRANCH  15  16
ENDBRANCH   1  15
TORSDOF 22
ENDMDL
MODEL 7
REMARK VINA RESULT:    -4.900      3.292      7.995
REMARK INTER + INTRA:         -14.839
REMARK INTER:                 -11.090
REMARK INTRA:                  -3.749
REMARK UNBOUND:                -3.636
REMARK SMILES CCCCCCCCCCCCCCCCCCCCCCCC(=O)[O-]
REMARK SMILES IDX 13 1 14 2 15 3 16 4 17 5 18 6 19 7 20 8 21 9 22 10 23 11
REMARK SMILES IDX 24 12 25 13 26 14 12 15 11 16 10 17 9 18 8 19 7 20 6 21 5 22
REMARK SMILES IDX 4 23 3 24 2 25 1 26
REMARK H PARENT
REMARK Flexibility Score: inf
ROOT
ATOM      1  C   UNL     1      21.464  22.004   6.782  1.00  0.00     0.000 C 
ENDROOT
BRANCH   1   2
ATOM      2  C   UNL     1      20.978  21.646   5.365  1.00  0.00     0.000 C 
BRANCH   2   3
ATOM      3  C   UNL     1      19.500  21.978   5.073  1.00  0.00     0.000 C 
BRANCH   3   4
ATOM      4  C   UNL     1      18.801  22.849   6.133  1.00  0.00     0.000 C 
BRANCH   4   5
ATOM      5  C   UNL     1      17.648  22.118   6.841  1.00  0.00     0.000 C 
BRANCH   5   6
ATOM      6  C   UNL     1      17.883  20.600   6.929  1.00  0.00     0.000 C 
BRANCH   6   7
ATOM      7  C   UNL     1      18.469  20.171   8.283  1.00  0.00     0.000 C 
BRANCH   7   8
ATOM      8  C   UNL     1      18.190  21.227   9.359  1.00  0.00     0.000 C 
BRANCH   8   9
ATOM      9  C   UNL     1      19.474  21.970   9.751  1.00  0.00     0.000 C 
BRANCH   9  10
ATOM     10  C   UNL     1      19.157  23.371  10.285  1.00  0.00     0.006 C 
BRANCH  10  11
ATOM     11  C   UNL     1      19.825  24.451   9.429  1.00  0.00     0.053 C 
BRANCH  11  12
ATOM     12  C   UNL     1      18.811  25.435   8.937  1.00  0.00     0.041 C 
ATOM     13  O   UNL     1      17.599  25.105   8.851  1.00  0.00    -0.550 OA
ATOM     14  O   UNL     1      19.196  26.730   8.617  1.00  0.00    -0.550 OA
ENDBRANCH  11  12
ENDBRANCH  10  11
ENDBRANCH   9  10
ENDBRANCH   8   9
ENDBRANCH   7   8
ENDBRANCH   6   7
ENDBRANCH   5   6
ENDBRANCH   4   5
ENDBRANCH   3   4
ENDBRANCH   2   3
ENDBRANCH   1   2
BRANCH   1  15
ATOM     15  C   UNL     1      22.169  20.832   7.485  1.00  0.00     0.000 C 
BRANCH  15  16
ATOM     16  C   UNL     1      22.111  19.536   6.659  1.00  0.00     0.000 C 
BRANCH  16  17
ATOM     17  C   UNL     1      23.507  19.057   6.222  1.00  0.00     0.000 C 
BRANCH  17  18
ATOM     18  C   UNL     1      23.730  19.190   4.707  1.00  0.00    -0.000 C 
BRANCH  18  19
ATOM     19  C   UNL     1      25.090  18.632   4.254  1.00  0.00    -0.000 C 
BRANCH  19  20
ATOM     20  C   UNL     1      25.434  17.289   4.934  1.00  0.00    -0.000 C 
BRANCH  20  21
ATOM     21  C   UNL     1      25.042  16.051   4.105  1.00  0.00    -0.000 C 
BRANCH  21  22
ATOM     22  C   UNL     1      23.799  15.291   4.607  1.00  0.00    -0.000 C 
BRANCH  22  23
ATOM     23  C   UNL     1      22.471  15.701   3.942  1.00  0.00    -0.000 C 
BRANCH  23  24
ATOM     24  C   UNL     1      21.442  16.238   4.952  1.00  0.00    -0.000 C 
BRANCH  24  25
ATOM     25  C   UNL     1      21.730  15.774   6.390  1.00  0.00    -0.003 C 
ATOM     26  C   UNL     1      20.457  15.504   7.193  1.00  0.00     0.004 C 
ENDBRANCH  24  25
ENDBRANCH  23  24
ENDBRANCH  22  23
ENDBRANCH  21  22
ENDBRANCH  20  21
ENDBRANCH  19  20
ENDBRANCH  18  19
ENDBRANCH  17  18
ENDBRANCH  16  17
ENDBRANCH  15  16
ENDBRANCH   1  15
TORSDOF 22
ENDMDL
MODEL 8
REMARK VINA RESULT:    -4.827      3.552      7.763
REMARK INTER + INTRA:         -14.670
REMARK INTER:                 -11.354
REMARK INTRA:                  -3.316
REMARK UNBOUND:                -3.636
REMARK SMILES CCCCCCCCCCCCCCCCCCCCCCCC(=O)[O-]
REMARK SMILES IDX 13 1 14 2 15 3 16 4 17 5 18 6 19 7 20 8 21 9 22 10 23 11
REMARK SMILES IDX 24 12 25 13 26 14 12 15 11 16 10 17 9 18 8 19 7 20 6 21 5 22
REMARK SMILES IDX 4 23 3 24 2 25 1 26
REMARK H PARENT
REMARK Flexibility Score: inf
ROOT
ATOM      1  C   UNL     1      20.043  21.056   5.307  1.00  0.00     0.000 C 
ENDROOT
BRANCH   1   2
ATOM      2  C   UNL     1      19.315  22.411   5.382  1.00  0.00     0.000 C 
BRANCH   2   3
ATOM      3  C   UNL     1      19.296  23.071   6.775  1.00  0.00     0.000 C 
BRANCH   3   4
ATOM      4  C   UNL     1      20.546  22.822   7.638  1.00  0.00     0.000 C 
BRANCH   4   5
ATOM      5  C   UNL     1      20.239  22.028   8.919  1.00  0.00     0.000 C 
BRANCH   5   6
ATOM      6  C   UNL     1      18.779  21.548   8.975  1.00  0.00     0.000 C 
BRANCH   6   7
ATOM      7  C   UNL     1      18.342  21.149  10.393  1.00  0.00     0.000 C 
BRANCH   7   8
ATOM      8  C   UNL     1      18.080  22.391  11.254  1.00  0.00     0.000 C 
BRANCH   8   9
ATOM      9  C   UNL     1      17.139  23.370  10.539  1.00  0.00     0.000 C 
BRANCH   9  10
ATOM     10  C   UNL     1      17.782  24.756  10.411  1.00  0.00     0.006 C 
BRANCH  10  11
ATOM     11  C   UNL     1      17.440  25.398   9.063  1.00  0.00     0.053 C 
BRANCH  11  12
ATOM     12  C   UNL     1      18.058  26.756   8.956  1.00  0.00     0.041 C 
ATOM     13  O   UNL     1      17.329  27.779   8.865  1.00  0.00    -0.550 OA
ATOM     14  O   UNL     1      19.439  26.897   9.005  1.00  0.00    -0.550 OA
ENDBRANCH  11  12
ENDBRANCH  10  11
ENDBRANCH   9  10
ENDBRANCH   8   9
ENDBRANCH   7   8
ENDBRANCH   6   7
ENDBRANCH   5   6
ENDBRANCH   4   5
ENDBRANCH   3   4
ENDBRANCH   2   3
ENDBRANCH   1   2
BRANCH   1  15
ATOM     15  C   UNL     1      21.095  21.004   4.186  1.00  0.00     0.000 C 
BRANCH  15  16
ATOM     16  C   UNL     1      22.453  20.482   4.685  1.00  0.00     0.000 C 
BRANCH  16  17
ATOM     17  C   UNL     1      22.375  19.920   6.115  1.00  0.00     0.000 C 
BRANCH  17  18
ATOM     18  C   UNL     1      23.598  19.063   6.481  1.00  0.00    -0.000 C 
BRANCH  18  19
ATOM     19  C   UNL     1      24.355  18.547   5.244  1.00  0.00    -0.000 C 
BRANCH  19  20
ATOM     20  C   UNL     1      24.203  17.023   5.052  1.00  0.00    -0.000 C 
BRANCH  20  21
ATOM     21  C   UNL     1      22.746  16.559   4.864  1.00  0.00    -0.000 C 
BRANCH  21  22
ATOM     22  C   UNL     1      22.134  15.811   6.064  1.00  0.00    -0.000 C 
BRANCH  22  23
ATOM     23  C   UNL     1      20.695  16.224   6.426  1.00  0.00    -0.000 C 
BRANCH  23  24
ATOM     24  C   UNL     1      19.844  16.563   5.190  1.00  0.00    -0.000 C 
BRANCH  24  25
ATOM     25  C   UNL     1      18.889  17.743   5.438  1.00  0.00    -0.003 C 
ATOM     26  C   UNL     1      18.777  18.117   6.916  1.00  0.00     0.004 C 
ENDBRANCH  24  25
ENDBRANCH  23  24
ENDBRANCH  22  23
ENDBRANCH  21  22
ENDBRANCH  20  21
ENDBRANCH  19  20
ENDBRANCH  18  19
ENDBRANCH  17  18
ENDBRANCH  16  17
ENDBRANCH  15  16
ENDBRANCH   1  15
TORSDOF 22
ENDMDL
MODEL 9
REMARK VINA RESULT:    -4.815      2.464      7.590
REMARK INTER + INTRA:         -14.644
REMARK INTER:                 -11.911
REMARK INTRA:                  -2.733
REMARK UNBOUND:                -3.636
REMARK SMILES CCCCCCCCCCCCCCCCCCCCCCCC(=O)[O-]
REMARK SMILES IDX 13 1 14 2 15 3 16 4 17 5 18 6 19 7 20 8 21 9 22 10 23 11
REMARK SMILES IDX 24 12 25 13 26 14 12 15 11 16 10 17 9 18 8 19 7 20 6 21 5 22
REMARK SMILES IDX 4 23 3 24 2 25 1 26
REMARK H PARENT
REMARK Flexibility Score: inf
ROOT
ATOM      1  C   UNL     1      22.087  22.954   9.549  1.00  0.00     0.000 C 
ENDROOT
BRANCH   1   2
ATOM      2  C   UNL     1      21.012  23.469  10.523  1.00  0.00     0.000 C 
BRANCH   2   3
ATOM      3  C   UNL     1      19.682  22.689  10.508  1.00  0.00     0.000 C 
BRANCH   3   4
ATOM      4  C   UNL     1      18.418  23.547  10.320  1.00  0.00     0.000 C 
BRANCH   4   5
ATOM      5  C   UNL     1      18.716  24.922   9.699  1.00  0.00     0.000 C 
BRANCH   5   6
ATOM      6  C   UNL     1      18.522  24.931   8.174  1.00  0.00     0.000 C 
BRANCH   6   7
ATOM      7  C   UNL     1      17.083  24.588   7.759  1.00  0.00     0.000 C 
BRANCH   7   8
ATOM      8  C   UNL     1      17.070  23.509   6.670  1.00  0.00     0.000 C 
BRANCH   8   9
ATOM      9  C   UNL     1      18.497  23.130   6.249  1.00  0.00     0.000 C 
BRANCH   9  10
ATOM     10  C   UNL     1      18.547  21.701   5.698  1.00  0.00     0.006 C 
BRANCH  10  11
ATOM     11  C   UNL     1      17.559  20.792   6.436  1.00  0.00     0.053 C 
BRANCH  11  12
ATOM     12  C   UNL     1      18.275  19.945   7.441  1.00  0.00     0.041 C 
ATOM     13  O   UNL     1      18.182  20.206   8.669  1.00  0.00    -0.550 OA
ATOM     14  O   UNL     1      19.005  18.840   7.025  1.00  0.00    -0.550 OA
ENDBRANCH  11  12
ENDBRANCH  10  11
ENDBRANCH   9  10
ENDBRANCH   8   9
ENDBRANCH   7   8
ENDBRANCH   6   7
ENDBRANCH   5   6
ENDBRANCH   4   5
ENDBRANCH   3   4
ENDBRANCH   2   3
ENDBRANCH   1   2
BRANCH   1  15
ATOM     15  C   UNL     1      21.530  22.663   8.144  1.00  0.00     0.000 C 
BRANCH  15  16
ATOM     16  C   UNL     1      21.810  21.220   7.693  1.00  0.00     0.000 C 
BRANCH  16  17
ATOM     17  C   UNL     1      22.040  21.115   6.174  1.00  0.00     0.000 C 
BRANCH  17  18
ATOM     18  C   UNL     1      22.026  19.661   5.675  1.00  0.00    -0.000 C 
BRANCH  18  19
ATOM     19  C   UNL     1      22.481  19.531   4.210  1.00  0.00    -0.000 C 
BRANCH  19  20
ATOM     20  C   UNL     1      24.014  19.403   4.076  1.00  0.00    -0.000 C 
BRANCH  20  21
ATOM     21  C   UNL     1      24.678  18.622   5.227  1.00  0.00    -0.000 C 
BRANCH  21  22
ATOM     22  C   UNL     1      25.037  17.159   4.907  1.00  0.00    -0.000 C 
BRANCH  22  23
ATOM     23  C   UNL     1      26.477  16.934   4.408  1.00  0.00    -0.000 C 
BRANCH  23  24
ATOM     24  C   UNL     1      26.966  15.493   4.633  1.00  0.00    -0.000 C 
BRANCH  24  25
ATOM     25  C   UNL     1      28.462  15.426   4.982  1.00  0.00    -0.003 C 
ATOM     26  C   UNL     1      28.898  16.528   5.948  1.00  0.00     0.004 C 
ENDBRANCH  24  25
ENDBRANCH  23  24
ENDBRANCH  22  23
ENDBRANCH  21  22
ENDBRANCH  20  21
ENDBRANCH  19  20
ENDBRANCH  18  19
ENDBRANCH  17  18
ENDBRANCH  16  17
ENDBRANCH  15  16
ENDBRANCH   1  15
TORSDOF 22
ENDMDL
