MODEL 1
REMARK VINA RESULT:    -5.844      0.000      0.000
REMARK INTER + INTRA:         -10.295
REMARK INTER:                  -9.090
REMARK INTRA:                  -1.205
REMARK UNBOUND:                -1.205
REMARK SMILES C[C@]12C[C@]3(O)O[C@H](O1)[C@@]1(COC(=O)c4ccccc4)[C@@H]3C[C@]12O[C@@H]1O[C@@H](CO)[C@H](O)[C@H](O)[C@H]1O
REMARK SMILES IDX 1 1 2 2 3 3 4 4 20 5 21 6 22 7 9 8 7 9 8 10 6 11 23 12 24 13
REMARK SMILES IDX 33 14 25 15 31 16 26 17 29 18 34 19 32 21 27 23 28 24 30 26
REMARK SMILES IDX 5 28 10 30 11 31 12 32 13 33 14 34 15 35 19 36 16 37 18 38
REMARK SMILES IDX 17 39
REMARK H PARENT 34 20 32 22 28 25 30 27 5 29
REMARK Flexibility Score: inf
ROOT
ATOM      1  C   UNL     1      47.270  33.836  -5.483  1.00  0.00     0.046 C 
ATOM      2  C   UNL     1      46.032  34.516  -4.863  1.00  0.00     0.104 C 
ATOM      3  C   UNL     1      44.927  33.432  -4.576  1.00  0.00     0.104 C 
ATOM      4  C   UNL     1      43.780  34.241  -3.880  1.00  0.00     0.175 C 
ATOM      5  C   UNL     1      44.349  35.137  -2.723  1.00  0.00     0.070 C 
ATOM      6  C   UNL     1      45.761  34.690  -2.285  1.00  0.00     0.050 C 
ATOM      7  C   UNL     1      46.283  35.381  -3.549  1.00  0.00     0.115 C 
ATOM      8  C   UNL     1      44.998  36.218  -3.585  1.00  0.00     0.096 C 
ATOM      9  C   UNL     1      44.410  36.056  -4.981  1.00  0.00     0.267 C 
ATOM     10  O   UNL     1      45.427  35.431  -5.763  1.00  0.00    -0.342 OA
ATOM     11  O   UNL     1      43.324  35.158  -4.844  1.00  0.00    -0.320 OA
ENDROOT
BRANCH   7  12
ATOM     12  O   UNL     1      47.497  36.092  -3.308  1.00  0.00    -0.339 OA
BRANCH  12  13
ATOM     13  C   UNL     1      48.451  36.025  -4.359  1.00  0.00     0.282 C 
ATOM     14  C   UNL     1      48.546  37.390  -5.101  1.00  0.00     0.202 C 
ATOM     15  O   UNL     1      49.730  35.664  -3.848  1.00  0.00    -0.341 OA
ATOM     16  C   UNL     1      49.147  38.478  -4.190  1.00  0.00     0.179 C 
ATOM     17  C   UNL     1      50.192  36.586  -2.860  1.00  0.00     0.178 C 
ATOM     18  C   UNL     1      50.421  37.984  -3.468  1.00  0.00     0.177 C 
BRANCH  14  19
ATOM     19  O   UNL     1      49.377  37.247  -6.221  1.00  0.00    -0.385 OA
ATOM     20  H   UNL     1      50.155  37.844  -6.082  1.00  0.00     0.211 HD
ENDBRANCH  14  19
BRANCH  16  21
ATOM     21  O   UNL     1      48.196  38.888  -3.245  1.00  0.00    -0.387 OA
ATOM     22  H   UNL     1      47.539  38.150  -3.152  1.00  0.00     0.211 HD
ENDBRANCH  16  21
BRANCH  17  23
ATOM     23  C   UNL     1      51.478  36.015  -2.222  1.00  0.00     0.191 C 
BRANCH  23  24
ATOM     24  O   UNL     1      51.602  36.414  -0.871  1.00  0.00    -0.394 OA
ATOM     25  H   UNL     1      50.672  36.474  -0.500  1.00  0.00     0.210 HD
ENDBRANCH  23  24
ENDBRANCH  17  23
BRANCH  18  26
ATOM     26  O   UNL     1      50.772  38.884  -2.439  1.00  0.00    -0.387 OA
ATOM     27  H   UNL     1      50.232  39.709  -2.564  1.00  0.00     0.211 HD
ENDBRANCH  18  26
ENDBRANCH  12  13
ENDBRANCH   7  12
BRANCH   4  28
ATOM     28  O   UNL     1      42.747  33.398  -3.458  1.00  0.00    -0.365 OA
ATOM     29  H   UNL     1      42.057  33.406  -4.175  1.00  0.00     0.214 HD
ENDBRANCH   4  28
BRANCH   8  30
ATOM     30  C   UNL     1      45.005  37.630  -2.983  1.00  0.00     0.249 C 
BRANCH  30  31
ATOM     31  O   UNL     1      45.235  38.598  -4.006  1.00  0.00    -0.461 OA
BRANCH  31  32
ATOM     32  C   UNL     1      44.287  39.554  -4.383  1.00  0.00     0.338 C 
ATOM     33  O   UNL     1      43.351  39.837  -3.580  1.00  0.00    -0.246 OA
BRANCH  32  34
ATOM     34  C   UNL     1      44.369  40.269  -5.678  1.00  0.00     0.060 A 
ATOM     35  C   UNL     1      43.269  41.003  -6.148  1.00  0.00     0.015 A 
ATOM     36  C   UNL     1      45.547  40.226  -6.448  1.00  0.00     0.015 A 
ATOM     37  C   UNL     1      43.349  41.679  -7.372  1.00  0.00     0.001 A 
ATOM     38  C   UNL     1      45.631  40.908  -7.666  1.00  0.00     0.001 A 
ATOM     39  C   UNL     1      44.529  41.640  -8.125  1.00  0.00     0.000 A 
ENDBRANCH  32  34
ENDBRANCH  31  32
ENDBRANCH  30  31
ENDBRANCH   8  30
TORSDOF 12
ENDMDL
MODEL 2
REMARK VINA RESULT:    -5.547      2.907      5.222
REMARK INTER + INTRA:          -9.832
REMARK INTER:                  -8.994
REMARK INTRA:                  -0.838
REMARK UNBOUND:                -1.205
REMARK SMILES C[C@]12C[C@]3(O)O[C@H](O1)[C@@]1(COC(=O)c4ccccc4)[C@@H]3C[C@]12O[C@@H]1O[C@@H](CO)[C@H](O)[C@H](O)[C@H]1O
REMARK SMILES IDX 1 1 2 2 3 3 4 4 20 5 21 6 22 7 9 8 7 9 8 10 6 11 23 12 24 13
REMARK SMILES IDX 33 14 25 15 31 16 26 17 29 18 34 19 32 21 27 23 28 24 30 26
REMARK SMILES IDX 5 28 10 30 11 31 12 32 13 33 14 34 15 35 19 36 16 37 18 38
REMARK SMILES IDX 17 39
REMARK H PARENT 34 20 32 22 28 25 30 27 5 29
REMARK Flexibility Score: inf
ROOT
ATOM      1  C   UNL     1      49.931  36.384  -3.764  1.00  0.00     0.046 C 
ATOM      2  C   UNL     1      48.555  37.075  -3.847  1.00  0.00     0.104 C 
ATOM      3  C   UNL     1      48.503  37.985  -5.130  1.00  0.00     0.104 C 
ATOM      4  C   UNL     1      47.041  38.549  -5.132  1.00  0.00     0.175 C 
ATOM      5  C   UNL     1      45.997  37.396  -4.917  1.00  0.00     0.070 C 
ATOM      6  C   UNL     1      46.606  36.003  -5.189  1.00  0.00     0.050 C 
ATOM      7  C   UNL     1      47.280  36.122  -3.818  1.00  0.00     0.115 C 
ATOM      8  C   UNL     1      46.229  37.166  -3.426  1.00  0.00     0.096 C 
ATOM      9  C   UNL     1      46.991  38.386  -2.923  1.00  0.00     0.267 C 
ATOM     10  O   UNL     1      48.343  37.960  -2.758  1.00  0.00    -0.342 OA
ATOM     11  O   UNL     1      46.937  39.337  -3.971  1.00  0.00    -0.320 OA
ENDROOT
BRANCH   7  12
ATOM     12  O   UNL     1      47.249  34.889  -3.099  1.00  0.00    -0.339 OA
BRANCH  12  13
ATOM     13  C   UNL     1      47.284  33.721  -3.909  1.00  0.00     0.282 C 
ATOM     14  C   UNL     1      48.687  33.051  -3.846  1.00  0.00     0.202 C 
ATOM     15  O   UNL     1      46.288  32.794  -3.490  1.00  0.00    -0.341 OA
ATOM     16  C   UNL     1      48.967  32.478  -2.443  1.00  0.00     0.179 C 
ATOM     17  C   UNL     1      46.451  32.416  -2.122  1.00  0.00     0.178 C 
ATOM     18  C   UNL     1      47.774  31.653  -1.910  1.00  0.00     0.177 C 
BRANCH  14  19
ATOM     19  O   UNL     1      48.736  31.998  -4.768  1.00  0.00    -0.385 OA
ATOM     20  H   UNL     1      49.277  32.310  -5.536  1.00  0.00     0.211 HD
ENDBRANCH  14  19
BRANCH  16  21
ATOM     21  O   UNL     1      49.258  33.520  -1.550  1.00  0.00    -0.387 OA
ATOM     22  H   UNL     1      49.976  33.196  -0.947  1.00  0.00     0.211 HD
ENDBRANCH  16  21
BRANCH  17  23
ATOM     23  C   UNL     1      45.225  31.575  -1.698  1.00  0.00     0.191 C 
BRANCH  23  24
ATOM     24  O   UNL     1      45.034  31.616  -0.298  1.00  0.00    -0.394 OA
ATOM     25  H   UNL     1      45.359  30.739   0.064  1.00  0.00     0.210 HD
ENDBRANCH  23  24
ENDBRANCH  17  23
BRANCH  18  26
ATOM     26  O   UNL     1      47.943  31.395  -0.533  1.00  0.00    -0.387 OA
ATOM     27  H   UNL     1      47.677  32.214  -0.038  1.00  0.00     0.211 HD
ENDBRANCH  18  26
ENDBRANCH  12  13
ENDBRANCH   7  12
BRANCH   4  28
ATOM     28  O   UNL     1      46.789  39.306  -6.279  1.00  0.00    -0.365 OA
ATOM     29  H   UNL     1      46.826  40.263  -6.007  1.00  0.00     0.214 HD
ENDBRANCH   4  28
BRANCH   8  30
ATOM     30  C   UNL     1      44.996  36.727  -2.622  1.00  0.00     0.249 C 
BRANCH  30  31
ATOM     31  O   UNL     1      44.794  37.604  -1.516  1.00  0.00    -0.461 OA
BRANCH  31  32
ATOM     32  C   UNL     1      43.531  38.038  -1.103  1.00  0.00     0.338 C 
ATOM     33  O   UNL     1      42.769  37.222  -0.507  1.00  0.00    -0.246 OA
BRANCH  32  34
ATOM     34  C   UNL     1      43.075  39.432  -1.310  1.00  0.00     0.060 A 
ATOM     35  C   UNL     1      42.305  39.762  -2.435  1.00  0.00     0.015 A 
ATOM     36  C   UNL     1      43.404  40.440  -0.383  1.00  0.00     0.015 A 
ATOM     37  C   UNL     1      41.875  41.081  -2.628  1.00  0.00     0.001 A 
ATOM     38  C   UNL     1      42.968  41.755  -0.570  1.00  0.00     0.001 A 
ATOM     39  C   UNL     1      42.196  42.073  -1.694  1.00  0.00     0.000 A 
ENDBRANCH  32  34
ENDBRANCH  31  32
ENDBRANCH  30  31
ENDBRANCH   8  30
TORSDOF 12
ENDMDL
MODEL 3
REMARK VINA RESULT:    -5.518      2.853      5.585
REMARK INTER + INTRA:          -9.787
REMARK INTER:                  -8.620
REMARK INTRA:                  -1.167
REMARK UNBOUND:                -1.205
REMARK SMILES C[C@]12C[C@]3(O)O[C@H](O1)[C@@]1(COC(=O)c4ccccc4)[C@@H]3C[C@]12O[C@@H]1O[C@@H](CO)[C@H](O)[C@H](O)[C@H]1O
REMARK SMILES IDX 1 1 2 2 3 3 4 4 20 5 21 6 22 7 9 8 7 9 8 10 6 11 23 12 24 13
REMARK SMILES IDX 33 14 25 15 31 16 26 17 29 18 34 19 32 21 27 23 28 24 30 26
REMARK SMILES IDX 5 28 10 30 11 31 12 32 13 33 14 34 15 35 19 36 16 37 18 38
REMARK SMILES IDX 17 39
REMARK H PARENT 34 20 32 22 28 25 30 27 5 29
REMARK Flexibility Score: inf
ROOT
ATOM      1  C   UNL     1      51.279  35.733  -2.878  1.00  0.00     0.046 C 
ATOM      2  C   UNL     1      49.861  36.244  -3.204  1.00  0.00     0.104 C 
ATOM      3  C   UNL     1      49.957  37.664  -3.878  1.00  0.00     0.104 C 
ATOM      4  C   UNL     1      48.471  38.016  -4.227  1.00  0.00     0.175 C 
ATOM      5  C   UNL     1      47.772  36.820  -4.965  1.00  0.00     0.070 C 
ATOM      6  C   UNL     1      48.794  35.811  -5.534  1.00  0.00     0.050 C 
ATOM      7  C   UNL     1      48.953  35.291  -4.101  1.00  0.00     0.115 C 
ATOM      8  C   UNL     1      47.587  35.899  -3.761  1.00  0.00     0.096 C 
ATOM      9  C   UNL     1      47.791  36.769  -2.527  1.00  0.00     0.267 C 
ATOM     10  O   UNL     1      49.089  36.444  -2.031  1.00  0.00    -0.342 OA
ATOM     11  O   UNL     1      47.803  38.107  -2.993  1.00  0.00    -0.320 OA
ENDROOT
BRANCH   7  12
ATOM     12  O   UNL     1      49.043  33.867  -4.057  1.00  0.00    -0.339 OA
BRANCH  12  13
ATOM     13  C   UNL     1      49.610  33.338  -2.866  1.00  0.00     0.282 C 
ATOM     14  C   UNL     1      48.502  32.744  -1.948  1.00  0.00     0.202 C 
ATOM     15  O   UNL     1      50.570  32.333  -3.175  1.00  0.00    -0.341 OA
ATOM     16  C   UNL     1      47.864  31.494  -2.583  1.00  0.00     0.179 C 
ATOM     17  C   UNL     1      50.001  31.264  -3.933  1.00  0.00     0.178 C 
ATOM     18  C   UNL     1      48.931  30.511  -3.116  1.00  0.00     0.177 C 
BRANCH  14  19
ATOM     19  O   UNL     1      49.071  32.372  -0.723  1.00  0.00    -0.385 OA
ATOM     20  H   UNL     1      49.895  31.862  -0.929  1.00  0.00     0.211 HD
ENDBRANCH  14  19
BRANCH  16  21
ATOM     21  O   UNL     1      47.007  31.873  -3.626  1.00  0.00    -0.387 OA
ATOM     22  H   UNL     1      46.133  31.434  -3.460  1.00  0.00     0.211 HD
ENDBRANCH  16  21
BRANCH  17  23
ATOM     23  C   UNL     1      51.142  30.328  -4.392  1.00  0.00     0.191 C 
BRANCH  23  24
ATOM     24  O   UNL     1      52.408  30.853  -4.043  1.00  0.00    -0.394 OA
ATOM     25  H   UNL     1      52.938  30.917  -4.893  1.00  0.00     0.210 HD
ENDBRANCH  23  24
ENDBRANCH  17  23
BRANCH  18  26
ATOM     26  O   UNL     1      48.323  29.538  -3.937  1.00  0.00    -0.387 OA
ATOM     27  H   UNL     1      47.627  29.080  -3.396  1.00  0.00     0.211 HD
ENDBRANCH  18  26
ENDBRANCH  12  13
ENDBRANCH   7  12
BRANCH   4  28
ATOM     28  O   UNL     1      48.386  39.218  -4.936  1.00  0.00    -0.365 OA
ATOM     29  H   UNL     1      48.592  39.007  -5.887  1.00  0.00     0.214 HD
ENDBRANCH   4  28
BRANCH   8  30
ATOM     30  C   UNL     1      46.339  35.006  -3.794  1.00  0.00     0.249 C 
BRANCH  30  31
ATOM     31  O   UNL     1      45.594  35.160  -2.587  1.00  0.00    -0.461 OA
BRANCH  31  32
ATOM     32  C   UNL     1      44.324  35.742  -2.540  1.00  0.00     0.338 C 
ATOM     33  O   UNL     1      43.306  34.994  -2.619  1.00  0.00    -0.246 OA
BRANCH  32  34
ATOM     34  C   UNL     1      44.136  37.201  -2.362  1.00  0.00     0.060 A 
ATOM     35  C   UNL     1      43.775  37.717  -1.109  1.00  0.00     0.015 A 
ATOM     36  C   UNL     1      44.321  38.084  -3.443  1.00  0.00     0.015 A 
ATOM     37  C   UNL     1      43.599  39.097  -0.944  1.00  0.00     0.001 A 
ATOM     38  C   UNL     1      44.154  39.463  -3.277  1.00  0.00     0.001 A 
ATOM     39  C   UNL     1      43.797  39.969  -2.021  1.00  0.00     0.000 A 
ENDBRANCH  32  34
ENDBRANCH  31  32
ENDBRANCH  30  31
ENDBRANCH   8  30
TORSDOF 12
ENDMDL
MODEL 4
REMARK VINA RESULT:    -5.432      2.891      5.312
REMARK INTER + INTRA:          -9.654
REMARK INTER:                  -8.959
REMARK INTRA:                  -0.695
REMARK UNBOUND:                -1.205
REMARK SMILES C[C@]12C[C@]3(O)O[C@H](O1)[C@@]1(COC(=O)c4ccccc4)[C@@H]3C[C@]12O[C@@H]1O[C@@H](CO)[C@H](O)[C@H](O)[C@H]1O
REMARK SMILES IDX 1 1 2 2 3 3 4 4 20 5 21 6 22 7 9 8 7 9 8 10 6 11 23 12 24 13
REMARK SMILES IDX 33 14 25 15 31 16 26 17 29 18 34 19 32 21 27 23 28 24 30 26
REMARK SMILES IDX 5 28 10 30 11 31 12 32 13 33 14 34 15 35 19 36 16 37 18 38
REMARK SMILES IDX 17 39
REMARK H PARENT 34 20 32 22 28 25 30 27 5 29
REMARK Flexibility Score: inf
ROOT
ATOM      1  C   UNL     1      50.167  36.433  -3.262  1.00  0.00     0.046 C 
ATOM      2  C   UNL     1      48.752  36.962  -3.572  1.00  0.00     0.104 C 
ATOM      3  C   UNL     1      48.805  37.883  -4.848  1.00  0.00     0.104 C 
ATOM      4  C   UNL     1      47.307  38.273  -5.092  1.00  0.00     0.175 C 
ATOM      5  C   UNL     1      46.386  37.003  -5.053  1.00  0.00     0.070 C 
ATOM      6  C   UNL     1      47.192  35.695  -5.219  1.00  0.00     0.050 C 
ATOM      7  C   UNL     1      47.611  35.866  -3.755  1.00  0.00     0.115 C 
ATOM      8  C   UNL     1      46.394  36.773  -3.544  1.00  0.00     0.096 C 
ATOM      9  C   UNL     1      46.914  38.064  -2.922  1.00  0.00     0.267 C 
ATOM     10  O   UNL     1      48.261  37.795  -2.535  1.00  0.00    -0.342 OA
ATOM     11  O   UNL     1      46.922  39.022  -3.965  1.00  0.00    -0.320 OA
ENDROOT
BRANCH   7  12
ATOM     12  O   UNL     1      47.608  34.624  -3.051  1.00  0.00    -0.339 OA
BRANCH  12  13
ATOM     13  C   UNL     1      48.856  33.945  -3.026  1.00  0.00     0.282 C 
ATOM     14  C   UNL     1      48.955  33.025  -1.774  1.00  0.00     0.202 C 
ATOM     15  O   UNL     1      49.025  33.170  -4.208  1.00  0.00    -0.341 OA
ATOM     16  C   UNL     1      47.955  31.856  -1.862  1.00  0.00     0.179 C 
ATOM     17  C   UNL     1      47.979  32.212  -4.374  1.00  0.00     0.178 C 
ATOM     18  C   UNL     1      47.998  31.164  -3.243  1.00  0.00     0.177 C 
BRANCH  14  19
ATOM     19  O   UNL     1      50.248  32.491  -1.697  1.00  0.00    -0.385 OA
ATOM     20  H   UNL     1      50.703  32.709  -2.549  1.00  0.00     0.211 HD
ENDBRANCH  14  19
BRANCH  16  21
ATOM     21  O   UNL     1      46.656  32.319  -1.605  1.00  0.00    -0.387 OA
ATOM     22  H   UNL     1      46.372  31.928  -0.739  1.00  0.00     0.211 HD
ENDBRANCH  16  21
BRANCH  17  23
ATOM     23  C   UNL     1      48.129  31.560  -5.768  1.00  0.00     0.191 C 
BRANCH  23  24
ATOM     24  O   UNL     1      48.665  30.256  -5.670  1.00  0.00    -0.394 OA
ATOM     25  H   UNL     1      48.021  29.719  -5.118  1.00  0.00     0.210 HD
ENDBRANCH  23  24
ENDBRANCH  17  23
BRANCH  18  26
ATOM     26  O   UNL     1      46.888  30.306  -3.388  1.00  0.00    -0.387 OA
ATOM     27  H   UNL     1      46.197  30.792  -3.911  1.00  0.00     0.211 HD
ENDBRANCH  18  26
ENDBRANCH  12  13
ENDBRANCH   7  12
BRANCH   4  28
ATOM     28  O   UNL     1      47.161  39.017  -6.266  1.00  0.00    -0.365 OA
ATOM     29  H   UNL     1      46.315  38.714  -6.696  1.00  0.00     0.214 HD
ENDBRANCH   4  28
BRANCH   8  30
ATOM     30  C   UNL     1      45.107  36.178  -2.956  1.00  0.00     0.249 C 
BRANCH  30  31
ATOM     31  O   UNL     1      44.494  37.114  -2.070  1.00  0.00    -0.461 OA
BRANCH  31  32
ATOM     32  C   UNL     1      43.281  37.751  -2.347  1.00  0.00     0.338 C 
ATOM     33  O   UNL     1      42.375  37.104  -2.950  1.00  0.00    -0.246 OA
BRANCH  32  34
ATOM     34  C   UNL     1      43.013  39.144  -1.923  1.00  0.00     0.060 A 
ATOM     35  C   UNL     1      42.127  39.947  -2.656  1.00  0.00     0.015 A 
ATOM     36  C   UNL     1      43.640  39.679  -0.780  1.00  0.00     0.015 A 
ATOM     37  C   UNL     1      41.875  41.264  -2.252  1.00  0.00     0.001 A 
ATOM     38  C   UNL     1      43.382  40.992  -0.371  1.00  0.00     0.001 A 
ATOM     39  C   UNL     1      42.493  41.782  -1.108  1.00  0.00     0.000 A 
ENDBRANCH  32  34
ENDBRANCH  31  32
ENDBRANCH  30  31
ENDBRANCH   8  30
TORSDOF 12
ENDMDL
MODEL 5
REMARK VINA RESULT:    -5.283      2.589      5.389
REMARK INTER + INTRA:          -9.422
REMARK INTER:                  -8.949
REMARK INTRA:                  -0.473
REMARK UNBOUND:                -1.205
REMARK SMILES C[C@]12C[C@]3(O)O[C@H](O1)[C@@]1(COC(=O)c4ccccc4)[C@@H]3C[C@]12O[C@@H]1O[C@@H](CO)[C@H](O)[C@H](O)[C@H]1O
REMARK SMILES IDX 1 1 2 2 3 3 4 4 20 5 21 6 22 7 9 8 7 9 8 10 6 11 23 12 24 13
REMARK SMILES IDX 33 14 25 15 31 16 26 17 29 18 34 19 32 21 27 23 28 24 30 26
REMARK SMILES IDX 5 28 10 30 11 31 12 32 13 33 14 34 15 35 19 36 16 37 18 38
REMARK SMILES IDX 17 39
REMARK H PARENT 34 20 32 22 28 25 30 27 5 29
REMARK Flexibility Score: inf
ROOT
ATOM      1  C   UNL     1      50.876  35.746  -2.835  1.00  0.00     0.046 C 
ATOM      2  C   UNL     1      49.677  36.620  -3.255  1.00  0.00     0.104 C 
ATOM      3  C   UNL     1      50.128  38.126  -3.332  1.00  0.00     0.104 C 
ATOM      4  C   UNL     1      48.850  38.875  -3.844  1.00  0.00     0.175 C 
ATOM      5  C   UNL     1      48.242  38.150  -5.097  1.00  0.00     0.070 C 
ATOM      6  C   UNL     1      49.251  37.184  -5.755  1.00  0.00     0.050 C 
ATOM      7  C   UNL     1      48.943  36.214  -4.609  1.00  0.00     0.115 C 
ATOM      8  C   UNL     1      47.621  36.955  -4.378  1.00  0.00     0.096 C 
ATOM      9  C   UNL     1      47.581  37.325  -2.900  1.00  0.00     0.267 C 
ATOM     10  O   UNL     1      48.641  36.594  -2.286  1.00  0.00    -0.342 OA
ATOM     11  O   UNL     1      47.883  38.707  -2.837  1.00  0.00    -0.320 OA
ENDROOT
BRANCH   7  12
ATOM     12  O   UNL     1      48.844  34.864  -5.063  1.00  0.00    -0.339 OA
BRANCH  12  13
ATOM     13  C   UNL     1      47.902  34.063  -4.363  1.00  0.00     0.282 C 
ATOM     14  C   UNL     1      47.207  33.062  -5.331  1.00  0.00     0.202 C 
ATOM     15  O   UNL     1      48.540  33.351  -3.309  1.00  0.00    -0.341 OA
ATOM     16  C   UNL     1      48.203  32.007  -5.850  1.00  0.00     0.179 C 
ATOM     17  C   UNL     1      49.594  32.515  -3.789  1.00  0.00     0.178 C 
ATOM     18  C   UNL     1      49.048  31.402  -4.706  1.00  0.00     0.177 C 
BRANCH  14  19
ATOM     19  O   UNL     1      46.181  32.397  -4.646  1.00  0.00    -0.385 OA
ATOM     20  H   UNL     1      46.529  31.503  -4.401  1.00  0.00     0.211 HD
ENDBRANCH  14  19
BRANCH  16  21
ATOM     21  O   UNL     1      49.049  32.581  -6.810  1.00  0.00    -0.387 OA
ATOM     22  H   UNL     1      49.981  32.392  -6.528  1.00  0.00     0.211 HD
ENDBRANCH  16  21
BRANCH  17  23
ATOM     23  C   UNL     1      50.355  31.940  -2.573  1.00  0.00     0.191 C 
BRANCH  23  24
ATOM     24  O   UNL     1      50.152  30.546  -2.452  1.00  0.00    -0.394 OA
ATOM     25  H   UNL     1      49.639  30.401  -1.602  1.00  0.00     0.210 HD
ENDBRANCH  23  24
ENDBRANCH  17  23
BRANCH  18  26
ATOM     26  O   UNL     1      50.130  30.670  -5.240  1.00  0.00    -0.387 OA
ATOM     27  H   UNL     1      50.449  31.152  -6.049  1.00  0.00     0.211 HD
ENDBRANCH  18  26
ENDBRANCH  12  13
ENDBRANCH   7  12
BRANCH   4  28
ATOM     28  O   UNL     1      49.111  40.229  -4.071  1.00  0.00    -0.365 OA
ATOM     29  H   UNL     1      49.190  40.662  -3.178  1.00  0.00     0.214 HD
ENDBRANCH   4  28
BRANCH   8  30
ATOM     30  C   UNL     1      46.332  36.402  -5.000  1.00  0.00     0.249 C 
BRANCH  30  31
ATOM     31  O   UNL     1      45.231  36.617  -4.119  1.00  0.00    -0.461 OA
BRANCH  31  32
ATOM     32  C   UNL     1      44.413  37.750  -4.176  1.00  0.00     0.338 C 
ATOM     33  O   UNL     1      43.955  38.117  -5.297  1.00  0.00    -0.246 OA
BRANCH  32  34
ATOM     34  C   UNL     1      44.039  38.507  -2.959  1.00  0.00     0.060 A 
ATOM     35  C   UNL     1      44.252  37.951  -1.689  1.00  0.00     0.015 A 
ATOM     36  C   UNL     1      43.468  39.791  -3.061  1.00  0.00     0.015 A 
ATOM     37  C   UNL     1      43.898  38.670  -0.541  1.00  0.00     0.001 A 
ATOM     38  C   UNL     1      43.122  40.513  -1.914  1.00  0.00     0.001 A 
ATOM     39  C   UNL     1      43.343  39.951  -0.651  1.00  0.00     0.000 A 
ENDBRANCH  32  34
ENDBRANCH  31  32
ENDBRANCH  30  31
ENDBRANCH   8  30
TORSDOF 12
ENDMDL
MODEL 6
REMARK VINA RESULT:    -5.254      2.819      6.493
REMARK INTER + INTRA:          -9.377
REMARK INTER:                  -9.136
REMARK INTRA:                  -0.241
REMARK UNBOUND:                -1.205
REMARK SMILES C[C@]12C[C@]3(O)O[C@H](O1)[C@@]1(COC(=O)c4ccccc4)[C@@H]3C[C@]12O[C@@H]1O[C@@H](CO)[C@H](O)[C@H](O)[C@H]1O
REMARK SMILES IDX 1 1 2 2 3 3 4 4 20 5 21 6 22 7 9 8 7 9 8 10 6 11 23 12 24 13
REMARK SMILES IDX 33 14 25 15 31 16 26 17 29 18 34 19 32 21 27 23 28 24 30 26
REMARK SMILES IDX 5 28 10 30 11 31 12 32 13 33 14 34 15 35 19 36 16 37 18 38
REMARK SMILES IDX 17 39
REMARK H PARENT 34 20 32 22 28 25 30 27 5 29
REMARK Flexibility Score: inf
ROOT
ATOM      1  C   UNL     1      44.386  36.291  -3.798  1.00  0.00     0.046 C 
ATOM      2  C   UNL     1      44.999  34.929  -3.413  1.00  0.00     0.104 C 
ATOM      3  C   UNL     1      44.232  33.778  -4.165  1.00  0.00     0.104 C 
ATOM      4  C   UNL     1      45.005  32.479  -3.751  1.00  0.00     0.175 C 
ATOM      5  C   UNL     1      46.553  32.668  -3.931  1.00  0.00     0.070 C 
ATOM      6  C   UNL     1      46.889  33.867  -4.845  1.00  0.00     0.050 C 
ATOM      7  C   UNL     1      46.566  34.766  -3.646  1.00  0.00     0.115 C 
ATOM      8  C   UNL     1      46.805  33.566  -2.722  1.00  0.00     0.096 C 
ATOM      9  C   UNL     1      45.570  33.442  -1.838  1.00  0.00     0.267 C 
ATOM     10  O   UNL     1      44.829  34.646  -2.033  1.00  0.00    -0.342 OA
ATOM     11  O   UNL     1      44.825  32.357  -2.361  1.00  0.00    -0.320 OA
ENDROOT
BRANCH   7  12
ATOM     12  O   UNL     1      47.485  35.851  -3.529  1.00  0.00    -0.339 OA
BRANCH  12  13
ATOM     13  C   UNL     1      48.480  35.907  -4.542  1.00  0.00     0.282 C 
ATOM     14  C   UNL     1      48.513  37.317  -5.201  1.00  0.00     0.202 C 
ATOM     15  O   UNL     1      49.760  35.598  -4.002  1.00  0.00    -0.341 OA
ATOM     16  C   UNL     1      49.008  38.385  -4.206  1.00  0.00     0.179 C 
ATOM     17  C   UNL     1      50.124  36.487  -2.945  1.00  0.00     0.178 C 
ATOM     18  C   UNL     1      50.284  37.930  -3.462  1.00  0.00     0.177 C 
BRANCH  14  19
ATOM     19  O   UNL     1      49.391  37.294  -6.292  1.00  0.00    -0.385 OA
ATOM     20  H   UNL     1      49.311  38.170  -6.747  1.00  0.00     0.211 HD
ENDBRANCH  14  19
BRANCH  16  21
ATOM     21  O   UNL     1      47.997  38.677  -3.278  1.00  0.00    -0.387 OA
ATOM     22  H   UNL     1      47.806  37.839  -2.782  1.00  0.00     0.211 HD
ENDBRANCH  16  21
BRANCH  17  23
ATOM     23  C   UNL     1      51.421  35.961  -2.288  1.00  0.00     0.191 C 
BRANCH  23  24
ATOM     24  O   UNL     1      51.550  36.428  -0.960  1.00  0.00    -0.394 OA
ATOM     25  H   UNL     1      52.532  36.540  -0.787  1.00  0.00     0.210 HD
ENDBRANCH  23  24
ENDBRANCH  17  23
BRANCH  18  26
ATOM     26  O   UNL     1      50.536  38.788  -2.370  1.00  0.00    -0.387 OA
ATOM     27  H   UNL     1      49.976  38.480  -1.610  1.00  0.00     0.211 HD
ENDBRANCH  18  26
ENDBRANCH  12  13
ENDBRANCH   7  12
BRANCH   4  28
ATOM     28  O   UNL     1      44.511  31.357  -4.424  1.00  0.00    -0.365 OA
ATOM     29  H   UNL     1      44.079  31.688  -5.257  1.00  0.00     0.214 HD
ENDBRANCH   4  28
BRANCH   8  30
ATOM     30  C   UNL     1      48.173  33.400  -2.046  1.00  0.00     0.249 C 
BRANCH  30  31
ATOM     31  O   UNL     1      48.630  32.056  -2.187  1.00  0.00    -0.461 OA
BRANCH  31  32
ATOM     32  C   UNL     1      49.855  31.720  -2.772  1.00  0.00     0.338 C 
ATOM     33  O   UNL     1      50.884  32.390  -2.462  1.00  0.00    -0.246 OA
BRANCH  32  34
ATOM     34  C   UNL     1      49.989  30.583  -3.711  1.00  0.00     0.060 A 
ATOM     35  C   UNL     1      48.884  29.765  -3.990  1.00  0.00     0.015 A 
ATOM     36  C   UNL     1      51.221  30.310  -4.336  1.00  0.00     0.015 A 
ATOM     37  C   UNL     1      49.013  28.691  -4.879  1.00  0.00     0.001 A 
ATOM     38  C   UNL     1      51.349  29.243  -5.231  1.00  0.00     0.001 A 
ATOM     39  C   UNL     1      50.239  28.435  -5.505  1.00  0.00     0.000 A 
ENDBRANCH  32  34
ENDBRANCH  31  32
ENDBRANCH  30  31
ENDBRANCH   8  30
TORSDOF 12
ENDMDL
MODEL 7
REMARK VINA RESULT:    -5.224      1.903      2.815
REMARK INTER + INTRA:          -9.330
REMARK INTER:                  -8.886
REMARK INTRA:                  -0.444
REMARK UNBOUND:                -1.205
REMARK SMILES C[C@]12C[C@]3(O)O[C@H](O1)[C@@]1(COC(=O)c4ccccc4)[C@@H]3C[C@]12O[C@@H]1O[C@@H](CO)[C@H](O)[C@H](O)[C@H]1O
REMARK SMILES IDX 1 1 2 2 3 3 4 4 20 5 21 6 22 7 9 8 7 9 8 10 6 11 23 12 24 13
REMARK SMILES IDX 33 14 25 15 31 16 26 17 29 18 34 19 32 21 27 23 28 24 30 26
REMARK SMILES IDX 5 28 10 30 11 31 12 32 13 33 14 34 15 35 19 36 16 37 18 38
REMARK SMILES IDX 17 39
REMARK H PARENT 34 20 32 22 28 25 30 27 5 29
REMARK Flexibility Score: inf
ROOT
ATOM      1  C   UNL     1      48.436  33.195  -2.631  1.00  0.00     0.046 C 
ATOM      2  C   UNL     1      47.081  33.486  -3.307  1.00  0.00     0.104 C 
ATOM      3  C   UNL     1      45.966  32.584  -2.658  1.00  0.00     0.104 C 
ATOM      4  C   UNL     1      44.649  33.041  -3.373  1.00  0.00     0.175 C 
ATOM      5  C   UNL     1      44.524  34.606  -3.366  1.00  0.00     0.070 C 
ATOM      6  C   UNL     1      45.456  35.258  -2.322  1.00  0.00     0.050 C 
ATOM      7  C   UNL     1      46.602  35.005  -3.308  1.00  0.00     0.115 C 
ATOM      8  C   UNL     1      45.569  34.913  -4.437  1.00  0.00     0.096 C 
ATOM      9  C   UNL     1      45.830  33.598  -5.162  1.00  0.00     0.267 C 
ATOM     10  O   UNL     1      47.090  33.132  -4.681  1.00  0.00    -0.342 OA
ATOM     11  O   UNL     1      44.818  32.708  -4.729  1.00  0.00    -0.320 OA
ENDROOT
BRANCH   7  12
ATOM     12  O   UNL     1      47.509  36.105  -3.366  1.00  0.00    -0.339 OA
BRANCH  12  13
ATOM     13  C   UNL     1      48.484  36.025  -4.397  1.00  0.00     0.282 C 
ATOM     14  C   UNL     1      48.606  37.385  -5.145  1.00  0.00     0.202 C 
ATOM     15  O   UNL     1      49.750  35.657  -3.858  1.00  0.00    -0.341 OA
ATOM     16  C   UNL     1      49.196  38.473  -4.227  1.00  0.00     0.179 C 
ATOM     17  C   UNL     1      50.199  36.581  -2.866  1.00  0.00     0.178 C 
ATOM     18  C   UNL     1      50.451  37.974  -3.476  1.00  0.00     0.177 C 
BRANCH  14  19
ATOM     19  O   UNL     1      49.458  37.229  -6.246  1.00  0.00    -0.385 OA
ATOM     20  H   UNL     1      49.976  38.069  -6.332  1.00  0.00     0.211 HD
ENDBRANCH  14  19
BRANCH  16  21
ATOM     21  O   UNL     1      48.229  38.896  -3.304  1.00  0.00    -0.387 OA
ATOM     22  H   UNL     1      47.732  38.089  -3.012  1.00  0.00     0.211 HD
ENDBRANCH  16  21
BRANCH  17  23
ATOM     23  C   UNL     1      51.467  36.004  -2.198  1.00  0.00     0.191 C 
BRANCH  23  24
ATOM     24  O   UNL     1      51.591  36.446  -0.861  1.00  0.00    -0.394 OA
ATOM     25  H   UNL     1      51.286  35.690  -0.276  1.00  0.00     0.210 HD
ENDBRANCH  23  24
ENDBRANCH  17  23
BRANCH  18  26
ATOM     26  O   UNL     1      50.787  38.877  -2.446  1.00  0.00    -0.387 OA
ATOM     27  H   UNL     1      50.919  39.771  -2.859  1.00  0.00     0.211 HD
ENDBRANCH  18  26
ENDBRANCH  12  13
ENDBRANCH   7  12
BRANCH   4  28
ATOM     28  O   UNL     1      43.529  32.403  -2.832  1.00  0.00    -0.365 OA
ATOM     29  H   UNL     1      43.774  31.446  -2.709  1.00  0.00     0.214 HD
ENDBRANCH   4  28
BRANCH   8  30
ATOM     30  C   UNL     1      45.289  36.150  -5.302  1.00  0.00     0.249 C 
BRANCH  30  31
ATOM     31  O   UNL     1      44.363  37.011  -4.641  1.00  0.00    -0.461 OA
BRANCH  31  32
ATOM     32  C   UNL     1      44.688  38.301  -4.212  1.00  0.00     0.338 C 
ATOM     33  O   UNL     1      45.625  38.921  -4.796  1.00  0.00    -0.246 OA
BRANCH  32  34
ATOM     34  C   UNL     1      43.945  38.975  -3.123  1.00  0.00     0.060 A 
ATOM     35  C   UNL     1      44.256  38.700  -1.782  1.00  0.00     0.015 A 
ATOM     36  C   UNL     1      42.923  39.899  -3.416  1.00  0.00     0.015 A 
ATOM     37  C   UNL     1      43.553  39.339  -0.754  1.00  0.00     0.001 A 
ATOM     38  C   UNL     1      42.226  40.544  -2.389  1.00  0.00     0.001 A 
ATOM     39  C   UNL     1      42.547  40.265  -1.055  1.00  0.00     0.000 A 
ENDBRANCH  32  34
ENDBRANCH  31  32
ENDBRANCH  30  31
ENDBRANCH   8  30
TORSDOF 12
ENDMDL
MODEL 8
REMARK VINA RESULT:    -5.188      2.389      5.385
REMARK INTER + INTRA:          -9.274
REMARK INTER:                  -8.323
REMARK INTRA:                  -0.951
REMARK UNBOUND:                -1.205
REMARK SMILES C[C@]12C[C@]3(O)O[C@H](O1)[C@@]1(COC(=O)c4ccccc4)[C@@H]3C[C@]12O[C@@H]1O[C@@H](CO)[C@H](O)[C@H](O)[C@H]1O
REMARK SMILES IDX 1 1 2 2 3 3 4 4 20 5 21 6 22 7 9 8 7 9 8 10 6 11 23 12 24 13
REMARK SMILES IDX 33 14 25 15 31 16 26 17 29 18 34 19 32 21 27 23 28 24 30 26
REMARK SMILES IDX 5 28 10 30 11 31 12 32 13 33 14 34 15 35 19 36 16 37 18 38
REMARK SMILES IDX 17 39
REMARK H PARENT 34 20 32 22 28 25 30 27 5 29
REMARK Flexibility Score: inf
ROOT
ATOM      1  C   UNL     1      43.855  35.798  -1.375  1.00  0.00     0.046 C 
ATOM      2  C   UNL     1      44.061  36.915  -2.419  1.00  0.00     0.104 C 
ATOM      3  C   UNL     1      43.804  38.315  -1.747  1.00  0.00     0.104 C 
ATOM      4  C   UNL     1      44.128  39.343  -2.884  1.00  0.00     0.175 C 
ATOM      5  C   UNL     1      45.507  39.014  -3.559  1.00  0.00     0.070 C 
ATOM      6  C   UNL     1      46.370  38.075  -2.687  1.00  0.00     0.050 C 
ATOM      7  C   UNL     1      45.467  36.934  -3.167  1.00  0.00     0.115 C 
ATOM      8  C   UNL     1      45.068  37.797  -4.370  1.00  0.00     0.096 C 
ATOM      9  C   UNL     1      43.545  37.833  -4.396  1.00  0.00     0.267 C 
ATOM     10  O   UNL     1      43.116  36.832  -3.473  1.00  0.00    -0.342 OA
ATOM     11  O   UNL     1      43.178  39.105  -3.893  1.00  0.00    -0.320 OA
ENDROOT
BRANCH   7  12
ATOM     12  O   UNL     1      46.210  35.749  -3.454  1.00  0.00    -0.339 OA
BRANCH  12  13
ATOM     13  C   UNL     1      45.508  34.533  -3.235  1.00  0.00     0.282 C 
ATOM     14  C   UNL     1      45.231  33.809  -4.585  1.00  0.00     0.202 C 
ATOM     15  O   UNL     1      46.251  33.677  -2.373  1.00  0.00    -0.341 OA
ATOM     16  C   UNL     1      46.540  33.313  -5.229  1.00  0.00     0.179 C 
ATOM     17  C   UNL     1      47.544  33.379  -2.900  1.00  0.00     0.178 C 
ATOM     18  C   UNL     1      47.439  32.575  -4.212  1.00  0.00     0.177 C 
BRANCH  14  19
ATOM     19  O   UNL     1      44.409  32.698  -4.350  1.00  0.00    -0.385 OA
ATOM     20  H   UNL     1      44.592  32.393  -3.426  1.00  0.00     0.211 HD
ENDBRANCH  14  19
BRANCH  16  21
ATOM     21  O   UNL     1      47.240  34.396  -5.781  1.00  0.00    -0.387 OA
ATOM     22  H   UNL     1      47.966  34.018  -6.343  1.00  0.00     0.211 HD
ENDBRANCH  16  21
BRANCH  17  23
ATOM     23  C   UNL     1      48.349  32.619  -1.821  1.00  0.00     0.191 C 
BRANCH  23  24
ATOM     24  O   UNL     1      49.724  32.940  -1.884  1.00  0.00    -0.394 OA
ATOM     25  H   UNL     1      50.020  32.760  -2.826  1.00  0.00     0.210 HD
ENDBRANCH  23  24
ENDBRANCH  17  23
BRANCH  18  26
ATOM     26  O   UNL     1      48.730  32.396  -4.750  1.00  0.00    -0.387 OA
ATOM     27  H   UNL     1      49.193  33.275  -4.721  1.00  0.00     0.211 HD
ENDBRANCH  18  26
ENDBRANCH  12  13
ENDBRANCH   7  12
BRANCH   4  28
ATOM     28  O   UNL     1      44.050  40.658  -2.418  1.00  0.00    -0.365 OA
ATOM     29  H   UNL     1      43.103  40.815  -2.155  1.00  0.00     0.214 HD
ENDBRANCH   4  28
BRANCH   8  30
ATOM     30  C   UNL     1      45.790  37.597  -5.710  1.00  0.00     0.249 C 
BRANCH  30  31
ATOM     31  O   UNL     1      47.050  38.266  -5.693  1.00  0.00    -0.461 OA
BRANCH  31  32
ATOM     32  C   UNL     1      48.275  37.593  -5.715  1.00  0.00     0.338 C 
ATOM     33  O   UNL     1      48.649  37.039  -6.789  1.00  0.00    -0.246 OA
BRANCH  32  34
ATOM     34  C   UNL     1      49.162  37.543  -4.530  1.00  0.00     0.060 A 
ATOM     35  C   UNL     1      49.620  38.732  -3.941  1.00  0.00     0.015 A 
ATOM     36  C   UNL     1      49.554  36.308  -3.979  1.00  0.00     0.015 A 
ATOM     37  C   UNL     1      50.458  38.682  -2.820  1.00  0.00     0.001 A 
ATOM     38  C   UNL     1      50.384  36.257  -2.854  1.00  0.00     0.001 A 
ATOM     39  C   UNL     1      50.832  37.449  -2.272  1.00  0.00     0.000 A 
ENDBRANCH  32  34
ENDBRANCH  31  32
ENDBRANCH  30  31
ENDBRANCH   8  30
TORSDOF 12
ENDMDL
MODEL 9
REMARK VINA RESULT:    -5.113      2.696      4.880
REMARK INTER + INTRA:          -9.157
REMARK INTER:                  -7.706
REMARK INTRA:                  -1.451
REMARK UNBOUND:                -1.205
REMARK SMILES C[C@]12C[C@]3(O)O[C@H](O1)[C@@]1(COC(=O)c4ccccc4)[C@@H]3C[C@]12O[C@@H]1O[C@@H](CO)[C@H](O)[C@H](O)[C@H]1O
REMARK SMILES IDX 1 1 2 2 3 3 4 4 20 5 21 6 22 7 9 8 7 9 8 10 6 11 23 12 24 13
REMARK SMILES IDX 33 14 25 15 31 16 26 17 29 18 34 19 32 21 27 23 28 24 30 26
REMARK SMILES IDX 5 28 10 30 11 31 12 32 13 33 14 34 15 35 19 36 16 37 18 38
REMARK SMILES IDX 17 39
REMARK H PARENT 34 20 32 22 28 25 30 27 5 29
REMARK Flexibility Score: inf
ROOT
ATOM      1  C   UNL     1      48.975  32.760  -6.508  1.00  0.00     0.046 C 
ATOM      2  C   UNL     1      48.622  32.449  -5.039  1.00  0.00     0.104 C 
ATOM      3  C   UNL     1      49.654  31.410  -4.461  1.00  0.00     0.104 C 
ATOM      4  C   UNL     1      49.232  31.255  -2.960  1.00  0.00     0.175 C 
ATOM      5  C   UNL     1      49.039  32.660  -2.286  1.00  0.00     0.070 C 
ATOM      6  C   UNL     1      49.710  33.790  -3.097  1.00  0.00     0.050 C 
ATOM      7  C   UNL     1      48.518  33.697  -4.056  1.00  0.00     0.115 C 
ATOM      8  C   UNL     1      47.708  33.033  -2.936  1.00  0.00     0.096 C 
ATOM      9  C   UNL     1      47.143  31.741  -3.514  1.00  0.00     0.267 C 
ATOM     10  O   UNL     1      47.358  31.817  -4.922  1.00  0.00    -0.342 OA
ATOM     11  O   UNL     1      47.941  30.697  -2.986  1.00  0.00    -0.320 OA
ENDROOT
BRANCH   7  12
ATOM     12  O   UNL     1      48.074  34.986  -4.481  1.00  0.00    -0.339 OA
BRANCH  12  13
ATOM     13  C   UNL     1      49.037  35.745  -5.199  1.00  0.00     0.282 C 
ATOM     14  C   UNL     1      48.432  36.283  -6.528  1.00  0.00     0.202 C 
ATOM     15  O   UNL     1      49.503  36.833  -4.407  1.00  0.00    -0.341 OA
ATOM     16  C   UNL     1      47.334  37.330  -6.257  1.00  0.00     0.179 C 
ATOM     17  C   UNL     1      48.439  37.696  -4.002  1.00  0.00     0.178 C 
ATOM     18  C   UNL     1      47.785  38.382  -5.219  1.00  0.00     0.177 C 
BRANCH  14  19
ATOM     19  O   UNL     1      49.444  36.894  -7.280  1.00  0.00    -0.385 OA
ATOM     20  H   UNL     1      49.143  37.817  -7.475  1.00  0.00     0.211 HD
ENDBRANCH  14  19
BRANCH  16  21
ATOM     21  O   UNL     1      46.167  36.693  -5.809  1.00  0.00    -0.387 OA
ATOM     22  H   UNL     1      46.308  35.717  -5.917  1.00  0.00     0.211 HD
ENDBRANCH  16  21
BRANCH  17  23
ATOM     23  C   UNL     1      48.999  38.723  -2.992  1.00  0.00     0.191 C 
BRANCH  23  24
ATOM     24  O   UNL     1      49.366  39.927  -3.635  1.00  0.00    -0.394 OA
ATOM     25  H   UNL     1      49.881  39.672  -4.457  1.00  0.00     0.210 HD
ENDBRANCH  23  24
ENDBRANCH  17  23
BRANCH  18  26
ATOM     26  O   UNL     1      46.676  39.137  -4.784  1.00  0.00    -0.387 OA
ATOM     27  H   UNL     1      46.300  38.685  -3.982  1.00  0.00     0.211 HD
ENDBRANCH  18  26
ENDBRANCH  12  13
ENDBRANCH   7  12
BRANCH   4  28
ATOM     28  O   UNL     1      50.122  30.434  -2.264  1.00  0.00    -0.365 OA
ATOM     29  H   UNL     1      49.584  29.697  -1.865  1.00  0.00     0.214 HD
ENDBRANCH   4  28
BRANCH   8  30
ATOM     30  C   UNL     1      46.768  33.890  -2.077  1.00  0.00     0.249 C 
BRANCH  30  31
ATOM     31  O   UNL     1      45.431  33.791  -2.565  1.00  0.00    -0.461 OA
BRANCH  31  32
ATOM     32  C   UNL     1      44.720  34.879  -3.079  1.00  0.00     0.338 C 
ATOM     33  O   UNL     1      44.339  34.846  -4.285  1.00  0.00    -0.246 OA
BRANCH  32  34
ATOM     34  C   UNL     1      44.369  36.051  -2.243  1.00  0.00     0.060 A 
ATOM     35  C   UNL     1      44.953  37.301  -2.501  1.00  0.00     0.015 A 
ATOM     36  C   UNL     1      43.448  35.927  -1.185  1.00  0.00     0.015 A 
ATOM     37  C   UNL     1      44.619  38.406  -1.709  1.00  0.00     0.001 A 
ATOM     38  C   UNL     1      43.107  37.033  -0.399  1.00  0.00     0.001 A 
ATOM     39  C   UNL     1      43.692  38.276  -0.668  1.00  0.00     0.000 A 
ENDBRANCH  32  34
ENDBRANCH  31  32
ENDBRANCH  30  31
ENDBRANCH   8  30
TORSDOF 12
ENDMDL
