MODEL 1
REMARK VINA RESULT:    -4.580      0.000      0.000
REMARK INTER + INTRA:         -10.901
REMARK INTER:                  -8.595
REMARK INTRA:                  -2.305
REMARK UNBOUND:                -2.305
REMARK SMILES CCCCCCCCC=CCCCCCCCC(=O)[O-]
REMARK SMILES IDX 10 1 9 2 11 3 12 4 13 5 14 6 15 7 16 8 17 9 18 10 19 11
REMARK SMILES IDX 20 12 8 13 7 14 6 15 5 16 4 17 3 18 2 19 1 20
REMARK H PARENT
REMARK Flexibility Score: inf
ROOT
ATOM      1  C   UNL     1      10.202  14.866  22.235  1.00  0.00    -0.031 C 
ATOM      2  C   UNL     1       9.232  14.027  22.628  1.00  0.00    -0.031 C 
ENDROOT
BRANCH   1   3
ATOM      3  C   UNL     1      11.644  14.629  22.599  1.00  0.00     0.027 C 
BRANCH   3   4
ATOM      4  C   UNL     1      11.846  14.468  24.114  1.00  0.00     0.004 C 
BRANCH   4   5
ATOM      5  C   UNL     1      11.486  15.751  24.885  1.00  0.00     0.000 C 
BRANCH   5   6
ATOM      6  C   UNL     1      12.726  16.493  25.408  1.00  0.00     0.000 C 
BRANCH   6   7
ATOM      7  C   UNL     1      12.503  18.012  25.525  1.00  0.00     0.000 C 
BRANCH   7   8
ATOM      8  C   UNL     1      11.375  18.514  24.610  1.00  0.00     0.006 C 
BRANCH   8   9
ATOM      9  C   UNL     1      11.900  19.294  23.397  1.00  0.00     0.053 C 
BRANCH   9  10
ATOM     10  C   UNL     1      12.128  18.372  22.241  1.00  0.00     0.041 C 
ATOM     11  O   UNL     1      11.213  18.172  21.399  1.00  0.00    -0.550 OA
ATOM     12  O   UNL     1      13.339  17.704  22.113  1.00  0.00    -0.550 OA
ENDBRANCH   9  10
ENDBRANCH   8   9
ENDBRANCH   7   8
ENDBRANCH   6   7
ENDBRANCH   5   6
ENDBRANCH   4   5
ENDBRANCH   3   4
ENDBRANCH   1   3
BRANCH   2  13
ATOM     13  C   UNL     1       7.791  14.271  22.282  1.00  0.00     0.027 C 
BRANCH  13  14
ATOM     14  C   UNL     1       6.862  13.361  23.100  1.00  0.00     0.004 C 
BRANCH  14  15
ATOM     15  C   UNL     1       7.184  11.869  22.919  1.00  0.00     0.000 C 
BRANCH  15  16
ATOM     16  C   UNL     1       6.893  11.369  21.491  1.00  0.00     0.000 C 
BRANCH  16  17
ATOM     17  C   UNL     1       8.145  10.766  20.817  1.00  0.00    -0.000 C 
BRANCH  17  18
ATOM     18  C   UNL     1       8.760  11.676  19.739  1.00  0.00    -0.000 C 
BRANCH  18  19
ATOM     19  C   UNL     1      10.279  11.833  19.886  1.00  0.00    -0.003 C 
ATOM     20  C   UNL     1      10.797  11.072  21.103  1.00  0.00     0.004 C 
ENDBRANCH  18  19
ENDBRANCH  17  18
ENDBRANCH  16  17
ENDBRANCH  15  16
ENDBRANCH  14  15
ENDBRANCH  13  14
ENDBRANCH   2  13
TORSDOF 15
ENDMDL
MODEL 2
REMARK VINA RESULT:    -4.471      2.321      7.338
REMARK INTER + INTRA:         -10.698
REMARK INTER:                  -9.010
REMARK INTRA:                  -1.688
REMARK UNBOUND:                -2.305
REMARK SMILES CCCCCCCCC=CCCCCCCCC(=O)[O-]
REMARK SMILES IDX 10 1 9 2 11 3 12 4 13 5 14 6 15 7 16 8 17 9 18 10 19 11
REMARK SMILES IDX 20 12 8 13 7 14 6 15 5 16 4 17 3 18 2 19 1 20
REMARK H PARENT
REMARK Flexibility Score: inf
ROOT
ATOM      1  C   UNL     1       9.298  13.985  22.592  1.00  0.00    -0.031 C 
ATOM      2  C   UNL     1      10.082  15.060  22.425  1.00  0.00    -0.031 C 
ENDROOT
BRANCH   1   3
ATOM      3  C   UNL     1       7.884  13.952  22.075  1.00  0.00     0.027 C 
BRANCH   3   4
ATOM      4  C   UNL     1       6.876  13.531  23.155  1.00  0.00     0.004 C 
BRANCH   4   5
ATOM      5  C   UNL     1       6.526  12.035  23.067  1.00  0.00     0.000 C 
BRANCH   5   6
ATOM      6  C   UNL     1       6.798  11.446  21.673  1.00  0.00     0.000 C 
BRANCH   6   7
ATOM      7  C   UNL     1       7.673  10.180  21.724  1.00  0.00     0.000 C 
BRANCH   7   8
ATOM      8  C   UNL     1       8.884  10.262  20.782  1.00  0.00     0.006 C 
BRANCH   8   9
ATOM      9  C   UNL     1       8.679  11.266  19.640  1.00  0.00     0.053 C 
BRANCH   9  10
ATOM     10  C   UNL     1       9.985  11.869  19.232  1.00  0.00     0.041 C 
ATOM     11  O   UNL     1      10.191  12.181  18.029  1.00  0.00    -0.550 OA
ATOM     12  O   UNL     1      10.991  12.052  20.172  1.00  0.00    -0.550 OA
ENDBRANCH   9  10
ENDBRANCH   8   9
ENDBRANCH   7   8
ENDBRANCH   6   7
ENDBRANCH   5   6
ENDBRANCH   4   5
ENDBRANCH   3   4
ENDBRANCH   1   3
BRANCH   2  13
ATOM     13  C   UNL     1      11.486  15.103  22.956  1.00  0.00     0.027 C 
BRANCH  13  14
ATOM     14  C   UNL     1      11.501  15.395  24.464  1.00  0.00     0.004 C 
BRANCH  14  15
ATOM     15  C   UNL     1      12.855  15.936  24.949  1.00  0.00     0.000 C 
BRANCH  15  16
ATOM     16  C   UNL     1      12.713  17.219  25.790  1.00  0.00     0.000 C 
BRANCH  16  17
ATOM     17  C   UNL     1      13.120  18.483  25.003  1.00  0.00    -0.000 C 
BRANCH  17  18
ATOM     18  C   UNL     1      14.284  18.248  24.024  1.00  0.00    -0.000 C 
BRANCH  18  19
ATOM     19  C   UNL     1      13.930  18.615  22.576  1.00  0.00    -0.003 C 
ATOM     20  C   UNL     1      14.070  17.408  21.652  1.00  0.00     0.004 C 
ENDBRANCH  18  19
ENDBRANCH  17  18
ENDBRANCH  16  17
ENDBRANCH  15  16
ENDBRANCH  14  15
ENDBRANCH  13  14
ENDBRANCH   2  13
TORSDOF 15
ENDMDL
MODEL 3
REMARK VINA RESULT:    -4.423      2.855      7.484
REMARK INTER + INTRA:         -10.606
REMARK INTER:                  -8.432
REMARK INTRA:                  -2.175
REMARK UNBOUND:                -2.305
REMARK SMILES CCCCCCCCC=CCCCCCCCC(=O)[O-]
REMARK SMILES IDX 10 1 9 2 11 3 12 4 13 5 14 6 15 7 16 8 17 9 18 10 19 11
REMARK SMILES IDX 20 12 8 13 7 14 6 15 5 16 4 17 3 18 2 19 1 20
REMARK H PARENT
REMARK Flexibility Score: inf
ROOT
ATOM      1  C   UNL     1      13.100  16.051  24.555  1.00  0.00    -0.031 C 
ATOM      2  C   UNL     1      12.191  16.885  25.082  1.00  0.00    -0.031 C 
ENDROOT
BRANCH   1   3
ATOM      3  C   UNL     1      12.725  15.039  23.505  1.00  0.00     0.027 C 
BRANCH   3   4
ATOM      4  C   UNL     1      11.709  15.593  22.494  1.00  0.00     0.004 C 
BRANCH   4   5
ATOM      5  C   UNL     1      10.296  15.028  22.726  1.00  0.00     0.000 C 
BRANCH   5   6
ATOM      6  C   UNL     1      10.001  13.799  21.851  1.00  0.00     0.000 C 
BRANCH   6   7
ATOM      7  C   UNL     1      10.266  12.471  22.585  1.00  0.00     0.000 C 
BRANCH   7   8
ATOM      8  C   UNL     1       9.072  11.507  22.509  1.00  0.00     0.006 C 
BRANCH   8   9
ATOM      9  C   UNL     1       7.850  12.133  21.824  1.00  0.00     0.053 C 
BRANCH   9  10
ATOM     10  C   UNL     1       6.758  12.374  22.818  1.00  0.00     0.041 C 
ATOM     11  O   UNL     1       6.713  13.456  23.460  1.00  0.00    -0.550 OA
ATOM     12  O   UNL     1       5.811  11.387  23.064  1.00  0.00    -0.550 OA
ENDBRANCH   9  10
ENDBRANCH   8   9
ENDBRANCH   7   8
ENDBRANCH   6   7
ENDBRANCH   5   6
ENDBRANCH   4   5
ENDBRANCH   3   4
ENDBRANCH   1   3
BRANCH   2  13
ATOM     13  C   UNL     1      12.558  17.883  26.143  1.00  0.00     0.027 C 
BRANCH  13  14
ATOM     14  C   UNL     1      12.111  19.299  25.752  1.00  0.00     0.004 C 
BRANCH  14  15
ATOM     15  C   UNL     1      11.395  19.341  24.393  1.00  0.00     0.000 C 
BRANCH  15  16
ATOM     16  C   UNL     1      11.652  20.652  23.626  1.00  0.00     0.000 C 
BRANCH  16  17
ATOM     17  C   UNL     1      12.769  20.504  22.571  1.00  0.00    -0.000 C 
BRANCH  17  18
ATOM     18  C   UNL     1      12.888  19.080  21.999  1.00  0.00    -0.000 C 
BRANCH  18  19
ATOM     19  C   UNL     1      14.273  18.459  22.223  1.00  0.00    -0.003 C 
ATOM     20  C   UNL     1      15.013  19.159  23.360  1.00  0.00     0.004 C 
ENDBRANCH  18  19
ENDBRANCH  17  18
ENDBRANCH  16  17
ENDBRANCH  15  16
ENDBRANCH  14  15
ENDBRANCH  13  14
ENDBRANCH   2  13
TORSDOF 15
ENDMDL
MODEL 4
REMARK VINA RESULT:    -4.389      1.829      3.979
REMARK INTER + INTRA:         -10.542
REMARK INTER:                  -9.060
REMARK INTRA:                  -1.483
REMARK UNBOUND:                -2.305
REMARK SMILES CCCCCCCCC=CCCCCCCCC(=O)[O-]
REMARK SMILES IDX 10 1 9 2 11 3 12 4 13 5 14 6 15 7 16 8 17 9 18 10 19 11
REMARK SMILES IDX 20 12 8 13 7 14 6 15 5 16 4 17 3 18 2 19 1 20
REMARK H PARENT
REMARK Flexibility Score: inf
ROOT
ATOM      1  C   UNL     1      12.035  16.443  25.249  1.00  0.00    -0.031 C 
ATOM      2  C   UNL     1      12.724  15.484  24.613  1.00  0.00    -0.031 C 
ENDROOT
BRANCH   1   3
ATOM      3  C   UNL     1      12.718  17.648  25.836  1.00  0.00     0.027 C 
BRANCH   3   4
ATOM      4  C   UNL     1      11.809  18.887  25.854  1.00  0.00     0.004 C 
BRANCH   4   5
ATOM      5  C   UNL     1      11.214  19.188  24.467  1.00  0.00     0.000 C 
BRANCH   5   6
ATOM      6  C   UNL     1      12.280  19.625  23.450  1.00  0.00     0.000 C 
BRANCH   6   7
ATOM      7  C   UNL     1      12.403  18.652  22.263  1.00  0.00     0.000 C 
BRANCH   7   8
ATOM      8  C   UNL     1      13.745  17.904  22.250  1.00  0.00     0.006 C 
BRANCH   8   9
ATOM      9  C   UNL     1      14.089  17.332  20.868  1.00  0.00     0.053 C 
BRANCH   9  10
ATOM     10  C   UNL     1      14.078  18.415  19.836  1.00  0.00     0.041 C 
ATOM     11  O   UNL     1      13.338  18.316  18.822  1.00  0.00    -0.550 OA
ATOM     12  O   UNL     1      14.913  19.516  19.974  1.00  0.00    -0.550 OA
ENDBRANCH   9  10
ENDBRANCH   8   9
ENDBRANCH   7   8
ENDBRANCH   6   7
ENDBRANCH   5   6
ENDBRANCH   4   5
ENDBRANCH   3   4
ENDBRANCH   1   3
BRANCH   2  13
ATOM     13  C   UNL     1      12.046  14.272  24.042  1.00  0.00     0.027 C 
BRANCH  13  14
ATOM     14  C   UNL     1      11.092  14.654  22.901  1.00  0.00     0.004 C 
BRANCH  14  15
ATOM     15  C   UNL     1       9.972  13.623  22.694  1.00  0.00     0.000 C 
BRANCH  15  16
ATOM     16  C   UNL     1       8.654  14.265  22.222  1.00  0.00     0.000 C 
BRANCH  16  17
ATOM     17  C   UNL     1       7.599  13.211  21.823  1.00  0.00    -0.000 C 
BRANCH  17  18
ATOM     18  C   UNL     1       6.789  12.672  23.015  1.00  0.00    -0.000 C 
BRANCH  18  19
ATOM     19  C   UNL     1       6.506  11.167  22.914  1.00  0.00    -0.003 C 
ATOM     20  C   UNL     1       5.051  10.905  22.531  1.00  0.00     0.004 C 
ENDBRANCH  18  19
ENDBRANCH  17  18
ENDBRANCH  16  17
ENDBRANCH  15  16
ENDBRANCH  14  15
ENDBRANCH  13  14
ENDBRANCH   2  13
TORSDOF 15
ENDMDL
MODEL 5
REMARK VINA RESULT:    -4.384      4.198      7.011
REMARK INTER + INTRA:         -10.534
REMARK INTER:                  -7.377
REMARK INTRA:                  -3.157
REMARK UNBOUND:                -2.305
REMARK SMILES CCCCCCCCC=CCCCCCCCC(=O)[O-]
REMARK SMILES IDX 10 1 9 2 11 3 12 4 13 5 14 6 15 7 16 8 17 9 18 10 19 11
REMARK SMILES IDX 20 12 8 13 7 14 6 15 5 16 4 17 3 18 2 19 1 20
REMARK H PARENT
REMARK Flexibility Score: inf
ROOT
ATOM      1  C   UNL     1      11.707  19.386  21.654  1.00  0.00    -0.031 C 
ATOM      2  C   UNL     1      11.622  18.069  21.417  1.00  0.00    -0.031 C 
ENDROOT
BRANCH   1   3
ATOM      3  C   UNL     1      12.669  20.263  20.899  1.00  0.00     0.027 C 
BRANCH   3   4
ATOM      4  C   UNL     1      13.866  20.697  21.760  1.00  0.00     0.004 C 
BRANCH   4   5
ATOM      5  C   UNL     1      15.134  19.886  21.438  1.00  0.00     0.000 C 
BRANCH   5   6
ATOM      6  C   UNL     1      15.061  19.196  20.067  1.00  0.00     0.000 C 
BRANCH   6   7
ATOM      7  C   UNL     1      15.136  17.661  20.170  1.00  0.00     0.000 C 
BRANCH   7   8
ATOM      8  C   UNL     1      14.356  16.956  19.050  1.00  0.00     0.006 C 
BRANCH   8   9
ATOM      9  C   UNL     1      15.047  15.675  18.565  1.00  0.00     0.053 C 
BRANCH   9  10
ATOM     10  C   UNL     1      16.511  15.910  18.373  1.00  0.00     0.041 C 
ATOM     11  O   UNL     1      16.922  16.583  17.390  1.00  0.00    -0.550 OA
ATOM     12  O   UNL     1      17.427  15.355  19.258  1.00  0.00    -0.550 OA
ENDBRANCH   9  10
ENDBRANCH   8   9
ENDBRANCH   7   8
ENDBRANCH   6   7
ENDBRANCH   5   6
ENDBRANCH   4   5
ENDBRANCH   3   4
ENDBRANCH   1   3
BRANCH   2  13
ATOM     13  C   UNL     1      10.676  17.188  22.182  1.00  0.00     0.027 C 
BRANCH  13  14
ATOM     14  C   UNL     1      11.363  15.890  22.628  1.00  0.00     0.004 C 
BRANCH  14  15
ATOM     15  C   UNL     1      12.896  16.002  22.634  1.00  0.00     0.000 C 
BRANCH  15  16
ATOM     16  C   UNL     1      13.464  16.293  24.036  1.00  0.00     0.000 C 
BRANCH  16  17
ATOM     17  C   UNL     1      14.278  17.605  24.077  1.00  0.00    -0.000 C 
BRANCH  17  18
ATOM     18  C   UNL     1      13.553  18.753  24.799  1.00  0.00    -0.000 C 
BRANCH  18  19
ATOM     19  C   UNL     1      12.284  18.294  25.529  1.00  0.00    -0.003 C 
ATOM     20  C   UNL     1      11.118  19.242  25.256  1.00  0.00     0.004 C 
ENDBRANCH  18  19
ENDBRANCH  17  18
ENDBRANCH  16  17
ENDBRANCH  15  16
ENDBRANCH  14  15
ENDBRANCH  13  14
ENDBRANCH   2  13
TORSDOF 15
ENDMDL
MODEL 6
REMARK VINA RESULT:    -4.341      1.839      3.804
REMARK INTER + INTRA:         -10.453
REMARK INTER:                  -9.101
REMARK INTRA:                  -1.352
REMARK UNBOUND:                -2.305
REMARK SMILES CCCCCCCCC=CCCCCCCCC(=O)[O-]
REMARK SMILES IDX 10 1 9 2 11 3 12 4 13 5 14 6 15 7 16 8 17 9 18 10 19 11
REMARK SMILES IDX 20 12 8 13 7 14 6 15 5 16 4 17 3 18 2 19 1 20
REMARK H PARENT
REMARK Flexibility Score: inf
ROOT
ATOM      1  C   UNL     1      11.415  16.924  24.009  1.00  0.00    -0.031 C 
ATOM      2  C   UNL     1      11.601  15.758  24.644  1.00  0.00    -0.031 C 
ENDROOT
BRANCH   1   3
ATOM      3  C   UNL     1      11.753  18.239  24.659  1.00  0.00     0.027 C 
BRANCH   3   4
ATOM      4  C   UNL     1      13.204  18.286  25.164  1.00  0.00     0.004 C 
BRANCH   4   5
ATOM      5  C   UNL     1      14.214  17.950  24.053  1.00  0.00     0.000 C 
BRANCH   5   6
ATOM      6  C   UNL     1      14.739  19.203  23.333  1.00  0.00     0.000 C 
BRANCH   6   7
ATOM      7  C   UNL     1      14.256  19.295  21.874  1.00  0.00     0.000 C 
BRANCH   7   8
ATOM      8  C   UNL     1      13.020  20.195  21.718  1.00  0.00     0.006 C 
BRANCH   8   9
ATOM      9  C   UNL     1      11.791  19.430  21.212  1.00  0.00     0.053 C 
BRANCH   9  10
ATOM     10  C   UNL     1      11.241  20.078  19.981  1.00  0.00     0.041 C 
ATOM     11  O   UNL     1      10.708  21.218  20.049  1.00  0.00    -0.550 OA
ATOM     12  O   UNL     1      11.281  19.409  18.765  1.00  0.00    -0.550 OA
ENDBRANCH   9  10
ENDBRANCH   8   9
ENDBRANCH   7   8
ENDBRANCH   6   7
ENDBRANCH   5   6
ENDBRANCH   4   5
ENDBRANCH   3   4
ENDBRANCH   1   3
BRANCH   2  13
ATOM     13  C   UNL     1      11.247  14.445  24.005  1.00  0.00     0.027 C 
BRANCH  13  14
ATOM     14  C   UNL     1      10.104  14.611  22.993  1.00  0.00     0.004 C 
BRANCH  14  15
ATOM     15  C   UNL     1      10.170  13.584  21.851  1.00  0.00     0.000 C 
BRANCH  15  16
ATOM     16  C   UNL     1       8.904  12.712  21.764  1.00  0.00     0.000 C 
BRANCH  16  17
ATOM     17  C   UNL     1       7.619  13.514  22.062  1.00  0.00    -0.000 C 
BRANCH  17  18
ATOM     18  C   UNL     1       6.758  12.901  23.180  1.00  0.00    -0.000 C 
BRANCH  18  19
ATOM     19  C   UNL     1       6.587  11.383  23.038  1.00  0.00    -0.003 C 
ATOM     20  C   UNL     1       5.230  11.036  22.431  1.00  0.00     0.004 C 
ENDBRANCH  18  19
ENDBRANCH  17  18
ENDBRANCH  16  17
ENDBRANCH  15  16
ENDBRANCH  14  15
ENDBRANCH  13  14
ENDBRANCH   2  13
TORSDOF 15
ENDMDL
MODEL 7
REMARK VINA RESULT:    -4.336      2.844      7.302
REMARK INTER + INTRA:         -10.444
REMARK INTER:                  -8.110
REMARK INTRA:                  -2.334
REMARK UNBOUND:                -2.305
REMARK SMILES CCCCCCCCC=CCCCCCCCC(=O)[O-]
REMARK SMILES IDX 10 1 9 2 11 3 12 4 13 5 14 6 15 7 16 8 17 9 18 10 19 11
REMARK SMILES IDX 20 12 8 13 7 14 6 15 5 16 4 17 3 18 2 19 1 20
REMARK H PARENT
REMARK Flexibility Score: inf
ROOT
ATOM      1  C   UNL     1      11.423  16.067  24.910  1.00  0.00    -0.031 C 
ATOM      2  C   UNL     1      12.601  16.492  25.391  1.00  0.00    -0.031 C 
ENDROOT
BRANCH   1   3
ATOM      3  C   UNL     1      11.282  14.726  24.241  1.00  0.00     0.027 C 
BRANCH   3   4
ATOM      4  C   UNL     1      12.635  14.145  23.803  1.00  0.00     0.004 C 
BRANCH   4   5
ATOM      5  C   UNL     1      12.476  13.065  22.719  1.00  0.00     0.000 C 
BRANCH   5   6
ATOM      6  C   UNL     1      11.230  13.282  21.847  1.00  0.00     0.000 C 
BRANCH   6   7
ATOM      7  C   UNL     1      10.458  11.977  21.578  1.00  0.00     0.000 C 
BRANCH   7   8
ATOM      8  C   UNL     1       9.359  11.717  22.620  1.00  0.00     0.006 C 
BRANCH   8   9
ATOM      9  C   UNL     1       7.999  11.409  21.981  1.00  0.00     0.053 C 
BRANCH   9  10
ATOM     10  C   UNL     1       6.902  12.098  22.728  1.00  0.00     0.041 C 
ATOM     11  O   UNL     1       5.774  11.550  22.846  1.00  0.00    -0.550 OA
ATOM     12  O   UNL     1       7.112  13.364  23.262  1.00  0.00    -0.550 OA
ENDBRANCH   9  10
ENDBRANCH   8   9
ENDBRANCH   7   8
ENDBRANCH   6   7
ENDBRANCH   5   6
ENDBRANCH   4   5
ENDBRANCH   3   4
ENDBRANCH   1   3
BRANCH   2  13
ATOM     13  C   UNL     1      12.749  17.837  26.042  1.00  0.00     0.027 C 
BRANCH  13  14
ATOM     14  C   UNL     1      13.239  18.890  25.037  1.00  0.00     0.004 C 
BRANCH  14  15
ATOM     15  C   UNL     1      14.459  18.416  24.231  1.00  0.00     0.000 C 
BRANCH  15  16
ATOM     16  C   UNL     1      14.751  19.316  23.015  1.00  0.00     0.000 C 
BRANCH  16  17
ATOM     17  C   UNL     1      14.241  18.699  21.694  1.00  0.00    -0.000 C 
BRANCH  17  18
ATOM     18  C   UNL     1      13.794  17.233  21.835  1.00  0.00    -0.000 C 
BRANCH  18  19
ATOM     19  C   UNL     1      12.332  17.012  21.423  1.00  0.00    -0.003 C 
ATOM     20  C   UNL     1      11.473  18.224  21.772  1.00  0.00     0.004 C 
ENDBRANCH  18  19
ENDBRANCH  17  18
ENDBRANCH  16  17
ENDBRANCH  15  16
ENDBRANCH  14  15
ENDBRANCH  13  14
ENDBRANCH   2  13
TORSDOF 15
ENDMDL
MODEL 8
REMARK VINA RESULT:    -4.245      3.708      7.440
REMARK INTER + INTRA:         -10.272
REMARK INTER:                  -7.489
REMARK INTRA:                  -2.783
REMARK UNBOUND:                -2.305
REMARK SMILES CCCCCCCCC=CCCCCCCCC(=O)[O-]
REMARK SMILES IDX 10 1 9 2 11 3 12 4 13 5 14 6 15 7 16 8 17 9 18 10 19 11
REMARK SMILES IDX 20 12 8 13 7 14 6 15 5 16 4 17 3 18 2 19 1 20
REMARK H PARENT
REMARK Flexibility Score: inf
ROOT
ATOM      1  C   UNL     1      12.804  20.062  22.661  1.00  0.00    -0.031 C 
ATOM      2  C   UNL     1      14.125  20.057  22.891  1.00  0.00    -0.031 C 
ENDROOT
BRANCH   1   3
ATOM      3  C   UNL     1      11.822  20.502  23.713  1.00  0.00     0.027 C 
BRANCH   3   4
ATOM      4  C   UNL     1      11.308  19.328  24.561  1.00  0.00     0.004 C 
BRANCH   4   5
ATOM      5  C   UNL     1      12.138  19.134  25.842  1.00  0.00     0.000 C 
BRANCH   5   6
ATOM      6  C   UNL     1      12.577  17.675  26.047  1.00  0.00     0.000 C 
BRANCH   6   7
ATOM      7  C   UNL     1      13.337  17.108  24.833  1.00  0.00     0.000 C 
BRANCH   7   8
ATOM      8  C   UNL     1      12.637  15.886  24.218  1.00  0.00     0.006 C 
BRANCH   8   9
ATOM      9  C   UNL     1      12.533  15.972  22.690  1.00  0.00     0.053 C 
BRANCH   9  10
ATOM     10  C   UNL     1      11.110  16.164  22.272  1.00  0.00     0.041 C 
ATOM     11  O   UNL     1      10.697  17.304  21.932  1.00  0.00    -0.550 OA
ATOM     12  O   UNL     1      10.228  15.091  22.295  1.00  0.00    -0.550 OA
ENDBRANCH   9  10
ENDBRANCH   8   9
ENDBRANCH   7   8
ENDBRANCH   6   7
ENDBRANCH   5   6
ENDBRANCH   4   5
ENDBRANCH   3   4
ENDBRANCH   1   3
BRANCH   2  13
ATOM     13  C   UNL     1      15.106  19.601  21.849  1.00  0.00     0.027 C 
BRANCH  13  14
ATOM     14  C   UNL     1      14.445  18.650  20.842  1.00  0.00     0.004 C 
BRANCH  14  15
ATOM     15  C   UNL     1      14.859  18.941  19.391  1.00  0.00     0.000 C 
BRANCH  15  16
ATOM     16  C   UNL     1      15.057  20.445  19.121  1.00  0.00     0.000 C 
BRANCH  16  17
ATOM     17  C   UNL     1      13.800  21.099  18.507  1.00  0.00    -0.000 C 
BRANCH  17  18
ATOM     18  C   UNL     1      12.938  21.854  19.533  1.00  0.00    -0.000 C 
BRANCH  18  19
ATOM     19  C   UNL     1      11.446  21.509  19.430  1.00  0.00    -0.003 C 
ATOM     20  C   UNL     1      11.234  19.999  19.359  1.00  0.00     0.004 C 
ENDBRANCH  18  19
ENDBRANCH  17  18
ENDBRANCH  16  17
ENDBRANCH  15  16
ENDBRANCH  14  15
ENDBRANCH  13  14
ENDBRANCH   2  13
TORSDOF 15
ENDMDL
MODEL 9
REMARK VINA RESULT:    -4.138      3.681      6.629
REMARK INTER + INTRA:         -10.071
REMARK INTER:                  -7.418
REMARK INTRA:                  -2.653
REMARK UNBOUND:                -2.305
REMARK SMILES CCCCCCCCC=CCCCCCCCC(=O)[O-]
REMARK SMILES IDX 10 1 9 2 11 3 12 4 13 5 14 6 15 7 16 8 17 9 18 10 19 11
REMARK SMILES IDX 20 12 8 13 7 14 6 15 5 16 4 17 3 18 2 19 1 20
REMARK H PARENT
REMARK Flexibility Score: inf
ROOT
ATOM      1  C   UNL     1      13.705  18.777  22.148  1.00  0.00    -0.031 C 
ATOM      2  C   UNL     1      12.432  19.104  22.416  1.00  0.00    -0.031 C 
ENDROOT
BRANCH   1   3
ATOM      3  C   UNL     1      14.060  17.844  21.022  1.00  0.00     0.027 C 
BRANCH   3   4
ATOM      4  C   UNL     1      14.916  18.527  19.943  1.00  0.00     0.004 C 
BRANCH   4   5
ATOM      5  C   UNL     1      15.368  19.935  20.370  1.00  0.00     0.000 C 
BRANCH   5   6
ATOM      6  C   UNL     1      14.970  21.016  19.352  1.00  0.00     0.000 C 
BRANCH   6   7
ATOM      7  C   UNL     1      13.512  20.876  18.876  1.00  0.00     0.000 C 
BRANCH   7   8
ATOM      8  C   UNL     1      12.690  22.152  19.114  1.00  0.00     0.006 C 
BRANCH   8   9
ATOM      9  C   UNL     1      12.105  22.223  20.531  1.00  0.00     0.053 C 
BRANCH   9  10
ATOM     10  C   UNL     1      10.610  22.202  20.482  1.00  0.00     0.041 C 
ATOM     11  O   UNL     1       9.940  22.923  21.268  1.00  0.00    -0.550 OA
ATOM     12  O   UNL     1       9.955  21.359  19.593  1.00  0.00    -0.550 OA
ENDBRANCH   9  10
ENDBRANCH   8   9
ENDBRANCH   7   8
ENDBRANCH   6   7
ENDBRANCH   5   6
ENDBRANCH   4   5
ENDBRANCH   3   4
ENDBRANCH   1   3
BRANCH   2  13
ATOM     13  C   UNL     1      12.074  20.020  23.551  1.00  0.00     0.027 C 
BRANCH  13  14
ATOM     14  C   UNL     1      11.256  19.283  24.622  1.00  0.00     0.004 C 
BRANCH  14  15
ATOM     15  C   UNL     1      12.088  18.930  25.865  1.00  0.00     0.000 C 
BRANCH  15  16
ATOM     16  C   UNL     1      12.767  17.552  25.752  1.00  0.00     0.000 C 
BRANCH  16  17
ATOM     17  C   UNL     1      11.876  16.518  25.029  1.00  0.00    -0.000 C 
BRANCH  17  18
ATOM     18  C   UNL     1      12.673  15.490  24.208  1.00  0.00    -0.000 C 
BRANCH  18  19
ATOM     19  C   UNL     1      12.127  15.309  22.785  1.00  0.00    -0.003 C 
ATOM     20  C   UNL     1      10.725  15.896  22.654  1.00  0.00     0.004 C 
ENDBRANCH  18  19
ENDBRANCH  17  18
ENDBRANCH  16  17
ENDBRANCH  15  16
ENDBRANCH  14  15
ENDBRANCH  13  14
ENDBRANCH   2  13
TORSDOF 15
ENDMDL
