MODEL 1
REMARK VINA RESULT:    15.077      0.000      0.000
REMARK INTER + INTRA:          16.614
REMARK INTER:                  16.399
REMARK INTRA:                   0.215
REMARK UNBOUND:                 0.215
REMARK SMILES C[C@@H]1[C@H](C)CC[C@@]2(C(=O)[O-])CC[C@@]3(C)C(=CC[C@@H]4[C@@]5(C)CC[C@@H](O)C(C)(C)[C@H]5CC[C@@]43C)[C@@H]12
REMARK SMILES IDX 7 1 6 2 11 3 33 4 5 5 12 6 15 7 2 8 3 9 13 10 16 11 1 12
REMARK SMILES IDX 4 13 14 14 31 15 17 16 18 17 30 18 32 19 19 20 29 21 28 22
REMARK SMILES IDX 21 23 20 24 25 25 22 26 23 27 26 28 27 29 8 30 9 31 10 32
REMARK SMILES IDX 24 33
REMARK H PARENT 24 34
REMARK Flexibility Score: inf
ROOT
ATOM      1  C   UNL     1      23.611  20.515   5.181  1.00  0.00     0.017 C 
ATOM      2  C   UNL     1      24.657  21.681   5.249  1.00  0.00     0.014 C 
ATOM      3  C   UNL     1      23.431  20.145   3.682  1.00  0.00     0.014 C 
ATOM      4  C   UNL     1      24.097  19.300   6.069  1.00  0.00     0.030 C 
ATOM      5  C   UNL     1      25.260  21.827   6.648  1.00  0.00     0.004 C 
ATOM      6  C   UNL     1      22.748  18.789   3.419  1.00  0.00     0.013 C 
ATOM      7  C   UNL     1      23.472  17.962   5.625  1.00  0.00    -0.063 C 
ATOM      8  C   UNL     1      25.637  19.279   6.308  1.00  0.00    -0.003 C 
ATOM      9  C   UNL     1      26.104  20.586   7.049  1.00  0.00    -0.011 C 
ATOM     10  C   UNL     1      23.418  17.570   4.137  1.00  0.00    -0.006 C 
ATOM     11  C   UNL     1      22.745  17.314   6.559  1.00  0.00    -0.027 C 
ATOM     12  C   UNL     1      26.109  17.995   7.019  1.00  0.00     0.008 C 
ATOM     13  C   UNL     1      26.125  20.470   8.586  1.00  0.00     0.008 C 
ATOM     14  C   UNL     1      24.871  17.421   3.575  1.00  0.00     0.017 C 
ATOM     15  C   UNL     1      22.599  16.186   3.883  1.00  0.00    -0.020 C 
ATOM     16  C   UNL     1      21.752  16.236   6.287  1.00  0.00     0.032 C 
ATOM     17  C   UNL     1      21.322  16.101   4.801  1.00  0.00     0.006 C 
ATOM     18  C   UNL     1      23.492  14.935   4.183  1.00  0.00     0.008 C 
ATOM     19  C   UNL     1      22.201  16.113   2.382  1.00  0.00     0.012 C 
ATOM     20  C   UNL     1      20.388  14.814   4.549  1.00  0.00    -0.025 C 
ATOM     21  C   UNL     1      22.786  13.630   4.617  1.00  0.00     0.005 C 
ATOM     22  C   UNL     1      21.259  13.481   4.343  1.00  0.00     0.003 C 
ATOM     23  C   UNL     1      19.359  15.134   3.389  1.00  0.00     0.010 C 
ATOM     24  C   UNL     1      19.463  14.595   5.801  1.00  0.00     0.012 C 
ATOM     25  C   UNL     1      20.883  12.465   3.173  1.00  0.00    -0.006 C 
ATOM     26  C   UNL     1      18.985  14.017   2.401  1.00  0.00     0.033 C 
ATOM     27  C   UNL     1      19.367  12.605   2.854  1.00  0.00     0.120 C 
ATOM     28  C   UNL     1      21.108  11.006   3.682  1.00  0.00     0.014 C 
ATOM     29  C   UNL     1      21.749  12.609   1.876  1.00  0.00     0.014 C 
ENDROOT
BRANCH   1  30
ATOM     30  C   UNL     1      22.256  20.995   5.703  1.00  0.00     0.048 C 
ATOM     31  O   UNL     1      22.047  22.224   5.891  1.00  0.00    -0.550 OA
ATOM     32  O   UNL     1      21.246  20.093   6.030  1.00  0.00    -0.550 OA
ENDBRANCH   1  30
BRANCH  27  33
ATOM     33  O   UNL     1      18.939  11.653   1.907  1.00  0.00    -0.393 OA
ATOM     34  H   UNL     1      19.095  10.748   2.283  1.00  0.00     0.210 HD
ENDBRANCH  27  33
TORSDOF 2
ENDMDL
