MODEL 1
REMARK VINA RESULT:    -3.728      0.000      0.000
REMARK INTER + INTRA:          -4.831
REMARK INTER:                  -4.600
REMARK INTRA:                  -0.231
REMARK UNBOUND:                -0.231
REMARK SMILES CCCCCC(=O)[O-]
REMARK SMILES IDX 4 1 5 2 6 3 7 4 8 5 3 6 2 7 1 8
REMARK H PARENT
REMARK Flexibility Score: inf
ROOT
ATOM      1  C   UNL     1       9.578   1.426  36.784  1.00  0.00     0.006 C 
ENDROOT
BRANCH   1   2
ATOM      2  C   UNL     1      10.566   2.084  35.815  1.00  0.00     0.053 C 
BRANCH   2   3
ATOM      3  C   UNL     1      11.731   1.182  35.561  1.00  0.00     0.041 C 
ATOM      4  O   UNL     1      12.738   1.217  36.316  1.00  0.00    -0.550 OA
ATOM      5  O   UNL     1      11.727   0.335  34.459  1.00  0.00    -0.550 OA
ENDBRANCH   2   3
ENDBRANCH   1   2
BRANCH   1   6
ATOM      6  C   UNL     1       8.246   1.119  36.086  1.00  0.00     0.000 C 
BRANCH   6   7
ATOM      7  C   UNL     1       8.246  -0.251  35.390  1.00  0.00    -0.003 C 
ATOM      8  C   UNL     1       8.278  -0.140  33.866  1.00  0.00     0.004 C 
ENDBRANCH   6   7
ENDBRANCH   1   6
TORSDOF 4
ENDMDL
MODEL 2
REMARK VINA RESULT:    -3.728     17.982     18.491
REMARK INTER + INTRA:          -4.831
REMARK INTER:                  -4.625
REMARK INTRA:                  -0.206
REMARK UNBOUND:                -0.231
REMARK SMILES CCCCCC(=O)[O-]
REMARK SMILES IDX 4 1 5 2 6 3 7 4 8 5 3 6 2 7 1 8
REMARK H PARENT
REMARK Flexibility Score: inf
ROOT
ATOM      1  C   UNL     1      13.211 -12.267  49.286  1.00  0.00     0.006 C 
ENDROOT
BRANCH   1   2
ATOM      2  C   UNL     1      13.328 -10.848  49.850  1.00  0.00     0.053 C 
BRANCH   2   3
ATOM      3  C   UNL     1      11.984 -10.331  50.256  1.00  0.00     0.041 C 
ATOM      4  O   UNL     1      11.891  -9.362  51.053  1.00  0.00    -0.550 OA
ATOM      5  O   UNL     1      10.832 -10.952  49.790  1.00  0.00    -0.550 OA
ENDBRANCH   2   3
ENDBRANCH   1   2
BRANCH   1   6
ATOM      6  C   UNL     1      13.807 -12.349  47.874  1.00  0.00     0.000 C 
BRANCH   6   7
ATOM      7  C   UNL     1      12.780 -12.800  46.824  1.00  0.00    -0.003 C 
ATOM      8  C   UNL     1      11.775 -11.704  46.471  1.00  0.00     0.004 C 
ENDBRANCH   6   7
ENDBRANCH   1   6
TORSDOF 4
ENDMDL
MODEL 3
REMARK VINA RESULT:    -3.693     17.389     17.974
REMARK INTER + INTRA:          -4.788
REMARK INTER:                  -4.529
REMARK INTRA:                  -0.259
REMARK UNBOUND:                -0.231
REMARK SMILES CCCCCC(=O)[O-]
REMARK SMILES IDX 4 1 5 2 6 3 7 4 8 5 3 6 2 7 1 8
REMARK H PARENT
REMARK Flexibility Score: inf
ROOT
ATOM      1  C   UNL     1      13.856 -12.434  48.033  1.00  0.00     0.006 C 
ENDROOT
BRANCH   1   2
ATOM      2  C   UNL     1      12.842 -12.743  46.927  1.00  0.00     0.053 C 
BRANCH   2   3
ATOM      3  C   UNL     1      12.141 -11.494  46.494  1.00  0.00     0.041 C 
ATOM      4  O   UNL     1      12.768 -10.600  45.867  1.00  0.00    -0.550 OA
ATOM      5  O   UNL     1      10.807 -11.295  46.825  1.00  0.00    -0.550 OA
ENDBRANCH   2   3
ENDBRANCH   1   2
BRANCH   1   6
ATOM      6  C   UNL     1      13.152 -12.221  49.381  1.00  0.00     0.000 C 
BRANCH   6   7
ATOM      7  C   UNL     1      13.357 -10.804  49.938  1.00  0.00    -0.003 C 
ATOM      8  C   UNL     1      12.063  -9.992  49.980  1.00  0.00     0.004 C 
ENDBRANCH   6   7
ENDBRANCH   1   6
TORSDOF 4
ENDMDL
MODEL 4
REMARK VINA RESULT:    -3.684      1.308      2.439
REMARK INTER + INTRA:          -4.777
REMARK INTER:                  -4.544
REMARK INTRA:                  -0.233
REMARK UNBOUND:                -0.231
REMARK SMILES CCCCCC(=O)[O-]
REMARK SMILES IDX 4 1 5 2 6 3 7 4 8 5 3 6 2 7 1 8
REMARK H PARENT
REMARK Flexibility Score: inf
ROOT
ATOM      1  C   UNL     1       9.298   0.305  33.786  1.00  0.00     0.006 C 
ENDROOT
BRANCH   1   2
ATOM      2  C   UNL     1      10.664  -0.380  33.682  1.00  0.00     0.053 C 
BRANCH   2   3
ATOM      3  C   UNL     1      11.747   0.534  34.160  1.00  0.00     0.041 C 
ATOM      4  O   UNL     1      12.831   0.062  34.592  1.00  0.00    -0.550 OA
ATOM      5  O   UNL     1      11.541   1.908  34.174  1.00  0.00    -0.550 OA
ENDBRANCH   2   3
ENDBRANCH   1   2
BRANCH   1   6
ATOM      6  C   UNL     1       8.556  -0.139  35.054  1.00  0.00     0.000 C 
BRANCH   6   7
ATOM      7  C   UNL     1       8.133   1.045  35.937  1.00  0.00    -0.003 C 
ATOM      8  C   UNL     1       9.263   1.546  36.836  1.00  0.00     0.004 C 
ENDBRANCH   6   7
ENDBRANCH   1   6
TORSDOF 4
ENDMDL
MODEL 5
REMARK VINA RESULT:    -3.666     17.573     18.099
REMARK INTER + INTRA:          -4.754
REMARK INTER:                  -4.512
REMARK INTRA:                  -0.242
REMARK UNBOUND:                -0.231
REMARK SMILES CCCCCC(=O)[O-]
REMARK SMILES IDX 4 1 5 2 6 3 7 4 8 5 3 6 2 7 1 8
REMARK H PARENT
REMARK Flexibility Score: inf
ROOT
ATOM      1  C   UNL     1      13.240 -10.906  49.636  1.00  0.00     0.006 C 
ENDROOT
BRANCH   1   2
ATOM      2  C   UNL     1      11.783 -10.522  49.911  1.00  0.00     0.053 C 
BRANCH   2   3
ATOM      3  C   UNL     1      11.032 -10.356  48.627  1.00  0.00     0.041 C 
ATOM      4  O   UNL     1       9.939 -10.955  48.450  1.00  0.00    -0.550 OA
ATOM      5  O   UNL     1      11.565  -9.580  47.607  1.00  0.00    -0.550 OA
ENDBRANCH   2   3
ENDBRANCH   1   2
BRANCH   1   6
ATOM      6  C   UNL     1      13.337 -12.336  49.086  1.00  0.00     0.000 C 
BRANCH   6   7
ATOM      7  C   UNL     1      13.800 -12.376  47.622  1.00  0.00    -0.003 C 
ATOM      8  C   UNL     1      12.746 -12.962  46.684  1.00  0.00     0.004 C 
ENDBRANCH   6   7
ENDBRANCH   1   6
TORSDOF 4
ENDMDL
MODEL 6
REMARK VINA RESULT:    -3.646      2.349      3.895
REMARK INTER + INTRA:          -4.730
REMARK INTER:                  -4.542
REMARK INTRA:                  -0.188
REMARK UNBOUND:                -0.231
REMARK SMILES CCCCCC(=O)[O-]
REMARK SMILES IDX 4 1 5 2 6 3 7 4 8 5 3 6 2 7 1 8
REMARK H PARENT
REMARK Flexibility Score: inf
ROOT
ATOM      1  C   UNL     1      10.656   1.897  34.243  1.00  0.00     0.006 C 
ENDROOT
BRANCH   1   2
ATOM      2  C   UNL     1       9.132   1.899  34.400  1.00  0.00     0.053 C 
BRANCH   2   3
ATOM      3  C   UNL     1       8.746   1.469  35.780  1.00  0.00     0.041 C 
ATOM      4  O   UNL     1       7.718   0.767  35.961  1.00  0.00    -0.550 OA
ATOM      5  O   UNL     1       9.497   1.885  36.872  1.00  0.00    -0.550 OA
ENDBRANCH   2   3
ENDBRANCH   1   2
BRANCH   1   6
ATOM      6  C   UNL     1      11.193   0.464  34.115  1.00  0.00     0.000 C 
BRANCH   6   7
ATOM      7  C   UNL     1      12.669   0.347  34.524  1.00  0.00    -0.003 C 
ATOM      8  C   UNL     1      13.046   1.298  35.660  1.00  0.00     0.004 C 
ENDBRANCH   6   7
ENDBRANCH   1   6
TORSDOF 4
ENDMDL
MODEL 7
REMARK VINA RESULT:    -3.585      1.209      1.648
REMARK INTER + INTRA:          -4.655
REMARK INTER:                  -4.553
REMARK INTRA:                  -0.102
REMARK UNBOUND:                -0.231
REMARK SMILES CCCCCC(=O)[O-]
REMARK SMILES IDX 4 1 5 2 6 3 7 4 8 5 3 6 2 7 1 8
REMARK H PARENT
REMARK Flexibility Score: inf
ROOT
ATOM      1  C   UNL     1      10.543   2.032  35.822  1.00  0.00     0.006 C 
ENDROOT
BRANCH   1   2
ATOM      2  C   UNL     1      11.839   1.217  35.869  1.00  0.00     0.053 C 
BRANCH   2   3
ATOM      3  C   UNL     1      12.991   2.033  35.373  1.00  0.00     0.041 C 
ATOM      4  O   UNL     1      13.465   2.958  36.083  1.00  0.00    -0.550 OA
ATOM      5  O   UNL     1      13.510   1.804  34.106  1.00  0.00    -0.550 OA
ENDBRANCH   2   3
ENDBRANCH   1   2
BRANCH   1   6
ATOM      6  C   UNL     1       9.486   1.438  36.763  1.00  0.00     0.000 C 
BRANCH   6   7
ATOM      7  C   UNL     1       8.181   1.081  36.035  1.00  0.00    -0.003 C 
ATOM      8  C   UNL     1       8.349  -0.077  35.053  1.00  0.00     0.004 C 
ENDBRANCH   6   7
ENDBRANCH   1   6
TORSDOF 4
ENDMDL
MODEL 8
REMARK VINA RESULT:    -3.556      2.035      3.682
REMARK INTER + INTRA:          -4.618
REMARK INTER:                  -4.441
REMARK INTRA:                  -0.177
REMARK UNBOUND:                -0.231
REMARK SMILES CCCCCC(=O)[O-]
REMARK SMILES IDX 4 1 5 2 6 3 7 4 8 5 3 6 2 7 1 8
REMARK H PARENT
REMARK Flexibility Score: inf
ROOT
ATOM      1  C   UNL     1      10.069   1.147  36.605  1.00  0.00     0.006 C 
ENDROOT
BRANCH   1   2
ATOM      2  C   UNL     1       8.720   1.209  35.880  1.00  0.00     0.053 C 
BRANCH   2   3
ATOM      3  C   UNL     1       8.441  -0.083  35.179  1.00  0.00     0.041 C 
ATOM      4  O   UNL     1       9.071  -0.384  34.132  1.00  0.00    -0.550 OA
ATOM      5  O   UNL     1       7.450  -0.932  35.654  1.00  0.00    -0.550 OA
ENDBRANCH   2   3
ENDBRANCH   1   2
BRANCH   1   6
ATOM      6  C   UNL     1      11.126   1.982  35.869  1.00  0.00     0.000 C 
BRANCH   6   7
ATOM      7  C   UNL     1      12.489   1.277  35.796  1.00  0.00    -0.003 C 
ATOM      8  C   UNL     1      12.629   0.388  34.561  1.00  0.00     0.004 C 
ENDBRANCH   6   7
ENDBRANCH   1   6
TORSDOF 4
ENDMDL
MODEL 9
REMARK VINA RESULT:    -3.500      1.988      2.767
REMARK INTER + INTRA:          -4.550
REMARK INTER:                  -4.351
REMARK INTRA:                  -0.199
REMARK UNBOUND:                -0.231
REMARK SMILES CCCCCC(=O)[O-]
REMARK SMILES IDX 4 1 5 2 6 3 7 4 8 5 3 6 2 7 1 8
REMARK H PARENT
REMARK Flexibility Score: inf
ROOT
ATOM      1  C   UNL     1      12.297   0.380  34.479  1.00  0.00     0.006 C 
ENDROOT
BRANCH   1   2
ATOM      2  C   UNL     1      12.079   1.253  35.719  1.00  0.00     0.053 C 
BRANCH   2   3
ATOM      3  C   UNL     1      12.419   2.679  35.424  1.00  0.00     0.041 C 
ATOM      4  O   UNL     1      11.784   3.313  34.542  1.00  0.00    -0.550 OA
ATOM      5  O   UNL     1      13.472   3.294  36.089  1.00  0.00    -0.550 OA
ENDBRANCH   2   3
ENDBRANCH   1   2
BRANCH   1   6
ATOM      6  C   UNL     1      10.957  -0.068  33.880  1.00  0.00     0.000 C 
BRANCH   6   7
ATOM      7  C   UNL     1       9.762   0.271  34.784  1.00  0.00    -0.003 C 
ATOM      8  C   UNL     1       8.788   1.253  34.134  1.00  0.00     0.004 C 
ENDBRANCH   6   7
ENDBRANCH   1   6
TORSDOF 4
ENDMDL
