MODEL 1
REMARK VINA RESULT:     0.633      0.000      0.000
REMARK INTER + INTRA:           0.807
REMARK INTER:                   0.781
REMARK INTRA:                   0.026
REMARK UNBOUND:                 0.026
REMARK SMILES Oc1cc(O)c2cc(O)c(-c3cc(O)c(O)c(O)c3)[o+]c2c1.[Cl-]
REMARK SMILES IDX 10 1 20 2 21 3 22 4 2 5 3 6 4 7 6 8 7 9 8 10 11 11 12 12
REMARK SMILES IDX 13 13 19 14 15 15 17 16 14 17 16 19 18 21 9 23 1 25 5 27
REMARK H PARENT 14 18 16 20 18 22 9 24 1 26 5 28
REMARK Flexibility Score: inf
ROOT
ATOM      1  C   UNL     1      13.664  39.117 -11.259  1.00  0.00     0.402 A 
ATOM      2  O   UNL     1      14.418  40.157 -11.604  1.00  0.00    -0.202 OA
ATOM      3  C   UNL     1      15.513  40.048 -12.350  1.00  0.00     0.368 A 
ATOM      4  C   UNL     1      16.242  41.200 -12.658  1.00  0.00     0.162 A 
ATOM      5  C   UNL     1      17.397  41.116 -13.437  1.00  0.00     0.128 A 
ATOM      6  C   UNL     1      17.828  39.871 -13.912  1.00  0.00     0.093 A 
ATOM      7  C   UNL     1      17.116  38.703 -13.616  1.00  0.00     0.136 A 
ATOM      8  C   UNL     1      15.938  38.785 -12.827  1.00  0.00     0.125 A 
ATOM      9  C   UNL     1      15.154  37.669 -12.492  1.00  0.00     0.078 A 
ATOM     10  C   UNL     1      14.003  37.829 -11.714  1.00  0.00     0.223 A 
ENDROOT
BRANCH   1  11
ATOM     11  C   UNL     1      12.472  39.365 -10.415  1.00  0.00     0.091 A 
ATOM     12  C   UNL     1      11.234  38.768 -10.704  1.00  0.00     0.068 A 
ATOM     13  C   UNL     1      10.120  38.990  -9.887  1.00  0.00     0.162 A 
ATOM     14  C   UNL     1      12.591  40.166  -9.272  1.00  0.00     0.068 A 
ATOM     15  C   UNL     1      10.242  39.823  -8.748  1.00  0.00     0.200 A 
ATOM     16  C   UNL     1      11.487  40.402  -8.447  1.00  0.00     0.162 A 
BRANCH  13  17
ATOM     17  O   UNL     1       8.922  38.363 -10.240  1.00  0.00    -0.504 OA
ATOM     18  H   UNL     1       8.866  37.508 -10.773  1.00  0.00     0.293 HD
ENDBRANCH  13  17
BRANCH  15  19
ATOM     19  O   UNL     1       9.161  40.092  -7.903  1.00  0.00    -0.502 OA
ATOM     20  H   UNL     1       8.317  40.565  -8.193  1.00  0.00     0.293 HD
ENDBRANCH  15  19
BRANCH  16  21
ATOM     21  O   UNL     1      11.651  41.219  -7.329  1.00  0.00    -0.504 OA
ATOM     22  H   UNL     1      10.974  41.929  -7.074  1.00  0.00     0.293 HD
ENDBRANCH  16  21
ENDBRANCH   1  11
BRANCH  10  23
ATOM     23  O   UNL     1      13.197  36.729 -11.424  1.00  0.00    -0.500 OA
ATOM     24  H   UNL     1      13.520  35.780 -11.565  1.00  0.00     0.294 HD
ENDBRANCH  10  23
BRANCH   5  25
ATOM     25  O   UNL     1      18.110  42.274 -13.734  1.00  0.00    -0.507 OA
ATOM     26  H   UNL     1      17.723  43.195 -13.561  1.00  0.00     0.293 HD
ENDBRANCH   5  25
BRANCH   7  27
ATOM     27  O   UNL     1      17.613  37.499 -14.124  1.00  0.00    -0.507 OA
ATOM     28  H   UNL     1      17.216  36.591 -13.932  1.00  0.00     0.293 HD
ENDBRANCH   7  27
TORSDOF 7
ENDMDL
MODEL 2
REMARK VINA RESULT:     0.794      0.098      1.808
REMARK INTER + INTRA:           1.005
REMARK INTER:                   1.000
REMARK INTRA:                   0.005
REMARK UNBOUND:                 0.026
REMARK SMILES Oc1cc(O)c2cc(O)c(-c3cc(O)c(O)c(O)c3)[o+]c2c1.[Cl-]
REMARK SMILES IDX 10 1 20 2 21 3 22 4 2 5 3 6 4 7 6 8 7 9 8 10 11 11 12 12
REMARK SMILES IDX 13 13 19 14 15 15 17 16 14 17 16 19 18 21 9 23 1 25 5 27
REMARK H PARENT 14 18 16 20 18 22 9 24 1 26 5 28
REMARK Flexibility Score: inf
ROOT
ATOM      1  C   UNL     1      13.749  39.110 -11.246  1.00  0.00     0.402 A 
ATOM      2  O   UNL     1      14.490  40.151 -11.616  1.00  0.00    -0.202 OA
ATOM      3  C   UNL     1      15.579  40.040 -12.371  1.00  0.00     0.368 A 
ATOM      4  C   UNL     1      16.295  41.193 -12.704  1.00  0.00     0.162 A 
ATOM      5  C   UNL     1      17.443  41.107 -13.493  1.00  0.00     0.128 A 
ATOM      6  C   UNL     1      17.881  39.860 -13.952  1.00  0.00     0.093 A 
ATOM      7  C   UNL     1      17.182  38.689 -13.631  1.00  0.00     0.136 A 
ATOM      8  C   UNL     1      16.011  38.774 -12.831  1.00  0.00     0.125 A 
ATOM      9  C   UNL     1      15.241  37.656 -12.472  1.00  0.00     0.078 A 
ATOM     10  C   UNL     1      14.096  37.818 -11.685  1.00  0.00     0.223 A 
ENDROOT
BRANCH   1  11
ATOM     11  C   UNL     1      12.563  39.361 -10.395  1.00  0.00     0.091 A 
ATOM     12  C   UNL     1      12.635  40.197  -9.270  1.00  0.00     0.068 A 
ATOM     13  C   UNL     1      11.503  40.448  -8.486  1.00  0.00     0.162 A 
ATOM     14  C   UNL     1      11.329  38.801 -10.750  1.00  0.00     0.068 A 
ATOM     15  C   UNL     1      10.265  39.857  -8.835  1.00  0.00     0.200 A 
ATOM     16  C   UNL     1      10.189  39.038  -9.976  1.00  0.00     0.162 A 
BRANCH  13  17
ATOM     17  O   UNL     1      11.653  41.290  -7.381  1.00  0.00    -0.504 OA
ATOM     18  H   UNL     1      10.995  42.010  -7.124  1.00  0.00     0.293 HD
ENDBRANCH  13  17
BRANCH  15  19
ATOM     19  O   UNL     1       9.104  40.060  -8.084  1.00  0.00    -0.502 OA
ATOM     20  H   UNL     1       8.830  40.949  -7.691  1.00  0.00     0.293 HD
ENDBRANCH  15  19
BRANCH  16  21
ATOM     21  O   UNL     1       8.986  38.446 -10.359  1.00  0.00    -0.504 OA
ATOM     22  H   UNL     1       8.950  37.552 -10.837  1.00  0.00     0.293 HD
ENDBRANCH  16  21
ENDBRANCH   1  11
BRANCH  10  23
ATOM     23  O   UNL     1      13.303  36.715 -11.369  1.00  0.00    -0.500 OA
ATOM     24  H   UNL     1      13.112  36.454 -10.409  1.00  0.00     0.294 HD
ENDBRANCH  10  23
BRANCH   5  25
ATOM     25  O   UNL     1      18.142  42.267 -13.815  1.00  0.00    -0.507 OA
ATOM     26  H   UNL     1      18.305  42.539 -14.777  1.00  0.00     0.293 HD
ENDBRANCH   5  25
BRANCH   7  27
ATOM     27  O   UNL     1      17.685  37.482 -14.125  1.00  0.00    -0.507 OA
ATOM     28  H   UNL     1      18.626  37.354 -14.467  1.00  0.00     0.293 HD
ENDBRANCH   7  27
TORSDOF 7
ENDMDL
MODEL 3
REMARK VINA RESULT:     1.162      1.007      7.095
REMARK INTER + INTRA:           1.460
REMARK INTER:                   1.323
REMARK INTRA:                   0.137
REMARK UNBOUND:                 0.026
REMARK SMILES Oc1cc(O)c2cc(O)c(-c3cc(O)c(O)c(O)c3)[o+]c2c1.[Cl-]
REMARK SMILES IDX 10 1 20 2 21 3 22 4 2 5 3 6 4 7 6 8 7 9 8 10 11 11 12 12
REMARK SMILES IDX 13 13 19 14 15 15 17 16 14 17 16 19 18 21 9 23 1 25 5 27
REMARK H PARENT 14 18 16 20 18 22 9 24 1 26 5 28
REMARK Flexibility Score: inf
ROOT
ATOM      1  C   UNL     1      14.098  39.346 -11.647  1.00  0.00     0.402 A 
ATOM      2  O   UNL     1      13.868  39.969 -10.494  1.00  0.00    -0.202 OA
ATOM      3  C   UNL     1      12.721  39.873  -9.830  1.00  0.00     0.368 A 
ATOM      4  C   UNL     1      12.572  40.569  -8.626  1.00  0.00     0.162 A 
ATOM      5  C   UNL     1      11.378  40.489  -7.908  1.00  0.00     0.128 A 
ATOM      6  C   UNL     1      10.323  39.709  -8.395  1.00  0.00     0.093 A 
ATOM      7  C   UNL     1      10.447  39.003  -9.598  1.00  0.00     0.136 A 
ATOM      8  C   UNL     1      11.661  39.079 -10.330  1.00  0.00     0.125 A 
ATOM      9  C   UNL     1      11.879  38.395 -11.537  1.00  0.00     0.078 A 
ATOM     10  C   UNL     1      13.105  38.516 -12.199  1.00  0.00     0.223 A 
ENDROOT
BRANCH   1  11
ATOM     11  C   UNL     1      15.414  39.540 -12.297  1.00  0.00     0.091 A 
ATOM     12  C   UNL     1      16.070  40.781 -12.265  1.00  0.00     0.068 A 
ATOM     13  C   UNL     1      17.325  40.948 -12.861  1.00  0.00     0.162 A 
ATOM     14  C   UNL     1      16.049  38.450 -12.908  1.00  0.00     0.068 A 
ATOM     15  C   UNL     1      17.948  39.849 -13.500  1.00  0.00     0.200 A 
ATOM     16  C   UNL     1      17.301  38.600 -13.512  1.00  0.00     0.162 A 
BRANCH  13  17
ATOM     17  O   UNL     1      17.914  42.213 -12.789  1.00  0.00    -0.504 OA
ATOM     18  H   UNL     1      18.787  42.405 -12.320  1.00  0.00     0.293 HD
ENDBRANCH  13  17
BRANCH  15  19
ATOM     19  O   UNL     1      19.194  39.958 -14.124  1.00  0.00    -0.502 OA
ATOM     20  H   UNL     1      19.378  40.542 -14.927  1.00  0.00     0.293 HD
ENDBRANCH  15  19
BRANCH  16  21
ATOM     21  O   UNL     1      17.885  37.491 -14.122  1.00  0.00    -0.504 OA
ATOM     22  H   UNL     1      17.352  36.838 -14.685  1.00  0.00     0.293 HD
ENDBRANCH  16  21
ENDBRANCH   1  11
BRANCH  10  23
ATOM     23  O   UNL     1      13.340  37.798 -13.372  1.00  0.00    -0.500 OA
ATOM     24  H   UNL     1      13.636  38.255 -14.225  1.00  0.00     0.294 HD
ENDBRANCH  10  23
BRANCH   5  25
ATOM     25  O   UNL     1      11.249  41.189  -6.712  1.00  0.00    -0.507 OA
ATOM     26  H   UNL     1      11.333  40.726  -5.814  1.00  0.00     0.293 HD
ENDBRANCH   5  25
BRANCH   7  27
ATOM     27  O   UNL     1       9.347  38.249 -10.018  1.00  0.00    -0.507 OA
ATOM     28  H   UNL     1       9.284  37.244  -9.947  1.00  0.00     0.293 HD
ENDBRANCH   7  27
TORSDOF 7
ENDMDL
MODEL 4
REMARK VINA RESULT:     3.110      1.099      3.190
REMARK INTER + INTRA:           3.863
REMARK INTER:                   3.820
REMARK INTRA:                   0.044
REMARK UNBOUND:                 0.026
REMARK SMILES Oc1cc(O)c2cc(O)c(-c3cc(O)c(O)c(O)c3)[o+]c2c1.[Cl-]
REMARK SMILES IDX 10 1 20 2 21 3 22 4 2 5 3 6 4 7 6 8 7 9 8 10 11 11 12 12
REMARK SMILES IDX 13 13 19 14 15 15 17 16 14 17 16 19 18 21 9 23 1 25 5 27
REMARK H PARENT 14 18 16 20 18 22 9 24 1 26 5 28
REMARK Flexibility Score: inf
ROOT
ATOM      1  C   UNL     1      13.864  39.674 -11.032  1.00  0.00     0.402 A 
ATOM      2  O   UNL     1      14.225  38.492 -11.525  1.00  0.00    -0.202 OA
ATOM      3  C   UNL     1      15.261  38.327 -12.340  1.00  0.00     0.368 A 
ATOM      4  C   UNL     1      15.560  37.044 -12.809  1.00  0.00     0.162 A 
ATOM      5  C   UNL     1      16.641  36.841 -13.668  1.00  0.00     0.128 A 
ATOM      6  C   UNL     1      17.430  37.928 -14.063  1.00  0.00     0.093 A 
ATOM      7  C   UNL     1      17.151  39.222 -13.609  1.00  0.00     0.136 A 
ATOM      8  C   UNL     1      16.054  39.432 -12.732  1.00  0.00     0.125 A 
ATOM      9  C   UNL     1      15.709  40.692 -12.216  1.00  0.00     0.078 A 
ATOM     10  C   UNL     1      14.616  40.820 -11.352  1.00  0.00     0.223 A 
ENDROOT
BRANCH   1  11
ATOM     11  C   UNL     1      12.683  39.731 -10.141  1.00  0.00     0.091 A 
ATOM     12  C   UNL     1      12.691  40.496  -8.964  1.00  0.00     0.068 A 
ATOM     13  C   UNL     1      11.562  40.562  -8.140  1.00  0.00     0.162 A 
ATOM     14  C   UNL     1      11.512  39.054 -10.505  1.00  0.00     0.068 A 
ATOM     15  C   UNL     1      10.390  39.854  -8.501  1.00  0.00     0.200 A 
ATOM     16  C   UNL     1      10.375  39.106  -9.692  1.00  0.00     0.162 A 
BRANCH  13  17
ATOM     17  O   UNL     1      11.647  41.344  -6.985  1.00  0.00    -0.504 OA
ATOM     18  H   UNL     1      11.744  40.969  -6.053  1.00  0.00     0.293 HD
ENDBRANCH  13  17
BRANCH  15  19
ATOM     19  O   UNL     1       9.236  39.872  -7.712  1.00  0.00    -0.502 OA
ATOM     20  H   UNL     1       8.377  40.334  -7.973  1.00  0.00     0.293 HD
ENDBRANCH  15  19
BRANCH  16  21
ATOM     21  O   UNL     1       9.238  38.403 -10.086  1.00  0.00    -0.504 OA
ATOM     22  H   UNL     1       8.302  38.774  -9.966  1.00  0.00     0.293 HD
ENDBRANCH  16  21
ENDBRANCH   1  11
BRANCH  10  23
ATOM     23  O   UNL     1      14.303  42.062 -10.800  1.00  0.00    -0.500 OA
ATOM     24  H   UNL     1      14.948  42.841 -10.842  1.00  0.00     0.294 HD
ENDBRANCH  10  23
BRANCH   5  25
ATOM     25  O   UNL     1      16.923  35.556 -14.124  1.00  0.00    -0.507 OA
ATOM     26  H   UNL     1      17.619  34.974 -13.673  1.00  0.00     0.293 HD
ENDBRANCH   5  25
BRANCH   7  27
ATOM     27  O   UNL     1      17.984  40.254 -14.052  1.00  0.00    -0.507 OA
ATOM     28  H   UNL     1      17.850  40.765 -14.912  1.00  0.00     0.293 HD
ENDBRANCH   7  27
TORSDOF 7
ENDMDL
MODEL 5
REMARK VINA RESULT:     3.400      1.095      2.629
REMARK INTER + INTRA:           4.221
REMARK INTER:                   4.156
REMARK INTRA:                   0.065
REMARK UNBOUND:                 0.026
REMARK SMILES Oc1cc(O)c2cc(O)c(-c3cc(O)c(O)c(O)c3)[o+]c2c1.[Cl-]
REMARK SMILES IDX 10 1 20 2 21 3 22 4 2 5 3 6 4 7 6 8 7 9 8 10 11 11 12 12
REMARK SMILES IDX 13 13 19 14 15 15 17 16 14 17 16 19 18 21 9 23 1 25 5 27
REMARK H PARENT 14 18 16 20 18 22 9 24 1 26 5 28
REMARK Flexibility Score: inf
ROOT
ATOM      1  C   UNL     1      13.840  39.692 -11.066  1.00  0.00     0.402 A 
ATOM      2  O   UNL     1      14.198  38.510 -11.561  1.00  0.00    -0.202 OA
ATOM      3  C   UNL     1      15.251  38.341 -12.354  1.00  0.00     0.368 A 
ATOM      4  C   UNL     1      15.546  37.059 -12.828  1.00  0.00     0.162 A 
ATOM      5  C   UNL     1      16.643  36.851 -13.664  1.00  0.00     0.128 A 
ATOM      6  C   UNL     1      17.453  37.932 -14.033  1.00  0.00     0.093 A 
ATOM      7  C   UNL     1      17.178  39.226 -13.573  1.00  0.00     0.136 A 
ATOM      8  C   UNL     1      16.064  39.440 -12.719  1.00  0.00     0.125 A 
ATOM      9  C   UNL     1      15.722  40.699 -12.200  1.00  0.00     0.078 A 
ATOM     10  C   UNL     1      14.611  40.832 -11.359  1.00  0.00     0.223 A 
ENDROOT
BRANCH   1  11
ATOM     11  C   UNL     1      12.640  39.754 -10.200  1.00  0.00     0.091 A 
ATOM     12  C   UNL     1      11.473  39.040 -10.516  1.00  0.00     0.068 A 
ATOM     13  C   UNL     1      10.353  39.086  -9.679  1.00  0.00     0.162 A 
ATOM     14  C   UNL     1      12.686  40.492  -9.011  1.00  0.00     0.068 A 
ATOM     15  C   UNL     1      10.397  39.856  -8.492  1.00  0.00     0.200 A 
ATOM     16  C   UNL     1      11.574  40.552  -8.164  1.00  0.00     0.162 A 
BRANCH  13  17
ATOM     17  O   UNL     1       9.227  38.350 -10.061  1.00  0.00    -0.504 OA
ATOM     18  H   UNL     1       8.920  37.506  -9.601  1.00  0.00     0.293 HD
ENDBRANCH  13  17
BRANCH  15  19
ATOM     19  O   UNL     1       9.305  39.950  -7.623  1.00  0.00    -0.502 OA
ATOM     20  H   UNL     1       8.487  39.361  -7.674  1.00  0.00     0.293 HD
ENDBRANCH  15  19
BRANCH  16  21
ATOM     21  O   UNL     1      11.661  41.313  -6.999  1.00  0.00    -0.504 OA
ATOM     22  H   UNL     1      11.464  40.926  -6.083  1.00  0.00     0.293 HD
ENDBRANCH  16  21
ENDBRANCH   1  11
BRANCH  10  23
ATOM     23  O   UNL     1      14.300  42.072 -10.803  1.00  0.00    -0.500 OA
ATOM     24  H   UNL     1      14.753  42.408  -9.963  1.00  0.00     0.294 HD
ENDBRANCH  10  23
BRANCH   5  25
ATOM     25  O   UNL     1      16.921  35.567 -14.125  1.00  0.00    -0.507 OA
ATOM     26  H   UNL     1      17.851  35.168 -14.057  1.00  0.00     0.293 HD
ENDBRANCH   5  25
BRANCH   7  27
ATOM     27  O   UNL     1      18.032  40.252 -13.989  1.00  0.00    -0.507 OA
ATOM     28  H   UNL     1      17.750  41.029 -14.567  1.00  0.00     0.293 HD
ENDBRANCH   7  27
TORSDOF 7
ENDMDL
