MODEL 1
REMARK VINA RESULT:    -4.185      0.000      0.000
REMARK INTER + INTRA:          -6.170
REMARK INTER:                  -5.775
REMARK INTRA:                  -0.395
REMARK UNBOUND:                -0.395
REMARK SMILES OC[C@@H](O)C(O)[C@H](O)CO
REMARK SMILES IDX 5 1 7 2 9 3 10 4 8 6 3 8 2 9 1 10 4 12 6 14
REMARK H PARENT 10 5 8 7 1 11 4 13 6 15
REMARK Flexibility Score: inf
ROOT
ATOM      1  C   UNL     1       9.750   4.522   8.131  1.00  0.00     0.176 C 
ENDROOT
BRANCH   1   2
ATOM      2  C   UNL     1      10.318   5.835   7.522  1.00  0.00     0.171 C 
BRANCH   2   3
ATOM      3  C   UNL     1      10.771   5.661   6.059  1.00  0.00     0.190 C 
BRANCH   3   4
ATOM      4  O   UNL     1      10.455   6.801   5.303  1.00  0.00    -0.394 OA
ATOM      5  H   UNL     1      10.879   7.575   5.756  1.00  0.00     0.210 HD
ENDBRANCH   3   4
ENDBRANCH   2   3
BRANCH   2   6
ATOM      6  O   UNL     1       9.393   6.891   7.633  1.00  0.00    -0.388 OA
ATOM      7  H   UNL     1       8.852   6.739   8.452  1.00  0.00     0.211 HD
ENDBRANCH   2   6
ENDBRANCH   1   2
BRANCH   1   8
ATOM      8  C   UNL     1       9.299   4.706   9.608  1.00  0.00     0.171 C 
BRANCH   8   9
ATOM      9  C   UNL     1       9.771   3.537  10.494  1.00  0.00     0.190 C 
BRANCH   9  10
ATOM     10  O   UNL     1       9.238   2.327  10.030  1.00  0.00    -0.394 OA
ATOM     11  H   UNL     1       8.599   2.556   9.305  1.00  0.00     0.210 HD
ENDBRANCH   9  10
ENDBRANCH   8   9
BRANCH   8  12
ATOM     12  O   UNL     1       9.767   5.927  10.127  1.00  0.00    -0.388 OA
ATOM     13  H   UNL     1       9.428   6.652   9.540  1.00  0.00     0.211 HD
ENDBRANCH   8  12
ENDBRANCH   1   8
BRANCH   1  14
ATOM     14  O   UNL     1       8.707   4.008   7.339  1.00  0.00    -0.388 OA
ATOM     15  H   UNL     1       7.928   4.616   7.425  1.00  0.00     0.211 HD
ENDBRANCH   1  14
TORSDOF 9
ENDMDL
MODEL 2
REMARK VINA RESULT:    -4.167      1.313      2.483
REMARK INTER + INTRA:          -6.145
REMARK INTER:                  -5.878
REMARK INTRA:                  -0.267
REMARK UNBOUND:                -0.395
REMARK SMILES OC[C@@H](O)C(O)[C@H](O)CO
REMARK SMILES IDX 5 1 7 2 9 3 10 4 8 6 3 8 2 9 1 10 4 12 6 14
REMARK H PARENT 10 5 8 7 1 11 4 13 6 15
REMARK Flexibility Score: inf
ROOT
ATOM      1  C   UNL     1       9.789   5.860   7.500  1.00  0.00     0.176 C 
ENDROOT
BRANCH   1   2
ATOM      2  C   UNL     1      10.779   5.604   6.330  1.00  0.00     0.171 C 
BRANCH   2   3
ATOM      3  C   UNL     1      10.371   4.398   5.460  1.00  0.00     0.190 C 
BRANCH   3   4
ATOM      4  O   UNL     1      11.500   3.658   5.076  1.00  0.00    -0.394 OA
ATOM      5  H   UNL     1      12.294   4.145   5.419  1.00  0.00     0.210 HD
ENDBRANCH   3   4
ENDBRANCH   2   3
BRANCH   2   6
ATOM      6  O   UNL     1      10.940   6.755   5.536  1.00  0.00    -0.388 OA
ATOM      7  H   UNL     1      10.875   7.548   6.130  1.00  0.00     0.211 HD
ENDBRANCH   2   6
ENDBRANCH   1   2
BRANCH   1   8
ATOM      8  C   UNL     1       9.681   4.639   8.456  1.00  0.00     0.171 C 
BRANCH   8   9
ATOM      9  C   UNL     1       9.909   5.048   9.924  1.00  0.00     0.190 C 
BRANCH   9  10
ATOM     10  O   UNL     1       8.892   5.910  10.356  1.00  0.00    -0.394 OA
ATOM     11  H   UNL     1       9.121   6.815  10.015  1.00  0.00     0.210 HD
ENDBRANCH   9  10
ENDBRANCH   8   9
BRANCH   8  12
ATOM     12  O   UNL     1       8.434   4.003   8.319  1.00  0.00    -0.388 OA
ATOM     13  H   UNL     1       8.499   3.115   8.758  1.00  0.00     0.211 HD
ENDBRANCH   8  12
ENDBRANCH   1   8
BRANCH   1  14
ATOM     14  O   UNL     1      10.129   7.031   8.202  1.00  0.00    -0.388 OA
ATOM     15  H   UNL     1       9.298   7.551   8.352  1.00  0.00     0.211 HD
ENDBRANCH   1  14
TORSDOF 9
ENDMDL
MODEL 3
REMARK VINA RESULT:    -4.148      1.692      2.348
REMARK INTER + INTRA:          -6.118
REMARK INTER:                  -5.525
REMARK INTRA:                  -0.593
REMARK UNBOUND:                -0.395
REMARK SMILES OC[C@@H](O)C(O)[C@H](O)CO
REMARK SMILES IDX 5 1 7 2 9 3 10 4 8 6 3 8 2 9 1 10 4 12 6 14
REMARK H PARENT 10 5 8 7 1 11 4 13 6 15
REMARK Flexibility Score: inf
ROOT
ATOM      1  C   UNL     1       9.416   3.826   7.933  1.00  0.00     0.176 C 
ENDROOT
BRANCH   1   2
ATOM      2  C   UNL     1       9.798   5.242   8.448  1.00  0.00     0.171 C 
BRANCH   2   3
ATOM      3  C   UNL     1       9.941   6.269   7.308  1.00  0.00     0.190 C 
BRANCH   3   4
ATOM      4  O   UNL     1      11.103   6.022   6.560  1.00  0.00    -0.394 OA
ATOM      5  H   UNL     1      10.832   5.476   5.777  1.00  0.00     0.210 HD
ENDBRANCH   3   4
ENDBRANCH   2   3
BRANCH   2   6
ATOM      6  O   UNL     1       8.881   5.698   9.414  1.00  0.00    -0.388 OA
ATOM      7  H   UNL     1       7.973   5.662   9.015  1.00  0.00     0.211 HD
ENDBRANCH   2   6
ENDBRANCH   1   2
BRANCH   1   8
ATOM      8  C   UNL     1       8.424   3.100   8.886  1.00  0.00     0.171 C 
BRANCH   8   9
ATOM      9  C   UNL     1       7.574   2.060   8.133  1.00  0.00     0.190 C 
BRANCH   9  10
ATOM     10  O   UNL     1       6.338   2.611   7.766  1.00  0.00    -0.394 OA
ATOM     11  H   UNL     1       5.704   2.403   8.501  1.00  0.00     0.210 HD
ENDBRANCH   9  10
ENDBRANCH   8   9
BRANCH   8  12
ATOM     12  O   UNL     1       9.110   2.488   9.950  1.00  0.00    -0.388 OA
ATOM     13  H   UNL     1       9.605   3.197  10.436  1.00  0.00     0.211 HD
ENDBRANCH   8  12
ENDBRANCH   1   8
BRANCH   1  14
ATOM     14  O   UNL     1       8.911   3.886   6.620  1.00  0.00    -0.388 OA
ATOM     15  H   UNL     1       9.680   3.961   5.999  1.00  0.00     0.211 HD
ENDBRANCH   1  14
TORSDOF 9
ENDMDL
MODEL 4
REMARK VINA RESULT:    -4.140      6.828      8.419
REMARK INTER + INTRA:          -6.108
REMARK INTER:                  -5.251
REMARK INTRA:                  -0.857
REMARK UNBOUND:                -0.395
REMARK SMILES OC[C@@H](O)C(O)[C@H](O)CO
REMARK SMILES IDX 5 1 7 2 9 3 10 4 8 6 3 8 2 9 1 10 4 12 6 14
REMARK H PARENT 10 5 8 7 1 11 4 13 6 15
REMARK Flexibility Score: inf
ROOT
ATOM      1  C   UNL     1       6.811   4.534   1.923  1.00  0.00     0.176 C 
ENDROOT
BRANCH   1   2
ATOM      2  C   UNL     1       7.836   3.368   1.851  1.00  0.00     0.171 C 
BRANCH   2   3
ATOM      3  C   UNL     1       7.407   2.149   2.692  1.00  0.00     0.190 C 
BRANCH   3   4
ATOM      4  O   UNL     1       6.247   1.563   2.161  1.00  0.00    -0.394 OA
ATOM      5  H   UNL     1       6.312   1.637   1.174  1.00  0.00     0.210 HD
ENDBRANCH   3   4
ENDBRANCH   2   3
BRANCH   2   6
ATOM      6  O   UNL     1       8.085   2.989   0.519  1.00  0.00    -0.388 OA
ATOM      7  H   UNL     1       8.588   2.133   0.533  1.00  0.00     0.211 HD
ENDBRANCH   2   6
ENDBRANCH   1   2
BRANCH   1   8
ATOM      8  C   UNL     1       5.937   4.629   0.641  1.00  0.00     0.171 C 
BRANCH   8   9
ATOM      9  C   UNL     1       4.439   4.745   0.984  1.00  0.00     0.190 C 
BRANCH   9  10
ATOM     10  O   UNL     1       3.930   3.499   1.377  1.00  0.00    -0.394 OA
ATOM     11  H   UNL     1       3.104   3.349   0.846  1.00  0.00     0.210 HD
ENDBRANCH   9  10
ENDBRANCH   8   9
BRANCH   8  12
ATOM     12  O   UNL     1       6.336   5.714  -0.159  1.00  0.00    -0.388 OA
ATOM     13  H   UNL     1       6.733   6.399   0.440  1.00  0.00     0.211 HD
ENDBRANCH   8  12
ENDBRANCH   1   8
BRANCH   1  14
ATOM     14  O   UNL     1       6.013   4.434   3.079  1.00  0.00    -0.388 OA
ATOM     15  H   UNL     1       6.106   3.513   3.437  1.00  0.00     0.211 HD
ENDBRANCH   1  14
TORSDOF 9
ENDMDL
MODEL 5
REMARK VINA RESULT:    -4.125      8.211      9.622
REMARK INTER + INTRA:          -6.087
REMARK INTER:                  -5.335
REMARK INTRA:                  -0.753
REMARK UNBOUND:                -0.395
REMARK SMILES OC[C@@H](O)C(O)[C@H](O)CO
REMARK SMILES IDX 5 1 7 2 9 3 10 4 8 6 3 8 2 9 1 10 4 12 6 14
REMARK H PARENT 10 5 8 7 1 11 4 13 6 15
REMARK Flexibility Score: inf
ROOT
ATOM      1  C   UNL     1      16.726   4.801  13.406  1.00  0.00     0.176 C 
ENDROOT
BRANCH   1   2
ATOM      2  C   UNL     1      15.738   3.972  14.273  1.00  0.00     0.171 C 
BRANCH   2   3
ATOM      3  C   UNL     1      15.662   2.495  13.837  1.00  0.00     0.190 C 
BRANCH   3   4
ATOM      4  O   UNL     1      14.920   2.364  12.653  1.00  0.00    -0.394 OA
ATOM      5  H   UNL     1      14.430   1.503  12.713  1.00  0.00     0.210 HD
ENDBRANCH   3   4
ENDBRANCH   2   3
BRANCH   2   6
ATOM      6  O   UNL     1      16.054   4.069  15.641  1.00  0.00    -0.388 OA
ATOM      7  H   UNL     1      15.309   4.546  16.094  1.00  0.00     0.211 HD
ENDBRANCH   2   6
ENDBRANCH   1   2
BRANCH   1   8
ATOM      8  C   UNL     1      18.131   4.140  13.320  1.00  0.00     0.171 C 
BRANCH   8   9
ATOM      9  C   UNL     1      19.058   4.904  12.356  1.00  0.00     0.190 C 
BRANCH   9  10
ATOM     10  O   UNL     1      18.904   4.427  11.047  1.00  0.00    -0.394 OA
ATOM     11  H   UNL     1      19.401   3.569  10.997  1.00  0.00     0.210 HD
ENDBRANCH   9  10
ENDBRANCH   8   9
BRANCH   8  12
ATOM     12  O   UNL     1      18.722   4.051  14.593  1.00  0.00    -0.388 OA
ATOM     13  H   UNL     1      18.293   4.733  15.172  1.00  0.00     0.211 HD
ENDBRANCH   8  12
ENDBRANCH   1   8
BRANCH   1  14
ATOM     14  O   UNL     1      16.195   5.040  12.124  1.00  0.00    -0.388 OA
ATOM     15  H   UNL     1      15.208   4.963  12.183  1.00  0.00     0.211 HD
ENDBRANCH   1  14
TORSDOF 9
ENDMDL
MODEL 6
REMARK VINA RESULT:    -4.114      1.843      3.133
REMARK INTER + INTRA:          -6.072
REMARK INTER:                  -5.574
REMARK INTRA:                  -0.498
REMARK UNBOUND:                -0.395
REMARK SMILES OC[C@@H](O)C(O)[C@H](O)CO
REMARK SMILES IDX 5 1 7 2 9 3 10 4 8 6 3 8 2 9 1 10 4 12 6 14
REMARK H PARENT 10 5 8 7 1 11 4 13 6 15
REMARK Flexibility Score: inf
ROOT
ATOM      1  C   UNL     1      10.956   4.710   6.786  1.00  0.00     0.176 C 
ENDROOT
BRANCH   1   2
ATOM      2  C   UNL     1      10.430   4.281   5.388  1.00  0.00     0.171 C 
BRANCH   2   3
ATOM      3  C   UNL     1      10.062   5.484   4.499  1.00  0.00     0.190 C 
BRANCH   3   4
ATOM      4  O   UNL     1      10.409   6.691   5.126  1.00  0.00    -0.394 OA
ATOM      5  H   UNL     1      11.072   7.141   4.540  1.00  0.00     0.210 HD
ENDBRANCH   3   4
ENDBRANCH   2   3
BRANCH   2   6
ATOM      6  O   UNL     1      11.351   3.442   4.732  1.00  0.00    -0.388 OA
ATOM      7  H   UNL     1      11.150   3.467   3.760  1.00  0.00     0.211 HD
ENDBRANCH   2   6
ENDBRANCH   1   2
BRANCH   1   8
ATOM      8  C   UNL     1       9.931   4.412   7.917  1.00  0.00     0.171 C 
BRANCH   8   9
ATOM      9  C   UNL     1       9.630   5.670   8.754  1.00  0.00     0.190 C 
BRANCH   9  10
ATOM     10  O   UNL     1       9.929   6.828   8.022  1.00  0.00    -0.394 OA
ATOM     11  H   UNL     1       9.109   7.389   8.030  1.00  0.00     0.210 HD
ENDBRANCH   9  10
ENDBRANCH   8   9
BRANCH   8  12
ATOM     12  O   UNL     1       8.739   3.886   7.388  1.00  0.00    -0.388 OA
ATOM     13  H   UNL     1       8.812   3.913   6.398  1.00  0.00     0.211 HD
ENDBRANCH   8  12
ENDBRANCH   1   8
BRANCH   1  14
ATOM     14  O   UNL     1      12.204   4.118   7.060  1.00  0.00    -0.388 OA
ATOM     15  H   UNL     1      12.910   4.704   6.682  1.00  0.00     0.211 HD
ENDBRANCH   1  14
TORSDOF 9
ENDMDL
MODEL 7
REMARK VINA RESULT:    -4.111      5.852      7.116
REMARK INTER + INTRA:          -6.068
REMARK INTER:                  -5.070
REMARK INTRA:                  -0.997
REMARK UNBOUND:                -0.395
REMARK SMILES OC[C@@H](O)C(O)[C@H](O)CO
REMARK SMILES IDX 5 1 7 2 9 3 10 4 8 6 3 8 2 9 1 10 4 12 6 14
REMARK H PARENT 10 5 8 7 1 11 4 13 6 15
REMARK Flexibility Score: inf
ROOT
ATOM      1  C   UNL     1       7.710   4.004   1.806  1.00  0.00     0.176 C 
ENDROOT
BRANCH   1   2
ATOM      2  C   UNL     1       6.275   4.598   1.752  1.00  0.00     0.171 C 
BRANCH   2   3
ATOM      3  C   UNL     1       5.397   3.930   0.675  1.00  0.00     0.190 C 
BRANCH   3   4
ATOM      4  O   UNL     1       4.962   2.666   1.102  1.00  0.00    -0.394 OA
ATOM      5  H   UNL     1       4.752   2.143   0.286  1.00  0.00     0.210 HD
ENDBRANCH   3   4
ENDBRANCH   2   3
BRANCH   2   6
ATOM      6  O   UNL     1       5.648   4.535   3.012  1.00  0.00    -0.388 OA
ATOM      7  H   UNL     1       6.194   3.945   3.596  1.00  0.00     0.211 HD
ENDBRANCH   2   6
ENDBRANCH   1   2
BRANCH   1   8
ATOM      8  C   UNL     1       8.095   3.523   3.234  1.00  0.00     0.171 C 
BRANCH   8   9
ATOM      9  C   UNL     1       8.046   1.988   3.346  1.00  0.00     0.190 C 
BRANCH   9  10
ATOM     10  O   UNL     1       6.734   1.526   3.176  1.00  0.00    -0.394 OA
ATOM     11  H   UNL     1       6.624   1.331   2.208  1.00  0.00     0.210 HD
ENDBRANCH   9  10
ENDBRANCH   8   9
BRANCH   8  12
ATOM     12  O   UNL     1       9.369   3.996   3.596  1.00  0.00    -0.388 OA
ATOM     13  H   UNL     1       9.751   4.462   2.808  1.00  0.00     0.211 HD
ENDBRANCH   8  12
ENDBRANCH   1   8
BRANCH   1  14
ATOM     14  O   UNL     1       7.865   2.973   0.861  1.00  0.00    -0.388 OA
ATOM     15  H   UNL     1       6.992   2.836   0.411  1.00  0.00     0.211 HD
ENDBRANCH   1  14
TORSDOF 9
ENDMDL
MODEL 8
REMARK VINA RESULT:    -4.109      1.222      3.949
REMARK INTER + INTRA:          -6.065
REMARK INTER:                  -5.573
REMARK INTRA:                  -0.492
REMARK UNBOUND:                -0.395
REMARK SMILES OC[C@@H](O)C(O)[C@H](O)CO
REMARK SMILES IDX 5 1 7 2 9 3 10 4 8 6 3 8 2 9 1 10 4 12 6 14
REMARK H PARENT 10 5 8 7 1 11 4 13 6 15
REMARK Flexibility Score: inf
ROOT
ATOM      1  C   UNL     1       9.337   4.296   8.568  1.00  0.00     0.176 C 
ENDROOT
BRANCH   1   2
ATOM      2  C   UNL     1       9.986   3.709   9.852  1.00  0.00     0.171 C 
BRANCH   2   3
ATOM      3  C   UNL     1      10.035   4.725  11.010  1.00  0.00     0.190 C 
BRANCH   3   4
ATOM      4  O   UNL     1       9.497   5.958  10.611  1.00  0.00    -0.394 OA
ATOM      5  H   UNL     1       9.881   6.166   9.720  1.00  0.00     0.210 HD
ENDBRANCH   3   4
ENDBRANCH   2   3
BRANCH   2   6
ATOM      6  O   UNL     1       9.339   2.526  10.257  1.00  0.00    -0.388 OA
ATOM      7  H   UNL     1       9.673   1.784   9.689  1.00  0.00     0.211 HD
ENDBRANCH   2   6
ENDBRANCH   1   2
BRANCH   1   8
ATOM      8  C   UNL     1      10.367   4.476   7.418  1.00  0.00     0.171 C 
BRANCH   8   9
ATOM      9  C   UNL     1      10.317   5.900   6.832  1.00  0.00     0.190 C 
BRANCH   9  10
ATOM     10  O   UNL     1       9.910   6.818   7.811  1.00  0.00    -0.394 OA
ATOM     11  H   UNL     1      10.696   6.974   8.398  1.00  0.00     0.210 HD
ENDBRANCH   9  10
ENDBRANCH   8   9
BRANCH   8  12
ATOM     12  O   UNL     1      11.668   4.179   7.858  1.00  0.00    -0.388 OA
ATOM     13  H   UNL     1      12.203   3.919   7.063  1.00  0.00     0.211 HD
ENDBRANCH   8  12
ENDBRANCH   1   8
BRANCH   1  14
ATOM     14  O   UNL     1       8.240   3.515   8.155  1.00  0.00    -0.388 OA
ATOM     15  H   UNL     1       8.577   2.610   7.930  1.00  0.00     0.211 HD
ENDBRANCH   1  14
TORSDOF 9
ENDMDL
MODEL 9
REMARK VINA RESULT:    -4.060      1.161      4.322
REMARK INTER + INTRA:          -5.998
REMARK INTER:                  -5.327
REMARK INTRA:                  -0.672
REMARK UNBOUND:                -0.395
REMARK SMILES OC[C@@H](O)C(O)[C@H](O)CO
REMARK SMILES IDX 5 1 7 2 9 3 10 4 8 6 3 8 2 9 1 10 4 12 6 14
REMARK H PARENT 10 5 8 7 1 11 4 13 6 15
REMARK Flexibility Score: inf
ROOT
ATOM      1  C   UNL     1      10.266   5.373   7.594  1.00  0.00     0.176 C 
ENDROOT
BRANCH   1   2
ATOM      2  C   UNL     1       9.805   4.420   8.732  1.00  0.00     0.171 C 
BRANCH   2   3
ATOM      3  C   UNL     1       9.944   5.056  10.130  1.00  0.00     0.190 C 
BRANCH   3   4
ATOM      4  O   UNL     1       8.922   5.991  10.355  1.00  0.00    -0.394 OA
ATOM      5  H   UNL     1       8.075   5.569  10.056  1.00  0.00     0.210 HD
ENDBRANCH   3   4
ENDBRANCH   2   3
BRANCH   2   6
ATOM      6  O   UNL     1       8.487   3.972   8.521  1.00  0.00    -0.388 OA
ATOM      7  H   UNL     1       7.877   4.559   9.040  1.00  0.00     0.211 HD
ENDBRANCH   2   6
ENDBRANCH   1   2
BRANCH   1   8
ATOM      8  C   UNL     1       9.730   4.930   6.203  1.00  0.00     0.171 C 
BRANCH   8   9
ATOM      9  C   UNL     1      10.386   5.732   5.063  1.00  0.00     0.190 C 
BRANCH   9  10
ATOM     10  O   UNL     1       9.977   7.072   5.110  1.00  0.00    -0.394 OA
ATOM     11  H   UNL     1       9.010   7.083   4.883  1.00  0.00     0.210 HD
ENDBRANCH   9  10
ENDBRANCH   8   9
BRANCH   8  12
ATOM     12  O   UNL     1       9.931   3.552   6.004  1.00  0.00    -0.388 OA
ATOM     13  H   UNL     1      10.910   3.391   5.977  1.00  0.00     0.211 HD
ENDBRANCH   8  12
ENDBRANCH   1   8
BRANCH   1  14
ATOM     14  O   UNL     1       9.913   6.706   7.877  1.00  0.00    -0.388 OA
ATOM     15  H   UNL     1      10.693   7.280   7.667  1.00  0.00     0.211 HD
ENDBRANCH   1  14
TORSDOF 9
ENDMDL
