MODEL 1
REMARK VINA RESULT:    -3.118      0.000      0.000
REMARK INTER + INTRA:          -4.904
REMARK INTER:                  -4.394
REMARK INTRA:                  -0.510
REMARK UNBOUND:                -0.510
REMARK SMILES CCCCCCCCC(=O)[O-]
REMARK SMILES IDX 6 1 7 2 8 3 9 4 10 5 11 6 5 7 4 8 3 9 2 10 1 11
REMARK H PARENT
REMARK Flexibility Score: inf
ROOT
ATOM      1  C   UNL     1      58.044  33.380  12.034  1.00  0.00     0.000 C 
ENDROOT
BRANCH   1   2
ATOM      2  C   UNL     1      57.540  34.823  12.211  1.00  0.00     0.006 C 
BRANCH   2   3
ATOM      3  C   UNL     1      56.714  34.995  13.493  1.00  0.00     0.053 C 
BRANCH   3   4
ATOM      4  C   UNL     1      55.841  36.210  13.433  1.00  0.00     0.041 C 
ATOM      5  O   UNL     1      55.756  36.977  14.428  1.00  0.00    -0.550 OA
ATOM      6  O   UNL     1      55.149  36.515  12.268  1.00  0.00    -0.550 OA
ENDBRANCH   3   4
ENDBRANCH   2   3
ENDBRANCH   1   2
BRANCH   1   7
ATOM      7  C   UNL     1      59.572  33.300  11.887  1.00  0.00     0.000 C 
BRANCH   7   8
ATOM      8  C   UNL     1      60.290  34.506  12.519  1.00  0.00    -0.000 C 
BRANCH   8   9
ATOM      9  C   UNL     1      61.620  34.118  13.184  1.00  0.00    -0.000 C 
BRANCH   9  10
ATOM     10  C   UNL     1      61.445  33.666  14.642  1.00  0.00    -0.003 C 
ATOM     11  C   UNL     1      60.222  34.321  15.276  1.00  0.00     0.004 C 
ENDBRANCH   9  10
ENDBRANCH   8   9
ENDBRANCH   7   8
ENDBRANCH   1   7
TORSDOF 7
ENDMDL
MODEL 2
REMARK VINA RESULT:    -3.105      1.171      2.458
REMARK INTER + INTRA:          -4.886
REMARK INTER:                  -4.211
REMARK INTRA:                  -0.675
REMARK UNBOUND:                -0.510
REMARK SMILES CCCCCCCCC(=O)[O-]
REMARK SMILES IDX 6 1 7 2 8 3 9 4 10 5 11 6 5 7 4 8 3 9 2 10 1 11
REMARK H PARENT
REMARK Flexibility Score: inf
ROOT
ATOM      1  C   UNL     1      57.488  33.825  14.791  1.00  0.00     0.000 C 
ENDROOT
BRANCH   1   2
ATOM      2  C   UNL     1      56.820  35.088  14.219  1.00  0.00     0.006 C 
BRANCH   2   3
ATOM      3  C   UNL     1      56.680  35.027  12.692  1.00  0.00     0.053 C 
BRANCH   3   4
ATOM      4  C   UNL     1      55.959  36.224  12.152  1.00  0.00     0.041 C 
ATOM      5  O   UNL     1      56.459  36.890  11.209  1.00  0.00    -0.550 OA
ATOM      6  O   UNL     1      54.719  36.581  12.666  1.00  0.00    -0.550 OA
ENDBRANCH   3   4
ENDBRANCH   2   3
ENDBRANCH   1   2
BRANCH   1   7
ATOM      7  C   UNL     1      58.853  34.117  15.436  1.00  0.00     0.000 C 
BRANCH   7   8
ATOM      8  C   UNL     1      60.005  33.367  14.744  1.00  0.00    -0.000 C 
BRANCH   8   9
ATOM      9  C   UNL     1      60.915  34.304  13.934  1.00  0.00    -0.000 C 
BRANCH   9  10
ATOM     10  C   UNL     1      60.447  34.478  12.482  1.00  0.00    -0.003 C 
ATOM     11  C   UNL     1      59.901  33.169  11.921  1.00  0.00     0.004 C 
ENDBRANCH   9  10
ENDBRANCH   8   9
ENDBRANCH   7   8
ENDBRANCH   1   7
TORSDOF 7
ENDMDL
MODEL 3
REMARK VINA RESULT:    -3.103     13.884     15.715
REMARK INTER + INTRA:          -4.883
REMARK INTER:                  -4.460
REMARK INTRA:                  -0.423
REMARK UNBOUND:                -0.510
REMARK SMILES CCCCCCCCC(=O)[O-]
REMARK SMILES IDX 6 1 7 2 8 3 9 4 10 5 11 6 5 7 4 8 3 9 2 10 1 11
REMARK H PARENT
REMARK Flexibility Score: inf
ROOT
ATOM      1  C   UNL     1      49.739  48.895  13.615  1.00  0.00     0.000 C 
ENDROOT
BRANCH   1   2
ATOM      2  C   UNL     1      50.514  50.077  13.007  1.00  0.00     0.006 C 
BRANCH   2   3
ATOM      3  C   UNL     1      50.537  50.026  11.473  1.00  0.00     0.053 C 
BRANCH   3   4
ATOM      4  C   UNL     1      51.882  49.623  10.951  1.00  0.00     0.041 C 
ATOM      5  O   UNL     1      52.786  49.258  11.747  1.00  0.00    -0.550 OA
ATOM      6  O   UNL     1      52.125  49.616   9.584  1.00  0.00    -0.550 OA
ENDBRANCH   3   4
ENDBRANCH   2   3
ENDBRANCH   1   2
BRANCH   1   7
ATOM      7  C   UNL     1      50.616  48.012  14.518  1.00  0.00     0.000 C 
BRANCH   7   8
ATOM      8  C   UNL     1      51.174  46.782  13.779  1.00  0.00    -0.000 C 
BRANCH   8   9
ATOM      9  C   UNL     1      50.791  45.461  14.464  1.00  0.00    -0.000 C 
BRANCH   9  10
ATOM     10  C   UNL     1      49.358  45.471  15.016  1.00  0.00    -0.003 C 
ATOM     11  C   UNL     1      48.817  44.052  15.166  1.00  0.00     0.004 C 
ENDBRANCH   9  10
ENDBRANCH   8   9
ENDBRANCH   7   8
ENDBRANCH   1   7
TORSDOF 7
ENDMDL
MODEL 4
REMARK VINA RESULT:    -3.071     10.094     10.897
REMARK INTER + INTRA:          -4.838
REMARK INTER:                  -4.593
REMARK INTRA:                  -0.245
REMARK UNBOUND:                -0.510
REMARK SMILES CCCCCCCCC(=O)[O-]
REMARK SMILES IDX 6 1 7 2 8 3 9 4 10 5 11 6 5 7 4 8 3 9 2 10 1 11
REMARK H PARENT
REMARK Flexibility Score: inf
ROOT
ATOM      1  C   UNL     1      61.087  45.312  17.616  1.00  0.00     0.000 C 
ENDROOT
BRANCH   1   2
ATOM      2  C   UNL     1      59.720  44.797  17.132  1.00  0.00     0.006 C 
BRANCH   2   3
ATOM      3  C   UNL     1      58.661  45.908  17.101  1.00  0.00     0.053 C 
BRANCH   3   4
ATOM      4  C   UNL     1      57.765  45.789  15.907  1.00  0.00     0.041 C 
ATOM      5  O   UNL     1      57.210  46.813  15.429  1.00  0.00    -0.550 OA
ATOM      6  O   UNL     1      57.572  44.555  15.301  1.00  0.00    -0.550 OA
ENDBRANCH   3   4
ENDBRANCH   2   3
ENDBRANCH   1   2
BRANCH   1   7
ATOM      7  C   UNL     1      62.254  44.435  17.134  1.00  0.00     0.000 C 
BRANCH   7   8
ATOM      8  C   UNL     1      63.298  45.231  16.330  1.00  0.00    -0.000 C 
BRANCH   8   9
ATOM      9  C   UNL     1      64.219  44.324  15.499  1.00  0.00    -0.000 C 
BRANCH   9  10
ATOM     10  C   UNL     1      63.469  43.149  14.853  1.00  0.00    -0.003 C 
ATOM     11  C   UNL     1      63.971  41.814  15.394  1.00  0.00     0.004 C 
ENDBRANCH   9  10
ENDBRANCH   8   9
ENDBRANCH   7   8
ENDBRANCH   1   7
TORSDOF 7
ENDMDL
MODEL 5
REMARK VINA RESULT:    -3.064      1.282      2.157
REMARK INTER + INTRA:          -4.828
REMARK INTER:                  -4.406
REMARK INTRA:                  -0.422
REMARK UNBOUND:                -0.510
REMARK SMILES CCCCCCCCC(=O)[O-]
REMARK SMILES IDX 6 1 7 2 8 3 9 4 10 5 11 6 5 7 4 8 3 9 2 10 1 11
REMARK H PARENT
REMARK Flexibility Score: inf
ROOT
ATOM      1  C   UNL     1      57.007  34.955  13.796  1.00  0.00     0.000 C 
ENDROOT
BRANCH   1   2
ATOM      2  C   UNL     1      56.597  35.236  12.339  1.00  0.00     0.006 C 
BRANCH   2   3
ATOM      3  C   UNL     1      55.746  36.507  12.212  1.00  0.00     0.053 C 
BRANCH   3   4
ATOM      4  C   UNL     1      54.477  36.407  13.002  1.00  0.00     0.041 C 
ATOM      5  O   UNL     1      53.657  35.481  12.766  1.00  0.00    -0.550 OA
ATOM      6  O   UNL     1      54.217  37.314  14.021  1.00  0.00    -0.550 OA
ENDBRANCH   3   4
ENDBRANCH   2   3
ENDBRANCH   1   2
BRANCH   1   7
ATOM      7  C   UNL     1      58.319  34.162  13.900  1.00  0.00     0.000 C 
BRANCH   7   8
ATOM      8  C   UNL     1      58.836  33.694  12.528  1.00  0.00    -0.000 C 
BRANCH   8   9
ATOM      9  C   UNL     1      60.253  34.207  12.226  1.00  0.00    -0.000 C 
BRANCH   9  10
ATOM     10  C   UNL     1      61.041  34.557  13.497  1.00  0.00    -0.003 C 
ATOM     11  C   UNL     1      62.431  33.929  13.472  1.00  0.00     0.004 C 
ENDBRANCH   9  10
ENDBRANCH   8   9
ENDBRANCH   7   8
ENDBRANCH   1   7
TORSDOF 7
ENDMDL
MODEL 6
REMARK VINA RESULT:    -3.061     10.410     11.548
REMARK INTER + INTRA:          -4.824
REMARK INTER:                  -3.919
REMARK INTRA:                  -0.905
REMARK UNBOUND:                -0.510
REMARK SMILES CCCCCCCCC(=O)[O-]
REMARK SMILES IDX 6 1 7 2 8 3 9 4 10 5 11 6 5 7 4 8 3 9 2 10 1 11
REMARK H PARENT
REMARK Flexibility Score: inf
ROOT
ATOM      1  C   UNL     1      62.252  44.446  17.073  1.00  0.00     0.000 C 
ENDROOT
BRANCH   1   2
ATOM      2  C   UNL     1      62.476  44.284  18.587  1.00  0.00     0.006 C 
BRANCH   2   3
ATOM      3  C   UNL     1      62.978  42.880  18.950  1.00  0.00     0.053 C 
BRANCH   3   4
ATOM      4  C   UNL     1      64.460  42.857  19.162  1.00  0.00     0.041 C 
ATOM      5  O   UNL     1      65.124  43.925  19.100  1.00  0.00    -0.550 OA
ATOM      6  O   UNL     1      65.103  41.663  19.462  1.00  0.00    -0.550 OA
ENDBRANCH   3   4
ENDBRANCH   2   3
ENDBRANCH   1   2
BRANCH   1   7
ATOM      7  C   UNL     1      63.327  45.319  16.405  1.00  0.00     0.000 C 
BRANCH   7   8
ATOM      8  C   UNL     1      64.236  44.515  15.458  1.00  0.00    -0.000 C 
BRANCH   8   9
ATOM      9  C   UNL     1      63.684  43.111  15.163  1.00  0.00    -0.000 C 
BRANCH   9  10
ATOM     10  C   UNL     1      64.670  41.995  15.540  1.00  0.00    -0.003 C 
ATOM     11  C   UNL     1      63.936  40.778  16.095  1.00  0.00     0.004 C 
ENDBRANCH   9  10
ENDBRANCH   8   9
ENDBRANCH   7   8
ENDBRANCH   1   7
TORSDOF 7
ENDMDL
MODEL 7
REMARK VINA RESULT:    -3.019      9.958     10.808
REMARK INTER + INTRA:          -4.764
REMARK INTER:                  -4.198
REMARK INTRA:                  -0.566
REMARK UNBOUND:                -0.510
REMARK SMILES CCCCCCCCC(=O)[O-]
REMARK SMILES IDX 6 1 7 2 8 3 9 4 10 5 11 6 5 7 4 8 3 9 2 10 1 11
REMARK H PARENT
REMARK Flexibility Score: inf
ROOT
ATOM      1  C   UNL     1      63.514  45.120  16.468  1.00  0.00     0.000 C 
ENDROOT
BRANCH   1   2
ATOM      2  C   UNL     1      62.243  44.322  16.808  1.00  0.00     0.006 C 
BRANCH   2   3
ATOM      3  C   UNL     1      61.908  44.378  18.305  1.00  0.00     0.053 C 
BRANCH   3   4
ATOM      4  C   UNL     1      60.566  44.995  18.552  1.00  0.00     0.041 C 
ATOM      5  O   UNL     1      59.617  44.291  18.987  1.00  0.00    -0.550 OA
ATOM      6  O   UNL     1      60.373  46.354  18.336  1.00  0.00    -0.550 OA
ENDBRANCH   3   4
ENDBRANCH   2   3
ENDBRANCH   1   2
BRANCH   1   7
ATOM      7  C   UNL     1      64.293  44.518  15.287  1.00  0.00     0.000 C 
BRANCH   7   8
ATOM      8  C   UNL     1      63.822  43.096  14.933  1.00  0.00    -0.000 C 
BRANCH   8   9
ATOM      9  C   UNL     1      64.727  42.009  15.536  1.00  0.00    -0.000 C 
BRANCH   9  10
ATOM     10  C   UNL     1      63.933  40.817  16.091  1.00  0.00    -0.003 C 
ATOM     11  C   UNL     1      63.949  40.810  17.616  1.00  0.00     0.004 C 
ENDBRANCH   9  10
ENDBRANCH   8   9
ENDBRANCH   7   8
ENDBRANCH   1   7
TORSDOF 7
ENDMDL
MODEL 8
REMARK VINA RESULT:    -2.991      3.656      5.656
REMARK INTER + INTRA:          -4.725
REMARK INTER:                  -4.293
REMARK INTRA:                  -0.432
REMARK UNBOUND:                -0.510
REMARK SMILES CCCCCCCCC(=O)[O-]
REMARK SMILES IDX 6 1 7 2 8 3 9 4 10 5 11 6 5 7 4 8 3 9 2 10 1 11
REMARK H PARENT
REMARK Flexibility Score: inf
ROOT
ATOM      1  C   UNL     1      58.994  33.667  14.164  1.00  0.00     0.000 C 
ENDROOT
BRANCH   1   2
ATOM      2  C   UNL     1      60.359  34.275  14.531  1.00  0.00     0.006 C 
BRANCH   2   3
ATOM      3  C   UNL     1      61.251  34.480  13.298  1.00  0.00     0.053 C 
BRANCH   3   4
ATOM      4  C   UNL     1      62.497  33.651  13.370  1.00  0.00     0.041 C 
ATOM      5  O   UNL     1      62.418  32.398  13.457  1.00  0.00    -0.550 OA
ATOM      6  O   UNL     1      63.744  34.260  13.304  1.00  0.00    -0.550 OA
ENDBRANCH   3   4
ENDBRANCH   2   3
ENDBRANCH   1   2
BRANCH   1   7
ATOM      7  C   UNL     1      58.627  33.882  12.686  1.00  0.00     0.000 C 
BRANCH   7   8
ATOM      8  C   UNL     1      57.283  34.611  12.511  1.00  0.00    -0.000 C 
BRANCH   8   9
ATOM      9  C   UNL     1      56.714  35.124  13.843  1.00  0.00    -0.000 C 
BRANCH   9  10
ATOM     10  C   UNL     1      55.765  36.319  13.662  1.00  0.00    -0.003 C 
ATOM     11  C   UNL     1      55.330  36.458  12.207  1.00  0.00     0.004 C 
ENDBRANCH   9  10
ENDBRANCH   8   9
ENDBRANCH   7   8
ENDBRANCH   1   7
TORSDOF 7
ENDMDL
MODEL 9
REMARK VINA RESULT:    -2.922      2.939      4.936
REMARK INTER + INTRA:          -4.628
REMARK INTER:                  -3.919
REMARK INTRA:                  -0.709
REMARK UNBOUND:                -0.510
REMARK SMILES CCCCCCCCC(=O)[O-]
REMARK SMILES IDX 6 1 7 2 8 3 9 4 10 5 11 6 5 7 4 8 3 9 2 10 1 11
REMARK H PARENT
REMARK Flexibility Score: inf
ROOT
ATOM      1  C   UNL     1      57.381  33.268  13.593  1.00  0.00     0.000 C 
ENDROOT
BRANCH   1   2
ATOM      2  C   UNL     1      58.231  34.265  14.400  1.00  0.00     0.006 C 
BRANCH   2   3
ATOM      3  C   UNL     1      59.711  33.862  14.443  1.00  0.00     0.053 C 
BRANCH   3   4
ATOM      4  C   UNL     1      60.264  33.629  13.071  1.00  0.00     0.041 C 
ATOM      5  O   UNL     1      60.433  34.597  12.284  1.00  0.00    -0.550 OA
ATOM      6  O   UNL     1      60.625  32.348  12.673  1.00  0.00    -0.550 OA
ENDBRANCH   3   4
ENDBRANCH   2   3
ENDBRANCH   1   2
BRANCH   1   7
ATOM      7  C   UNL     1      56.442  33.962  12.593  1.00  0.00     0.000 C 
BRANCH   7   8
ATOM      8  C   UNL     1      56.934  35.366  12.198  1.00  0.00    -0.000 C 
BRANCH   8   9
ATOM      9  C   UNL     1      55.807  36.411  12.213  1.00  0.00    -0.000 C 
BRANCH   9  10
ATOM     10  C   UNL     1      54.911  36.300  13.455  1.00  0.00    -0.003 C 
ATOM     11  C   UNL     1      55.589  36.909  14.678  1.00  0.00     0.004 C 
ENDBRANCH   9  10
ENDBRANCH   8   9
ENDBRANCH   7   8
ENDBRANCH   1   7
TORSDOF 7
ENDMDL
