MODEL 1
REMARK VINA RESULT:    -5.514      0.000      0.000
REMARK INTER + INTRA:          -5.675
REMARK INTER:                  -5.675
REMARK INTRA:                   0.000
REMARK UNBOUND:                 0.000
REMARK SMILES O=c1ccc2cc(O)ccc2o1
REMARK SMILES IDX 9 1 10 2 11 3 5 4 4 5 3 6 2 7 1 8 12 9 6 10 7 11 8 12
REMARK H PARENT 8 13
REMARK Flexibility Score: inf
ROOT
ATOM      1  C   UNL     1       7.500 -14.988   6.297  1.00  0.00     0.050 A 
ATOM      2  C   UNL     1       7.017 -15.635   7.439  1.00  0.00     0.052 A 
ATOM      3  C   UNL     1       5.725 -15.366   7.903  1.00  0.00     0.138 A 
ATOM      4  C   UNL     1       4.912 -14.439   7.216  1.00  0.00     0.021 A 
ATOM      5  C   UNL     1       3.625 -14.191   7.703  1.00  0.00     0.019 A 
ATOM      6  C   UNL     1       3.185 -14.860   8.845  1.00  0.00     0.094 A 
ATOM      7  C   UNL     1       4.047 -15.765   9.475  1.00  0.00     0.336 A 
ATOM      8  O   UNL     1       3.668 -16.379  10.507  1.00  0.00    -0.246 OA
ATOM      9  O   UNL     1       5.266 -15.983   8.990  1.00  0.00    -0.423 OA
ATOM     10  C   UNL     1       5.401 -13.792   6.071  1.00  0.00     0.058 A 
ATOM     11  C   UNL     1       6.698 -14.068   5.612  1.00  0.00     0.116 A 
ENDROOT
BRANCH  11  12
ATOM     12  O   UNL     1       7.197 -13.433   4.477  1.00  0.00    -0.508 OA
ATOM     13  H   UNL     1       8.178 -13.193   4.391  1.00  0.00     0.293 HD
ENDBRANCH  11  12
TORSDOF 1
ENDMDL
MODEL 2
REMARK VINA RESULT:    -5.421      2.352      3.683
REMARK INTER + INTRA:          -5.580
REMARK INTER:                  -5.580
REMARK INTRA:                   0.000
REMARK UNBOUND:                 0.000
REMARK SMILES O=c1ccc2cc(O)ccc2o1
REMARK SMILES IDX 9 1 10 2 11 3 5 4 4 5 3 6 2 7 1 8 12 9 6 10 7 11 8 12
REMARK H PARENT 8 13
REMARK Flexibility Score: inf
ROOT
ATOM      1  C   UNL     1       9.691 -16.580   7.249  1.00  0.00     0.050 A 
ATOM      2  C   UNL     1       8.382 -16.321   7.668  1.00  0.00     0.052 A 
ATOM      3  C   UNL     1       7.579 -15.432   6.947  1.00  0.00     0.138 A 
ATOM      4  C   UNL     1       8.094 -14.796   5.796  1.00  0.00     0.021 A 
ATOM      5  C   UNL     1       7.267 -13.913   5.096  1.00  0.00     0.019 A 
ATOM      6  C   UNL     1       5.968 -13.686   5.550  1.00  0.00     0.094 A 
ATOM      7  C   UNL     1       5.525 -14.351   6.699  1.00  0.00     0.336 A 
ATOM      8  O   UNL     1       4.356 -14.159   7.125  1.00  0.00    -0.246 OA
ATOM      9  O   UNL     1       6.333 -15.187   7.346  1.00  0.00    -0.423 OA
ATOM     10  C   UNL     1       9.408 -15.059   5.380  1.00  0.00     0.058 A 
ATOM     11  C   UNL     1      10.207 -15.952   6.109  1.00  0.00     0.116 A 
ENDROOT
BRANCH  11  12
ATOM     12  O   UNL     1      11.513 -16.223   5.708  1.00  0.00    -0.508 OA
ATOM     13  H   UNL     1      12.080 -15.525   5.239  1.00  0.00     0.293 HD
ENDBRANCH  11  12
TORSDOF 1
ENDMDL
MODEL 3
REMARK VINA RESULT:    -5.368      2.028      4.770
REMARK INTER + INTRA:          -5.525
REMARK INTER:                  -5.525
REMARK INTRA:                   0.000
REMARK UNBOUND:                 0.000
REMARK SMILES O=c1ccc2cc(O)ccc2o1
REMARK SMILES IDX 9 1 10 2 11 3 5 4 4 5 3 6 2 7 1 8 12 9 6 10 7 11 8 12
REMARK H PARENT 8 13
REMARK Flexibility Score: inf
ROOT
ATOM      1  C   UNL     1       5.469 -13.622   5.838  1.00  0.00     0.050 A 
ATOM      2  C   UNL     1       6.727 -13.890   5.288  1.00  0.00     0.052 A 
ATOM      3  C   UNL     1       7.613 -14.745   5.951  1.00  0.00     0.138 A 
ATOM      4  C   UNL     1       7.235 -15.334   7.176  1.00  0.00     0.021 A 
ATOM      5  C   UNL     1       8.143 -16.184   7.815  1.00  0.00     0.019 A 
ATOM      6  C   UNL     1       9.385 -16.423   7.230  1.00  0.00     0.094 A 
ATOM      7  C   UNL     1       9.693 -15.803   6.014  1.00  0.00     0.336 A 
ATOM      8  O   UNL     1      10.810 -16.007   5.469  1.00  0.00    -0.246 OA
ATOM      9  O   UNL     1       8.810 -14.999   5.426  1.00  0.00    -0.423 OA
ATOM     10  C   UNL     1       5.972 -15.062   7.724  1.00  0.00     0.058 A 
ATOM     11  C   UNL     1       5.089 -14.204   7.052  1.00  0.00     0.116 A 
ENDROOT
BRANCH  11  12
ATOM     12  O   UNL     1       3.832 -13.924   7.584  1.00  0.00    -0.508 OA
ATOM     13  H   UNL     1       3.268 -14.645   8.020  1.00  0.00     0.293 HD
ENDBRANCH  11  12
TORSDOF 1
ENDMDL
MODEL 4
REMARK VINA RESULT:    -5.177      1.764      4.354
REMARK INTER + INTRA:          -5.329
REMARK INTER:                  -5.329
REMARK INTRA:                   0.000
REMARK UNBOUND:                 0.000
REMARK SMILES O=c1ccc2cc(O)ccc2o1
REMARK SMILES IDX 9 1 10 2 11 3 5 4 4 5 3 6 2 7 1 8 12 9 6 10 7 11 8 12
REMARK H PARENT 8 13
REMARK Flexibility Score: inf
ROOT
ATOM      1  C   UNL     1       4.805 -15.594   8.740  1.00  0.00     0.050 A 
ATOM      2  C   UNL     1       6.095 -15.933   8.321  1.00  0.00     0.052 A 
ATOM      3  C   UNL     1       6.648 -15.321   7.192  1.00  0.00     0.138 A 
ATOM      4  C   UNL     1       5.900 -14.361   6.477  1.00  0.00     0.021 A 
ATOM      5  C   UNL     1       6.479 -13.766   5.352  1.00  0.00     0.019 A 
ATOM      6  C   UNL     1       7.769 -14.134   4.971  1.00  0.00     0.094 A 
ATOM      7  C   UNL     1       8.452 -15.094   5.728  1.00  0.00     0.336 A 
ATOM      8  O   UNL     1       9.617 -15.440   5.400  1.00  0.00    -0.246 OA
ATOM      9  O   UNL     1       7.877 -15.644   6.794  1.00  0.00    -0.423 OA
ATOM     10  C   UNL     1       4.605 -14.024   6.901  1.00  0.00     0.058 A 
ATOM     11  C   UNL     1       4.058 -14.643   8.035  1.00  0.00     0.116 A 
ENDROOT
BRANCH  11  12
ATOM     12  O   UNL     1       2.774 -14.319   8.468  1.00  0.00    -0.508 OA
ATOM     13  H   UNL     1       1.972 -14.391   7.852  1.00  0.00     0.293 HD
ENDBRANCH  11  12
TORSDOF 1
ENDMDL
MODEL 5
REMARK VINA RESULT:    -5.045      8.311      9.404
REMARK INTER + INTRA:          -5.193
REMARK INTER:                  -5.193
REMARK INTRA:                   0.000
REMARK UNBOUND:                 0.000
REMARK SMILES O=c1ccc2cc(O)ccc2o1
REMARK SMILES IDX 9 1 10 2 11 3 5 4 4 5 3 6 2 7 1 8 12 9 6 10 7 11 8 12
REMARK H PARENT 8 13
REMARK Flexibility Score: inf
ROOT
ATOM      1  C   UNL     1       7.396 -10.267  14.749  1.00  0.00     0.050 A 
ATOM      2  C   UNL     1       8.635 -10.066  14.133  1.00  0.00     0.052 A 
ATOM      3  C   UNL     1       9.492 -11.149  13.915  1.00  0.00     0.138 A 
ATOM      4  C   UNL     1       9.103 -12.445  14.321  1.00  0.00     0.021 A 
ATOM      5  C   UNL     1       9.982 -13.507  14.091  1.00  0.00     0.019 A 
ATOM      6  C   UNL     1      11.207 -13.261  13.472  1.00  0.00     0.094 A 
ATOM      7  C   UNL     1      11.526 -11.951  13.097  1.00  0.00     0.336 A 
ATOM      8  O   UNL     1      12.627 -11.708  12.536  1.00  0.00    -0.246 OA
ATOM      9  O   UNL     1      10.671 -10.958  13.328  1.00  0.00    -0.423 OA
ATOM     10  C   UNL     1       7.859 -12.640  14.940  1.00  0.00     0.058 A 
ATOM     11  C   UNL     1       7.005 -11.548  15.154  1.00  0.00     0.116 A 
ENDROOT
BRANCH  11  12
ATOM     12  O   UNL     1       5.767 -11.727  15.767  1.00  0.00    -0.508 OA
ATOM     13  H   UNL     1       5.010 -12.215  15.302  1.00  0.00     0.293 HD
ENDBRANCH  11  12
TORSDOF 1
ENDMDL
MODEL 6
REMARK VINA RESULT:    -4.978      1.543      2.286
REMARK INTER + INTRA:          -5.123
REMARK INTER:                  -5.123
REMARK INTRA:                   0.000
REMARK UNBOUND:                 0.000
REMARK SMILES O=c1ccc2cc(O)ccc2o1
REMARK SMILES IDX 9 1 10 2 11 3 5 4 4 5 3 6 2 7 1 8 12 9 6 10 7 11 8 12
REMARK H PARENT 8 13
REMARK Flexibility Score: inf
ROOT
ATOM      1  C   UNL     1       7.028 -13.935   5.164  1.00  0.00     0.050 A 
ATOM      2  C   UNL     1       5.739 -13.664   5.634  1.00  0.00     0.052 A 
ATOM      3  C   UNL     1       5.288 -14.250   6.820  1.00  0.00     0.138 A 
ATOM      4  C   UNL     1       6.138 -15.117   7.541  1.00  0.00     0.021 A 
ATOM      5  C   UNL     1       5.659 -15.688   8.724  1.00  0.00     0.019 A 
ATOM      6  C   UNL     1       4.367 -15.389   9.155  1.00  0.00     0.094 A 
ATOM      7  C   UNL     1       3.581 -14.521   8.389  1.00  0.00     0.336 A 
ATOM      8  O   UNL     1       2.412 -14.237   8.761  1.00  0.00    -0.246 OA
ATOM      9  O   UNL     1       4.061 -13.990   7.267  1.00  0.00    -0.423 OA
ATOM     10  C   UNL     1       7.430 -15.387   7.065  1.00  0.00     0.058 A 
ATOM     11  C   UNL     1       7.874 -14.794   5.874  1.00  0.00     0.116 A 
ENDROOT
BRANCH  11  12
ATOM     12  O   UNL     1       9.154 -15.053   5.390  1.00  0.00    -0.508 OA
ATOM     13  H   UNL     1       9.322 -15.245   4.408  1.00  0.00     0.293 HD
ENDBRANCH  11  12
TORSDOF 1
ENDMDL
MODEL 7
REMARK VINA RESULT:    -4.978      3.750      5.368
REMARK INTER + INTRA:          -5.123
REMARK INTER:                  -5.123
REMARK INTRA:                   0.000
REMARK UNBOUND:                 0.000
REMARK SMILES O=c1ccc2cc(O)ccc2o1
REMARK SMILES IDX 9 1 10 2 11 3 5 4 4 5 3 6 2 7 1 8 12 9 6 10 7 11 8 12
REMARK H PARENT 8 13
REMARK Flexibility Score: inf
ROOT
ATOM      1  C   UNL     1      11.307 -17.337   8.023  1.00  0.00     0.050 A 
ATOM      2  C   UNL     1       9.950 -17.028   8.154  1.00  0.00     0.052 A 
ATOM      3  C   UNL     1       9.311 -16.249   7.183  1.00  0.00     0.138 A 
ATOM      4  C   UNL     1      10.042 -15.775   6.072  1.00  0.00     0.021 A 
ATOM      5  C   UNL     1       9.377 -14.999   5.118  1.00  0.00     0.019 A 
ATOM      6  C   UNL     1       8.022 -14.717   5.290  1.00  0.00     0.094 A 
ATOM      7  C   UNL     1       7.362 -15.220   6.416  1.00  0.00     0.336 A 
ATOM      8  O   UNL     1       6.139 -14.976   6.589  1.00  0.00    -0.246 OA
ATOM      9  O   UNL     1       8.019 -15.956   7.309  1.00  0.00    -0.423 OA
ATOM     10  C   UNL     1      11.404 -16.087   5.945  1.00  0.00     0.058 A 
ATOM     11  C   UNL     1      12.037 -16.869   6.924  1.00  0.00     0.116 A 
ENDROOT
BRANCH  11  12
ATOM     12  O   UNL     1      13.388 -17.187   6.811  1.00  0.00    -0.508 OA
ATOM     13  H   UNL     1      13.823 -17.878   7.412  1.00  0.00     0.293 HD
ENDBRANCH  11  12
TORSDOF 1
ENDMDL
MODEL 8
REMARK VINA RESULT:    -4.975      2.729      4.683
REMARK INTER + INTRA:          -5.120
REMARK INTER:                  -5.120
REMARK INTRA:                   0.000
REMARK UNBOUND:                 0.000
REMARK SMILES O=c1ccc2cc(O)ccc2o1
REMARK SMILES IDX 9 1 10 2 11 3 5 4 4 5 3 6 2 7 1 8 12 9 6 10 7 11 8 12
REMARK H PARENT 8 13
REMARK Flexibility Score: inf
ROOT
ATOM      1  C   UNL     1       6.029 -14.487   6.947  1.00  0.00     0.050 A 
ATOM      2  C   UNL     1       6.902 -15.303   7.672  1.00  0.00     0.052 A 
ATOM      3  C   UNL     1       8.169 -15.602   7.161  1.00  0.00     0.138 A 
ATOM      4  C   UNL     1       8.562 -15.078   5.910  1.00  0.00     0.021 A 
ATOM      5  C   UNL     1       9.834 -15.395   5.424  1.00  0.00     0.019 A 
ATOM      6  C   UNL     1      10.671 -16.213   6.182  1.00  0.00     0.094 A 
ATOM      7  C   UNL     1      10.215 -16.696   7.413  1.00  0.00     0.336 A 
ATOM      8  O   UNL     1      10.957 -17.435   8.112  1.00  0.00    -0.246 OA
ATOM      9  O   UNL     1       9.000 -16.379   7.852  1.00  0.00    -0.423 OA
ATOM     10  C   UNL     1       7.682 -14.260   5.186  1.00  0.00     0.058 A 
ATOM     11  C   UNL     1       6.412 -13.965   5.706  1.00  0.00     0.116 A 
ENDROOT
BRANCH  11  12
ATOM     12  O   UNL     1       5.528 -13.154   4.999  1.00  0.00    -0.508 OA
ATOM     13  H   UNL     1       4.883 -13.539   4.318  1.00  0.00     0.293 HD
ENDBRANCH  11  12
TORSDOF 1
ENDMDL
