MODEL 1
REMARK VINA RESULT:    -5.588      0.000      0.000
REMARK INTER + INTRA:          -6.078
REMARK INTER:                  -6.078
REMARK INTRA:                   0.000
REMARK UNBOUND:                 0.000
REMARK SMILES Cc1cc(O)c2c(c1)C(=O)c1cc(O)cc(O)c1C2=O
REMARK SMILES IDX 1 1 2 2 8 3 7 4 6 5 4 6 3 7 19 8 20 9 18 10 11 11 9 12 10 13
REMARK SMILES IDX 12 14 13 15 15 16 16 17 5 18 17 20 14 22
REMARK H PARENT 5 19 17 21 14 23
REMARK Flexibility Score: inf
ROOT
ATOM      1  C   UNL     1      20.229  -7.499 -32.113  1.00  0.00     0.044 C 
ATOM      2  C   UNL     1      19.163  -6.638 -31.503  1.00  0.00    -0.047 A 
ATOM      3  C   UNL     1      17.845  -7.099 -31.424  1.00  0.00     0.016 A 
ATOM      4  C   UNL     1      16.843  -6.311 -30.832  1.00  0.00     0.038 A 
ATOM      5  C   UNL     1      17.164  -5.039 -30.308  1.00  0.00     0.076 A 
ATOM      6  C   UNL     1      18.523  -4.621 -30.302  1.00  0.00     0.127 A 
ATOM      7  C   UNL     1      19.497  -5.411 -30.921  1.00  0.00     0.050 A 
ATOM      8  C   UNL     1      16.054  -4.167 -29.832  1.00  0.00     0.201 C 
ATOM      9  O   UNL     1      16.218  -2.920 -29.754  1.00  0.00    -0.288 OA
ATOM     10  C   UNL     1      14.713  -4.747 -29.560  1.00  0.00     0.076 A 
ATOM     11  C   UNL     1      14.420  -6.046 -30.027  1.00  0.00     0.041 A 
ATOM     12  C   UNL     1      15.454  -6.822 -30.747  1.00  0.00     0.194 C 
ATOM     13  O   UNL     1      15.155  -7.930 -31.274  1.00  0.00    -0.289 OA
ATOM     14  C   UNL     1      13.143  -6.594 -29.810  1.00  0.00     0.059 A 
ATOM     15  C   UNL     1      12.164  -5.865 -29.127  1.00  0.00     0.120 A 
ATOM     16  C   UNL     1      12.454  -4.585 -28.657  1.00  0.00     0.093 A 
ATOM     17  C   UNL     1      13.719  -4.019 -28.865  1.00  0.00     0.131 A 
ENDROOT
BRANCH   6  18
ATOM     18  O   UNL     1      18.959  -3.457 -29.664  1.00  0.00    -0.507 OA
ATOM     19  H   UNL     1      18.569  -2.541 -29.840  1.00  0.00     0.293 HD
ENDBRANCH   6  18
BRANCH  17  20
ATOM     20  O   UNL     1      13.986  -2.741 -28.372  1.00  0.00    -0.507 OA
ATOM     21  H   UNL     1      13.709  -2.462 -27.438  1.00  0.00     0.293 HD
ENDBRANCH  17  20
BRANCH  15  22
ATOM     22  O   UNL     1      10.899  -6.406 -28.909  1.00  0.00    -0.508 OA
ATOM     23  H   UNL     1      10.738  -7.406 -28.936  1.00  0.00     0.293 HD
ENDBRANCH  15  22
TORSDOF 3
ENDMDL
MODEL 2
REMARK VINA RESULT:    -5.432      1.371      5.508
REMARK INTER + INTRA:          -5.909
REMARK INTER:                  -5.909
REMARK INTRA:                   0.000
REMARK UNBOUND:                 0.000
REMARK SMILES Cc1cc(O)c2c(c1)C(=O)c1cc(O)cc(O)c1C2=O
REMARK SMILES IDX 1 1 2 2 8 3 7 4 6 5 4 6 3 7 19 8 20 9 18 10 11 11 9 12 10 13
REMARK SMILES IDX 12 14 13 15 15 16 16 17 5 18 17 20 14 22
REMARK H PARENT 5 19 17 21 14 23
REMARK Flexibility Score: inf
ROOT
ATOM      1  C   UNL     1      11.188  -5.942 -29.074  1.00  0.00     0.044 C 
ATOM      2  C   UNL     1      12.604  -5.481 -29.253  1.00  0.00    -0.047 A 
ATOM      3  C   UNL     1      13.579  -6.367 -29.721  1.00  0.00     0.016 A 
ATOM      4  C   UNL     1      14.904  -5.939 -29.917  1.00  0.00     0.038 A 
ATOM      5  C   UNL     1      15.260  -4.599 -29.639  1.00  0.00     0.076 A 
ATOM      6  C   UNL     1      14.242  -3.682 -29.260  1.00  0.00     0.127 A 
ATOM      7  C   UNL     1      12.938  -4.139 -29.047  1.00  0.00     0.050 A 
ATOM      8  C   UNL     1      16.699  -4.220 -29.705  1.00  0.00     0.201 C 
ATOM      9  O   UNL     1      17.114  -3.203 -29.087  1.00  0.00    -0.288 OA
ATOM     10  C   UNL     1      17.672  -5.101 -30.402  1.00  0.00     0.076 A 
ATOM     11  C   UNL     1      17.288  -6.417 -30.738  1.00  0.00     0.041 A 
ATOM     12  C   UNL     1      15.921  -6.889 -30.425  1.00  0.00     0.194 C 
ATOM     13  O   UNL     1      15.617  -8.100 -30.610  1.00  0.00    -0.289 OA
ATOM     14  C   UNL     1      18.211  -7.274 -31.364  1.00  0.00     0.059 A 
ATOM     15  C   UNL     1      19.503  -6.830 -31.664  1.00  0.00     0.120 A 
ATOM     16  C   UNL     1      19.881  -5.528 -31.341  1.00  0.00     0.093 A 
ATOM     17  C   UNL     1      18.979  -4.659 -30.715  1.00  0.00     0.131 A 
ENDROOT
BRANCH   6  18
ATOM     18  O   UNL     1      14.467  -2.310 -29.122  1.00  0.00    -0.507 OA
ATOM     19  H   UNL     1      15.311  -1.847 -29.426  1.00  0.00     0.293 HD
ENDBRANCH   6  18
BRANCH  17  20
ATOM     20  O   UNL     1      19.381  -3.356 -30.416  1.00  0.00    -0.507 OA
ATOM     21  H   UNL     1      19.436  -2.638 -31.128  1.00  0.00     0.293 HD
ENDBRANCH  17  20
BRANCH  15  22
ATOM     22  O   UNL     1      20.418  -7.677 -32.286  1.00  0.00    -0.508 OA
ATOM     23  H   UNL     1      20.280  -8.682 -32.309  1.00  0.00     0.293 HD
ENDBRANCH  15  22
TORSDOF 3
ENDMDL
MODEL 3
REMARK VINA RESULT:    -5.076      2.070      6.220
REMARK INTER + INTRA:          -5.521
REMARK INTER:                  -5.521
REMARK INTRA:                   0.000
REMARK UNBOUND:                 0.000
REMARK SMILES Cc1cc(O)c2c(c1)C(=O)c1cc(O)cc(O)c1C2=O
REMARK SMILES IDX 1 1 2 2 8 3 7 4 6 5 4 6 3 7 19 8 20 9 18 10 11 11 9 12 10 13
REMARK SMILES IDX 12 14 13 15 15 16 16 17 5 18 17 20 14 22
REMARK H PARENT 5 19 17 21 14 23
REMARK Flexibility Score: inf
ROOT
ATOM      1  C   UNL     1      15.454  -1.875 -26.620  1.00  0.00     0.044 C 
ATOM      2  C   UNL     1      15.635  -2.817 -27.774  1.00  0.00    -0.047 A 
ATOM      3  C   UNL     1      16.863  -2.888 -28.438  1.00  0.00     0.016 A 
ATOM      4  C   UNL     1      17.051  -3.785 -29.504  1.00  0.00     0.038 A 
ATOM      5  C   UNL     1      15.991  -4.626 -29.913  1.00  0.00     0.076 A 
ATOM      6  C   UNL     1      14.780  -4.617 -29.169  1.00  0.00     0.127 A 
ATOM      7  C   UNL     1      14.609  -3.697 -28.130  1.00  0.00     0.050 A 
ATOM      8  C   UNL     1      16.172  -5.447 -31.143  1.00  0.00     0.201 C 
ATOM      9  O   UNL     1      15.167  -5.873 -31.773  1.00  0.00    -0.288 OA
ATOM     10  C   UNL     1      17.533  -5.670 -31.698  1.00  0.00     0.076 A 
ATOM     11  C   UNL     1      18.602  -4.874 -31.237  1.00  0.00     0.041 A 
ATOM     12  C   UNL     1      18.364  -3.855 -30.189  1.00  0.00     0.194 C 
ATOM     13  O   UNL     1      19.288  -3.059 -29.865  1.00  0.00    -0.289 OA
ATOM     14  C   UNL     1      19.887  -5.048 -31.779  1.00  0.00     0.059 A 
ATOM     15  C   UNL     1      20.117  -6.011 -32.768  1.00  0.00     0.120 A 
ATOM     16  C   UNL     1      19.064  -6.805 -33.219  1.00  0.00     0.093 A 
ATOM     17  C   UNL     1      17.775  -6.646 -32.693  1.00  0.00     0.131 A 
ENDROOT
BRANCH   6  18
ATOM     18  O   UNL     1      13.741  -5.522 -29.396  1.00  0.00    -0.507 OA
ATOM     19  H   UNL     1      12.949  -5.329 -29.993  1.00  0.00     0.293 HD
ENDBRANCH   6  18
BRANCH  17  20
ATOM     20  O   UNL     1      16.743  -7.465 -33.155  1.00  0.00    -0.507 OA
ATOM     21  H   UNL     1      16.069  -7.140 -33.837  1.00  0.00     0.293 HD
ENDBRANCH  17  20
BRANCH  15  22
ATOM     22  O   UNL     1      21.390  -6.186 -33.306  1.00  0.00    -0.508 OA
ATOM     23  H   UNL     1      21.542  -6.744 -34.138  1.00  0.00     0.293 HD
ENDBRANCH  15  22
TORSDOF 3
ENDMDL
MODEL 4
REMARK VINA RESULT:    -5.037      3.727      5.433
REMARK INTER + INTRA:          -5.478
REMARK INTER:                  -5.478
REMARK INTRA:                   0.000
REMARK UNBOUND:                 0.000
REMARK SMILES Cc1cc(O)c2c(c1)C(=O)c1cc(O)cc(O)c1C2=O
REMARK SMILES IDX 1 1 2 2 8 3 7 4 6 5 4 6 3 7 19 8 20 9 18 10 11 11 9 12 10 13
REMARK SMILES IDX 12 14 13 15 15 16 16 17 5 18 17 20 14 22
REMARK H PARENT 5 19 17 21 14 23
REMARK Flexibility Score: inf
ROOT
ATOM      1  C   UNL     1      18.749  -6.079 -31.332  1.00  0.00     0.044 C 
ATOM      2  C   UNL     1      17.416  -6.767 -31.355  1.00  0.00    -0.047 A 
ATOM      3  C   UNL     1      16.663  -6.805 -32.532  1.00  0.00     0.016 A 
ATOM      4  C   UNL     1      15.425  -7.468 -32.572  1.00  0.00     0.038 A 
ATOM      5  C   UNL     1      14.930  -8.107 -31.412  1.00  0.00     0.076 A 
ATOM      6  C   UNL     1      15.747  -8.149 -30.249  1.00  0.00     0.127 A 
ATOM      7  C   UNL     1      16.963  -7.458 -30.227  1.00  0.00     0.050 A 
ATOM      8  C   UNL     1      13.548  -8.662 -31.444  1.00  0.00     0.201 C 
ATOM      9  O   UNL     1      12.919  -8.855 -30.369  1.00  0.00    -0.288 OA
ATOM     10  C   UNL     1      12.861  -8.882 -32.743  1.00  0.00     0.076 A 
ATOM     11  C   UNL     1      13.397  -8.299 -33.910  1.00  0.00     0.041 A 
ATOM     12  C   UNL     1      14.647  -7.508 -33.833  1.00  0.00     0.194 C 
ATOM     13  O   UNL     1      15.059  -6.883 -34.849  1.00  0.00    -0.289 OA
ATOM     14  C   UNL     1      12.738  -8.467 -35.141  1.00  0.00     0.059 A 
ATOM     15  C   UNL     1      11.559  -9.216 -35.219  1.00  0.00     0.120 A 
ATOM     16  C   UNL     1      11.032  -9.800 -34.069  1.00  0.00     0.093 A 
ATOM     17  C   UNL     1      11.672  -9.643 -32.832  1.00  0.00     0.131 A 
ENDROOT
BRANCH   6  18
ATOM     18  O   UNL     1      15.414  -8.890 -29.112  1.00  0.00    -0.507 OA
ATOM     19  H   UNL     1      14.466  -9.051 -28.805  1.00  0.00     0.293 HD
ENDBRANCH   6  18
BRANCH  17  20
ATOM     20  O   UNL     1      11.129 -10.251 -31.699  1.00  0.00    -0.507 OA
ATOM     21  H   UNL     1      11.688 -10.834 -31.087  1.00  0.00     0.293 HD
ENDBRANCH  17  20
BRANCH  15  22
ATOM     22  O   UNL     1      10.905  -9.385 -36.437  1.00  0.00    -0.508 OA
ATOM     23  H   UNL     1      10.071  -8.857 -36.670  1.00  0.00     0.293 HD
ENDBRANCH  15  22
TORSDOF 3
ENDMDL
MODEL 5
REMARK VINA RESULT:    -4.978      1.619      3.491
REMARK INTER + INTRA:          -5.414
REMARK INTER:                  -5.414
REMARK INTRA:                   0.000
REMARK UNBOUND:                 0.000
REMARK SMILES Cc1cc(O)c2c(c1)C(=O)c1cc(O)cc(O)c1C2=O
REMARK SMILES IDX 1 1 2 2 8 3 7 4 6 5 4 6 3 7 19 8 20 9 18 10 11 11 9 12 10 13
REMARK SMILES IDX 12 14 13 15 15 16 16 17 5 18 17 20 14 22
REMARK H PARENT 5 19 17 21 14 23
REMARK Flexibility Score: inf
ROOT
ATOM      1  C   UNL     1      20.248  -1.880 -30.448  1.00  0.00     0.044 C 
ATOM      2  C   UNL     1      19.339  -3.060 -30.622  1.00  0.00    -0.047 A 
ATOM      3  C   UNL     1      18.173  -3.168 -29.859  1.00  0.00     0.016 A 
ATOM      4  C   UNL     1      17.300  -4.257 -30.031  1.00  0.00     0.038 A 
ATOM      5  C   UNL     1      17.600  -5.256 -30.986  1.00  0.00     0.076 A 
ATOM      6  C   UNL     1      18.735  -5.087 -31.825  1.00  0.00     0.127 A 
ATOM      7  C   UNL     1      19.601  -4.009 -31.615  1.00  0.00     0.050 A 
ATOM      8  C   UNL     1      16.741  -6.472 -31.032  1.00  0.00     0.201 C 
ATOM      9  O   UNL     1      17.182  -7.538 -31.539  1.00  0.00    -0.288 OA
ATOM     10  C   UNL     1      15.407  -6.469 -30.377  1.00  0.00     0.076 A 
ATOM     11  C   UNL     1      15.086  -5.432 -29.477  1.00  0.00     0.041 A 
ATOM     12  C   UNL     1      16.062  -4.348 -29.222  1.00  0.00     0.194 C 
ATOM     13  O   UNL     1      15.829  -3.491 -28.326  1.00  0.00    -0.289 OA
ATOM     14  C   UNL     1      13.842  -5.436 -28.822  1.00  0.00     0.059 A 
ATOM     15  C   UNL     1      12.915  -6.456 -29.062  1.00  0.00     0.120 A 
ATOM     16  C   UNL     1      13.226  -7.477 -29.958  1.00  0.00     0.093 A 
ATOM     17  C   UNL     1      14.462  -7.494 -30.619  1.00  0.00     0.131 A 
ENDROOT
BRANCH   6  18
ATOM     18  O   UNL     1      19.020  -5.934 -32.898  1.00  0.00    -0.507 OA
ATOM     19  H   UNL     1      19.886  -6.444 -32.995  1.00  0.00     0.293 HD
ENDBRANCH   6  18
BRANCH  17  20
ATOM     20  O   UNL     1      14.741  -8.522 -31.521  1.00  0.00    -0.507 OA
ATOM     21  H   UNL     1      14.003  -9.057 -31.965  1.00  0.00     0.293 HD
ENDBRANCH  17  20
BRANCH  15  22
ATOM     22  O   UNL     1      11.682  -6.461 -28.416  1.00  0.00    -0.508 OA
ATOM     23  H   UNL     1      11.507  -7.051 -27.611  1.00  0.00     0.293 HD
ENDBRANCH  15  22
TORSDOF 3
ENDMDL
MODEL 6
REMARK VINA RESULT:    -4.952      3.380      6.473
REMARK INTER + INTRA:          -5.387
REMARK INTER:                  -5.387
REMARK INTRA:                   0.000
REMARK UNBOUND:                 0.000
REMARK SMILES Cc1cc(O)c2c(c1)C(=O)c1cc(O)cc(O)c1C2=O
REMARK SMILES IDX 1 1 2 2 8 3 7 4 6 5 4 6 3 7 19 8 20 9 18 10 11 11 9 12 10 13
REMARK SMILES IDX 12 14 13 15 15 16 16 17 5 18 17 20 14 22
REMARK H PARENT 5 19 17 21 14 23
REMARK Flexibility Score: inf
ROOT
ATOM      1  C   UNL     1      13.634  -9.653 -28.509  1.00  0.00     0.044 C 
ATOM      2  C   UNL     1      14.121  -8.976 -29.756  1.00  0.00    -0.047 A 
ATOM      3  C   UNL     1      15.394  -8.399 -29.793  1.00  0.00     0.016 A 
ATOM      4  C   UNL     1      15.870  -7.785 -30.963  1.00  0.00     0.038 A 
ATOM      5  C   UNL     1      15.058  -7.747 -32.120  1.00  0.00     0.076 A 
ATOM      6  C   UNL     1      13.807  -8.423 -32.104  1.00  0.00     0.127 A 
ATOM      7  C   UNL     1      13.345  -9.003 -30.919  1.00  0.00     0.050 A 
ATOM      8  C   UNL     1      15.527  -6.953 -33.290  1.00  0.00     0.201 C 
ATOM      9  O   UNL     1      14.701  -6.547 -34.150  1.00  0.00    -0.288 OA
ATOM     10  C   UNL     1      16.951  -6.537 -33.388  1.00  0.00     0.076 A 
ATOM     11  C   UNL     1      17.776  -6.640 -32.248  1.00  0.00     0.041 A 
ATOM     12  C   UNL     1      17.227  -7.189 -30.987  1.00  0.00     0.194 C 
ATOM     13  O   UNL     1      17.924  -7.166 -29.936  1.00  0.00    -0.289 OA
ATOM     14  C   UNL     1      19.114  -6.216 -32.315  1.00  0.00     0.059 A 
ATOM     15  C   UNL     1      19.638  -5.700 -33.505  1.00  0.00     0.120 A 
ATOM     16  C   UNL     1      18.827  -5.605 -34.635  1.00  0.00     0.093 A 
ATOM     17  C   UNL     1      17.490  -6.020 -34.589  1.00  0.00     0.131 A 
ENDROOT
BRANCH   6  18
ATOM     18  O   UNL     1      13.012  -8.578 -33.242  1.00  0.00    -0.507 OA
ATOM     19  H   UNL     1      12.488  -9.416 -33.450  1.00  0.00     0.293 HD
ENDBRANCH   6  18
BRANCH  17  20
ATOM     20  O   UNL     1      16.705  -5.926 -35.740  1.00  0.00    -0.507 OA
ATOM     21  H   UNL     1      16.903  -5.248 -36.466  1.00  0.00     0.293 HD
ENDBRANCH  17  20
BRANCH  15  22
ATOM     22  O   UNL     1      20.964  -5.280 -33.574  1.00  0.00    -0.508 OA
ATOM     23  H   UNL     1      21.255  -4.542 -34.204  1.00  0.00     0.293 HD
ENDBRANCH  15  22
TORSDOF 3
ENDMDL
MODEL 7
REMARK VINA RESULT:    -4.865      1.831      5.248
REMARK INTER + INTRA:          -5.291
REMARK INTER:                  -5.291
REMARK INTRA:                   0.000
REMARK UNBOUND:                 0.000
REMARK SMILES Cc1cc(O)c2c(c1)C(=O)c1cc(O)cc(O)c1C2=O
REMARK SMILES IDX 1 1 2 2 8 3 7 4 6 5 4 6 3 7 19 8 20 9 18 10 11 11 9 12 10 13
REMARK SMILES IDX 12 14 13 15 15 16 16 17 5 18 17 20 14 22
REMARK H PARENT 5 19 17 21 14 23
REMARK Flexibility Score: inf
ROOT
ATOM      1  C   UNL     1      13.143  -9.045 -31.371  1.00  0.00     0.044 C 
ATOM      2  C   UNL     1      13.877  -7.854 -30.830  1.00  0.00    -0.047 A 
ATOM      3  C   UNL     1      15.128  -7.504 -31.347  1.00  0.00     0.016 A 
ATOM      4  C   UNL     1      15.814  -6.375 -30.866  1.00  0.00     0.038 A 
ATOM      5  C   UNL     1      15.236  -5.581 -29.849  1.00  0.00     0.076 A 
ATOM      6  C   UNL     1      13.922  -5.886 -29.400  1.00  0.00     0.127 A 
ATOM      7  C   UNL     1      13.273  -7.029 -29.876  1.00  0.00     0.050 A 
ATOM      8  C   UNL     1      16.055  -4.489 -29.252  1.00  0.00     0.201 C 
ATOM      9  O   UNL     1      15.775  -4.041 -28.108  1.00  0.00    -0.288 OA
ATOM     10  C   UNL     1      17.274  -4.003 -29.950  1.00  0.00     0.076 A 
ATOM     11  C   UNL     1      17.808  -4.766 -31.010  1.00  0.00     0.041 A 
ATOM     12  C   UNL     1      17.134  -6.013 -31.434  1.00  0.00     0.194 C 
ATOM     13  O   UNL     1      17.677  -6.760 -32.295  1.00  0.00    -0.289 OA
ATOM     14  C   UNL     1      18.982  -4.338 -31.655  1.00  0.00     0.059 A 
ATOM     15  C   UNL     1      19.621  -3.158 -31.260  1.00  0.00     0.120 A 
ATOM     16  C   UNL     1      19.091  -2.398 -30.219  1.00  0.00     0.093 A 
ATOM     17  C   UNL     1      17.923  -2.808 -29.561  1.00  0.00     0.131 A 
ENDROOT
BRANCH   6  18
ATOM     18  O   UNL     1      13.210  -5.068 -28.520  1.00  0.00    -0.507 OA
ATOM     19  H   UNL     1      12.518  -5.413 -27.870  1.00  0.00     0.293 HD
ENDBRANCH   6  18
BRANCH  17  20
ATOM     20  O   UNL     1      17.407  -2.020 -28.530  1.00  0.00    -0.507 OA
ATOM     21  H   UNL     1      17.230  -2.399 -27.607  1.00  0.00     0.293 HD
ENDBRANCH  17  20
BRANCH  15  22
ATOM     22  O   UNL     1      20.783  -2.732 -31.899  1.00  0.00    -0.508 OA
ATOM     23  H   UNL     1      21.405  -2.055 -31.472  1.00  0.00     0.293 HD
ENDBRANCH  15  22
TORSDOF 3
ENDMDL
MODEL 8
REMARK VINA RESULT:    -4.845      3.268      3.774
REMARK INTER + INTRA:          -5.270
REMARK INTER:                  -5.270
REMARK INTRA:                   0.000
REMARK UNBOUND:                 0.000
REMARK SMILES Cc1cc(O)c2c(c1)C(=O)c1cc(O)cc(O)c1C2=O
REMARK SMILES IDX 1 1 2 2 8 3 7 4 6 5 4 6 3 7 19 8 20 9 18 10 11 11 9 12 10 13
REMARK SMILES IDX 12 14 13 15 15 16 16 17 5 18 17 20 14 22
REMARK H PARENT 5 19 17 21 14 23
REMARK Flexibility Score: inf
ROOT
ATOM      1  C   UNL     1      19.688  -4.606 -35.273  1.00  0.00     0.044 C 
ATOM      2  C   UNL     1      18.959  -5.335 -34.183  1.00  0.00    -0.047 A 
ATOM      3  C   UNL     1      17.591  -5.595 -34.302  1.00  0.00     0.016 A 
ATOM      4  C   UNL     1      16.903  -6.299 -33.299  1.00  0.00     0.038 A 
ATOM      5  C   UNL     1      17.598  -6.753 -32.154  1.00  0.00     0.076 A 
ATOM      6  C   UNL     1      19.006  -6.572 -32.088  1.00  0.00     0.127 A 
ATOM      7  C   UNL     1      19.662  -5.845 -33.087  1.00  0.00     0.050 A 
ATOM      8  C   UNL     1      16.812  -7.354 -31.041  1.00  0.00     0.201 C 
ATOM      9  O   UNL     1      17.290  -7.387 -29.875  1.00  0.00    -0.288 OA
ATOM     10  C   UNL     1      15.417  -7.811 -31.272  1.00  0.00     0.076 A 
ATOM     11  C   UNL     1      14.750  -7.411 -32.450  1.00  0.00     0.041 A 
ATOM     12  C   UNL     1      15.454  -6.575 -33.449  1.00  0.00     0.194 C 
ATOM     13  O   UNL     1      14.823  -6.113 -34.439  1.00  0.00    -0.289 OA
ATOM     14  C   UNL     1      13.418  -7.804 -32.666  1.00  0.00     0.059 A 
ATOM     15  C   UNL     1      12.750  -8.597 -31.726  1.00  0.00     0.120 A 
ATOM     16  C   UNL     1      13.409  -9.000 -30.566  1.00  0.00     0.093 A 
ATOM     17  C   UNL     1      14.736  -8.617 -30.331  1.00  0.00     0.131 A 
ENDROOT
BRANCH   6  18
ATOM     18  O   UNL     1      19.798  -7.125 -31.079  1.00  0.00    -0.507 OA
ATOM     19  H   UNL     1      20.417  -6.584 -30.491  1.00  0.00     0.293 HD
ENDBRANCH   6  18
BRANCH  17  20
ATOM     20  O   UNL     1      15.375  -9.047 -29.166  1.00  0.00    -0.507 OA
ATOM     21  H   UNL     1      15.611 -10.021 -29.017  1.00  0.00     0.293 HD
ENDBRANCH  17  20
BRANCH  15  22
ATOM     22  O   UNL     1      11.430  -8.989 -31.939  1.00  0.00    -0.508 OA
ATOM     23  H   UNL     1      11.113  -9.317 -32.844  1.00  0.00     0.293 HD
ENDBRANCH  15  22
TORSDOF 3
ENDMDL
MODEL 9
REMARK VINA RESULT:    -4.844      3.309      6.490
REMARK INTER + INTRA:          -5.269
REMARK INTER:                  -5.269
REMARK INTRA:                   0.000
REMARK UNBOUND:                 0.000
REMARK SMILES Cc1cc(O)c2c(c1)C(=O)c1cc(O)cc(O)c1C2=O
REMARK SMILES IDX 1 1 2 2 8 3 7 4 6 5 4 6 3 7 19 8 20 9 18 10 11 11 9 12 10 13
REMARK SMILES IDX 12 14 13 15 15 16 16 17 5 18 17 20 14 22
REMARK H PARENT 5 19 17 21 14 23
REMARK Flexibility Score: inf
ROOT
ATOM      1  C   UNL     1      10.939 -10.135 -32.144  1.00  0.00     0.044 C 
ATOM      2  C   UNL     1      12.128  -9.334 -32.587  1.00  0.00    -0.047 A 
ATOM      3  C   UNL     1      13.141  -9.016 -31.678  1.00  0.00     0.016 A 
ATOM      4  C   UNL     1      14.271  -8.288 -32.088  1.00  0.00     0.038 A 
ATOM      5  C   UNL     1      14.390  -7.870 -33.433  1.00  0.00     0.076 A 
ATOM      6  C   UNL     1      13.405  -8.283 -34.371  1.00  0.00     0.127 A 
ATOM      7  C   UNL     1      12.278  -8.985 -33.933  1.00  0.00     0.050 A 
ATOM      8  C   UNL     1      15.518  -6.968 -33.797  1.00  0.00     0.201 C 
ATOM      9  O   UNL     1      15.445  -6.250 -34.831  1.00  0.00    -0.288 OA
ATOM     10  C   UNL     1      16.682  -6.821 -32.885  1.00  0.00     0.076 A 
ATOM     11  C   UNL     1      16.582  -7.301 -31.562  1.00  0.00     0.041 A 
ATOM     12  C   UNL     1      15.340  -7.970 -31.112  1.00  0.00     0.194 C 
ATOM     13  O   UNL     1      15.202  -8.286 -29.898  1.00  0.00    -0.289 OA
ATOM     14  C   UNL     1      17.661  -7.136 -30.676  1.00  0.00     0.059 A 
ATOM     15  C   UNL     1      18.838  -6.508 -31.099  1.00  0.00     0.120 A 
ATOM     16  C   UNL     1      18.942  -6.040 -32.407  1.00  0.00     0.093 A 
ATOM     17  C   UNL     1      17.877  -6.192 -33.305  1.00  0.00     0.131 A 
ENDROOT
BRANCH   6  18
ATOM     18  O   UNL     1      13.521  -8.058 -35.745  1.00  0.00    -0.507 OA
ATOM     19  H   UNL     1      14.150  -8.571 -36.347  1.00  0.00     0.293 HD
ENDBRANCH   6  18
BRANCH  17  20
ATOM     20  O   UNL     1      18.015  -5.727 -34.614  1.00  0.00    -0.507 OA
ATOM     21  H   UNL     1      17.228  -5.360 -35.136  1.00  0.00     0.293 HD
ENDBRANCH  17  20
BRANCH  15  22
ATOM     22  O   UNL     1      19.909  -6.345 -30.223  1.00  0.00    -0.508 OA
ATOM     23  H   UNL     1      20.688  -6.992 -30.212  1.00  0.00     0.293 HD
ENDBRANCH  15  22
TORSDOF 3
ENDMDL
