MODEL 1
REMARK VINA RESULT:    -4.265      0.000      0.000
REMARK INTER + INTRA:          -4.265
REMARK INTER:                  -4.265
REMARK INTRA:                   0.000
REMARK UNBOUND:                 0.000
REMARK SMILES O=c1ccc2ccccc2o1
REMARK SMILES IDX 7 1 8 2 9 3 10 4 5 5 6 6 4 7 3 8 2 9 1 10 11 11
REMARK H PARENT
REMARK Flexibility Score: inf
ROOT
ATOM      1  C   UNL     1      -0.020  27.131  33.998  1.00  0.00     0.001 A 
ATOM      2  C   UNL     1       0.168  28.509  33.852  1.00  0.00     0.004 A 
ATOM      3  C   UNL     1       0.257  29.077  32.577  1.00  0.00     0.048 A 
ATOM      4  C   UNL     1       0.159  28.267  31.440  1.00  0.00     0.138 A 
ATOM      5  C   UNL     1      -0.030  26.874  31.587  1.00  0.00     0.018 A 
ATOM      6  C   UNL     1      -0.118  26.311  32.868  1.00  0.00     0.012 A 
ATOM      7  C   UNL     1      -0.124  26.089  30.433  1.00  0.00     0.019 A 
ATOM      8  C   UNL     1      -0.029  26.698  29.183  1.00  0.00     0.094 A 
ATOM      9  C   UNL     1       0.158  28.083  29.114  1.00  0.00     0.336 A 
ATOM     10  O   UNL     1       0.246  28.651  27.995  1.00  0.00    -0.246 OA
ATOM     11  O   UNL     1       0.244  28.807  30.227  1.00  0.00    -0.423 OA
ENDROOT
TORSDOF 0
ENDMDL
MODEL 2
REMARK VINA RESULT:    -4.160      1.788      4.377
REMARK INTER + INTRA:          -4.160
REMARK INTER:                  -4.160
REMARK INTRA:                   0.000
REMARK UNBOUND:                 0.000
REMARK SMILES O=c1ccc2ccccc2o1
REMARK SMILES IDX 7 1 8 2 9 3 10 4 5 5 6 6 4 7 3 8 2 9 1 10 11 11
REMARK H PARENT
REMARK Flexibility Score: inf
ROOT
ATOM      1  C   UNL     1      -0.078  28.139  27.932  1.00  0.00     0.001 A 
ATOM      2  C   UNL     1      -0.092  26.745  28.037  1.00  0.00     0.004 A 
ATOM      3  C   UNL     1      -0.106  26.133  29.295  1.00  0.00     0.048 A 
ATOM      4  C   UNL     1      -0.103  26.915  30.455  1.00  0.00     0.138 A 
ATOM      5  C   UNL     1      -0.087  28.325  30.350  1.00  0.00     0.018 A 
ATOM      6  C   UNL     1      -0.074  28.931  29.085  1.00  0.00     0.012 A 
ATOM      7  C   UNL     1      -0.085  29.081  31.526  1.00  0.00     0.019 A 
ATOM      8  C   UNL     1      -0.098  28.429  32.758  1.00  0.00     0.094 A 
ATOM      9  C   UNL     1      -0.113  27.030  32.786  1.00  0.00     0.336 A 
ATOM     10  O   UNL     1      -0.125  26.423  33.888  1.00  0.00    -0.246 OA
ATOM     11  O   UNL     1      -0.115  26.333  31.652  1.00  0.00    -0.423 OA
ENDROOT
TORSDOF 0
ENDMDL
