MODEL 1
REMARK VINA RESULT:    -5.964      0.000      0.000
REMARK INTER + INTRA:          -9.202
REMARK INTER:                  -8.230
REMARK INTRA:                  -0.973
REMARK UNBOUND:                -0.973
REMARK SMILES O=C([O-])[C@@H]1O[C@H](Oc2cc3oc(-c4ccccc4)cc(=O)c3c(O)c2O)[C@H](O)[C@H](O)[C@@H]1O
REMARK SMILES IDX 7 1 6 2 4 3 31 4 5 5 29 6 27 7 2 8 1 9 3 10 32 11 30 13
REMARK SMILES IDX 28 15 8 17 25 18 9 19 23 20 10 21 22 22 11 23 20 24 12 25
REMARK SMILES IDX 19 26 21 27 26 28 24 30 13 32 14 33 18 34 15 35 17 36 16 37
REMARK H PARENT 32 12 30 14 28 16 26 29 24 31
REMARK Flexibility Score: inf
ROOT
ATOM      1  O   UNL     1      13.280  -1.641   9.207  1.00  0.00    -0.458 OA
ENDROOT
BRANCH   1   2
ATOM      2  C   UNL     1      13.752  -0.290   9.188  1.00  0.00     0.339 C 
ATOM      3  C   UNL     1      13.006   1.927   9.032  1.00  0.00     0.199 C 
ATOM      4  C   UNL     1      13.764   2.388  10.301  1.00  0.00     0.180 C 
ATOM      5  O   UNL     1      12.619   0.564   9.146  1.00  0.00    -0.328 OA
ATOM      6  C   UNL     1      14.991   1.495  10.499  1.00  0.00     0.181 C 
ATOM      7  C   UNL     1      14.610   0.004  10.455  1.00  0.00     0.214 C 
BRANCH   3   8
ATOM      8  C   UNL     1      11.779   2.760   8.762  1.00  0.00     0.073 C 
ATOM      9  O   UNL     1      11.730   3.470   7.723  1.00  0.00    -0.547 OA
ATOM     10  O   UNL     1      10.700   2.761   9.638  1.00  0.00    -0.547 OA
ENDBRANCH   3   8
BRANCH   4  11
ATOM     11  O   UNL     1      12.929   2.316  11.434  1.00  0.00    -0.387 OA
ATOM     12  H   UNL     1      12.497   3.204  11.545  1.00  0.00     0.211 HD
ENDBRANCH   4  11
BRANCH   6  13
ATOM     13  O   UNL     1      15.624   1.812  11.714  1.00  0.00    -0.387 OA
ATOM     14  H   UNL     1      15.177   2.627  12.061  1.00  0.00     0.211 HD
ENDBRANCH   6  13
BRANCH   7  15
ATOM     15  O   UNL     1      13.958  -0.398  11.639  1.00  0.00    -0.384 OA
ATOM     16  H   UNL     1      14.320   0.133  12.394  1.00  0.00     0.211 HD
ENDBRANCH   7  15
ENDBRANCH   1   2
BRANCH   1  17
ATOM     17  C   UNL     1      11.980  -2.067   9.534  1.00  0.00     0.172 A 
ATOM     18  C   UNL     1      11.829  -2.955  10.605  1.00  0.00     0.201 A 
ATOM     19  C   UNL     1      10.843  -1.637   8.832  1.00  0.00     0.098 A 
ATOM     20  C   UNL     1      10.559  -3.440  10.972  1.00  0.00     0.176 A 
ATOM     21  C   UNL     1       9.585  -2.166   9.128  1.00  0.00     0.146 A 
ATOM     22  C   UNL     1       9.418  -3.095  10.185  1.00  0.00     0.111 A 
ATOM     23  O   UNL     1       8.550  -1.795   8.377  1.00  0.00    -0.456 OA
ATOM     24  C   UNL     1       8.125  -3.650  10.345  1.00  0.00     0.197 A 
ATOM     25  C   UNL     1       7.318  -2.256   8.538  1.00  0.00     0.138 A 
ATOM     26  C   UNL     1       7.075  -3.213   9.535  1.00  0.00     0.100 A 
ATOM     27  O   UNL     1       7.890  -4.560  11.182  1.00  0.00    -0.289 OA
BRANCH  18  28
ATOM     28  O   UNL     1      12.972  -3.335  11.317  1.00  0.00    -0.502 OA
ATOM     29  H   UNL     1      12.962  -4.085  11.999  1.00  0.00     0.293 HD
ENDBRANCH  18  28
BRANCH  20  30
ATOM     30  O   UNL     1      10.489  -4.236  12.120  1.00  0.00    -0.504 OA
ATOM     31  H   UNL     1       9.642  -4.600  12.533  1.00  0.00     0.293 HD
ENDBRANCH  20  30
BRANCH  25  32
ATOM     32  C   UNL     1       6.248  -1.757   7.623  1.00  0.00     0.017 A 
ATOM     33  C   UNL     1       5.535  -2.614   6.749  1.00  0.00     0.012 A 
ATOM     34  C   UNL     1       5.915  -0.387   7.636  1.00  0.00     0.012 A 
ATOM     35  C   UNL     1       4.543  -2.105   5.907  1.00  0.00     0.001 A 
ATOM     36  C   UNL     1       4.920   0.115   6.792  1.00  0.00     0.001 A 
ATOM     37  C   UNL     1       4.233  -0.743   5.930  1.00  0.00     0.000 A 
ENDBRANCH  25  32
ENDBRANCH   1  17
TORSDOF 9
ENDMDL
MODEL 2
REMARK VINA RESULT:    -5.575      2.460      8.271
REMARK INTER + INTRA:          -8.667
REMARK INTER:                  -7.656
REMARK INTRA:                  -1.011
REMARK UNBOUND:                -0.973
REMARK SMILES O=C([O-])[C@@H]1O[C@H](Oc2cc3oc(-c4ccccc4)cc(=O)c3c(O)c2O)[C@H](O)[C@H](O)[C@@H]1O
REMARK SMILES IDX 7 1 6 2 4 3 31 4 5 5 29 6 27 7 2 8 1 9 3 10 32 11 30 13
REMARK SMILES IDX 28 15 8 17 25 18 9 19 23 20 10 21 22 22 11 23 20 24 12 25
REMARK SMILES IDX 19 26 21 27 26 28 24 30 13 32 14 33 18 34 15 35 17 36 16 37
REMARK H PARENT 32 12 30 14 28 16 26 29 24 31
REMARK Flexibility Score: inf
ROOT
ATOM      1  O   UNL     1       9.748  -2.517   7.215  1.00  0.00    -0.458 OA
ENDROOT
BRANCH   1   2
ATOM      2  C   UNL     1       8.930  -3.482   7.885  1.00  0.00     0.339 C 
ATOM      3  C   UNL     1       8.355  -4.254  10.022  1.00  0.00     0.199 C 
ATOM      4  C   UNL     1       6.832  -4.120   9.781  1.00  0.00     0.180 C 
ATOM      5  O   UNL     1       9.069  -3.272   9.281  1.00  0.00    -0.328 OA
ATOM      6  C   UNL     1       6.550  -4.268   8.284  1.00  0.00     0.181 C 
ATOM      7  C   UNL     1       7.441  -3.326   7.453  1.00  0.00     0.214 C 
BRANCH   3   8
ATOM      8  C   UNL     1       8.719  -4.123  11.479  1.00  0.00     0.073 C 
ATOM      9  O   UNL     1       7.872  -4.430  12.359  1.00  0.00    -0.547 OA
ATOM     10  O   UNL     1       9.973  -3.669  11.872  1.00  0.00    -0.547 OA
ENDBRANCH   3   8
BRANCH   4  11
ATOM     11  O   UNL     1       6.362  -2.874  10.238  1.00  0.00    -0.387 OA
ATOM     12  H   UNL     1       6.333  -2.259   9.457  1.00  0.00     0.211 HD
ENDBRANCH   4  11
BRANCH   6  13
ATOM     13  O   UNL     1       5.190  -4.024   8.025  1.00  0.00    -0.387 OA
ATOM     14  H   UNL     1       4.677  -4.647   8.602  1.00  0.00     0.211 HD
ENDBRANCH   6  13
BRANCH   7  15
ATOM     15  O   UNL     1       7.004  -1.988   7.542  1.00  0.00    -0.384 OA
ATOM     16  H   UNL     1       7.338  -1.494   6.750  1.00  0.00     0.211 HD
ENDBRANCH   7  15
ENDBRANCH   1   2
BRANCH   1  17
ATOM     17  C   UNL     1      11.098  -2.232   7.490  1.00  0.00     0.172 A 
ATOM     18  C   UNL     1      12.078  -2.985   6.833  1.00  0.00     0.201 A 
ATOM     19  C   UNL     1      11.491  -1.229   8.390  1.00  0.00     0.098 A 
ATOM     20  C   UNL     1      13.446  -2.767   7.078  1.00  0.00     0.176 A 
ATOM     21  C   UNL     1      12.839  -1.049   8.708  1.00  0.00     0.146 A 
ATOM     22  C   UNL     1      13.843  -1.828   8.080  1.00  0.00     0.111 A 
ATOM     23  O   UNL     1      13.157  -0.147   9.632  1.00  0.00    -0.456 OA
ATOM     24  C   UNL     1      15.170  -1.644   8.538  1.00  0.00     0.197 A 
ATOM     25  C   UNL     1      14.395   0.087  10.043  1.00  0.00     0.138 A 
ATOM     26  C   UNL     1      15.444  -0.673   9.503  1.00  0.00     0.100 A 
ATOM     27  O   UNL     1      16.122  -2.356   8.125  1.00  0.00    -0.289 OA
BRANCH  18  28
ATOM     28  O   UNL     1      11.661  -3.948   5.908  1.00  0.00    -0.502 OA
ATOM     29  H   UNL     1      11.791  -3.833   4.909  1.00  0.00     0.293 HD
ENDBRANCH  18  28
BRANCH  20  30
ATOM     30  O   UNL     1      14.355  -3.489   6.298  1.00  0.00    -0.504 OA
ATOM     31  H   UNL     1      14.964  -3.100   5.592  1.00  0.00     0.293 HD
ENDBRANCH  20  30
BRANCH  25  32
ATOM     32  C   UNL     1      14.612   1.128  11.091  1.00  0.00     0.017 A 
ATOM     33  C   UNL     1      15.033   0.808  12.405  1.00  0.00     0.012 A 
ATOM     34  C   UNL     1      14.411   2.485  10.764  1.00  0.00     0.012 A 
ATOM     35  C   UNL     1      15.221   1.815  13.356  1.00  0.00     0.001 A 
ATOM     36  C   UNL     1      14.604   3.487  11.720  1.00  0.00     0.001 A 
ATOM     37  C   UNL     1      15.010   3.153  13.013  1.00  0.00     0.000 A 
ENDBRANCH  25  32
ENDBRANCH   1  17
TORSDOF 9
ENDMDL
MODEL 3
REMARK VINA RESULT:    -5.514      2.998      5.439
REMARK INTER + INTRA:          -8.582
REMARK INTER:                  -7.707
REMARK INTRA:                  -0.874
REMARK UNBOUND:                -0.973
REMARK SMILES O=C([O-])[C@@H]1O[C@H](Oc2cc3oc(-c4ccccc4)cc(=O)c3c(O)c2O)[C@H](O)[C@H](O)[C@@H]1O
REMARK SMILES IDX 7 1 6 2 4 3 31 4 5 5 29 6 27 7 2 8 1 9 3 10 32 11 30 13
REMARK SMILES IDX 28 15 8 17 25 18 9 19 23 20 10 21 22 22 11 23 20 24 12 25
REMARK SMILES IDX 19 26 21 27 26 28 24 30 13 32 14 33 18 34 15 35 17 36 16 37
REMARK H PARENT 32 12 30 14 28 16 26 29 24 31
REMARK Flexibility Score: inf
ROOT
ATOM      1  O   UNL     1      10.736   2.876   9.962  1.00  0.00    -0.458 OA
ENDROOT
BRANCH   1   2
ATOM      2  C   UNL     1      12.120   2.685   9.651  1.00  0.00     0.339 C 
ATOM      3  C   UNL     1      14.247   2.638  10.635  1.00  0.00     0.199 C 
ATOM      4  C   UNL     1      14.613   1.258  10.040  1.00  0.00     0.180 C 
ATOM      5  O   UNL     1      12.847   2.729  10.869  1.00  0.00    -0.328 OA
ATOM      6  C   UNL     1      13.837   1.056   8.736  1.00  0.00     0.181 C 
ATOM      7  C   UNL     1      12.333   1.317   8.936  1.00  0.00     0.214 C 
BRANCH   3   8
ATOM      8  C   UNL     1      14.974   2.919  11.925  1.00  0.00     0.073 C 
ATOM      9  O   UNL     1      14.614   3.891  12.640  1.00  0.00    -0.547 OA
ATOM     10  O   UNL     1      16.037   2.126  12.343  1.00  0.00    -0.547 OA
ENDBRANCH   3   8
BRANCH   4  11
ATOM     11  O   UNL     1      14.305   0.226  10.947  1.00  0.00    -0.387 OA
ATOM     12  H   UNL     1      13.374  -0.070  10.761  1.00  0.00     0.211 HD
ENDBRANCH   4  11
BRANCH   6  13
ATOM     13  O   UNL     1      14.056  -0.242   8.243  1.00  0.00    -0.387 OA
ATOM     14  H   UNL     1      13.254  -0.774   8.481  1.00  0.00     0.211 HD
ENDBRANCH   6  13
BRANCH   7  15
ATOM     15  O   UNL     1      11.712   0.258   9.629  1.00  0.00    -0.384 OA
ATOM     16  H   UNL     1      12.375  -0.148  10.244  1.00  0.00     0.211 HD
ENDBRANCH   7  15
ENDBRANCH   1   2
BRANCH   1  17
ATOM     17  C   UNL     1       9.673   2.939   9.042  1.00  0.00     0.172 A 
ATOM     18  C   UNL     1       9.538   4.099   8.271  1.00  0.00     0.201 A 
ATOM     19  C   UNL     1       8.756   1.890   8.873  1.00  0.00     0.098 A 
ATOM     20  C   UNL     1       8.485   4.237   7.348  1.00  0.00     0.176 A 
ATOM     21  C   UNL     1       7.659   2.038   8.022  1.00  0.00     0.146 A 
ATOM     22  C   UNL     1       7.485   3.220   7.261  1.00  0.00     0.111 A 
ATOM     23  O   UNL     1       6.768   1.052   7.961  1.00  0.00    -0.456 OA
ATOM     24  C   UNL     1       6.293   3.319   6.503  1.00  0.00     0.197 A 
ATOM     25  C   UNL     1       5.670   1.092   7.219  1.00  0.00     0.138 A 
ATOM     26  C   UNL     1       5.400   2.246   6.469  1.00  0.00     0.100 A 
ATOM     27  O   UNL     1       5.987   4.366   5.875  1.00  0.00    -0.289 OA
BRANCH  18  28
ATOM     28  O   UNL     1      10.491   5.112   8.427  1.00  0.00    -0.502 OA
ATOM     29  H   UNL     1      11.473   4.914   8.577  1.00  0.00     0.293 HD
ENDBRANCH  18  28
BRANCH  20  30
ATOM     30  O   UNL     1       8.490   5.382   6.544  1.00  0.00    -0.504 OA
ATOM     31  H   UNL     1       8.724   6.316   6.852  1.00  0.00     0.293 HD
ENDBRANCH  20  30
BRANCH  25  32
ATOM     32  C   UNL     1       4.751  -0.085   7.245  1.00  0.00     0.017 A 
ATOM     33  C   UNL     1       4.717  -1.000   8.326  1.00  0.00     0.012 A 
ATOM     34  C   UNL     1       3.867  -0.291   6.166  1.00  0.00     0.012 A 
ATOM     35  C   UNL     1       3.844  -2.090   8.308  1.00  0.00     0.001 A 
ATOM     36  C   UNL     1       2.994  -1.383   6.156  1.00  0.00     0.001 A 
ATOM     37  C   UNL     1       2.981  -2.280   7.226  1.00  0.00     0.000 A 
ENDBRANCH  25  32
ENDBRANCH   1  17
TORSDOF 9
ENDMDL
MODEL 4
REMARK VINA RESULT:    -5.491      1.733      2.294
REMARK INTER + INTRA:          -8.550
REMARK INTER:                  -7.637
REMARK INTRA:                  -0.914
REMARK UNBOUND:                -0.973
REMARK SMILES O=C([O-])[C@@H]1O[C@H](Oc2cc3oc(-c4ccccc4)cc(=O)c3c(O)c2O)[C@H](O)[C@H](O)[C@@H]1O
REMARK SMILES IDX 7 1 6 2 4 3 31 4 5 5 29 6 27 7 2 8 1 9 3 10 32 11 30 13
REMARK SMILES IDX 28 15 8 17 25 18 9 19 23 20 10 21 22 22 11 23 20 24 12 25
REMARK SMILES IDX 19 26 21 27 26 28 24 30 13 32 14 33 18 34 15 35 17 36 16 37
REMARK H PARENT 32 12 30 14 28 16 26 29 24 31
REMARK Flexibility Score: inf
ROOT
ATOM      1  O   UNL     1      13.622  -1.386  10.209  1.00  0.00    -0.458 OA
ENDROOT
BRANCH   1   2
ATOM      2  C   UNL     1      13.987  -0.020   9.987  1.00  0.00     0.339 C 
ATOM      3  C   UNL     1      13.067   2.096   9.575  1.00  0.00     0.199 C 
ATOM      4  C   UNL     1      13.836   2.779  10.732  1.00  0.00     0.180 C 
ATOM      5  O   UNL     1      12.790   0.737   9.888  1.00  0.00    -0.328 OA
ATOM      6  C   UNL     1      15.136   2.011  10.985  1.00  0.00     0.181 C 
ATOM      7  C   UNL     1      14.870   0.504  11.159  1.00  0.00     0.214 C 
BRANCH   3   8
ATOM      8  C   UNL     1      11.769   2.795   9.257  1.00  0.00     0.073 C 
ATOM      9  O   UNL     1      10.852   2.819  10.120  1.00  0.00    -0.547 OA
ATOM     10  O   UNL     1      11.563   3.413   8.029  1.00  0.00    -0.547 OA
ENDBRANCH   3   8
BRANCH   4  11
ATOM     11  O   UNL     1      13.055   2.802  11.904  1.00  0.00    -0.387 OA
ATOM     12  H   UNL     1      13.642   3.100  12.649  1.00  0.00     0.211 HD
ENDBRANCH   4  11
BRANCH   6  13
ATOM     13  O   UNL     1      15.790   2.536  12.114  1.00  0.00    -0.387 OA
ATOM     14  H   UNL     1      15.093   2.669  12.807  1.00  0.00     0.211 HD
ENDBRANCH   6  13
BRANCH   7  15
ATOM     15  O   UNL     1      14.299   0.222  12.417  1.00  0.00    -0.384 OA
ATOM     16  H   UNL     1      13.801  -0.633  12.353  1.00  0.00     0.211 HD
ENDBRANCH   7  15
ENDBRANCH   1   2
BRANCH   1  17
ATOM     17  C   UNL     1      12.720  -2.145   9.441  1.00  0.00     0.172 A 
ATOM     18  C   UNL     1      13.237  -3.169   8.640  1.00  0.00     0.201 A 
ATOM     19  C   UNL     1      11.336  -1.913   9.453  1.00  0.00     0.098 A 
ATOM     20  C   UNL     1      12.394  -3.952   7.830  1.00  0.00     0.176 A 
ATOM     21  C   UNL     1      10.491  -2.625   8.598  1.00  0.00     0.146 A 
ATOM     22  C   UNL     1      11.002  -3.640   7.752  1.00  0.00     0.111 A 
ATOM     23  O   UNL     1       9.198  -2.309   8.579  1.00  0.00    -0.456 OA
ATOM     24  C   UNL     1      10.087  -4.236   6.851  1.00  0.00     0.197 A 
ATOM     25  C   UNL     1       8.307  -2.887   7.786  1.00  0.00     0.138 A 
ATOM     26  C   UNL     1       8.739  -3.873   6.886  1.00  0.00     0.100 A 
ATOM     27  O   UNL     1      10.454  -5.072   5.984  1.00  0.00    -0.289 OA
BRANCH  18  28
ATOM     28  O   UNL     1      14.615  -3.409   8.680  1.00  0.00    -0.502 OA
ATOM     29  H   UNL     1      15.026  -4.114   9.281  1.00  0.00     0.293 HD
ENDBRANCH  18  28
BRANCH  20  30
ATOM     30  O   UNL     1      12.982  -5.021   7.146  1.00  0.00    -0.504 OA
ATOM     31  H   UNL     1      13.350  -5.860   7.571  1.00  0.00     0.293 HD
ENDBRANCH  20  30
BRANCH  25  32
ATOM     32  C   UNL     1       6.886  -2.436   7.865  1.00  0.00     0.017 A 
ATOM     33  C   UNL     1       5.796  -3.333   7.751  1.00  0.00     0.012 A 
ATOM     34  C   UNL     1       6.610  -1.070   8.081  1.00  0.00     0.012 A 
ATOM     35  C   UNL     1       4.481  -2.866   7.827  1.00  0.00     0.001 A 
ATOM     36  C   UNL     1       5.291  -0.611   8.159  1.00  0.00     0.001 A 
ATOM     37  C   UNL     1       4.229  -1.508   8.034  1.00  0.00     0.000 A 
ENDBRANCH  25  32
ENDBRANCH   1  17
TORSDOF 9
ENDMDL
MODEL 5
REMARK VINA RESULT:    -5.488      2.822      6.794
REMARK INTER + INTRA:          -8.546
REMARK INTER:                  -7.825
REMARK INTRA:                  -0.721
REMARK UNBOUND:                -0.973
REMARK SMILES O=C([O-])[C@@H]1O[C@H](Oc2cc3oc(-c4ccccc4)cc(=O)c3c(O)c2O)[C@H](O)[C@H](O)[C@@H]1O
REMARK SMILES IDX 7 1 6 2 4 3 31 4 5 5 29 6 27 7 2 8 1 9 3 10 32 11 30 13
REMARK SMILES IDX 28 15 8 17 25 18 9 19 23 20 10 21 22 22 11 23 20 24 12 25
REMARK SMILES IDX 19 26 21 27 26 28 24 30 13 32 14 33 18 34 15 35 17 36 16 37
REMARK H PARENT 32 12 30 14 28 16 26 29 24 31
REMARK Flexibility Score: inf
ROOT
ATOM      1  O   UNL     1      12.007  -3.889   8.924  1.00  0.00    -0.458 OA
ENDROOT
BRANCH   1   2
ATOM      2  C   UNL     1      10.864  -4.615   9.387  1.00  0.00     0.339 C 
ATOM      3  C   UNL     1       9.433  -4.831  11.231  1.00  0.00     0.199 C 
ATOM      4  C   UNL     1       8.145  -4.654  10.393  1.00  0.00     0.180 C 
ATOM      5  O   UNL     1      10.509  -4.098  10.660  1.00  0.00    -0.328 OA
ATOM      6  C   UNL     1       8.415  -5.124   8.961  1.00  0.00     0.181 C 
ATOM      7  C   UNL     1       9.680  -4.462   8.386  1.00  0.00     0.214 C 
BRANCH   3   8
ATOM      8  C   UNL     1       9.252  -4.392  12.662  1.00  0.00     0.073 C 
ATOM      9  O   UNL     1       8.147  -4.587  13.234  1.00  0.00    -0.547 OA
ATOM     10  O   UNL     1      10.281  -3.775  13.364  1.00  0.00    -0.547 OA
ENDBRANCH   3   8
BRANCH   4  11
ATOM     11  O   UNL     1       7.735  -3.307  10.387  1.00  0.00    -0.387 OA
ATOM     12  H   UNL     1       7.872  -2.955   9.467  1.00  0.00     0.211 HD
ENDBRANCH   4  11
BRANCH   6  13
ATOM     13  O   UNL     1       7.299  -4.855   8.150  1.00  0.00    -0.387 OA
ATOM     14  H   UNL     1       6.499  -4.947   8.730  1.00  0.00     0.211 HD
ENDBRANCH   6  13
BRANCH   7  15
ATOM     15  O   UNL     1       9.449  -3.114   8.044  1.00  0.00    -0.384 OA
ATOM     16  H   UNL     1      10.250  -2.766   7.574  1.00  0.00     0.211 HD
ENDBRANCH   7  15
ENDBRANCH   1   2
BRANCH   1  17
ATOM     17  C   UNL     1      12.347  -2.565   9.256  1.00  0.00     0.172 A 
ATOM     18  C   UNL     1      13.221  -2.359  10.329  1.00  0.00     0.201 A 
ATOM     19  C   UNL     1      11.845  -1.457   8.555  1.00  0.00     0.098 A 
ATOM     20  C   UNL     1      13.585  -1.059  10.728  1.00  0.00     0.176 A 
ATOM     21  C   UNL     1      12.129  -0.159   8.984  1.00  0.00     0.146 A 
ATOM     22  C   UNL     1      12.983   0.069  10.091  1.00  0.00     0.111 A 
ATOM     23  O   UNL     1      11.559   0.858   8.343  1.00  0.00    -0.456 OA
ATOM     24  C   UNL     1      13.132   1.413  10.513  1.00  0.00     0.197 A 
ATOM     25  C   UNL     1      11.724   2.130   8.679  1.00  0.00     0.138 A 
ATOM     26  C   UNL     1      12.519   2.440   9.792  1.00  0.00     0.100 A 
ATOM     27  O   UNL     1      13.781   1.719  11.547  1.00  0.00    -0.289 OA
BRANCH  18  28
ATOM     28  O   UNL     1      13.742  -3.480  10.983  1.00  0.00    -0.502 OA
ATOM     29  H   UNL     1      13.257  -3.936  11.747  1.00  0.00     0.293 HD
ENDBRANCH  18  28
BRANCH  20  30
ATOM     30  O   UNL     1      14.546  -0.950  11.739  1.00  0.00    -0.504 OA
ATOM     31  H   UNL     1      15.543  -0.874  11.596  1.00  0.00     0.293 HD
ENDBRANCH  20  30
BRANCH  25  32
ATOM     32  C   UNL     1      11.023   3.174   7.874  1.00  0.00     0.017 A 
ATOM     33  C   UNL     1      11.699   3.991   6.934  1.00  0.00     0.012 A 
ATOM     34  C   UNL     1       9.633   3.349   8.035  1.00  0.00     0.012 A 
ATOM     35  C   UNL     1      11.004   4.959   6.205  1.00  0.00     0.001 A 
ATOM     36  C   UNL     1       8.944   4.318   7.299  1.00  0.00     0.001 A 
ATOM     37  C   UNL     1       9.628   5.121   6.384  1.00  0.00     0.000 A 
ENDBRANCH  25  32
ENDBRANCH   1  17
TORSDOF 9
ENDMDL
MODEL 6
REMARK VINA RESULT:    -5.304      3.299      4.455
REMARK INTER + INTRA:          -8.292
REMARK INTER:                  -7.200
REMARK INTRA:                  -1.092
REMARK UNBOUND:                -0.973
REMARK SMILES O=C([O-])[C@@H]1O[C@H](Oc2cc3oc(-c4ccccc4)cc(=O)c3c(O)c2O)[C@H](O)[C@H](O)[C@@H]1O
REMARK SMILES IDX 7 1 6 2 4 3 31 4 5 5 29 6 27 7 2 8 1 9 3 10 32 11 30 13
REMARK SMILES IDX 28 15 8 17 25 18 9 19 23 20 10 21 22 22 11 23 20 24 12 25
REMARK SMILES IDX 19 26 21 27 26 28 24 30 13 32 14 33 18 34 15 35 17 36 16 37
REMARK H PARENT 32 12 30 14 28 16 26 29 24 31
REMARK Flexibility Score: inf
ROOT
ATOM      1  O   UNL     1      15.564  -0.261  10.005  1.00  0.00    -0.458 OA
ENDROOT
BRANCH   1   2
ATOM      2  C   UNL     1      15.197   1.115  10.146  1.00  0.00     0.339 C 
ATOM      3  C   UNL     1      13.448   2.616   9.715  1.00  0.00     0.199 C 
ATOM      4  C   UNL     1      13.401   3.150  11.167  1.00  0.00     0.180 C 
ATOM      5  O   UNL     1      13.859   1.255   9.693  1.00  0.00    -0.328 OA
ATOM      6  C   UNL     1      14.787   2.997  11.799  1.00  0.00     0.181 C 
ATOM      7  C   UNL     1      15.320   1.562  11.633  1.00  0.00     0.214 C 
BRANCH   3   8
ATOM      8  C   UNL     1      12.117   2.733   9.016  1.00  0.00     0.073 C 
ATOM      9  O   UNL     1      12.086   2.871   7.765  1.00  0.00    -0.547 OA
ATOM     10  O   UNL     1      10.923   2.692   9.727  1.00  0.00    -0.547 OA
ENDBRANCH   3   8
BRANCH   4  11
ATOM     11  O   UNL     1      12.446   2.445  11.926  1.00  0.00    -0.387 OA
ATOM     12  H   UNL     1      12.939   1.854  12.556  1.00  0.00     0.211 HD
ENDBRANCH   4  11
BRANCH   6  13
ATOM     13  O   UNL     1      14.737   3.357  13.157  1.00  0.00    -0.387 OA
ATOM     14  H   UNL     1      15.607   3.091  13.551  1.00  0.00     0.211 HD
ENDBRANCH   6  13
BRANCH   7  15
ATOM     15  O   UNL     1      14.673   0.666  12.508  1.00  0.00    -0.384 OA
ATOM     16  H   UNL     1      15.053  -0.240  12.371  1.00  0.00     0.211 HD
ENDBRANCH   7  15
ENDBRANCH   1   2
BRANCH   1  17
ATOM     17  C   UNL     1      14.728  -1.309   9.578  1.00  0.00     0.172 A 
ATOM     18  C   UNL     1      14.963  -1.865   8.315  1.00  0.00     0.201 A 
ATOM     19  C   UNL     1      13.681  -1.810  10.367  1.00  0.00     0.098 A 
ATOM     20  C   UNL     1      14.151  -2.901   7.817  1.00  0.00     0.176 A 
ATOM     21  C   UNL     1      12.815  -2.782   9.861  1.00  0.00     0.146 A 
ATOM     22  C   UNL     1      13.014  -3.330   8.569  1.00  0.00     0.111 A 
ATOM     23  O   UNL     1      11.784  -3.163  10.610  1.00  0.00    -0.456 OA
ATOM     24  C   UNL     1      12.029  -4.235   8.104  1.00  0.00     0.197 A 
ATOM     25  C   UNL     1      10.876  -4.048  10.224  1.00  0.00     0.138 A 
ATOM     26  C   UNL     1      10.975  -4.606   8.940  1.00  0.00     0.100 A 
ATOM     27  O   UNL     1      12.051  -4.699   6.934  1.00  0.00    -0.289 OA
BRANCH  18  28
ATOM     28  O   UNL     1      16.040  -1.377   7.567  1.00  0.00    -0.502 OA
ATOM     29  H   UNL     1      16.967  -1.783   7.624  1.00  0.00     0.293 HD
ENDBRANCH  18  28
BRANCH  20  30
ATOM     30  O   UNL     1      14.523  -3.469   6.594  1.00  0.00    -0.504 OA
ATOM     31  H   UNL     1      14.268  -4.392   6.272  1.00  0.00     0.293 HD
ENDBRANCH  20  30
BRANCH  25  32
ATOM     32  C   UNL     1       9.766  -4.384  11.164  1.00  0.00     0.017 A 
ATOM     33  C   UNL     1       8.496  -4.823  10.716  1.00  0.00     0.012 A 
ATOM     34  C   UNL     1       9.987  -4.283  12.553  1.00  0.00     0.012 A 
ATOM     35  C   UNL     1       7.484  -5.124  11.631  1.00  0.00     0.001 A 
ATOM     36  C   UNL     1       8.970  -4.588  13.463  1.00  0.00     0.001 A 
ATOM     37  C   UNL     1       7.721  -5.010  13.003  1.00  0.00     0.000 A 
ENDBRANCH  25  32
ENDBRANCH   1  17
TORSDOF 9
ENDMDL
MODEL 7
REMARK VINA RESULT:    -5.178      4.055      7.196
REMARK INTER + INTRA:          -8.118
REMARK INTER:                  -8.101
REMARK INTRA:                  -0.017
REMARK UNBOUND:                -0.973
REMARK SMILES O=C([O-])[C@@H]1O[C@H](Oc2cc3oc(-c4ccccc4)cc(=O)c3c(O)c2O)[C@H](O)[C@H](O)[C@@H]1O
REMARK SMILES IDX 7 1 6 2 4 3 31 4 5 5 29 6 27 7 2 8 1 9 3 10 32 11 30 13
REMARK SMILES IDX 28 15 8 17 25 18 9 19 23 20 10 21 22 22 11 23 20 24 12 25
REMARK SMILES IDX 19 26 21 27 26 28 24 30 13 32 14 33 18 34 15 35 17 36 16 37
REMARK H PARENT 32 12 30 14 28 16 26 29 24 31
REMARK Flexibility Score: inf
ROOT
ATOM      1  O   UNL     1      14.718  -3.100  12.226  1.00  0.00    -0.458 OA
ENDROOT
BRANCH   1   2
ATOM      2  C   UNL     1      13.674  -3.995  12.625  1.00  0.00     0.339 C 
ATOM      3  C   UNL     1      12.025  -4.300  14.262  1.00  0.00     0.199 C 
ATOM      4  C   UNL     1      10.884  -4.496  13.234  1.00  0.00     0.180 C 
ATOM      5  O   UNL     1      13.020  -3.424  13.747  1.00  0.00    -0.328 OA
ATOM      6  C   UNL     1      11.474  -5.057  11.938  1.00  0.00     0.181 C 
ATOM      7  C   UNL     1      12.667  -4.211  11.456  1.00  0.00     0.214 C 
BRANCH   3   8
ATOM      8  C   UNL     1      11.527  -3.751  15.575  1.00  0.00     0.073 C 
ATOM      9  O   UNL     1      11.302  -2.516  15.684  1.00  0.00    -0.547 OA
ATOM     10  O   UNL     1      11.311  -4.580  16.669  1.00  0.00    -0.547 OA
ENDBRANCH   3   8
BRANCH   4  11
ATOM     11  O   UNL     1      10.230  -3.276  12.977  1.00  0.00    -0.387 OA
ATOM     12  H   UNL     1      10.709  -2.565  13.481  1.00  0.00     0.211 HD
ENDBRANCH   4  11
BRANCH   6  13
ATOM     13  O   UNL     1      10.479  -5.124  10.948  1.00  0.00    -0.387 OA
ATOM     14  H   UNL     1       9.630  -5.338  11.415  1.00  0.00     0.211 HD
ENDBRANCH   6  13
BRANCH   7  15
ATOM     15  O   UNL     1      12.242  -2.990  10.894  1.00  0.00    -0.384 OA
ATOM     16  H   UNL     1      13.042  -2.463  10.639  1.00  0.00     0.211 HD
ENDBRANCH   7  15
ENDBRANCH   1   2
BRANCH   1  17
ATOM     17  C   UNL     1      14.640  -1.696  12.174  1.00  0.00     0.172 A 
ATOM     18  C   UNL     1      15.344  -0.961  13.135  1.00  0.00     0.201 A 
ATOM     19  C   UNL     1      13.889  -1.016  11.202  1.00  0.00     0.098 A 
ATOM     20  C   UNL     1      15.292   0.445  13.154  1.00  0.00     0.176 A 
ATOM     21  C   UNL     1      13.759   0.374  11.251  1.00  0.00     0.146 A 
ATOM     22  C   UNL     1      14.435   1.132  12.239  1.00  0.00     0.111 A 
ATOM     23  O   UNL     1      12.966   0.967  10.362  1.00  0.00    -0.456 OA
ATOM     24  C   UNL     1      14.164   2.521  12.270  1.00  0.00     0.197 A 
ATOM     25  C   UNL     1      12.736   2.272  10.332  1.00  0.00     0.138 A 
ATOM     26  C   UNL     1      13.332   3.089  11.304  1.00  0.00     0.100 A 
ATOM     27  O   UNL     1      14.627   3.270  13.169  1.00  0.00    -0.289 OA
BRANCH  18  28
ATOM     28  O   UNL     1      16.120  -1.661  14.065  1.00  0.00    -0.502 OA
ATOM     29  H   UNL     1      15.714  -2.128  14.868  1.00  0.00     0.293 HD
ENDBRANCH  18  28
BRANCH  20  30
ATOM     30  O   UNL     1      16.111   1.099  14.080  1.00  0.00    -0.504 OA
ATOM     31  H   UNL     1      16.148   2.098  14.230  1.00  0.00     0.293 HD
ENDBRANCH  20  30
BRANCH  25  32
ATOM     32  C   UNL     1      11.821   2.807   9.281  1.00  0.00     0.017 A 
ATOM     33  C   UNL     1      12.204   2.915   7.921  1.00  0.00     0.012 A 
ATOM     34  C   UNL     1      10.517   3.206   9.642  1.00  0.00     0.012 A 
ATOM     35  C   UNL     1      11.316   3.425   6.971  1.00  0.00     0.001 A 
ATOM     36  C   UNL     1       9.634   3.713   8.684  1.00  0.00     0.001 A 
ATOM     37  C   UNL     1      10.032   3.821   7.351  1.00  0.00     0.000 A 
ENDBRANCH  25  32
ENDBRANCH   1  17
TORSDOF 9
ENDMDL
MODEL 8
REMARK VINA RESULT:    -5.040      2.951      9.092
REMARK INTER + INTRA:          -7.927
REMARK INTER:                  -6.928
REMARK INTRA:                  -0.999
REMARK UNBOUND:                -0.973
REMARK SMILES O=C([O-])[C@@H]1O[C@H](Oc2cc3oc(-c4ccccc4)cc(=O)c3c(O)c2O)[C@H](O)[C@H](O)[C@@H]1O
REMARK SMILES IDX 7 1 6 2 4 3 31 4 5 5 29 6 27 7 2 8 1 9 3 10 32 11 30 13
REMARK SMILES IDX 28 15 8 17 25 18 9 19 23 20 10 21 22 22 11 23 20 24 12 25
REMARK SMILES IDX 19 26 21 27 26 28 24 30 13 32 14 33 18 34 15 35 17 36 16 37
REMARK H PARENT 32 12 30 14 28 16 26 29 24 31
REMARK Flexibility Score: inf
ROOT
ATOM      1  O   UNL     1       6.233   1.014   8.508  1.00  0.00    -0.458 OA
ENDROOT
BRANCH   1   2
ATOM      2  C   UNL     1       5.931  -0.162   7.752  1.00  0.00     0.339 C 
ATOM      3  C   UNL     1       6.711  -2.328   7.309  1.00  0.00     0.199 C 
ATOM      4  C   UNL     1       5.356  -3.002   7.634  1.00  0.00     0.180 C 
ATOM      5  O   UNL     1       6.888  -1.153   8.090  1.00  0.00    -0.328 OA
ATOM      6  C   UNL     1       4.227  -2.004   7.367  1.00  0.00     0.181 C 
ATOM      7  C   UNL     1       4.490  -0.661   8.074  1.00  0.00     0.214 C 
BRANCH   3   8
ATOM      8  C   UNL     1       7.882  -3.249   7.543  1.00  0.00     0.073 C 
ATOM      9  O   UNL     1       9.040  -2.764   7.642  1.00  0.00    -0.547 OA
ATOM     10  O   UNL     1       7.708  -4.624   7.652  1.00  0.00    -0.547 OA
ENDBRANCH   3   8
BRANCH   4  11
ATOM     11  O   UNL     1       5.319  -3.422   8.978  1.00  0.00    -0.387 OA
ATOM     12  H   UNL     1       4.813  -4.278   9.012  1.00  0.00     0.211 HD
ENDBRANCH   4  11
BRANCH   6  13
ATOM     13  O   UNL     1       2.998  -2.550   7.776  1.00  0.00    -0.387 OA
ATOM     14  H   UNL     1       2.424  -1.785   8.041  1.00  0.00     0.211 HD
ENDBRANCH   6  13
BRANCH   7  15
ATOM     15  O   UNL     1       4.263  -0.754   9.462  1.00  0.00    -0.384 OA
ATOM     16  H   UNL     1       3.318  -0.515   9.644  1.00  0.00     0.211 HD
ENDBRANCH   7  15
ENDBRANCH   1   2
BRANCH   1  17
ATOM     17  C   UNL     1       7.335   1.869   8.319  1.00  0.00     0.172 A 
ATOM     18  C   UNL     1       7.132   3.055   7.605  1.00  0.00     0.201 A 
ATOM     19  C   UNL     1       8.613   1.576   8.818  1.00  0.00     0.098 A 
ATOM     20  C   UNL     1       8.194   3.945   7.360  1.00  0.00     0.176 A 
ATOM     21  C   UNL     1       9.698   2.405   8.519  1.00  0.00     0.146 A 
ATOM     22  C   UNL     1       9.518   3.591   7.765  1.00  0.00     0.111 A 
ATOM     23  O   UNL     1      10.907   2.041   8.938  1.00  0.00    -0.456 OA
ATOM     24  C   UNL     1      10.689   4.313   7.427  1.00  0.00     0.197 A 
ATOM     25  C   UNL     1      12.014   2.724   8.686  1.00  0.00     0.138 A 
ATOM     26  C   UNL     1      11.930   3.888   7.907  1.00  0.00     0.100 A 
ATOM     27  O   UNL     1      10.656   5.320   6.674  1.00  0.00    -0.289 OA
BRANCH  18  28
ATOM     28  O   UNL     1       5.839   3.344   7.156  1.00  0.00    -0.502 OA
ATOM     29  H   UNL     1       5.663   3.953   6.365  1.00  0.00     0.293 HD
ENDBRANCH  18  28
BRANCH  20  30
ATOM     30  O   UNL     1       7.879   5.154   6.732  1.00  0.00    -0.504 OA
ATOM     31  H   UNL     1       7.043   5.339   6.197  1.00  0.00     0.293 HD
ENDBRANCH  20  30
BRANCH  25  32
ATOM     32  C   UNL     1      13.309   2.202   9.215  1.00  0.00     0.017 A 
ATOM     33  C   UNL     1      13.929   2.736  10.370  1.00  0.00     0.012 A 
ATOM     34  C   UNL     1      13.934   1.123   8.557  1.00  0.00     0.012 A 
ATOM     35  C   UNL     1      15.143   2.219  10.829  1.00  0.00     0.001 A 
ATOM     36  C   UNL     1      15.148   0.608   9.024  1.00  0.00     0.001 A 
ATOM     37  C   UNL     1      15.751   1.154  10.159  1.00  0.00     0.000 A 
ENDBRANCH  25  32
ENDBRANCH   1  17
TORSDOF 9
ENDMDL
