MODEL 1
REMARK VINA RESULT:    -4.047      0.000      0.000
REMARK INTER + INTRA:          -4.559
REMARK INTER:                  -4.520
REMARK INTRA:                  -0.039
REMARK UNBOUND:                -0.039
REMARK SMILES CCCC(=O)[O-]
REMARK SMILES IDX 3 1 4 2 5 3 6 4 2 5 1 6
REMARK H PARENT
REMARK Flexibility Score: inf
ROOT
ATOM      1  C   UNL     1     -16.220  33.386 -11.832  1.00  0.00     0.052 C 
ENDROOT
BRANCH   1   2
ATOM      2  C   UNL     1     -16.032  33.838 -10.419  1.00  0.00     0.041 C 
ATOM      3  O   UNL     1     -14.876  34.070  -9.977  1.00  0.00    -0.550 OA
ATOM      4  O   UNL     1     -17.129  33.957  -9.575  1.00  0.00    -0.550 OA
ENDBRANCH   1   2
BRANCH   1   5
ATOM      5  C   UNL     1     -17.685  33.019 -12.087  1.00  0.00     0.003 C 
ATOM      6  C   UNL     1     -18.368  34.061 -12.968  1.00  0.00     0.004 C 
ENDBRANCH   1   5
TORSDOF 2
ENDMDL
MODEL 2
REMARK VINA RESULT:    -4.016     12.208     12.823
REMARK INTER + INTRA:          -4.525
REMARK INTER:                  -4.515
REMARK INTRA:                  -0.010
REMARK UNBOUND:                -0.039
REMARK SMILES CCCC(=O)[O-]
REMARK SMILES IDX 3 1 4 2 5 3 6 4 2 5 1 6
REMARK H PARENT
REMARK Flexibility Score: inf
ROOT
ATOM      1  C   UNL     1     -21.982  24.943  -4.736  1.00  0.00     0.052 C 
ENDROOT
BRANCH   1   2
ATOM      2  C   UNL     1     -22.885  25.552  -3.711  1.00  0.00     0.041 C 
ATOM      3  O   UNL     1     -23.476  26.639  -3.951  1.00  0.00    -0.550 OA
ATOM      4  O   UNL     1     -23.038  24.945  -2.471  1.00  0.00    -0.550 OA
ENDBRANCH   1   2
BRANCH   1   5
ATOM      5  C   UNL     1     -21.108  23.858  -4.103  1.00  0.00     0.003 C 
ATOM      6  C   UNL     1     -20.063  23.348  -5.090  1.00  0.00     0.004 C 
ENDBRANCH   1   5
TORSDOF 2
ENDMDL
MODEL 3
REMARK VINA RESULT:    -3.986      1.230      1.512
REMARK INTER + INTRA:          -4.490
REMARK INTER:                  -4.455
REMARK INTRA:                  -0.035
REMARK UNBOUND:                -0.039
REMARK SMILES CCCC(=O)[O-]
REMARK SMILES IDX 3 1 4 2 5 3 6 4 2 5 1 6
REMARK H PARENT
REMARK Flexibility Score: inf
ROOT
ATOM      1  C   UNL     1     -17.200  32.990 -11.350  1.00  0.00     0.052 C 
ENDROOT
BRANCH   1   2
ATOM      2  C   UNL     1     -15.822  33.571 -11.321  1.00  0.00     0.041 C 
ATOM      3  O   UNL     1     -15.148  33.656 -12.382  1.00  0.00    -0.550 OA
ATOM      4  O   UNL     1     -15.263  33.977 -10.116  1.00  0.00    -0.550 OA
ENDBRANCH   1   2
BRANCH   1   5
ATOM      5  C   UNL     1     -18.229  34.069 -11.696  1.00  0.00     0.003 C 
ATOM      6  C   UNL     1     -18.573  34.044 -13.183  1.00  0.00     0.004 C 
ENDBRANCH   1   5
TORSDOF 2
ENDMDL
MODEL 4
REMARK VINA RESULT:    -3.983      1.248      1.651
REMARK INTER + INTRA:          -4.487
REMARK INTER:                  -4.448
REMARK INTRA:                  -0.039
REMARK UNBOUND:                -0.039
REMARK SMILES CCCC(=O)[O-]
REMARK SMILES IDX 3 1 4 2 5 3 6 4 2 5 1 6
REMARK H PARENT
REMARK Flexibility Score: inf
ROOT
ATOM      1  C   UNL     1     -17.256  33.014 -11.302  1.00  0.00     0.052 C 
ENDROOT
BRANCH   1   2
ATOM      2  C   UNL     1     -15.883  33.602 -11.233  1.00  0.00     0.041 C 
ATOM      3  O   UNL     1     -15.450  34.075 -10.149  1.00  0.00    -0.550 OA
ATOM      4  O   UNL     1     -15.098  33.671 -12.377  1.00  0.00    -0.550 OA
ENDBRANCH   1   2
BRANCH   1   5
ATOM      5  C   UNL     1     -18.277  34.082 -11.703  1.00  0.00     0.003 C 
ATOM      6  C   UNL     1     -18.531  34.063 -13.207  1.00  0.00     0.004 C 
ENDBRANCH   1   5
TORSDOF 2
ENDMDL
MODEL 5
REMARK VINA RESULT:    -3.925      1.826      3.216
REMARK INTER + INTRA:          -4.423
REMARK INTER:                  -4.410
REMARK INTRA:                  -0.014
REMARK UNBOUND:                -0.039
REMARK SMILES CCCC(=O)[O-]
REMARK SMILES IDX 3 1 4 2 5 3 6 4 2 5 1 6
REMARK H PARENT
REMARK Flexibility Score: inf
ROOT
ATOM      1  C   UNL     1     -15.568  33.634 -11.149  1.00  0.00     0.052 C 
ENDROOT
BRANCH   1   2
ATOM      2  C   UNL     1     -17.037  33.391 -11.297  1.00  0.00     0.041 C 
ATOM      3  O   UNL     1     -17.452  32.422 -11.986  1.00  0.00    -0.550 OA
ATOM      4  O   UNL     1     -17.948  34.262 -10.713  1.00  0.00    -0.550 OA
ENDBRANCH   1   2
BRANCH   1   5
ATOM      5  C   UNL     1     -15.237  34.053  -9.713  1.00  0.00     0.003 C 
ATOM      6  C   UNL     1     -13.966  34.895  -9.666  1.00  0.00     0.004 C 
ENDBRANCH   1   5
TORSDOF 2
ENDMDL
MODEL 6
REMARK VINA RESULT:    -3.912     11.445     12.086
REMARK INTER + INTRA:          -4.408
REMARK INTER:                  -4.374
REMARK INTRA:                  -0.034
REMARK UNBOUND:                -0.039
REMARK SMILES CCCC(=O)[O-]
REMARK SMILES IDX 3 1 4 2 5 3 6 4 2 5 1 6
REMARK H PARENT
REMARK Flexibility Score: inf
ROOT
ATOM      1  C   UNL     1     -22.329  26.156  -5.070  1.00  0.00     0.052 C 
ENDROOT
BRANCH   1   2
ATOM      2  C   UNL     1     -21.785  25.228  -6.109  1.00  0.00     0.041 C 
ATOM      3  O   UNL     1     -22.234  25.261  -7.286  1.00  0.00    -0.550 OA
ATOM      4  O   UNL     1     -20.816  24.292  -5.768  1.00  0.00    -0.550 OA
ENDBRANCH   1   2
BRANCH   1   5
ATOM      5  C   UNL     1     -23.310  25.418  -4.155  1.00  0.00     0.003 C 
ATOM      6  C   UNL     1     -22.646  25.024  -2.839  1.00  0.00     0.004 C 
ENDBRANCH   1   5
TORSDOF 2
ENDMDL
MODEL 7
REMARK VINA RESULT:    -3.866     11.955     12.451
REMARK INTER + INTRA:          -4.356
REMARK INTER:                  -4.346
REMARK INTRA:                  -0.011
REMARK UNBOUND:                -0.039
REMARK SMILES CCCC(=O)[O-]
REMARK SMILES IDX 3 1 4 2 5 3 6 4 2 5 1 6
REMARK H PARENT
REMARK Flexibility Score: inf
ROOT
ATOM      1  C   UNL     1     -21.823  24.631  -3.919  1.00  0.00     0.052 C 
ENDROOT
BRANCH   1   2
ATOM      2  C   UNL     1     -20.889  24.056  -4.936  1.00  0.00     0.041 C 
ATOM      3  O   UNL     1     -20.127  23.101  -4.628  1.00  0.00    -0.550 OA
ATOM      4  O   UNL     1     -20.827  24.603  -6.211  1.00  0.00    -0.550 OA
ENDBRANCH   1   2
BRANCH   1   5
ATOM      5  C   UNL     1     -22.762  25.650  -4.570  1.00  0.00     0.003 C 
ATOM      6  C   UNL     1     -24.019  25.854  -3.731  1.00  0.00     0.004 C 
ENDBRANCH   1   5
TORSDOF 2
ENDMDL
MODEL 8
REMARK VINA RESULT:    -3.353     12.010     12.583
REMARK INTER + INTRA:          -3.784
REMARK INTER:                  -3.773
REMARK INTRA:                  -0.011
REMARK UNBOUND:                -0.039
REMARK SMILES CCCC(=O)[O-]
REMARK SMILES IDX 3 1 4 2 5 3 6 4 2 5 1 6
REMARK H PARENT
REMARK Flexibility Score: inf
ROOT
ATOM      1  C   UNL     1     -22.376  25.235  -4.627  1.00  0.00     0.052 C 
ENDROOT
BRANCH   1   2
ATOM      2  C   UNL     1     -22.199  24.497  -3.339  1.00  0.00     0.041 C 
ATOM      3  O   UNL     1     -22.820  24.865  -2.307  1.00  0.00    -0.550 OA
ATOM      4  O   UNL     1     -21.312  23.430  -3.265  1.00  0.00    -0.550 OA
ENDBRANCH   1   2
BRANCH   1   5
ATOM      5  C   UNL     1     -21.316  24.800  -5.644  1.00  0.00     0.003 C 
ATOM      6  C   UNL     1     -21.612  25.374  -7.026  1.00  0.00     0.004 C 
ENDBRANCH   1   5
TORSDOF 2
ENDMDL
MODEL 9
REMARK VINA RESULT:    -3.313     15.020     16.340
REMARK INTER + INTRA:          -3.739
REMARK INTER:                  -3.701
REMARK INTRA:                  -0.039
REMARK UNBOUND:                -0.039
REMARK SMILES CCCC(=O)[O-]
REMARK SMILES IDX 3 1 4 2 5 3 6 4 2 5 1 6
REMARK H PARENT
REMARK Flexibility Score: inf
ROOT
ATOM      1  C   UNL     1      -6.432  34.458   1.595  1.00  0.00     0.052 C 
ENDROOT
BRANCH   1   2
ATOM      2  C   UNL     1      -7.527  33.614   1.024  1.00  0.00     0.041 C 
ATOM      3  O   UNL     1      -8.406  34.131   0.283  1.00  0.00    -0.550 OA
ATOM      4  O   UNL     1      -7.607  32.266   1.349  1.00  0.00    -0.550 OA
ENDBRANCH   1   2
BRANCH   1   5
ATOM      5  C   UNL     1      -5.072  34.001   1.061  1.00  0.00     0.003 C 
ATOM      6  C   UNL     1      -4.253  33.320   2.154  1.00  0.00     0.004 C 
ENDBRANCH   1   5
TORSDOF 2
ENDMDL
