MODEL 1
REMARK VINA RESULT:    -4.198      0.000      0.000
REMARK INTER + INTRA:          -4.700
REMARK INTER:                  -4.444
REMARK INTRA:                  -0.256
REMARK UNBOUND:                -0.256
REMARK SMILES CC1=CC[C@H]2[C@@H]3[C@@H](C(C)C)CC[C@@]2(C)[C@H]13
REMARK SMILES IDX 1 1 2 2 3 3 4 4 5 5 6 6 15 7 13 8 12 9 11 10 7 11 14 12 8 13
REMARK SMILES IDX 9 14 10 15
REMARK H PARENT
REMARK Flexibility Score: inf
ROOT
ATOM      1  C   UNL     1     141.205 137.705 124.956  1.00  0.00     0.039 C 
ATOM      2  C   UNL     1     140.004 136.831 124.748  1.00  0.00    -0.073 C 
ATOM      3  C   UNL     1     139.780 135.743 125.530  1.00  0.00    -0.027 C 
ATOM      4  C   UNL     1     138.547 134.875 125.256  1.00  0.00     0.031 C 
ATOM      5  C   UNL     1     137.713 135.471 124.075  1.00  0.00     0.003 C 
ATOM      6  C   UNL     1     137.576 136.992 124.322  1.00  0.00     0.004 C 
ATOM      7  C   UNL     1     138.969 137.133 123.661  1.00  0.00     0.024 C 
ATOM      8  C   UNL     1     138.619 135.841 122.878  1.00  0.00    -0.022 C 
ATOM      9  C   UNL     1     137.715 136.160 121.652  1.00  0.00     0.008 C 
ATOM     10  C   UNL     1     136.764 137.355 121.914  1.00  0.00     0.005 C 
ATOM     11  C   UNL     1     136.439 137.582 123.428  1.00  0.00    -0.005 C 
ATOM     12  C   UNL     1     139.760 134.875 122.482  1.00  0.00     0.012 C 
ENDROOT
BRANCH  11  13
ATOM     13  C   UNL     1     136.157 139.089 123.729  1.00  0.00    -0.014 C 
ATOM     14  C   UNL     1     136.020 139.371 125.238  1.00  0.00     0.007 C 
ATOM     15  C   UNL     1     134.876 139.570 123.021  1.00  0.00     0.007 C 
ENDBRANCH  11  13
TORSDOF 1
ENDMDL
MODEL 2
REMARK VINA RESULT:    -3.249     13.393     15.993
REMARK INTER + INTRA:          -3.695
REMARK INTER:                  -3.300
REMARK INTRA:                  -0.395
REMARK UNBOUND:                -0.256
REMARK SMILES CC1=CC[C@H]2[C@@H]3[C@@H](C(C)C)CC[C@@]2(C)[C@H]13
REMARK SMILES IDX 1 1 2 2 3 3 4 4 5 5 6 6 15 7 13 8 12 9 11 10 7 11 14 12 8 13
REMARK SMILES IDX 9 14 10 15
REMARK H PARENT
REMARK Flexibility Score: inf
ROOT
ATOM      1  C   UNL     1     138.251 149.762 124.500  1.00  0.00     0.039 C 
ATOM      2  C   UNL     1     137.074 150.687 124.577  1.00  0.00    -0.073 C 
ATOM      3  C   UNL     1     136.063 150.470 125.458  1.00  0.00    -0.027 C 
ATOM      4  C   UNL     1     134.875 151.439 125.477  1.00  0.00     0.031 C 
ATOM      5  C   UNL     1     135.090 152.584 124.433  1.00  0.00     0.003 C 
ATOM      6  C   UNL     1     136.539 153.099 124.598  1.00  0.00     0.004 C 
ATOM      7  C   UNL     1     136.965 151.926 123.683  1.00  0.00     0.024 C 
ATOM      8  C   UNL     1     135.545 152.020 123.066  1.00  0.00    -0.022 C 
ATOM      9  C   UNL     1     135.471 153.161 122.011  1.00  0.00     0.008 C 
ATOM     10  C   UNL     1     136.395 154.354 122.363  1.00  0.00     0.005 C 
ATOM     11  C   UNL     1     136.701 154.484 123.893  1.00  0.00    -0.005 C 
ATOM     12  C   UNL     1     134.875 150.733 122.532  1.00  0.00     0.012 C 
ENDROOT
BRANCH  11  13
ATOM     13  C   UNL     1     138.105 155.124 124.139  1.00  0.00    -0.014 C 
ATOM     14  C   UNL     1     138.984 155.115 122.873  1.00  0.00     0.007 C 
ATOM     15  C   UNL     1     138.861 154.393 125.266  1.00  0.00     0.007 C 
ENDBRANCH  11  13
TORSDOF 1
ENDMDL
MODEL 3
REMARK VINA RESULT:    -1.636      1.126      4.454
REMARK INTER + INTRA:          -1.988
REMARK INTER:                  -1.766
REMARK INTRA:                  -0.222
REMARK UNBOUND:                -0.256
REMARK SMILES CC1=CC[C@H]2[C@@H]3[C@@H](C(C)C)CC[C@@]2(C)[C@H]13
REMARK SMILES IDX 1 1 2 2 3 3 4 4 5 5 6 6 15 7 13 8 12 9 11 10 7 11 14 12 8 13
REMARK SMILES IDX 9 14 10 15
REMARK H PARENT
REMARK Flexibility Score: inf
ROOT
ATOM      1  C   UNL     1     136.000 139.840 124.650  1.00  0.00     0.039 C 
ATOM      2  C   UNL     1     136.573 138.762 123.780  1.00  0.00    -0.073 C 
ATOM      3  C   UNL     1     136.733 138.945 122.444  1.00  0.00    -0.027 C 
ATOM      4  C   UNL     1     137.304 137.798 121.602  1.00  0.00     0.031 C 
ATOM      5  C   UNL     1     137.647 136.573 122.512  1.00  0.00     0.003 C 
ATOM      6  C   UNL     1     138.408 137.108 123.747  1.00  0.00     0.004 C 
ATOM      7  C   UNL     1     137.019 137.415 124.358  1.00  0.00     0.024 C 
ATOM      8  C   UNL     1     136.486 136.252 123.482  1.00  0.00    -0.022 C 
ATOM      9  C   UNL     1     136.768 134.875 124.152  1.00  0.00     0.008 C 
ATOM     10  C   UNL     1     138.084 134.875 124.970  1.00  0.00     0.005 C 
ATOM     11  C   UNL     1     139.129 135.935 124.484  1.00  0.00    -0.005 C 
ATOM     12  C   UNL     1     135.034 136.318 122.953  1.00  0.00     0.012 C 
ENDROOT
BRANCH  11  13
ATOM     13  C   UNL     1     140.028 136.427 125.664  1.00  0.00    -0.014 C 
ATOM     14  C   UNL     1     141.310 137.127 125.173  1.00  0.00     0.007 C 
ATOM     15  C   UNL     1     140.429 135.258 126.585  1.00  0.00     0.007 C 
ENDBRANCH  11  13
TORSDOF 1
ENDMDL
