MODEL 1
REMARK VINA RESULT:    -3.742      0.000      0.000
REMARK INTER + INTRA:          -9.710
REMARK INTER:                  -7.242
REMARK INTRA:                  -2.468
REMARK UNBOUND:                -2.468
REMARK SMILES CCCCCCCCCCCCCCCCCC(=O)[O-]
REMARK SMILES IDX 10 1 11 2 12 3 13 4 14 5 15 6 16 7 17 8 18 9 19 10 20 11
REMARK SMILES IDX 9 12 8 13 7 14 6 15 5 16 4 17 3 18 2 19 1 20
REMARK H PARENT
REMARK Flexibility Score: inf
ROOT
ATOM      1  C   UNL     1      -5.607  -3.108   7.976  1.00  0.00     0.000 C 
ENDROOT
BRANCH   1   2
ATOM      2  C   UNL     1      -4.425  -2.940   7.004  1.00  0.00     0.000 C 
BRANCH   2   3
ATOM      3  C   UNL     1      -3.376  -4.052   7.152  1.00  0.00     0.000 C 
BRANCH   3   4
ATOM      4  C   UNL     1      -1.938  -3.532   7.008  1.00  0.00     0.000 C 
BRANCH   4   5
ATOM      5  C   UNL     1      -1.856  -2.435   5.935  1.00  0.00     0.000 C 
BRANCH   5   6
ATOM      6  C   UNL     1      -0.421  -1.936   5.707  1.00  0.00     0.000 C 
BRANCH   6   7
ATOM      7  C   UNL     1      -0.076  -1.785   4.218  1.00  0.00     0.006 C 
BRANCH   7   8
ATOM      8  C   UNL     1      -1.314  -1.392   3.406  1.00  0.00     0.053 C 
BRANCH   8   9
ATOM      9  C   UNL     1      -1.207  -1.904   2.004  1.00  0.00     0.041 C 
ATOM     10  O   UNL     1      -2.166  -1.759   1.202  1.00  0.00    -0.550 OA
ATOM     11  O   UNL     1      -0.028  -2.495   1.568  1.00  0.00    -0.550 OA
ENDBRANCH   8   9
ENDBRANCH   7   8
ENDBRANCH   6   7
ENDBRANCH   5   6
ENDBRANCH   4   5
ENDBRANCH   3   4
ENDBRANCH   2   3
ENDBRANCH   1   2
BRANCH   1  12
ATOM     12  C   UNL     1      -5.370  -4.226   9.003  1.00  0.00     0.000 C 
BRANCH  12  13
ATOM     13  C   UNL     1      -5.983  -3.904  10.378  1.00  0.00    -0.000 C 
BRANCH  13  14
ATOM     14  C   UNL     1      -6.256  -2.404  10.565  1.00  0.00    -0.000 C 
BRANCH  14  15
ATOM     15  C   UNL     1      -5.543  -1.824  11.799  1.00  0.00    -0.000 C 
BRANCH  15  16
ATOM     16  C   UNL     1      -4.085  -2.299  11.914  1.00  0.00    -0.000 C 
BRANCH  16  17
ATOM     17  C   UNL     1      -3.082  -1.257  11.390  1.00  0.00    -0.000 C 
BRANCH  17  18
ATOM     18  C   UNL     1      -2.491  -1.633  10.020  1.00  0.00    -0.000 C 
BRANCH  18  19
ATOM     19  C   UNL     1      -2.422  -0.475   9.009  1.00  0.00    -0.003 C 
ATOM     20  C   UNL     1      -3.778   0.186   8.763  1.00  0.00     0.004 C 
ENDBRANCH  18  19
ENDBRANCH  17  18
ENDBRANCH  16  17
ENDBRANCH  15  16
ENDBRANCH  14  15
ENDBRANCH  13  14
ENDBRANCH  12  13
ENDBRANCH   1  12
TORSDOF 16
ENDMDL
MODEL 2
REMARK VINA RESULT:    -3.719      3.194      5.556
REMARK INTER + INTRA:          -9.666
REMARK INTER:                  -6.948
REMARK INTRA:                  -2.719
REMARK UNBOUND:                -2.468
REMARK SMILES CCCCCCCCCCCCCCCCCC(=O)[O-]
REMARK SMILES IDX 10 1 11 2 12 3 13 4 14 5 15 6 16 7 17 8 18 9 19 10 20 11
REMARK SMILES IDX 9 12 8 13 7 14 6 15 5 16 4 17 3 18 2 19 1 20
REMARK H PARENT
REMARK Flexibility Score: inf
ROOT
ATOM      1  C   UNL     1      -6.460  -3.086   9.373  1.00  0.00     0.000 C 
ENDROOT
BRANCH   1   2
ATOM      2  C   UNL     1      -5.765  -3.537  10.670  1.00  0.00     0.000 C 
BRANCH   2   3
ATOM      3  C   UNL     1      -5.351  -2.356  11.561  1.00  0.00     0.000 C 
BRANCH   3   4
ATOM      4  C   UNL     1      -3.846  -2.343  11.867  1.00  0.00     0.000 C 
BRANCH   4   5
ATOM      5  C   UNL     1      -3.184  -1.075  11.307  1.00  0.00     0.000 C 
BRANCH   5   6
ATOM      6  C   UNL     1      -2.455  -1.324   9.978  1.00  0.00     0.000 C 
BRANCH   6   7
ATOM      7  C   UNL     1      -2.664  -0.187   8.966  1.00  0.00     0.006 C 
BRANCH   7   8
ATOM      8  C   UNL     1      -1.332   0.479   8.609  1.00  0.00     0.053 C 
BRANCH   8   9
ATOM      9  C   UNL     1      -1.254   1.849   9.206  1.00  0.00     0.041 C 
ATOM     10  O   UNL     1      -2.241   2.328   9.823  1.00  0.00    -0.550 OA
ATOM     11  O   UNL     1      -0.073   2.576   9.125  1.00  0.00    -0.550 OA
ENDBRANCH   8   9
ENDBRANCH   7   8
ENDBRANCH   6   7
ENDBRANCH   5   6
ENDBRANCH   4   5
ENDBRANCH   3   4
ENDBRANCH   2   3
ENDBRANCH   1   2
BRANCH   1  12
ATOM     12  C   UNL     1      -5.467  -2.556   8.327  1.00  0.00     0.000 C 
BRANCH  12  13
ATOM     13  C   UNL     1      -5.344  -3.486   7.107  1.00  0.00    -0.000 C 
BRANCH  13  14
ATOM     14  C   UNL     1      -4.216  -4.518   7.264  1.00  0.00    -0.000 C 
BRANCH  14  15
ATOM     15  C   UNL     1      -3.002  -4.204   6.371  1.00  0.00    -0.000 C 
BRANCH  15  16
ATOM     16  C   UNL     1      -1.872  -3.502   7.141  1.00  0.00    -0.000 C 
BRANCH  16  17
ATOM     17  C   UNL     1      -1.161  -2.430   6.296  1.00  0.00    -0.000 C 
BRANCH  17  18
ATOM     18  C   UNL     1      -1.992  -1.978   5.082  1.00  0.00    -0.000 C 
BRANCH  18  19
ATOM     19  C   UNL     1      -2.460  -0.513   5.131  1.00  0.00    -0.003 C 
ATOM     20  C   UNL     1      -3.944  -0.370   5.464  1.00  0.00     0.004 C 
ENDBRANCH  18  19
ENDBRANCH  17  18
ENDBRANCH  16  17
ENDBRANCH  15  16
ENDBRANCH  14  15
ENDBRANCH  13  14
ENDBRANCH  12  13
ENDBRANCH   1  12
TORSDOF 16
ENDMDL
MODEL 3
REMARK VINA RESULT:    -3.680      1.580      2.137
REMARK INTER + INTRA:          -9.591
REMARK INTER:                  -7.031
REMARK INTRA:                  -2.559
REMARK UNBOUND:                -2.468
REMARK SMILES CCCCCCCCCCCCCCCCCC(=O)[O-]
REMARK SMILES IDX 10 1 11 2 12 3 13 4 14 5 15 6 16 7 17 8 18 9 19 10 20 11
REMARK SMILES IDX 9 12 8 13 7 14 6 15 5 16 4 17 3 18 2 19 1 20
REMARK H PARENT
REMARK Flexibility Score: inf
ROOT
ATOM      1  C   UNL     1      -5.983  -2.852   8.493  1.00  0.00     0.000 C 
ENDROOT
BRANCH   1   2
ATOM      2  C   UNL     1      -5.165  -3.114   7.216  1.00  0.00     0.000 C 
BRANCH   2   3
ATOM      3  C   UNL     1      -4.424  -4.459   7.255  1.00  0.00     0.000 C 
BRANCH   3   4
ATOM      4  C   UNL     1      -2.909  -4.307   7.055  1.00  0.00     0.000 C 
BRANCH   4   5
ATOM      5  C   UNL     1      -2.574  -2.951   6.416  1.00  0.00     0.000 C 
BRANCH   5   6
ATOM      6  C   UNL     1      -1.087  -2.585   6.549  1.00  0.00     0.000 C 
BRANCH   6   7
ATOM      7  C   UNL     1      -0.511  -1.974   5.263  1.00  0.00     0.006 C 
BRANCH   7   8
ATOM      8  C   UNL     1      -1.591  -1.847   4.185  1.00  0.00     0.053 C 
BRANCH   8   9
ATOM      9  C   UNL     1      -1.795  -0.412   3.812  1.00  0.00     0.041 C 
ATOM     10  O   UNL     1      -1.371   0.023   2.710  1.00  0.00    -0.550 OA
ATOM     11  O   UNL     1      -2.499   0.433   4.661  1.00  0.00    -0.550 OA
ENDBRANCH   8   9
ENDBRANCH   7   8
ENDBRANCH   6   7
ENDBRANCH   5   6
ENDBRANCH   4   5
ENDBRANCH   3   4
ENDBRANCH   2   3
ENDBRANCH   1   2
BRANCH   1  12
ATOM     12  C   UNL     1      -5.684  -3.870   9.603  1.00  0.00     0.000 C 
BRANCH  12  13
ATOM     13  C   UNL     1      -5.584  -3.217  10.993  1.00  0.00    -0.000 C 
BRANCH  13  14
ATOM     14  C   UNL     1      -4.822  -1.883  10.963  1.00  0.00    -0.000 C 
BRANCH  14  15
ATOM     15  C   UNL     1      -3.309  -2.063  11.179  1.00  0.00    -0.000 C 
BRANCH  15  16
ATOM     16  C   UNL     1      -2.481  -1.556   9.988  1.00  0.00    -0.000 C 
BRANCH  16  17
ATOM     17  C   UNL     1      -3.205  -0.456   9.192  1.00  0.00    -0.000 C 
BRANCH  17  18
ATOM     18  C   UNL     1      -2.249   0.378   8.320  1.00  0.00    -0.000 C 
BRANCH  18  19
ATOM     19  C   UNL     1      -0.946   0.804   9.020  1.00  0.00    -0.003 C 
ATOM     20  C   UNL     1      -0.747   2.319   9.041  1.00  0.00     0.004 C 
ENDBRANCH  18  19
ENDBRANCH  17  18
ENDBRANCH  16  17
ENDBRANCH  15  16
ENDBRANCH  14  15
ENDBRANCH  13  14
ENDBRANCH  12  13
ENDBRANCH   1  12
TORSDOF 16
ENDMDL
MODEL 4
REMARK VINA RESULT:    -3.662      2.566      5.661
REMARK INTER + INTRA:          -9.556
REMARK INTER:                  -7.074
REMARK INTRA:                  -2.482
REMARK UNBOUND:                -2.468
REMARK SMILES CCCCCCCCCCCCCCCCCC(=O)[O-]
REMARK SMILES IDX 10 1 11 2 12 3 13 4 14 5 15 6 16 7 17 8 18 9 19 10 20 11
REMARK SMILES IDX 9 12 8 13 7 14 6 15 5 16 4 17 3 18 2 19 1 20
REMARK H PARENT
REMARK Flexibility Score: inf
ROOT
ATOM      1  C   UNL     1      -6.221  -2.933   8.831  1.00  0.00     0.000 C 
ENDROOT
BRANCH   1   2
ATOM      2  C   UNL     1      -6.008  -3.920   9.993  1.00  0.00     0.000 C 
BRANCH   2   3
ATOM      3  C   UNL     1      -5.382  -3.253  11.227  1.00  0.00     0.000 C 
BRANCH   3   4
ATOM      4  C   UNL     1      -5.741  -1.764  11.341  1.00  0.00     0.000 C 
BRANCH   4   5
ATOM      5  C   UNL     1      -4.479  -0.889  11.279  1.00  0.00     0.000 C 
BRANCH   5   6
ATOM      6  C   UNL     1      -3.188  -1.716  11.186  1.00  0.00     0.000 C 
BRANCH   6   7
ATOM      7  C   UNL     1      -2.440  -1.499   9.863  1.00  0.00     0.006 C 
BRANCH   7   8
ATOM      8  C   UNL     1      -3.128  -0.426   9.014  1.00  0.00     0.053 C 
BRANCH   8   9
ATOM      9  C   UNL     1      -2.119   0.524   8.449  1.00  0.00     0.041 C 
ATOM     10  O   UNL     1      -2.399   1.217   7.436  1.00  0.00    -0.550 OA
ATOM     11  O   UNL     1      -0.888   0.681   9.072  1.00  0.00    -0.550 OA
ENDBRANCH   8   9
ENDBRANCH   7   8
ENDBRANCH   6   7
ENDBRANCH   5   6
ENDBRANCH   4   5
ENDBRANCH   3   4
ENDBRANCH   2   3
ENDBRANCH   1   2
BRANCH   1  12
ATOM     12  C   UNL     1      -5.209  -3.136   7.693  1.00  0.00     0.000 C 
BRANCH  12  13
ATOM     13  C   UNL     1      -4.733  -4.595   7.579  1.00  0.00    -0.000 C 
BRANCH  13  14
ATOM     14  C   UNL     1      -3.332  -4.712   6.961  1.00  0.00    -0.000 C 
BRANCH  14  15
ATOM     15  C   UNL     1      -2.866  -3.399   6.306  1.00  0.00    -0.000 C 
BRANCH  15  16
ATOM     16  C   UNL     1      -1.434  -3.015   6.714  1.00  0.00    -0.000 C 
BRANCH  16  17
ATOM     17  C   UNL     1      -0.882  -1.838   5.891  1.00  0.00    -0.000 C 
BRANCH  17  18
ATOM     18  C   UNL     1      -1.882  -1.323   4.840  1.00  0.00    -0.000 C 
BRANCH  18  19
ATOM     19  C   UNL     1      -1.472  -1.581   3.380  1.00  0.00    -0.003 C 
ATOM     20  C   UNL     1      -0.217  -0.814   2.966  1.00  0.00     0.004 C 
ENDBRANCH  18  19
ENDBRANCH  17  18
ENDBRANCH  16  17
ENDBRANCH  15  16
ENDBRANCH  14  15
ENDBRANCH  13  14
ENDBRANCH  12  13
ENDBRANCH   1  12
TORSDOF 16
ENDMDL
MODEL 5
REMARK VINA RESULT:    -3.658      1.254      1.874
REMARK INTER + INTRA:          -9.547
REMARK INTER:                  -7.076
REMARK INTRA:                  -2.472
REMARK UNBOUND:                -2.468
REMARK SMILES CCCCCCCCCCCCCCCCCC(=O)[O-]
REMARK SMILES IDX 10 1 11 2 12 3 13 4 14 5 15 6 16 7 17 8 18 9 19 10 20 11
REMARK SMILES IDX 9 12 8 13 7 14 6 15 5 16 4 17 3 18 2 19 1 20
REMARK H PARENT
REMARK Flexibility Score: inf
ROOT
ATOM      1  C   UNL     1      -4.444  -4.260   7.293  1.00  0.00     0.000 C 
ENDROOT
BRANCH   1   2
ATOM      2  C   UNL     1      -3.073  -4.372   6.602  1.00  0.00     0.000 C 
BRANCH   2   3
ATOM      3  C   UNL     1      -2.004  -3.488   7.263  1.00  0.00     0.000 C 
BRANCH   3   4
ATOM      4  C   UNL     1      -1.339  -2.523   6.271  1.00  0.00     0.000 C 
BRANCH   4   5
ATOM      5  C   UNL     1      -1.597  -1.062   6.670  1.00  0.00     0.000 C 
BRANCH   5   6
ATOM      6  C   UNL     1      -2.539  -0.339   5.696  1.00  0.00     0.000 C 
BRANCH   6   7
ATOM      7  C   UNL     1      -2.547  -0.974   4.298  1.00  0.00     0.006 C 
BRANCH   7   8
ATOM      8  C   UNL     1      -1.848  -0.067   3.280  1.00  0.00     0.053 C 
BRANCH   8   9
ATOM      9  C   UNL     1      -0.617  -0.729   2.746  1.00  0.00     0.041 C 
ATOM     10  O   UNL     1       0.284  -1.120   3.532  1.00  0.00    -0.550 OA
ATOM     11  O   UNL     1      -0.489  -0.961   1.383  1.00  0.00    -0.550 OA
ENDBRANCH   8   9
ENDBRANCH   7   8
ENDBRANCH   6   7
ENDBRANCH   5   6
ENDBRANCH   4   5
ENDBRANCH   3   4
ENDBRANCH   2   3
ENDBRANCH   1   2
BRANCH   1  12
ATOM     12  C   UNL     1      -4.787  -2.815   7.689  1.00  0.00     0.000 C 
BRANCH  12  13
ATOM     13  C   UNL     1      -5.941  -2.739   8.704  1.00  0.00    -0.000 C 
BRANCH  13  14
ATOM     14  C   UNL     1      -5.860  -3.840   9.772  1.00  0.00    -0.000 C 
BRANCH  14  15
ATOM     15  C   UNL     1      -5.968  -3.283  11.203  1.00  0.00    -0.000 C 
BRANCH  15  16
ATOM     16  C   UNL     1      -5.196  -1.966  11.381  1.00  0.00    -0.000 C 
BRANCH  16  17
ATOM     17  C   UNL     1      -3.721  -2.194  11.756  1.00  0.00    -0.000 C 
BRANCH  17  18
ATOM     18  C   UNL     1      -2.747  -1.726  10.660  1.00  0.00    -0.000 C 
BRANCH  18  19
ATOM     19  C   UNL     1      -3.096  -0.367  10.027  1.00  0.00    -0.003 C 
ATOM     20  C   UNL     1      -1.894   0.572   9.926  1.00  0.00     0.004 C 
ENDBRANCH  18  19
ENDBRANCH  17  18
ENDBRANCH  16  17
ENDBRANCH  15  16
ENDBRANCH  14  15
ENDBRANCH  13  14
ENDBRANCH  12  13
ENDBRANCH   1  12
TORSDOF 16
ENDMDL
MODEL 6
REMARK VINA RESULT:    -3.658      3.228      5.524
REMARK INTER + INTRA:          -9.547
REMARK INTER:                  -7.459
REMARK INTRA:                  -2.088
REMARK UNBOUND:                -2.468
REMARK SMILES CCCCCCCCCCCCCCCCCC(=O)[O-]
REMARK SMILES IDX 10 1 11 2 12 3 13 4 14 5 15 6 16 7 17 8 18 9 19 10 20 11
REMARK SMILES IDX 9 12 8 13 7 14 6 15 5 16 4 17 3 18 2 19 1 20
REMARK H PARENT
REMARK Flexibility Score: inf
ROOT
ATOM      1  C   UNL     1      -6.190  -2.269  11.493  1.00  0.00     0.000 C 
ENDROOT
BRANCH   1   2
ATOM      2  C   UNL     1      -4.945  -1.418  11.799  1.00  0.00     0.000 C 
BRANCH   2   3
ATOM      3  C   UNL     1      -3.638  -2.215  11.668  1.00  0.00     0.000 C 
BRANCH   3   4
ATOM      4  C   UNL     1      -2.698  -1.639  10.599  1.00  0.00     0.000 C 
BRANCH   4   5
ATOM      5  C   UNL     1      -3.334  -0.424   9.907  1.00  0.00     0.000 C 
BRANCH   5   6
ATOM      6  C   UNL     1      -2.594  -0.018   8.623  1.00  0.00     0.000 C 
BRANCH   6   7
ATOM      7  C   UNL     1      -1.153   0.442   8.890  1.00  0.00     0.006 C 
BRANCH   7   8
ATOM      8  C   UNL     1      -1.131   1.656   9.824  1.00  0.00     0.053 C 
BRANCH   8   9
ATOM      9  C   UNL     1      -0.598   2.859   9.110  1.00  0.00     0.041 C 
ATOM     10  O   UNL     1      -1.212   3.327   8.116  1.00  0.00    -0.550 OA
ATOM     11  O   UNL     1       0.546   3.492   9.574  1.00  0.00    -0.550 OA
ENDBRANCH   8   9
ENDBRANCH   7   8
ENDBRANCH   6   7
ENDBRANCH   5   6
ENDBRANCH   4   5
ENDBRANCH   3   4
ENDBRANCH   2   3
ENDBRANCH   1   2
BRANCH   1  12
ATOM     12  C   UNL     1      -5.864  -3.504  10.639  1.00  0.00     0.000 C 
BRANCH  12  13
ATOM     13  C   UNL     1      -6.219  -3.307   9.155  1.00  0.00    -0.000 C 
BRANCH  13  14
ATOM     14  C   UNL     1      -4.979  -3.306   8.248  1.00  0.00    -0.000 C 
BRANCH  14  15
ATOM     15  C   UNL     1      -4.578  -4.721   7.795  1.00  0.00    -0.000 C 
BRANCH  15  16
ATOM     16  C   UNL     1      -3.461  -4.705   6.739  1.00  0.00    -0.000 C 
BRANCH  16  17
ATOM     17  C   UNL     1      -2.367  -3.669   7.052  1.00  0.00    -0.000 C 
BRANCH  17  18
ATOM     18  C   UNL     1      -2.127  -2.686   5.893  1.00  0.00    -0.000 C 
BRANCH  18  19
ATOM     19  C   UNL     1      -0.769  -1.963   5.934  1.00  0.00    -0.003 C 
ATOM     20  C   UNL     1      -0.109  -1.852   4.560  1.00  0.00     0.004 C 
ENDBRANCH  18  19
ENDBRANCH  17  18
ENDBRANCH  16  17
ENDBRANCH  15  16
ENDBRANCH  14  15
ENDBRANCH  13  14
ENDBRANCH  12  13
ENDBRANCH   1  12
TORSDOF 16
ENDMDL
MODEL 7
REMARK VINA RESULT:    -3.620      2.759      5.474
REMARK INTER + INTRA:          -9.475
REMARK INTER:                  -6.757
REMARK INTRA:                  -2.717
REMARK UNBOUND:                -2.468
REMARK SMILES CCCCCCCCCCCCCCCCCC(=O)[O-]
REMARK SMILES IDX 10 1 11 2 12 3 13 4 14 5 15 6 16 7 17 8 18 9 19 10 20 11
REMARK SMILES IDX 9 12 8 13 7 14 6 15 5 16 4 17 3 18 2 19 1 20
REMARK H PARENT
REMARK Flexibility Score: inf
ROOT
ATOM      1  C   UNL     1      -7.742  -2.658  12.619  1.00  0.00     0.000 C 
ENDROOT
BRANCH   1   2
ATOM      2  C   UNL     1      -7.374  -1.184  12.368  1.00  0.00     0.000 C 
BRANCH   2   3
ATOM      3  C   UNL     1      -5.936  -0.853  12.793  1.00  0.00     0.000 C 
BRANCH   3   4
ATOM      4  C   UNL     1      -4.957  -0.841  11.610  1.00  0.00     0.000 C 
BRANCH   4   5
ATOM      5  C   UNL     1      -3.916  -1.964  11.746  1.00  0.00     0.000 C 
BRANCH   5   6
ATOM      6  C   UNL     1      -2.716  -1.778  10.806  1.00  0.00     0.000 C 
BRANCH   6   7
ATOM      7  C   UNL     1      -2.846  -0.530   9.919  1.00  0.00     0.006 C 
BRANCH   7   8
ATOM      8  C   UNL     1      -1.497   0.179   9.771  1.00  0.00     0.053 C 
BRANCH   8   9
ATOM      9  C   UNL     1      -1.548   1.177   8.657  1.00  0.00     0.041 C 
ATOM     10  O   UNL     1      -0.878   2.240   8.728  1.00  0.00    -0.550 OA
ATOM     11  O   UNL     1      -2.295   0.909   7.518  1.00  0.00    -0.550 OA
ENDBRANCH   8   9
ENDBRANCH   7   8
ENDBRANCH   6   7
ENDBRANCH   5   6
ENDBRANCH   4   5
ENDBRANCH   3   4
ENDBRANCH   2   3
ENDBRANCH   1   2
BRANCH   1  12
ATOM     12  C   UNL     1      -8.353  -3.331  11.381  1.00  0.00     0.000 C 
BRANCH  12  13
ATOM     13  C   UNL     1      -7.442  -3.230  10.144  1.00  0.00    -0.000 C 
BRANCH  13  14
ATOM     14  C   UNL     1      -6.262  -4.212  10.200  1.00  0.00    -0.000 C 
BRANCH  14  15
ATOM     15  C   UNL     1      -5.299  -4.045   9.012  1.00  0.00    -0.000 C 
BRANCH  15  16
ATOM     16  C   UNL     1      -5.438  -2.675   8.330  1.00  0.00    -0.000 C 
BRANCH  16  17
ATOM     17  C   UNL     1      -4.439  -2.486   7.175  1.00  0.00    -0.000 C 
BRANCH  17  18
ATOM     18  C   UNL     1      -3.399  -3.617   7.095  1.00  0.00    -0.000 C 
BRANCH  18  19
ATOM     19  C   UNL     1      -1.947  -3.175   7.351  1.00  0.00    -0.003 C 
ATOM     20  C   UNL     1      -1.395  -2.269   6.251  1.00  0.00     0.004 C 
ENDBRANCH  18  19
ENDBRANCH  17  18
ENDBRANCH  16  17
ENDBRANCH  15  16
ENDBRANCH  14  15
ENDBRANCH  13  14
ENDBRANCH  12  13
ENDBRANCH   1  12
TORSDOF 16
ENDMDL
MODEL 8
REMARK VINA RESULT:    -3.536      3.021      4.908
REMARK INTER + INTRA:          -9.311
REMARK INTER:                  -7.127
REMARK INTRA:                  -2.184
REMARK UNBOUND:                -2.468
REMARK SMILES CCCCCCCCCCCCCCCCCC(=O)[O-]
REMARK SMILES IDX 10 1 11 2 12 3 13 4 14 5 15 6 16 7 17 8 18 9 19 10 20 11
REMARK SMILES IDX 9 12 8 13 7 14 6 15 5 16 4 17 3 18 2 19 1 20
REMARK H PARENT
REMARK Flexibility Score: inf
ROOT
ATOM      1  C   UNL     1      -6.006  -3.497  10.884  1.00  0.00     0.000 C 
ENDROOT
BRANCH   1   2
ATOM      2  C   UNL     1      -6.964  -3.122   9.738  1.00  0.00     0.000 C 
BRANCH   2   3
ATOM      3  C   UNL     1      -6.257  -3.053   8.376  1.00  0.00     0.000 C 
BRANCH   3   4
ATOM      4  C   UNL     1      -5.033  -3.977   8.297  1.00  0.00     0.000 C 
BRANCH   4   5
ATOM      5  C   UNL     1      -4.516  -4.080   6.854  1.00  0.00     0.000 C 
BRANCH   5   6
ATOM      6  C   UNL     1      -3.583  -5.283   6.643  1.00  0.00     0.000 C 
BRANCH   6   7
ATOM      7  C   UNL     1      -4.309  -6.628   6.789  1.00  0.00     0.006 C 
BRANCH   7   8
ATOM      8  C   UNL     1      -4.441  -7.329   5.433  1.00  0.00     0.053 C 
BRANCH   8   9
ATOM      9  C   UNL     1      -5.836  -7.198   4.907  1.00  0.00     0.041 C 
ATOM     10  O   UNL     1      -6.138  -6.240   4.148  1.00  0.00    -0.550 OA
ATOM     11  O   UNL     1      -6.788  -8.161   5.213  1.00  0.00    -0.550 OA
ENDBRANCH   8   9
ENDBRANCH   7   8
ENDBRANCH   6   7
ENDBRANCH   5   6
ENDBRANCH   4   5
ENDBRANCH   3   4
ENDBRANCH   2   3
ENDBRANCH   1   2
BRANCH   1  12
ATOM     12  C   UNL     1      -5.462  -2.265  11.624  1.00  0.00     0.000 C 
BRANCH  12  13
ATOM     13  C   UNL     1      -3.965  -2.390  11.958  1.00  0.00    -0.000 C 
BRANCH  13  14
ATOM     14  C   UNL     1      -3.073  -1.650  10.950  1.00  0.00    -0.000 C 
BRANCH  14  15
ATOM     15  C   UNL     1      -3.830  -0.545  10.193  1.00  0.00    -0.000 C 
BRANCH  15  16
ATOM     16  C   UNL     1      -3.572  -0.588   8.678  1.00  0.00    -0.000 C 
BRANCH  16  17
ATOM     17  C   UNL     1      -2.356  -1.456   8.311  1.00  0.00    -0.000 C 
BRANCH  17  18
ATOM     18  C   UNL     1      -1.618  -0.953   7.058  1.00  0.00    -0.000 C 
BRANCH  18  19
ATOM     19  C   UNL     1      -1.689  -1.899   5.846  1.00  0.00    -0.003 C 
ATOM     20  C   UNL     1      -0.438  -1.843   4.970  1.00  0.00     0.004 C 
ENDBRANCH  18  19
ENDBRANCH  17  18
ENDBRANCH  16  17
ENDBRANCH  15  16
ENDBRANCH  14  15
ENDBRANCH  13  14
ENDBRANCH  12  13
ENDBRANCH   1  12
TORSDOF 16
ENDMDL
MODEL 9
REMARK VINA RESULT:    -3.521      3.138      6.152
REMARK INTER + INTRA:          -9.282
REMARK INTER:                  -6.357
REMARK INTRA:                  -2.925
REMARK UNBOUND:                -2.468
REMARK SMILES CCCCCCCCCCCCCCCCCC(=O)[O-]
REMARK SMILES IDX 10 1 11 2 12 3 13 4 14 5 15 6 16 7 17 8 18 9 19 10 20 11
REMARK SMILES IDX 9 12 8 13 7 14 6 15 5 16 4 17 3 18 2 19 1 20
REMARK H PARENT
REMARK Flexibility Score: inf
ROOT
ATOM      1  C   UNL     1      -4.785  -2.861   7.515  1.00  0.00     0.000 C 
ENDROOT
BRANCH   1   2
ATOM      2  C   UNL     1      -5.987  -2.961   8.472  1.00  0.00     0.000 C 
BRANCH   2   3
ATOM      3  C   UNL     1      -5.749  -3.957   9.618  1.00  0.00     0.000 C 
BRANCH   3   4
ATOM      4  C   UNL     1      -6.031  -3.348  10.999  1.00  0.00     0.000 C 
BRANCH   4   5
ATOM      5  C   UNL     1      -5.271  -2.025  11.181  1.00  0.00     0.000 C 
BRANCH   5   6
ATOM      6  C   UNL     1      -3.875  -2.223  11.793  1.00  0.00     0.000 C 
BRANCH   6   7
ATOM      7  C   UNL     1      -2.744  -1.884  10.811  1.00  0.00     0.006 C 
BRANCH   7   8
ATOM      8  C   UNL     1      -3.097  -0.650   9.974  1.00  0.00     0.053 C 
BRANCH   8   9
ATOM      9  C   UNL     1      -1.895   0.223   9.794  1.00  0.00     0.041 C 
ATOM     10  O   UNL     1      -1.248   0.624  10.796  1.00  0.00    -0.550 OA
ATOM     11  O   UNL     1      -1.461   0.552   8.517  1.00  0.00    -0.550 OA
ENDBRANCH   8   9
ENDBRANCH   7   8
ENDBRANCH   6   7
ENDBRANCH   5   6
ENDBRANCH   4   5
ENDBRANCH   3   4
ENDBRANCH   2   3
ENDBRANCH   1   2
BRANCH   1  12
ATOM     12  C   UNL     1      -4.227  -4.238   7.126  1.00  0.00     0.000 C 
BRANCH  12  13
ATOM     13  C   UNL     1      -2.741  -4.182   6.727  1.00  0.00    -0.000 C 
BRANCH  13  14
ATOM     14  C   UNL     1      -2.016  -2.968   7.326  1.00  0.00    -0.000 C 
BRANCH  14  15
ATOM     15  C   UNL     1      -0.958  -2.383   6.374  1.00  0.00    -0.000 C 
BRANCH  15  16
ATOM     16  C   UNL     1      -1.578  -1.796   5.096  1.00  0.00    -0.000 C 
BRANCH  16  17
ATOM     17  C   UNL     1      -2.573  -0.659   5.391  1.00  0.00    -0.000 C 
BRANCH  17  18
ATOM     18  C   UNL     1      -3.861  -0.761   4.555  1.00  0.00    -0.000 C 
BRANCH  18  19
ATOM     19  C   UNL     1      -4.047  -2.100   3.820  1.00  0.00    -0.003 C 
ATOM     20  C   UNL     1      -5.481  -2.624   3.886  1.00  0.00     0.004 C 
ENDBRANCH  18  19
ENDBRANCH  17  18
ENDBRANCH  16  17
ENDBRANCH  15  16
ENDBRANCH  14  15
ENDBRANCH  13  14
ENDBRANCH  12  13
ENDBRANCH   1  12
TORSDOF 16
ENDMDL
