MODEL 1
REMARK VINA RESULT:    -2.883      0.000      0.000
REMARK INTER + INTRA:          -3.472
REMARK INTER:                  -3.388
REMARK INTRA:                  -0.084
REMARK UNBOUND:                -0.084
REMARK SMILES CCCCC(=O)[O-]
REMARK SMILES IDX 4 1 5 2 6 3 7 4 3 5 2 6 1 7
REMARK H PARENT
REMARK Flexibility Score: inf
ROOT
ATOM      1  C   UNL     1      16.317  18.935  -9.309  1.00  0.00     0.053 C 
ENDROOT
BRANCH   1   2
ATOM      2  C   UNL     1      14.858  19.199  -9.504  1.00  0.00     0.041 C 
ATOM      3  O   UNL     1      14.013  18.718  -8.704  1.00  0.00    -0.550 OA
ATOM      4  O   UNL     1      14.426  19.939 -10.598  1.00  0.00    -0.550 OA
ENDBRANCH   1   2
BRANCH   1   5
ATOM      5  C   UNL     1      16.736  17.666 -10.057  1.00  0.00     0.006 C 
BRANCH   5   6
ATOM      6  C   UNL     1      17.845  17.966 -11.072  1.00  0.00    -0.003 C 
ATOM      7  C   UNL     1      18.304  19.418 -10.975  1.00  0.00     0.004 C 
ENDBRANCH   5   6
ENDBRANCH   1   5
TORSDOF 3
ENDMDL
MODEL 2
REMARK VINA RESULT:    -2.874     13.068     13.696
REMARK INTER + INTRA:          -3.462
REMARK INTER:                  -3.434
REMARK INTRA:                  -0.027
REMARK UNBOUND:                -0.084
REMARK SMILES CCCCC(=O)[O-]
REMARK SMILES IDX 4 1 5 2 6 3 7 4 3 5 2 6 1 7
REMARK H PARENT
REMARK Flexibility Score: inf
ROOT
ATOM      1  C   UNL     1      14.155  32.162  -9.872  1.00  0.00     0.053 C 
ENDROOT
BRANCH   1   2
ATOM      2  C   UNL     1      12.754  31.659  -9.718  1.00  0.00     0.041 C 
ATOM      3  O   UNL     1      11.779  32.406  -9.993  1.00  0.00    -0.550 OA
ATOM      4  O   UNL     1      12.525  30.381  -9.225  1.00  0.00    -0.550 OA
ENDBRANCH   1   2
BRANCH   1   5
ATOM      5  C   UNL     1      14.833  32.287  -8.505  1.00  0.00     0.006 C 
BRANCH   5   6
ATOM      6  C   UNL     1      16.272  32.797  -8.649  1.00  0.00    -0.003 C 
ATOM      7  C   UNL     1      16.351  33.952  -9.641  1.00  0.00     0.004 C 
ENDBRANCH   5   6
ENDBRANCH   1   5
TORSDOF 3
ENDMDL
MODEL 3
REMARK VINA RESULT:    -2.806     14.327     14.846
REMARK INTER + INTRA:          -3.382
REMARK INTER:                  -3.347
REMARK INTRA:                  -0.035
REMARK UNBOUND:                -0.084
REMARK SMILES CCCCC(=O)[O-]
REMARK SMILES IDX 4 1 5 2 6 3 7 4 3 5 2 6 1 7
REMARK H PARENT
REMARK Flexibility Score: inf
ROOT
ATOM      1  C   UNL     1      28.000  19.006  -1.750  1.00  0.00     0.053 C 
ENDROOT
BRANCH   1   2
ATOM      2  C   UNL     1      28.180  19.892  -2.942  1.00  0.00     0.041 C 
ATOM      3  O   UNL     1      27.941  21.125  -2.858  1.00  0.00    -0.550 OA
ATOM      4  O   UNL     1      28.568  19.347  -4.160  1.00  0.00    -0.550 OA
ENDBRANCH   1   2
BRANCH   1   5
ATOM      5  C   UNL     1      28.971  17.824  -1.809  1.00  0.00     0.006 C 
BRANCH   5   6
ATOM      6  C   UNL     1      28.757  16.876  -0.623  1.00  0.00    -0.003 C 
ATOM      7  C   UNL     1      27.317  16.931  -0.125  1.00  0.00     0.004 C 
ENDBRANCH   5   6
ENDBRANCH   1   5
TORSDOF 3
ENDMDL
MODEL 4
REMARK VINA RESULT:    -2.781     13.245     14.119
REMARK INTER + INTRA:          -3.353
REMARK INTER:                  -3.289
REMARK INTRA:                  -0.064
REMARK UNBOUND:                -0.084
REMARK SMILES CCCCC(=O)[O-]
REMARK SMILES IDX 4 1 5 2 6 3 7 4 3 5 2 6 1 7
REMARK H PARENT
REMARK Flexibility Score: inf
ROOT
ATOM      1  C   UNL     1      15.169  32.562  -8.356  1.00  0.00     0.053 C 
ENDROOT
BRANCH   1   2
ATOM      2  C   UNL     1      16.254  32.811  -9.355  1.00  0.00     0.041 C 
ATOM      3  O   UNL     1      16.826  31.844  -9.924  1.00  0.00    -0.550 OA
ATOM      4  O   UNL     1      16.666  34.110  -9.624  1.00  0.00    -0.550 OA
ENDBRANCH   1   2
BRANCH   1   5
ATOM      5  C   UNL     1      14.116  31.612  -8.933  1.00  0.00     0.006 C 
BRANCH   5   6
ATOM      6  C   UNL     1      13.379  32.259 -10.112  1.00  0.00    -0.003 C 
ATOM      7  C   UNL     1      11.867  32.129  -9.956  1.00  0.00     0.004 C 
ENDBRANCH   5   6
ENDBRANCH   1   5
TORSDOF 3
ENDMDL
MODEL 5
REMARK VINA RESULT:    -2.776     13.997     14.580
REMARK INTER + INTRA:          -3.347
REMARK INTER:                  -3.326
REMARK INTRA:                  -0.021
REMARK UNBOUND:                -0.084
REMARK SMILES CCCCC(=O)[O-]
REMARK SMILES IDX 4 1 5 2 6 3 7 4 3 5 2 6 1 7
REMARK H PARENT
REMARK Flexibility Score: inf
ROOT
ATOM      1  C   UNL     1      28.704  21.050  -2.233  1.00  0.00     0.053 C 
ENDROOT
BRANCH   1   2
ATOM      2  C   UNL     1      28.081  19.737  -2.586  1.00  0.00     0.041 C 
ATOM      3  O   UNL     1      27.702  19.511  -3.765  1.00  0.00    -0.550 OA
ATOM      4  O   UNL     1      27.877  18.778  -1.602  1.00  0.00    -0.550 OA
ENDBRANCH   1   2
BRANCH   1   5
ATOM      5  C   UNL     1      27.999  22.192  -2.970  1.00  0.00     0.006 C 
BRANCH   5   6
ATOM      6  C   UNL     1      27.971  23.465  -2.115  1.00  0.00    -0.003 C 
ATOM      7  C   UNL     1      26.542  23.947  -1.888  1.00  0.00     0.004 C 
ENDBRANCH   5   6
ENDBRANCH   1   5
TORSDOF 3
ENDMDL
MODEL 6
REMARK VINA RESULT:    -2.714     14.440     14.965
REMARK INTER + INTRA:          -3.274
REMARK INTER:                  -3.258
REMARK INTRA:                  -0.015
REMARK UNBOUND:                -0.084
REMARK SMILES CCCCC(=O)[O-]
REMARK SMILES IDX 4 1 5 2 6 3 7 4 3 5 2 6 1 7
REMARK H PARENT
REMARK Flexibility Score: inf
ROOT
ATOM      1  C   UNL     1      27.361  22.914  -2.494  1.00  0.00     0.053 C 
ENDROOT
BRANCH   1   2
ATOM      2  C   UNL     1      27.714  24.121  -1.685  1.00  0.00     0.041 C 
ATOM      3  O   UNL     1      27.029  24.431  -0.674  1.00  0.00    -0.550 OA
ATOM      4  O   UNL     1      28.772  24.933  -2.073  1.00  0.00    -0.550 OA
ENDBRANCH   1   2
BRANCH   1   5
ATOM      5  C   UNL     1      28.488  21.879  -2.433  1.00  0.00     0.006 C 
BRANCH   5   6
ATOM      6  C   UNL     1      28.061  20.560  -3.086  1.00  0.00    -0.003 C 
ATOM      7  C   UNL     1      28.037  19.423  -2.070  1.00  0.00     0.004 C 
ENDBRANCH   5   6
ENDBRANCH   1   5
TORSDOF 3
ENDMDL
MODEL 7
REMARK VINA RESULT:    -2.699      3.032      3.868
REMARK INTER + INTRA:          -3.257
REMARK INTER:                  -3.219
REMARK INTRA:                  -0.038
REMARK UNBOUND:                -0.084
REMARK SMILES CCCCC(=O)[O-]
REMARK SMILES IDX 4 1 5 2 6 3 7 4 3 5 2 6 1 7
REMARK H PARENT
REMARK Flexibility Score: inf
ROOT
ATOM      1  C   UNL     1      17.250  18.794 -10.790  1.00  0.00     0.053 C 
ENDROOT
BRANCH   1   2
ATOM      2  C   UNL     1      18.709  18.580 -11.036  1.00  0.00     0.041 C 
ATOM      3  O   UNL     1      19.173  17.413 -11.125  1.00  0.00    -0.550 OA
ATOM      4  O   UNL     1      19.567  19.670 -11.122  1.00  0.00    -0.550 OA
ENDBRANCH   1   2
BRANCH   1   5
ATOM      5  C   UNL     1      16.653  17.602 -10.036  1.00  0.00     0.006 C 
BRANCH   5   6
ATOM      6  C   UNL     1      15.581  18.061  -9.041  1.00  0.00    -0.003 C 
ATOM      7  C   UNL     1      14.881  19.325  -9.527  1.00  0.00     0.004 C 
ENDBRANCH   5   6
ENDBRANCH   1   5
TORSDOF 3
ENDMDL
MODEL 8
REMARK VINA RESULT:    -2.650     14.147     14.666
REMARK INTER + INTRA:          -3.199
REMARK INTER:                  -3.183
REMARK INTRA:                  -0.016
REMARK UNBOUND:                -0.084
REMARK SMILES CCCCC(=O)[O-]
REMARK SMILES IDX 4 1 5 2 6 3 7 4 3 5 2 6 1 7
REMARK H PARENT
REMARK Flexibility Score: inf
ROOT
ATOM      1  C   UNL     1      28.775  20.916  -2.288  1.00  0.00     0.053 C 
ENDROOT
BRANCH   1   2
ATOM      2  C   UNL     1      28.186  22.077  -3.026  1.00  0.00     0.041 C 
ATOM      3  O   UNL     1      28.591  22.364  -4.183  1.00  0.00    -0.550 OA
ATOM      4  O   UNL     1      27.223  22.871  -2.417  1.00  0.00    -0.550 OA
ENDBRANCH   1   2
BRANCH   1   5
ATOM      5  C   UNL     1      27.939  19.655  -2.519  1.00  0.00     0.006 C 
BRANCH   5   6
ATOM      6  C   UNL     1      28.719  18.396  -2.122  1.00  0.00    -0.003 C 
ATOM      7  C   UNL     1      28.067  17.693  -0.937  1.00  0.00     0.004 C 
ENDBRANCH   5   6
ENDBRANCH   1   5
TORSDOF 3
ENDMDL
MODEL 9
REMARK VINA RESULT:    -2.564      6.047      7.107
REMARK INTER + INTRA:          -3.098
REMARK INTER:                  -3.049
REMARK INTRA:                  -0.048
REMARK UNBOUND:                -0.084
REMARK SMILES CCCCC(=O)[O-]
REMARK SMILES IDX 4 1 5 2 6 3 7 4 3 5 2 6 1 7
REMARK H PARENT
REMARK Flexibility Score: inf
ROOT
ATOM      1  C   UNL     1      22.701  20.967  -9.563  1.00  0.00     0.053 C 
ENDROOT
BRANCH   1   2
ATOM      2  C   UNL     1      22.561  22.422  -9.883  1.00  0.00     0.041 C 
ATOM      3  O   UNL     1      23.474  23.231  -9.572  1.00  0.00    -0.550 OA
ATOM      4  O   UNL     1      21.400  22.892 -10.484  1.00  0.00    -0.550 OA
ENDBRANCH   1   2
BRANCH   1   5
ATOM      5  C   UNL     1      22.713  20.134 -10.848  1.00  0.00     0.006 C 
BRANCH   5   6
ATOM      6  C   UNL     1      21.410  19.341 -11.001  1.00  0.00    -0.003 C 
ATOM      7  C   UNL     1      21.663  17.840 -10.904  1.00  0.00     0.004 C 
ENDBRANCH   5   6
ENDBRANCH   1   5
TORSDOF 3
ENDMDL
