MODEL 1
REMARK VINA RESULT:    -6.340      0.000      0.000
REMARK INTER + INTRA:          -8.050
REMARK INTER:                  -7.637
REMARK INTRA:                  -0.413
REMARK UNBOUND:                -0.413
REMARK SMILES O=c1c(O)c(-c2ccc(O)cc2O)oc2cc(O)cc(O)c12
REMARK SMILES IDX 5 1 3 2 2 3 1 4 22 5 20 6 19 7 17 8 16 9 15 10 14 11 6 12
REMARK SMILES IDX 8 13 7 14 9 15 11 16 12 17 10 18 13 20 4 22 21 24 18 26
REMARK H PARENT 10 19 13 21 4 23 21 25 18 27
REMARK Flexibility Score: inf
ROOT
ATOM      1  C   UNL     1      14.352  55.887  34.501  1.00  0.00     0.184 A 
ATOM      2  C   UNL     1      14.108  55.648  33.141  1.00  0.00     0.208 A 
ATOM      3  C   UNL     1      14.586  56.568  32.193  1.00  0.00     0.238 A 
ATOM      4  O   UNL     1      14.312  56.381  30.979  1.00  0.00    -0.285 OA
ATOM      5  C   UNL     1      15.326  57.698  32.619  1.00  0.00     0.111 A 
ATOM      6  C   UNL     1      15.892  58.673  31.744  1.00  0.00     0.134 A 
ATOM      7  C   UNL     1      16.499  59.814  32.283  1.00  0.00     0.093 A 
ATOM      8  C   UNL     1      16.619  59.984  33.662  1.00  0.00     0.123 A 
ATOM      9  C   UNL     1      16.120  59.008  34.526  1.00  0.00     0.094 A 
ATOM     10  C   UNL     1      15.476  57.877  34.020  1.00  0.00     0.146 A 
ATOM     11  O   UNL     1      15.004  56.980  34.877  1.00  0.00    -0.451 OA
ENDROOT
BRANCH   1  12
ATOM     12  C   UNL     1      13.893  54.942  35.542  1.00  0.00     0.063 A 
ATOM     13  C   UNL     1      14.392  53.094  37.046  1.00  0.00     0.047 A 
ATOM     14  C   UNL     1      14.780  53.964  36.024  1.00  0.00     0.020 A 
ATOM     15  C   UNL     1      13.117  53.192  37.605  1.00  0.00     0.119 A 
ATOM     16  C   UNL     1      12.224  54.164  37.135  1.00  0.00     0.093 A 
ATOM     17  C   UNL     1      12.598  55.034  36.103  1.00  0.00     0.130 A 
BRANCH  15  18
ATOM     18  O   UNL     1      12.745  52.322  38.628  1.00  0.00    -0.508 OA
ATOM     19  H   UNL     1      12.397  52.665  39.515  1.00  0.00     0.293 HD
ENDBRANCH  15  18
BRANCH  17  20
ATOM     20  O   UNL     1      11.656  55.959  35.648  1.00  0.00    -0.507 OA
ATOM     21  H   UNL     1      11.597  56.906  36.000  1.00  0.00     0.293 HD
ENDBRANCH  17  20
ENDBRANCH   1  12
BRANCH   2  22
ATOM     22  O   UNL     1      13.378  54.523  32.748  1.00  0.00    -0.502 OA
ATOM     23  H   UNL     1      13.768  53.804  32.151  1.00  0.00     0.293 HD
ENDBRANCH   2  22
BRANCH   6  24
ATOM     24  O   UNL     1      15.910  58.558  30.351  1.00  0.00    -0.507 OA
ATOM     25  H   UNL     1      16.698  58.787  29.765  1.00  0.00     0.293 HD
ENDBRANCH   6  24
BRANCH   8  26
ATOM     26  O   UNL     1      17.243  61.125  34.163  1.00  0.00    -0.508 OA
ATOM     27  H   UNL     1      18.160  61.081  34.592  1.00  0.00     0.293 HD
ENDBRANCH   8  26
TORSDOF 6
ENDMDL
MODEL 2
REMARK VINA RESULT:    -5.457      1.889      2.396
REMARK INTER + INTRA:          -6.986
REMARK INTER:                  -6.589
REMARK INTRA:                  -0.397
REMARK UNBOUND:                -0.413
REMARK SMILES O=c1c(O)c(-c2ccc(O)cc2O)oc2cc(O)cc(O)c12
REMARK SMILES IDX 5 1 3 2 2 3 1 4 22 5 20 6 19 7 17 8 16 9 15 10 14 11 6 12
REMARK SMILES IDX 8 13 7 14 9 15 11 16 12 17 10 18 13 20 4 22 21 24 18 26
REMARK H PARENT 10 19 13 21 4 23 21 25 18 27
REMARK Flexibility Score: inf
ROOT
ATOM      1  C   UNL     1      14.405  56.100  34.771  1.00  0.00     0.184 A 
ATOM      2  C   UNL     1      13.149  56.509  34.299  1.00  0.00     0.208 A 
ATOM      3  C   UNL     1      13.014  57.793  33.747  1.00  0.00     0.238 A 
ATOM      4  O   UNL     1      11.872  58.177  33.383  1.00  0.00    -0.285 OA
ATOM      5  C   UNL     1      14.145  58.639  33.648  1.00  0.00     0.111 A 
ATOM      6  C   UNL     1      14.134  59.944  33.071  1.00  0.00     0.134 A 
ATOM      7  C   UNL     1      15.286  60.738  33.137  1.00  0.00     0.093 A 
ATOM      8  C   UNL     1      16.465  60.252  33.701  1.00  0.00     0.123 A 
ATOM      9  C   UNL     1      16.504  58.956  34.217  1.00  0.00     0.094 A 
ATOM     10  C   UNL     1      15.362  58.153  34.199  1.00  0.00     0.146 A 
ATOM     11  O   UNL     1      15.437  56.931  34.712  1.00  0.00    -0.451 OA
ENDROOT
BRANCH   1  12
ATOM     12  C   UNL     1      14.611  54.751  35.341  1.00  0.00     0.063 A 
ATOM     13  C   UNL     1      14.523  53.267  37.268  1.00  0.00     0.047 A 
ATOM     14  C   UNL     1      14.390  54.542  36.713  1.00  0.00     0.020 A 
ATOM     15  C   UNL     1      14.871  52.182  36.461  1.00  0.00     0.119 A 
ATOM     16  C   UNL     1      15.092  52.378  35.091  1.00  0.00     0.093 A 
ATOM     17  C   UNL     1      14.973  53.653  34.525  1.00  0.00     0.130 A 
BRANCH  15  18
ATOM     18  O   UNL     1      14.995  50.916  37.026  1.00  0.00    -0.508 OA
ATOM     19  H   UNL     1      14.274  50.212  36.913  1.00  0.00     0.293 HD
ENDBRANCH  15  18
BRANCH  17  20
ATOM     20  O   UNL     1      15.239  53.797  33.162  1.00  0.00    -0.507 OA
ATOM     21  H   UNL     1      14.817  54.517  32.590  1.00  0.00     0.293 HD
ENDBRANCH  17  20
ENDBRANCH   1  12
BRANCH   2  22
ATOM     22  O   UNL     1      12.049  55.653  34.406  1.00  0.00    -0.502 OA
ATOM     23  H   UNL     1      11.178  55.938  34.836  1.00  0.00     0.293 HD
ENDBRANCH   2  22
BRANCH   6  24
ATOM     24  O   UNL     1      13.037  60.493  32.401  1.00  0.00    -0.507 OA
ATOM     25  H   UNL     1      12.415  61.187  32.787  1.00  0.00     0.293 HD
ENDBRANCH   6  24
BRANCH   8  26
ATOM     26  O   UNL     1      17.596  61.065  33.736  1.00  0.00    -0.508 OA
ATOM     27  H   UNL     1      18.013  61.430  32.887  1.00  0.00     0.293 HD
ENDBRANCH   8  26
TORSDOF 6
ENDMDL
MODEL 3
REMARK VINA RESULT:    -5.293      3.017      3.918
REMARK INTER + INTRA:          -6.788
REMARK INTER:                  -6.522
REMARK INTRA:                  -0.266
REMARK UNBOUND:                -0.413
REMARK SMILES O=c1c(O)c(-c2ccc(O)cc2O)oc2cc(O)cc(O)c12
REMARK SMILES IDX 5 1 3 2 2 3 1 4 22 5 20 6 19 7 17 8 16 9 15 10 14 11 6 12
REMARK SMILES IDX 8 13 7 14 9 15 11 16 12 17 10 18 13 20 4 22 21 24 18 26
REMARK H PARENT 10 19 13 21 4 23 21 25 18 27
REMARK Flexibility Score: inf
ROOT
ATOM      1  C   UNL     1      13.934  54.059  33.857  1.00  0.00     0.184 A 
ATOM      2  C   UNL     1      12.930  54.883  34.386  1.00  0.00     0.208 A 
ATOM      3  C   UNL     1      13.191  56.253  34.553  1.00  0.00     0.238 A 
ATOM      4  O   UNL     1      12.308  56.975  35.085  1.00  0.00    -0.285 OA
ATOM      5  C   UNL     1      14.444  56.784  34.161  1.00  0.00     0.111 A 
ATOM      6  C   UNL     1      14.803  58.162  34.247  1.00  0.00     0.134 A 
ATOM      7  C   UNL     1      16.113  58.554  33.943  1.00  0.00     0.093 A 
ATOM      8  C   UNL     1      17.056  57.630  33.496  1.00  0.00     0.123 A 
ATOM      9  C   UNL     1      16.699  56.289  33.352  1.00  0.00     0.094 A 
ATOM     10  C   UNL     1      15.412  55.861  33.682  1.00  0.00     0.146 A 
ATOM     11  O   UNL     1      15.116  54.573  33.545  1.00  0.00    -0.451 OA
ENDROOT
BRANCH   1  12
ATOM     12  C   UNL     1      13.708  52.615  33.637  1.00  0.00     0.063 A 
ATOM     13  C   UNL     1      12.412  50.844  32.583  1.00  0.00     0.047 A 
ATOM     14  C   UNL     1      12.617  52.199  32.853  1.00  0.00     0.020 A 
ATOM     15  C   UNL     1      13.294  49.886  33.085  1.00  0.00     0.119 A 
ATOM     16  C   UNL     1      14.386  50.288  33.866  1.00  0.00     0.093 A 
ATOM     17  C   UNL     1      14.597  51.643  34.153  1.00  0.00     0.130 A 
BRANCH  15  18
ATOM     18  O   UNL     1      13.080  48.539  32.803  1.00  0.00    -0.508 OA
ATOM     19  H   UNL     1      13.718  47.822  33.129  1.00  0.00     0.293 HD
ENDBRANCH  15  18
BRANCH  17  20
ATOM     20  O   UNL     1      15.679  51.983  34.966  1.00  0.00    -0.507 OA
ATOM     21  H   UNL     1      15.752  51.699  35.935  1.00  0.00     0.293 HD
ENDBRANCH  17  20
ENDBRANCH   1  12
BRANCH   2  22
ATOM     22  O   UNL     1      11.701  54.334  34.762  1.00  0.00    -0.502 OA
ATOM     23  H   UNL     1      11.181  53.704  34.163  1.00  0.00     0.293 HD
ENDBRANCH   2  22
BRANCH   6  24
ATOM     24  O   UNL     1      13.913  59.182  34.595  1.00  0.00    -0.507 OA
ATOM     25  H   UNL     1      14.166  60.152  34.713  1.00  0.00     0.293 HD
ENDBRANCH   6  24
BRANCH   8  26
ATOM     26  O   UNL     1      18.346  58.059  33.188  1.00  0.00    -0.508 OA
ATOM     27  H   UNL     1      18.705  58.944  33.528  1.00  0.00     0.293 HD
ENDBRANCH   8  26
TORSDOF 6
ENDMDL
MODEL 4
REMARK VINA RESULT:    -5.207      2.450      3.530
REMARK INTER + INTRA:          -6.684
REMARK INTER:                  -6.269
REMARK INTRA:                  -0.415
REMARK UNBOUND:                -0.413
REMARK SMILES O=c1c(O)c(-c2ccc(O)cc2O)oc2cc(O)cc(O)c12
REMARK SMILES IDX 5 1 3 2 2 3 1 4 22 5 20 6 19 7 17 8 16 9 15 10 14 11 6 12
REMARK SMILES IDX 8 13 7 14 9 15 11 16 12 17 10 18 13 20 4 22 21 24 18 26
REMARK H PARENT 10 19 13 21 4 23 21 25 18 27
REMARK Flexibility Score: inf
ROOT
ATOM      1  C   UNL     1      15.013  56.091  33.928  1.00  0.00     0.184 A 
ATOM      2  C   UNL     1      16.180  56.730  33.486  1.00  0.00     0.208 A 
ATOM      3  C   UNL     1      16.242  58.132  33.519  1.00  0.00     0.238 A 
ATOM      4  O   UNL     1      17.267  58.703  33.064  1.00  0.00    -0.285 OA
ATOM      5  C   UNL     1      15.145  58.874  34.022  1.00  0.00     0.111 A 
ATOM      6  C   UNL     1      15.113  60.296  34.139  1.00  0.00     0.134 A 
ATOM      7  C   UNL     1      13.929  60.930  34.536  1.00  0.00     0.093 A 
ATOM      8  C   UNL     1      12.798  60.191  34.882  1.00  0.00     0.123 A 
ATOM      9  C   UNL     1      12.836  58.798  34.827  1.00  0.00     0.094 A 
ATOM     10  C   UNL     1      13.990  58.138  34.399  1.00  0.00     0.146 A 
ATOM     11  O   UNL     1      13.981  56.811  34.347  1.00  0.00    -0.451 OA
ENDROOT
BRANCH   1  12
ATOM     12  C   UNL     1      14.900  54.616  33.938  1.00  0.00     0.063 A 
ATOM     13  C   UNL     1      15.074  52.521  35.164  1.00  0.00     0.047 A 
ATOM     14  C   UNL     1      15.224  53.908  35.109  1.00  0.00     0.020 A 
ATOM     15  C   UNL     1      14.591  51.821  34.057  1.00  0.00     0.119 A 
ATOM     16  C   UNL     1      14.262  52.516  32.885  1.00  0.00     0.093 A 
ATOM     17  C   UNL     1      14.419  53.906  32.813  1.00  0.00     0.130 A 
BRANCH  15  18
ATOM     18  O   UNL     1      14.440  50.439  34.128  1.00  0.00    -0.508 OA
ATOM     19  H   UNL     1      15.231  49.814  34.023  1.00  0.00     0.293 HD
ENDBRANCH  15  18
BRANCH  17  20
ATOM     20  O   UNL     1      14.110  54.543  31.610  1.00  0.00    -0.507 OA
ATOM     21  H   UNL     1      13.339  55.190  31.510  1.00  0.00     0.293 HD
ENDBRANCH  17  20
ENDBRANCH   1  12
BRANCH   2  22
ATOM     22  O   UNL     1      17.249  55.974  32.998  1.00  0.00    -0.502 OA
ATOM     23  H   UNL     1      17.441  55.033  33.320  1.00  0.00     0.293 HD
ENDBRANCH   2  22
BRANCH   6  24
ATOM     24  O   UNL     1      16.215  61.125  33.907  1.00  0.00    -0.507 OA
ATOM     25  H   UNL     1      17.122  61.008  34.331  1.00  0.00     0.293 HD
ENDBRANCH   6  24
BRANCH   8  26
ATOM     26  O   UNL     1      11.641  60.855  35.288  1.00  0.00    -0.508 OA
ATOM     27  H   UNL     1      11.650  61.509  36.063  1.00  0.00     0.293 HD
ENDBRANCH   8  26
TORSDOF 6
ENDMDL
MODEL 5
REMARK VINA RESULT:    -5.158      2.192      4.122
REMARK INTER + INTRA:          -6.626
REMARK INTER:                  -6.233
REMARK INTRA:                  -0.393
REMARK UNBOUND:                -0.413
REMARK SMILES O=c1c(O)c(-c2ccc(O)cc2O)oc2cc(O)cc(O)c12
REMARK SMILES IDX 5 1 3 2 2 3 1 4 22 5 20 6 19 7 17 8 16 9 15 10 14 11 6 12
REMARK SMILES IDX 8 13 7 14 9 15 11 16 12 17 10 18 13 20 4 22 21 24 18 26
REMARK H PARENT 10 19 13 21 4 23 21 25 18 27
REMARK Flexibility Score: inf
ROOT
ATOM      1  C   UNL     1      14.645  54.767  33.802  1.00  0.00     0.184 A 
ATOM      2  C   UNL     1      15.159  56.070  33.733  1.00  0.00     0.208 A 
ATOM      3  C   UNL     1      15.547  56.583  32.485  1.00  0.00     0.238 A 
ATOM      4  O   UNL     1      16.064  57.729  32.437  1.00  0.00    -0.285 OA
ATOM      5  C   UNL     1      15.387  55.795  31.319  1.00  0.00     0.111 A 
ATOM      6  C   UNL     1      15.709  56.228  29.997  1.00  0.00     0.134 A 
ATOM      7  C   UNL     1      15.624  55.319  28.934  1.00  0.00     0.093 A 
ATOM      8  C   UNL     1      15.168  54.017  29.134  1.00  0.00     0.123 A 
ATOM      9  C   UNL     1      14.796  53.601  30.412  1.00  0.00     0.094 A 
ATOM     10  C   UNL     1      14.905  54.471  31.499  1.00  0.00     0.146 A 
ATOM     11  O   UNL     1      14.553  54.032  32.702  1.00  0.00    -0.451 OA
ENDROOT
BRANCH   1  12
ATOM     12  C   UNL     1      14.199  54.183  35.085  1.00  0.00     0.063 A 
ATOM     13  C   UNL     1      12.558  54.103  36.881  1.00  0.00     0.047 A 
ATOM     14  C   UNL     1      13.033  54.674  35.698  1.00  0.00     0.020 A 
ATOM     15  C   UNL     1      13.235  53.032  37.466  1.00  0.00     0.119 A 
ATOM     16  C   UNL     1      14.397  52.532  36.864  1.00  0.00     0.093 A 
ATOM     17  C   UNL     1      14.890  53.102  35.683  1.00  0.00     0.130 A 
BRANCH  15  18
ATOM     18  O   UNL     1      12.747  52.469  38.643  1.00  0.00    -0.508 OA
ATOM     19  H   UNL     1      13.364  52.223  39.408  1.00  0.00     0.293 HD
ENDBRANCH  15  18
BRANCH  17  20
ATOM     20  O   UNL     1      16.072  52.589  35.146  1.00  0.00    -0.507 OA
ATOM     21  H   UNL     1      16.966  53.053  35.237  1.00  0.00     0.293 HD
ENDBRANCH  17  20
ENDBRANCH   1  12
BRANCH   2  22
ATOM     22  O   UNL     1      15.303  56.827  34.899  1.00  0.00    -0.502 OA
ATOM     23  H   UNL     1      16.078  56.700  35.538  1.00  0.00     0.293 HD
ENDBRANCH   2  22
BRANCH   6  24
ATOM     24  O   UNL     1      16.086  57.534  29.672  1.00  0.00    -0.507 OA
ATOM     25  H   UNL     1      17.039  57.854  29.590  1.00  0.00     0.293 HD
ENDBRANCH   6  24
BRANCH   8  26
ATOM     26  O   UNL     1      15.083  53.146  28.049  1.00  0.00    -0.508 OA
ATOM     27  H   UNL     1      15.907  52.860  27.533  1.00  0.00     0.293 HD
ENDBRANCH   8  26
TORSDOF 6
ENDMDL
MODEL 6
REMARK VINA RESULT:    -5.124      2.753      6.309
REMARK INTER + INTRA:          -6.585
REMARK INTER:                  -6.177
REMARK INTRA:                  -0.408
REMARK UNBOUND:                -0.413
REMARK SMILES O=c1c(O)c(-c2ccc(O)cc2O)oc2cc(O)cc(O)c12
REMARK SMILES IDX 5 1 3 2 2 3 1 4 22 5 20 6 19 7 17 8 16 9 15 10 14 11 6 12
REMARK SMILES IDX 8 13 7 14 9 15 11 16 12 17 10 18 13 20 4 22 21 24 18 26
REMARK H PARENT 10 19 13 21 4 23 21 25 18 27
REMARK Flexibility Score: inf
ROOT
ATOM      1  C   UNL     1      15.366  56.310  32.411  1.00  0.00     0.184 A 
ATOM      2  C   UNL     1      15.461  56.219  31.015  1.00  0.00     0.208 A 
ATOM      3  C   UNL     1      15.175  54.995  30.391  1.00  0.00     0.238 A 
ATOM      4  O   UNL     1      15.321  54.902  29.145  1.00  0.00    -0.285 OA
ATOM      5  C   UNL     1      14.768  53.885  31.172  1.00  0.00     0.111 A 
ATOM      6  C   UNL     1      14.414  52.607  30.643  1.00  0.00     0.134 A 
ATOM      7  C   UNL     1      14.145  51.548  31.519  1.00  0.00     0.093 A 
ATOM      8  C   UNL     1      14.154  51.736  32.901  1.00  0.00     0.123 A 
ATOM      9  C   UNL     1      14.442  52.995  33.427  1.00  0.00     0.094 A 
ATOM     10  C   UNL     1      14.750  54.062  32.581  1.00  0.00     0.146 A 
ATOM     11  O   UNL     1      15.032  55.241  33.123  1.00  0.00    -0.451 OA
ENDROOT
BRANCH   1  12
ATOM     12  C   UNL     1      15.633  57.580  33.120  1.00  0.00     0.063 A 
ATOM     13  C   UNL     1      14.775  59.593  34.186  1.00  0.00     0.047 A 
ATOM     14  C   UNL     1      14.557  58.415  33.467  1.00  0.00     0.020 A 
ATOM     15  C   UNL     1      16.067  59.950  34.574  1.00  0.00     0.119 A 
ATOM     16  C   UNL     1      17.147  59.125  34.236  1.00  0.00     0.093 A 
ATOM     17  C   UNL     1      16.944  57.947  33.506  1.00  0.00     0.130 A 
BRANCH  15  18
ATOM     18  O   UNL     1      16.269  61.124  35.295  1.00  0.00    -0.508 OA
ATOM     19  H   UNL     1      15.580  61.867  35.301  1.00  0.00     0.293 HD
ENDBRANCH  15  18
BRANCH  17  20
ATOM     20  O   UNL     1      18.060  57.181  33.165  1.00  0.00    -0.507 OA
ATOM     21  H   UNL     1      18.975  57.327  33.574  1.00  0.00     0.293 HD
ENDBRANCH  17  20
ENDBRANCH   1  12
BRANCH   2  22
ATOM     22  O   UNL     1      15.861  57.331  30.268  1.00  0.00    -0.502 OA
ATOM     23  H   UNL     1      16.597  57.955  30.575  1.00  0.00     0.293 HD
ENDBRANCH   2  22
BRANCH   6  24
ATOM     24  O   UNL     1      14.286  52.334  29.278  1.00  0.00    -0.507 OA
ATOM     25  H   UNL     1      14.664  51.521  28.816  1.00  0.00     0.293 HD
ENDBRANCH   6  24
BRANCH   8  26
ATOM     26  O   UNL     1      13.866  50.662  33.742  1.00  0.00    -0.508 OA
ATOM     27  H   UNL     1      14.522  50.354  34.450  1.00  0.00     0.293 HD
ENDBRANCH   8  26
TORSDOF 6
ENDMDL
MODEL 7
REMARK VINA RESULT:    -5.056      2.631      6.483
REMARK INTER + INTRA:          -6.503
REMARK INTER:                  -6.148
REMARK INTRA:                  -0.355
REMARK UNBOUND:                -0.413
REMARK SMILES O=c1c(O)c(-c2ccc(O)cc2O)oc2cc(O)cc(O)c12
REMARK SMILES IDX 5 1 3 2 2 3 1 4 22 5 20 6 19 7 17 8 16 9 15 10 14 11 6 12
REMARK SMILES IDX 8 13 7 14 9 15 11 16 12 17 10 18 13 20 4 22 21 24 18 26
REMARK H PARENT 10 19 13 21 4 23 21 25 18 27
REMARK Flexibility Score: inf
ROOT
ATOM      1  C   UNL     1      15.161  55.853  33.320  1.00  0.00     0.184 A 
ATOM      2  C   UNL     1      14.776  54.958  34.328  1.00  0.00     0.208 A 
ATOM      3  C   UNL     1      14.388  53.657  33.971  1.00  0.00     0.238 A 
ATOM      4  O   UNL     1      13.985  52.877  34.873  1.00  0.00    -0.285 OA
ATOM      5  C   UNL     1      14.420  53.261  32.611  1.00  0.00     0.111 A 
ATOM      6  C   UNL     1      14.087  51.956  32.139  1.00  0.00     0.134 A 
ATOM      7  C   UNL     1      14.036  51.713  30.760  1.00  0.00     0.093 A 
ATOM      8  C   UNL     1      14.369  52.707  29.841  1.00  0.00     0.123 A 
ATOM      9  C   UNL     1      14.752  53.970  30.294  1.00  0.00     0.094 A 
ATOM     10  C   UNL     1      14.776  54.254  31.661  1.00  0.00     0.146 A 
ATOM     11  O   UNL     1      15.133  55.473  32.049  1.00  0.00    -0.451 OA
ENDROOT
BRANCH   1  12
ATOM     12  C   UNL     1      15.601  57.229  33.639  1.00  0.00     0.063 A 
ATOM     13  C   UNL     1      15.067  59.440  34.504  1.00  0.00     0.047 A 
ATOM     14  C   UNL     1      14.667  58.151  34.142  1.00  0.00     0.020 A 
ATOM     15  C   UNL     1      16.403  59.824  34.377  1.00  0.00     0.119 A 
ATOM     16  C   UNL     1      17.343  58.912  33.879  1.00  0.00     0.093 A 
ATOM     17  C   UNL     1      16.953  57.621  33.502  1.00  0.00     0.130 A 
BRANCH  15  18
ATOM     18  O   UNL     1      16.787  61.110  34.747  1.00  0.00    -0.508 OA
ATOM     19  H   UNL     1      17.686  61.290  35.180  1.00  0.00     0.293 HD
ENDBRANCH  15  18
BRANCH  17  20
ATOM     20  O   UNL     1      17.925  56.766  32.979  1.00  0.00    -0.507 OA
ATOM     21  H   UNL     1      18.665  56.362  33.539  1.00  0.00     0.293 HD
ENDBRANCH  17  20
ENDBRANCH   1  12
BRANCH   2  22
ATOM     22  O   UNL     1      14.757  55.374  35.662  1.00  0.00    -0.502 OA
ATOM     23  H   UNL     1      15.327  56.139  36.001  1.00  0.00     0.293 HD
ENDBRANCH   2  22
BRANCH   6  24
ATOM     24  O   UNL     1      13.827  50.865  32.973  1.00  0.00    -0.507 OA
ATOM     25  H   UNL     1      13.934  50.869  33.976  1.00  0.00     0.293 HD
ENDBRANCH   6  24
BRANCH   8  26
ATOM     26  O   UNL     1      14.323  52.425  28.477  1.00  0.00    -0.508 OA
ATOM     27  H   UNL     1      14.279  53.164  27.784  1.00  0.00     0.293 HD
ENDBRANCH   8  26
TORSDOF 6
ENDMDL
MODEL 8
REMARK VINA RESULT:    -5.035      5.146      6.778
REMARK INTER + INTRA:          -6.477
REMARK INTER:                  -6.188
REMARK INTRA:                  -0.289
REMARK UNBOUND:                -0.413
REMARK SMILES O=c1c(O)c(-c2ccc(O)cc2O)oc2cc(O)cc(O)c12
REMARK SMILES IDX 5 1 3 2 2 3 1 4 22 5 20 6 19 7 17 8 16 9 15 10 14 11 6 12
REMARK SMILES IDX 8 13 7 14 9 15 11 16 12 17 10 18 13 20 4 22 21 24 18 26
REMARK H PARENT 10 19 13 21 4 23 21 25 18 27
REMARK Flexibility Score: inf
ROOT
ATOM      1  C   UNL     1      14.437  50.259  33.176  1.00  0.00     0.184 A 
ATOM      2  C   UNL     1      14.247  51.120  32.084  1.00  0.00     0.208 A 
ATOM      3  C   UNL     1      14.274  52.507  32.299  1.00  0.00     0.238 A 
ATOM      4  O   UNL     1      14.042  53.273  31.328  1.00  0.00    -0.285 OA
ATOM      5  C   UNL     1      14.518  53.014  33.598  1.00  0.00     0.111 A 
ATOM      6  C   UNL     1      14.607  54.401  33.924  1.00  0.00     0.134 A 
ATOM      7  C   UNL     1      14.731  54.788  35.265  1.00  0.00     0.093 A 
ATOM      8  C   UNL     1      14.836  53.840  36.282  1.00  0.00     0.123 A 
ATOM      9  C   UNL     1      14.809  52.481  35.968  1.00  0.00     0.094 A 
ATOM     10  C   UNL     1      14.648  52.063  34.646  1.00  0.00     0.146 A 
ATOM     11  O   UNL     1      14.614  50.760  34.392  1.00  0.00    -0.451 OA
ENDROOT
BRANCH   1  12
ATOM     12  C   UNL     1      14.442  48.790  33.006  1.00  0.00     0.063 A 
ATOM     13  C   UNL     1      13.336  46.649  33.346  1.00  0.00     0.047 A 
ATOM     14  C   UNL     1      13.386  48.031  33.539  1.00  0.00     0.020 A 
ATOM     15  C   UNL     1      14.335  46.006  32.613  1.00  0.00     0.119 A 
ATOM     16  C   UNL     1      15.392  46.752  32.075  1.00  0.00     0.093 A 
ATOM     17  C   UNL     1      15.459  48.137  32.271  1.00  0.00     0.130 A 
BRANCH  15  18
ATOM     18  O   UNL     1      14.270  44.627  32.424  1.00  0.00    -0.508 OA
ATOM     19  H   UNL     1      14.718  43.983  33.065  1.00  0.00     0.293 HD
ENDBRANCH  15  18
BRANCH  17  20
ATOM     20  O   UNL     1      16.553  48.825  31.744  1.00  0.00    -0.507 OA
ATOM     21  H   UNL     1      17.089  48.488  30.954  1.00  0.00     0.293 HD
ENDBRANCH  17  20
ENDBRANCH   1  12
BRANCH   2  22
ATOM     22  O   UNL     1      14.011  50.592  30.812  1.00  0.00    -0.502 OA
ATOM     23  H   UNL     1      14.611  50.791  30.021  1.00  0.00     0.293 HD
ENDBRANCH   2  22
BRANCH   6  24
ATOM     24  O   UNL     1      14.606  55.428  32.977  1.00  0.00    -0.507 OA
ATOM     25  H   UNL     1      15.033  56.333  33.108  1.00  0.00     0.293 HD
ENDBRANCH   6  24
BRANCH   8  26
ATOM     26  O   UNL     1      14.974  54.263  37.603  1.00  0.00    -0.508 OA
ATOM     27  H   UNL     1      15.188  55.227  37.831  1.00  0.00     0.293 HD
ENDBRANCH   8  26
TORSDOF 6
ENDMDL
MODEL 9
REMARK VINA RESULT:    -4.984      5.795      7.737
REMARK INTER + INTRA:          -6.416
REMARK INTER:                  -6.058
REMARK INTRA:                  -0.358
REMARK UNBOUND:                -0.413
REMARK SMILES O=c1c(O)c(-c2ccc(O)cc2O)oc2cc(O)cc(O)c12
REMARK SMILES IDX 5 1 3 2 2 3 1 4 22 5 20 6 19 7 17 8 16 9 15 10 14 11 6 12
REMARK SMILES IDX 8 13 7 14 9 15 11 16 12 17 10 18 13 20 4 22 21 24 18 26
REMARK H PARENT 10 19 13 21 4 23 21 25 18 27
REMARK Flexibility Score: inf
ROOT
ATOM      1  C   UNL     1      14.642  49.641  32.682  1.00  0.00     0.184 A 
ATOM      2  C   UNL     1      13.443  49.986  32.042  1.00  0.00     0.208 A 
ATOM      3  C   UNL     1      12.746  51.127  32.471  1.00  0.00     0.238 A 
ATOM      4  O   UNL     1      11.640  51.396  31.935  1.00  0.00    -0.285 OA
ATOM      5  C   UNL     1      13.275  51.923  33.516  1.00  0.00     0.111 A 
ATOM      6  C   UNL     1      12.674  53.122  34.005  1.00  0.00     0.134 A 
ATOM      7  C   UNL     1      13.223  53.762  35.124  1.00  0.00     0.093 A 
ATOM      8  C   UNL     1      14.384  53.284  35.730  1.00  0.00     0.123 A 
ATOM      9  C   UNL     1      15.011  52.145  35.225  1.00  0.00     0.094 A 
ATOM     10  C   UNL     1      14.469  51.464  34.133  1.00  0.00     0.146 A 
ATOM     11  O   UNL     1      15.089  50.376  33.692  1.00  0.00    -0.451 OA
ENDROOT
BRANCH   1  12
ATOM     12  C   UNL     1      15.430  48.464  32.257  1.00  0.00     0.063 A 
ATOM     13  C   UNL     1      16.011  46.121  32.569  1.00  0.00     0.047 A 
ATOM     14  C   UNL     1      15.321  47.264  32.981  1.00  0.00     0.020 A 
ATOM     15  C   UNL     1      16.813  46.157  31.428  1.00  0.00     0.119 A 
ATOM     16  C   UNL     1      16.928  47.347  30.697  1.00  0.00     0.093 A 
ATOM     17  C   UNL     1      16.250  48.503  31.105  1.00  0.00     0.130 A 
BRANCH  15  18
ATOM     18  O   UNL     1      17.490  45.009  31.026  1.00  0.00    -0.508 OA
ATOM     19  H   UNL     1      17.204  44.483  30.208  1.00  0.00     0.293 HD
ENDBRANCH  15  18
BRANCH  17  20
ATOM     20  O   UNL     1      16.430  49.670  30.360  1.00  0.00    -0.507 OA
ATOM     21  H   UNL     1      16.869  49.680  29.448  1.00  0.00     0.293 HD
ENDBRANCH  17  20
ENDBRANCH   1  12
BRANCH   2  22
ATOM     22  O   UNL     1      12.945  49.184  31.011  1.00  0.00    -0.502 OA
ATOM     23  H   UNL     1      12.262  49.520  30.342  1.00  0.00     0.293 HD
ENDBRANCH   2  22
BRANCH   6  24
ATOM     24  O   UNL     1      11.565  53.738  33.418  1.00  0.00    -0.507 OA
ATOM     25  H   UNL     1      11.603  54.569  32.848  1.00  0.00     0.293 HD
ENDBRANCH   6  24
BRANCH   8  26
ATOM     26  O   UNL     1      14.910  53.955  36.833  1.00  0.00    -0.508 OA
ATOM     27  H   UNL     1      14.520  54.834  37.154  1.00  0.00     0.293 HD
ENDBRANCH   8  26
TORSDOF 6
ENDMDL
