MODEL 1
REMARK VINA RESULT:    -5.448      0.000      0.000
REMARK INTER + INTRA:          -9.533
REMARK INTER:                  -7.996
REMARK INTRA:                  -1.537
REMARK UNBOUND:                -1.537
REMARK SMILES Cc1cc2c(C(C)C)c(O)c(O)c(C=O)c2c(O)c1-c1c(C)cc2c(C(C)C)c(O)c(O)c(C=O)c2c1O
REMARK SMILES IDX 1 1 2 2 3 3 4 4 16 5 13 6 11 7 9 8 5 9 17 10 19 11 20 12
REMARK SMILES IDX 37 13 21 14 36 15 23 16 22 17 24 18 33 19 25 20 31 21 29 22
REMARK SMILES IDX 38 23 34 25 35 26 26 27 27 28 28 29 32 30 30 32 18 34 6 36
REMARK SMILES IDX 7 37 8 38 14 39 15 40 10 41 12 43
REMARK H PARENT 38 24 32 31 30 33 18 35 10 42 12 44
REMARK Flexibility Score: inf
ROOT
ATOM      1  C   UNL     1     136.863 141.211 133.047  1.00  0.00     0.045 C 
ATOM      2  C   UNL     1     137.911 141.548 132.015  1.00  0.00    -0.039 A 
ATOM      3  C   UNL     1     137.535 141.709 130.681  1.00  0.00     0.013 A 
ATOM      4  C   UNL     1     138.465 142.029 129.675  1.00  0.00    -0.006 A 
ATOM      5  C   UNL     1     139.852 142.066 130.015  1.00  0.00     0.039 A 
ATOM      6  C   UNL     1     140.815 142.179 128.969  1.00  0.00     0.072 A 
ATOM      7  C   UNL     1     140.385 142.238 127.628  1.00  0.00     0.169 A 
ATOM      8  C   UNL     1     139.029 142.288 127.314  1.00  0.00     0.162 A 
ATOM      9  C   UNL     1     138.047 142.293 128.334  1.00  0.00     0.008 A 
ATOM     10  C   UNL     1     140.224 142.007 131.391  1.00  0.00     0.132 A 
ATOM     11  C   UNL     1     139.255 141.729 132.380  1.00  0.00     0.031 A 
ENDROOT
BRANCH  11  12
ATOM     12  C   UNL     1     139.656 141.608 133.806  1.00  0.00     0.031 A 
ATOM     13  C   UNL     1     139.981 140.346 134.349  1.00  0.00     0.132 A 
ATOM     14  C   UNL     1     139.744 142.761 134.602  1.00  0.00    -0.039 A 
ATOM     15  C   UNL     1     140.378 140.226 135.718  1.00  0.00     0.039 A 
ATOM     16  C   UNL     1     140.131 142.649 135.937  1.00  0.00     0.013 A 
ATOM     17  C   UNL     1     139.436 144.124 134.032  1.00  0.00     0.045 C 
ATOM     18  C   UNL     1     140.407 141.398 136.533  1.00  0.00    -0.006 A 
ATOM     19  C   UNL     1     140.785 138.980 136.287  1.00  0.00     0.072 A 
ATOM     20  C   UNL     1     140.750 141.304 137.918  1.00  0.00     0.008 A 
ATOM     21  C   UNL     1     141.271 138.937 137.610  1.00  0.00     0.169 A 
ATOM     22  C   UNL     1     141.290 140.092 138.398  1.00  0.00     0.162 A 
BRANCH  13  23
ATOM     23  O   UNL     1     139.920 139.217 133.525  1.00  0.00    -0.507 OA
ATOM     24  H   UNL     1     140.731 138.690 133.225  1.00  0.00     0.293 HD
ENDBRANCH  13  23
BRANCH  19  25
ATOM     25  C   UNL     1     140.730 137.716 135.527  1.00  0.00     0.264 C 
ATOM     26  O   UNL     1     141.782 137.197 135.069  1.00  0.00    -0.298 OA
ENDBRANCH  19  25
BRANCH  20  27
ATOM     27  C   UNL     1     140.565 142.490 138.882  1.00  0.00     0.017 C 
ATOM     28  C   UNL     1     141.920 143.021 139.359  1.00  0.00     0.012 C 
ATOM     29  C   UNL     1     139.634 142.187 140.073  1.00  0.00     0.012 C 
ENDBRANCH  20  27
BRANCH  21  30
ATOM     30  O   UNL     1     141.717 137.743 138.190  1.00  0.00    -0.504 OA
ATOM     31  H   UNL     1     142.674 137.417 138.155  1.00  0.00     0.293 HD
ENDBRANCH  21  30
BRANCH  22  32
ATOM     32  O   UNL     1     141.849 140.037 139.677  1.00  0.00    -0.504 OA
ATOM     33  H   UNL     1     142.302 140.829 140.116  1.00  0.00     0.293 HD
ENDBRANCH  22  32
ENDBRANCH  11  12
BRANCH  10  34
ATOM     34  O   UNL     1     141.546 142.250 131.779  1.00  0.00    -0.507 OA
ATOM     35  H   UNL     1     141.820 142.502 132.720  1.00  0.00     0.293 HD
ENDBRANCH  10  34
BRANCH   9  36
ATOM     36  C   UNL     1     136.602 142.673 127.952  1.00  0.00     0.017 C 
ATOM     37  C   UNL     1     136.507 144.079 127.345  1.00  0.00     0.012 C 
ATOM     38  C   UNL     1     135.860 141.611 127.114  1.00  0.00     0.012 C 
ENDBRANCH   9  36
BRANCH   6  39
ATOM     39  C   UNL     1     142.268 142.131 129.235  1.00  0.00     0.264 C 
ATOM     40  O   UNL     1     142.959 143.184 129.214  1.00  0.00    -0.298 OA
ENDBRANCH   6  39
BRANCH   8  41
ATOM     41  O   UNL     1     138.696 142.303 125.954  1.00  0.00    -0.504 OA
ATOM     42  H   UNL     1     139.355 142.491 125.210  1.00  0.00     0.293 HD
ENDBRANCH   8  41
BRANCH   7  43
ATOM     43  O   UNL     1     141.292 142.222 126.560  1.00  0.00    -0.504 OA
ATOM     44  H   UNL     1     142.135 141.664 126.540  1.00  0.00     0.293 HD
ENDBRANCH   7  43
TORSDOF 11
ENDMDL
MODEL 2
REMARK VINA RESULT:    -5.415     12.174     17.385
REMARK INTER + INTRA:          -9.484
REMARK INTER:                  -7.946
REMARK INTRA:                  -1.537
REMARK UNBOUND:                -1.537
REMARK SMILES Cc1cc2c(C(C)C)c(O)c(O)c(C=O)c2c(O)c1-c1c(C)cc2c(C(C)C)c(O)c(O)c(C=O)c2c1O
REMARK SMILES IDX 1 1 2 2 3 3 4 4 16 5 13 6 11 7 9 8 5 9 17 10 19 11 20 12
REMARK SMILES IDX 37 13 21 14 36 15 23 16 22 17 24 18 33 19 25 20 31 21 29 22
REMARK SMILES IDX 38 23 34 25 35 26 26 27 27 28 28 29 32 30 30 32 18 34 6 36
REMARK SMILES IDX 7 37 8 38 14 39 15 40 10 41 12 43
REMARK H PARENT 38 24 32 31 30 33 18 35 10 42 12 44
REMARK Flexibility Score: inf
ROOT
ATOM      1  C   UNL     1     136.808 126.772 133.697  1.00  0.00     0.045 C 
ATOM      2  C   UNL     1     137.855 126.424 134.727  1.00  0.00    -0.039 A 
ATOM      3  C   UNL     1     137.477 126.247 136.058  1.00  0.00     0.013 A 
ATOM      4  C   UNL     1     138.406 125.915 137.062  1.00  0.00    -0.006 A 
ATOM      5  C   UNL     1     139.793 125.883 136.723  1.00  0.00     0.039 A 
ATOM      6  C   UNL     1     140.755 125.759 137.769  1.00  0.00     0.072 A 
ATOM      7  C   UNL     1     140.324 125.682 139.109  1.00  0.00     0.169 A 
ATOM      8  C   UNL     1     138.967 125.629 139.420  1.00  0.00     0.162 A 
ATOM      9  C   UNL     1     137.986 125.635 138.399  1.00  0.00     0.008 A 
ATOM     10  C   UNL     1     140.167 125.959 135.348  1.00  0.00     0.132 A 
ATOM     11  C   UNL     1     139.199 126.247 134.362  1.00  0.00     0.031 A 
ENDROOT
BRANCH  11  12
ATOM     12  C   UNL     1     139.602 126.386 132.937  1.00  0.00     0.031 A 
ATOM     13  C   UNL     1     139.936 127.653 132.412  1.00  0.00     0.132 A 
ATOM     14  C   UNL     1     139.683 125.244 132.125  1.00  0.00    -0.039 A 
ATOM     15  C   UNL     1     140.335 127.790 131.046  1.00  0.00     0.039 A 
ATOM     16  C   UNL     1     140.071 125.372 130.792  1.00  0.00     0.013 A 
ATOM     17  C   UNL     1     139.364 123.875 132.676  1.00  0.00     0.045 C 
ATOM     18  C   UNL     1     140.356 126.630 130.214  1.00  0.00    -0.006 A 
ATOM     19  C   UNL     1     140.751 129.041 130.494  1.00  0.00     0.072 A 
ATOM     20  C   UNL     1     140.701 126.740 128.831  1.00  0.00     0.008 A 
ATOM     21  C   UNL     1     141.239 129.099 129.172  1.00  0.00     0.169 A 
ATOM     22  C   UNL     1     141.250 127.955 128.369  1.00  0.00     0.162 A 
BRANCH  13  23
ATOM     23  O   UNL     1     139.883 128.771 133.252  1.00  0.00    -0.507 OA
ATOM     24  H   UNL     1     140.617 129.466 133.319  1.00  0.00     0.293 HD
ENDBRANCH  13  23
BRANCH  19  25
ATOM     25  C   UNL     1     140.705 130.295 131.272  1.00  0.00     0.264 C 
ATOM     26  O   UNL     1     141.757 130.785 131.762  1.00  0.00    -0.298 OA
ENDBRANCH  19  25
BRANCH  20  27
ATOM     27  C   UNL     1     140.508 125.570 127.850  1.00  0.00     0.017 C 
ATOM     28  C   UNL     1     141.859 125.047 127.352  1.00  0.00     0.012 C 
ATOM     29  C   UNL     1     139.566 125.890 126.673  1.00  0.00     0.012 C 
ENDBRANCH  20  27
BRANCH  21  30
ATOM     30  O   UNL     1     141.694 130.298 128.610  1.00  0.00    -0.504 OA
ATOM     31  H   UNL     1     142.637 130.651 128.708  1.00  0.00     0.293 HD
ENDBRANCH  21  30
BRANCH  22  32
ATOM     32  O   UNL     1     141.810 128.025 127.090  1.00  0.00    -0.504 OA
ATOM     33  H   UNL     1     142.306 127.252 126.663  1.00  0.00     0.293 HD
ENDBRANCH  22  32
ENDBRANCH  11  12
BRANCH  10  34
ATOM     34  O   UNL     1     141.490 125.722 134.959  1.00  0.00    -0.507 OA
ATOM     35  H   UNL     1     141.933 126.168 134.166  1.00  0.00     0.293 HD
ENDBRANCH  10  34
BRANCH   9  36
ATOM     36  C   UNL     1     136.541 125.249 138.774  1.00  0.00     0.017 C 
ATOM     37  C   UNL     1     136.459 123.875 139.452  1.00  0.00     0.012 C 
ATOM     38  C   UNL     1     135.766 126.339 139.542  1.00  0.00     0.012 C 
ENDBRANCH   9  36
BRANCH   6  39
ATOM     39  C   UNL     1     142.208 125.811 137.506  1.00  0.00     0.264 C 
ATOM     40  O   UNL     1     142.922 124.781 137.638  1.00  0.00    -0.298 OA
ENDBRANCH   6  39
BRANCH   8  41
ATOM     41  O   UNL     1     138.632 125.597 140.779  1.00  0.00    -0.504 OA
ATOM     42  H   UNL     1     137.717 125.827 141.144  1.00  0.00     0.293 HD
ENDBRANCH   8  41
BRANCH   7  43
ATOM     43  O   UNL     1     141.229 125.687 140.178  1.00  0.00    -0.504 OA
ATOM     44  H   UNL     1     142.208 125.924 140.091  1.00  0.00     0.293 HD
ENDBRANCH   7  43
TORSDOF 11
ENDMDL
MODEL 3
REMARK VINA RESULT:    -5.405     17.288     19.276
REMARK INTER + INTRA:          -9.470
REMARK INTER:                  -8.035
REMARK INTRA:                  -1.435
REMARK UNBOUND:                -1.537
REMARK SMILES Cc1cc2c(C(C)C)c(O)c(O)c(C=O)c2c(O)c1-c1c(C)cc2c(C(C)C)c(O)c(O)c(C=O)c2c1O
REMARK SMILES IDX 1 1 2 2 3 3 4 4 16 5 13 6 11 7 9 8 5 9 17 10 19 11 20 12
REMARK SMILES IDX 37 13 21 14 36 15 23 16 22 17 24 18 33 19 25 20 31 21 29 22
REMARK SMILES IDX 38 23 34 25 35 26 26 27 27 28 28 29 32 30 30 32 18 34 6 36
REMARK SMILES IDX 7 37 8 38 14 39 15 40 10 41 12 43
REMARK H PARENT 38 24 32 31 30 33 18 35 10 42 12 44
REMARK Flexibility Score: inf
ROOT
ATOM      1  C   UNL     1     130.425 128.436 132.127  1.00  0.00     0.045 C 
ATOM      2  C   UNL     1     129.675 127.453 131.261  1.00  0.00    -0.039 A 
ATOM      3  C   UNL     1     129.822 127.507 129.875  1.00  0.00     0.013 A 
ATOM      4  C   UNL     1     129.154 126.613 129.016  1.00  0.00    -0.006 A 
ATOM      5  C   UNL     1     128.203 125.709 129.579  1.00  0.00     0.039 A 
ATOM      6  C   UNL     1     127.370 124.951 128.704  1.00  0.00     0.072 A 
ATOM      7  C   UNL     1     127.491 125.116 127.309  1.00  0.00     0.169 A 
ATOM      8  C   UNL     1     128.479 125.936 126.770  1.00  0.00     0.162 A 
ATOM      9  C   UNL     1     129.398 126.615 127.608  1.00  0.00     0.008 A 
ATOM     10  C   UNL     1     128.132 125.583 130.999  1.00  0.00     0.132 A 
ATOM     11  C   UNL     1     128.853 126.467 131.830  1.00  0.00     0.031 A 
ENDROOT
BRANCH  11  12
ATOM     12  C   UNL     1     128.729 126.371 133.309  1.00  0.00     0.031 A 
ATOM     13  C   UNL     1     129.609 125.550 134.046  1.00  0.00     0.132 A 
ATOM     14  C   UNL     1     127.752 127.130 133.973  1.00  0.00    -0.039 A 
ATOM     15  C   UNL     1     129.500 125.463 135.469  1.00  0.00     0.039 A 
ATOM     16  C   UNL     1     127.641 127.048 135.360  1.00  0.00     0.013 A 
ATOM     17  C   UNL     1     126.823 128.042 133.207  1.00  0.00     0.045 C 
ATOM     18  C   UNL     1     128.464 126.193 136.127  1.00  0.00    -0.006 A 
ATOM     19  C   UNL     1     130.415 124.702 136.259  1.00  0.00     0.072 A 
ATOM     20  C   UNL     1     128.295 126.088 137.543  1.00  0.00     0.008 A 
ATOM     21  C   UNL     1     130.328 124.738 137.666  1.00  0.00     0.169 A 
ATOM     22  C   UNL     1     129.307 125.455 138.296  1.00  0.00     0.162 A 
BRANCH  13  23
ATOM     23  O   UNL     1     130.597 124.831 133.364  1.00  0.00    -0.507 OA
ATOM     24  H   UNL     1     130.408 124.046 132.753  1.00  0.00     0.293 HD
ENDBRANCH  13  23
BRANCH  19  25
ATOM     25  C   UNL     1     131.476 123.875 135.651  1.00  0.00     0.264 C 
ATOM     26  O   UNL     1     132.647 124.324 135.529  1.00  0.00    -0.298 OA
ENDBRANCH  19  25
BRANCH  20  27
ATOM     27  C   UNL     1     127.059 126.662 138.258  1.00  0.00     0.017 C 
ATOM     28  C   UNL     1     127.384 128.008 138.913  1.00  0.00     0.012 C 
ATOM     29  C   UNL     1     126.415 125.691 139.267  1.00  0.00     0.012 C 
ENDBRANCH  20  27
BRANCH  21  30
ATOM     30  O   UNL     1     131.232 124.039 138.476  1.00  0.00    -0.504 OA
ATOM     31  H   UNL     1     131.619 123.133 138.245  1.00  0.00     0.293 HD
ENDBRANCH  21  30
BRANCH  22  32
ATOM     32  O   UNL     1     129.291 125.538 139.691  1.00  0.00    -0.504 OA
ATOM     33  H   UNL     1     129.831 124.922 140.287  1.00  0.00     0.293 HD
ENDBRANCH  22  32
ENDBRANCH  11  12
BRANCH  10  34
ATOM     34  O   UNL     1     127.369 124.564 131.583  1.00  0.00    -0.507 OA
ATOM     35  H   UNL     1     126.418 124.348 131.313  1.00  0.00     0.293 HD
ENDBRANCH  10  34
BRANCH   9  36
ATOM     36  C   UNL     1     130.652 127.236 126.962  1.00  0.00     0.017 C 
ATOM     37  C   UNL     1     131.500 126.200 126.213  1.00  0.00     0.012 C 
ATOM     38  C   UNL     1     130.381 128.502 126.123  1.00  0.00     0.012 C 
ENDBRANCH   9  36
BRANCH   6  39
ATOM     39  C   UNL     1     126.302 124.065 129.212  1.00  0.00     0.264 C 
ATOM     40  O   UNL     1     125.106 124.459 129.250  1.00  0.00    -0.298 OA
ENDBRANCH   6  39
BRANCH   8  41
ATOM     41  O   UNL     1     128.496 126.073 125.377  1.00  0.00    -0.504 OA
ATOM     42  H   UNL     1     128.971 126.818 124.885  1.00  0.00     0.293 HD
ENDBRANCH   8  41
BRANCH   7  43
ATOM     43  O   UNL     1     126.614 124.492 126.412  1.00  0.00    -0.504 OA
ATOM     44  H   UNL     1     125.843 123.902 126.692  1.00  0.00     0.293 HD
ENDBRANCH   7  43
TORSDOF 11
ENDMDL
MODEL 4
REMARK VINA RESULT:    -5.385      2.486      3.576
REMARK INTER + INTRA:          -9.440
REMARK INTER:                  -7.971
REMARK INTRA:                  -1.469
REMARK UNBOUND:                -1.537
REMARK SMILES Cc1cc2c(C(C)C)c(O)c(O)c(C=O)c2c(O)c1-c1c(C)cc2c(C(C)C)c(O)c(O)c(C=O)c2c1O
REMARK SMILES IDX 1 1 2 2 3 3 4 4 16 5 13 6 11 7 9 8 5 9 17 10 19 11 20 12
REMARK SMILES IDX 37 13 21 14 36 15 23 16 22 17 24 18 33 19 25 20 31 21 29 22
REMARK SMILES IDX 38 23 34 25 35 26 26 27 27 28 28 29 32 30 30 32 18 34 6 36
REMARK SMILES IDX 7 37 8 38 14 39 15 40 10 41 12 43
REMARK H PARENT 38 24 32 31 30 33 18 35 10 42 12 44
REMARK Flexibility Score: inf
ROOT
ATOM      1  C   UNL     1     137.933 139.352 131.751  1.00  0.00     0.045 C 
ATOM      2  C   UNL     1     138.580 140.373 130.847  1.00  0.00    -0.039 A 
ATOM      3  C   UNL     1     138.488 140.219 129.463  1.00  0.00     0.013 A 
ATOM      4  C   UNL     1     139.066 141.140 128.569  1.00  0.00    -0.006 A 
ATOM      5  C   UNL     1     139.873 142.192 129.099  1.00  0.00     0.039 A 
ATOM      6  C   UNL     1     140.632 142.999 128.200  1.00  0.00     0.072 A 
ATOM      7  C   UNL     1     140.581 142.739 126.816  1.00  0.00     0.169 A 
ATOM      8  C   UNL     1     139.725 141.767 126.303  1.00  0.00     0.162 A 
ATOM      9  C   UNL     1     138.873 141.024 127.157  1.00  0.00     0.008 A 
ATOM     10  C   UNL     1     139.878 142.409 130.510  1.00  0.00     0.132 A 
ATOM     11  C   UNL     1     139.248 141.488 131.375  1.00  0.00     0.031 A 
ENDROOT
BRANCH  11  12
ATOM     12  C   UNL     1     139.309 141.685 132.847  1.00  0.00     0.031 A 
ATOM     13  C   UNL     1     138.319 142.448 133.505  1.00  0.00     0.132 A 
ATOM     14  C   UNL     1     140.337 141.079 133.586  1.00  0.00    -0.039 A 
ATOM     15  C   UNL     1     138.367 142.632 134.922  1.00  0.00     0.039 A 
ATOM     16  C   UNL     1     140.388 141.256 134.969  1.00  0.00     0.013 A 
ATOM     17  C   UNL     1     141.385 140.230 132.908  1.00  0.00     0.045 C 
ATOM     18  C   UNL     1     139.451 142.060 135.655  1.00  0.00    -0.006 A 
ATOM     19  C   UNL     1     137.348 143.334 135.636  1.00  0.00     0.072 A 
ATOM     20  C   UNL     1     139.557 142.267 137.066  1.00  0.00     0.008 A 
ATOM     21  C   UNL     1     137.388 143.392 137.044  1.00  0.00     0.169 A 
ATOM     22  C   UNL     1     138.457 142.830 137.748  1.00  0.00     0.162 A 
BRANCH  13  23
ATOM     23  O   UNL     1     137.285 143.012 132.750  1.00  0.00    -0.507 OA
ATOM     24  H   UNL     1     137.281 143.058 131.739  1.00  0.00     0.293 HD
ENDBRANCH  13  23
BRANCH  19  25
ATOM     25  C   UNL     1     136.226 144.002 134.945  1.00  0.00     0.264 C 
ATOM     26  O   UNL     1     135.093 143.456 134.889  1.00  0.00    -0.298 OA
ENDBRANCH  19  25
BRANCH  20  27
ATOM     27  C   UNL     1     140.821 141.876 137.852  1.00  0.00     0.017 C 
ATOM     28  C   UNL     1     140.616 140.548 138.587  1.00  0.00     0.012 C 
ATOM     29  C   UNL     1     141.324 142.973 138.811  1.00  0.00     0.012 C 
ENDBRANCH  20  27
BRANCH  21  30
ATOM     30  O   UNL     1     136.386 144.036 137.780  1.00  0.00    -0.504 OA
ATOM     31  H   UNL     1     136.076 144.984 137.613  1.00  0.00     0.293 HD
ENDBRANCH  21  30
BRANCH  22  32
ATOM     32  O   UNL     1     138.431 142.833 139.145  1.00  0.00    -0.504 OA
ATOM     33  H   UNL     1     139.213 143.140 139.711  1.00  0.00     0.293 HD
ENDBRANCH  22  32
ENDBRANCH  11  12
BRANCH  10  34
ATOM     34  O   UNL     1     140.484 143.550 131.049  1.00  0.00    -0.507 OA
ATOM     35  H   UNL     1     141.179 143.525 131.784  1.00  0.00     0.293 HD
ENDBRANCH  10  34
BRANCH   9  36
ATOM     36  C   UNL     1     137.731 140.209 126.518  1.00  0.00     0.017 C 
ATOM     37  C   UNL     1     137.973 138.696 126.605  1.00  0.00     0.012 C 
ATOM     38  C   UNL     1     136.317 140.613 126.982  1.00  0.00     0.012 C 
ENDBRANCH   9  36
BRANCH   6  39
ATOM     39  C   UNL     1     141.559 144.044 128.681  1.00  0.00     0.264 C 
ATOM     40  O   UNL     1     142.783 143.791 128.842  1.00  0.00    -0.298 OA
ENDBRANCH   6  39
BRANCH   8  41
ATOM     41  O   UNL     1     139.774 141.549 124.921  1.00  0.00    -0.504 OA
ATOM     42  H   UNL     1     140.619 141.330 124.410  1.00  0.00     0.293 HD
ENDBRANCH   8  41
BRANCH   7  43
ATOM     43  O   UNL     1     141.401 143.418 125.906  1.00  0.00    -0.504 OA
ATOM     44  H   UNL     1     142.315 143.097 125.617  1.00  0.00     0.293 HD
ENDBRANCH   7  43
TORSDOF 11
ENDMDL
MODEL 5
REMARK VINA RESULT:    -5.374      2.419      9.356
REMARK INTER + INTRA:          -9.424
REMARK INTER:                  -8.161
REMARK INTRA:                  -1.263
REMARK UNBOUND:                -1.537
REMARK SMILES Cc1cc2c(C(C)C)c(O)c(O)c(C=O)c2c(O)c1-c1c(C)cc2c(C(C)C)c(O)c(O)c(C=O)c2c1O
REMARK SMILES IDX 1 1 2 2 3 3 4 4 16 5 13 6 11 7 9 8 5 9 17 10 19 11 20 12
REMARK SMILES IDX 37 13 21 14 36 15 23 16 22 17 24 18 33 19 25 20 31 21 29 22
REMARK SMILES IDX 38 23 34 25 35 26 26 27 27 28 28 29 32 30 30 32 18 34 6 36
REMARK SMILES IDX 7 37 8 38 14 39 15 40 10 41 12 43
REMARK H PARENT 38 24 32 31 30 33 18 35 10 42 12 44
REMARK Flexibility Score: inf
ROOT
ATOM      1  C   UNL     1     141.120 140.018 133.031  1.00  0.00     0.045 C 
ATOM      2  C   UNL     1     140.202 140.984 133.740  1.00  0.00    -0.039 A 
ATOM      3  C   UNL     1     140.313 141.149 135.121  1.00  0.00     0.013 A 
ATOM      4  C   UNL     1     139.489 142.039 135.836  1.00  0.00    -0.006 A 
ATOM      5  C   UNL     1     138.429 142.695 135.141  1.00  0.00     0.039 A 
ATOM      6  C   UNL     1     137.463 143.430 135.891  1.00  0.00     0.072 A 
ATOM      7  C   UNL     1     137.565 143.483 137.296  1.00  0.00     0.169 A 
ATOM      8  C   UNL     1     138.650 142.911 137.956  1.00  0.00     0.162 A 
ATOM      9  C   UNL     1     139.687 142.273 137.232  1.00  0.00     0.008 A 
ATOM     10  C   UNL     1     138.384 142.608 133.717  1.00  0.00     0.132 A 
ATOM     11  C   UNL     1     139.257 141.740 133.028  1.00  0.00     0.031 A 
ENDROOT
BRANCH  11  12
ATOM     12  C   UNL     1     139.165 141.606 131.550  1.00  0.00     0.031 A 
ATOM     13  C   UNL     1     139.974 142.403 130.711  1.00  0.00     0.132 A 
ATOM     14  C   UNL     1     138.294 140.657 130.993  1.00  0.00    -0.039 A 
ATOM     15  C   UNL     1     139.897 142.270 129.289  1.00  0.00     0.039 A 
ATOM     16  C   UNL     1     138.214 140.524 129.607  1.00  0.00     0.013 A 
ATOM     17  C   UNL     1     137.446 139.769 131.872  1.00  0.00     0.045 C 
ATOM     18  C   UNL     1     138.964 141.343 128.733  1.00  0.00    -0.006 A 
ATOM     19  C   UNL     1     140.748 143.004 128.407  1.00  0.00     0.072 A 
ATOM     20  C   UNL     1     138.825 141.223 127.315  1.00  0.00     0.008 A 
ATOM     21  C   UNL     1     140.705 142.755 127.020  1.00  0.00     0.169 A 
ATOM     22  C   UNL     1     139.784 141.847 126.490  1.00  0.00     0.162 A 
BRANCH  13  23
ATOM     23  O   UNL     1     140.861 143.317 131.292  1.00  0.00    -0.507 OA
ATOM     24  H   UNL     1     141.044 144.241 130.923  1.00  0.00     0.293 HD
ENDBRANCH  13  23
BRANCH  19  25
ATOM     25  C   UNL     1     141.698 144.021 128.901  1.00  0.00     0.264 C 
ATOM     26  O   UNL     1     142.936 143.788 128.915  1.00  0.00    -0.298 OA
ENDBRANCH  19  25
BRANCH  20  27
ATOM     27  C   UNL     1     137.678 140.420 126.677  1.00  0.00     0.017 C 
ATOM     28  C   UNL     1     138.154 139.025 126.262  1.00  0.00     0.012 C 
ATOM     29  C   UNL     1     136.985 141.144 125.505  1.00  0.00     0.012 C 
ENDBRANCH  20  27
BRANCH  21  30
ATOM     30  O   UNL     1     141.552 143.425 126.128  1.00  0.00    -0.504 OA
ATOM     31  H   UNL     1     142.022 144.296 126.334  1.00  0.00     0.293 HD
ENDBRANCH  21  30
BRANCH  22  32
ATOM     32  O   UNL     1     139.817 141.562 125.122  1.00  0.00    -0.504 OA
ATOM     33  H   UNL     1     140.678 141.408 124.611  1.00  0.00     0.293 HD
ENDBRANCH  22  32
ENDBRANCH  11  12
BRANCH  10  34
ATOM     34  O   UNL     1     137.492 143.403 132.986  1.00  0.00    -0.507 OA
ATOM     35  H   UNL     1     137.772 144.206 132.438  1.00  0.00     0.293 HD
ENDBRANCH  10  34
BRANCH   9  36
ATOM     36  C   UNL     1     141.001 141.952 137.972  1.00  0.00     0.017 C 
ATOM     37  C   UNL     1     141.439 143.087 138.907  1.00  0.00     0.012 C 
ATOM     38  C   UNL     1     141.029 140.571 138.658  1.00  0.00     0.012 C 
ENDBRANCH   9  36
BRANCH   6  39
ATOM     39  C   UNL     1     136.289 144.058 135.252  1.00  0.00     0.264 C 
ATOM     40  O   UNL     1     135.207 143.422 135.132  1.00  0.00    -0.298 OA
ENDBRANCH   6  39
BRANCH   8  41
ATOM     41  O   UNL     1     138.644 142.977 139.354  1.00  0.00    -0.504 OA
ATOM     42  H   UNL     1     137.855 143.289 139.905  1.00  0.00     0.293 HD
ENDBRANCH   8  41
BRANCH   7  43
ATOM     43  O   UNL     1     136.576 144.083 138.086  1.00  0.00    -0.504 OA
ATOM     44  H   UNL     1     135.793 143.585 138.489  1.00  0.00     0.293 HD
ENDBRANCH   7  43
TORSDOF 11
ENDMDL
MODEL 6
REMARK VINA RESULT:    -5.357     10.181     14.814
REMARK INTER + INTRA:          -9.400
REMARK INTER:                  -7.874
REMARK INTRA:                  -1.526
REMARK UNBOUND:                -1.537
REMARK SMILES Cc1cc2c(C(C)C)c(O)c(O)c(C=O)c2c(O)c1-c1c(C)cc2c(C(C)C)c(O)c(O)c(C=O)c2c1O
REMARK SMILES IDX 1 1 2 2 3 3 4 4 16 5 13 6 11 7 9 8 5 9 17 10 19 11 20 12
REMARK SMILES IDX 37 13 21 14 36 15 23 16 22 17 24 18 33 19 25 20 31 21 29 22
REMARK SMILES IDX 38 23 34 25 35 26 26 27 27 28 28 29 32 30 30 32 18 34 6 36
REMARK SMILES IDX 7 37 8 38 14 39 15 40 10 41 12 43
REMARK H PARENT 38 24 32 31 30 33 18 35 10 42 12 44
REMARK Flexibility Score: inf
ROOT
ATOM      1  C   UNL     1     131.212 141.098 133.803  1.00  0.00     0.045 C 
ATOM      2  C   UNL     1     130.183 141.525 134.821  1.00  0.00    -0.039 A 
ATOM      3  C   UNL     1     130.567 141.704 136.150  1.00  0.00     0.013 A 
ATOM      4  C   UNL     1     129.654 142.107 137.144  1.00  0.00    -0.006 A 
ATOM      5  C   UNL     1     128.272 142.211 136.800  1.00  0.00     0.039 A 
ATOM      6  C   UNL     1     127.316 142.410 137.839  1.00  0.00     0.072 A 
ATOM      7  C   UNL     1     127.747 142.486 139.179  1.00  0.00     0.169 A 
ATOM      8  C   UNL     1     129.103 142.468 139.495  1.00  0.00     0.162 A 
ATOM      9  C   UNL     1     130.086 142.388 138.478  1.00  0.00     0.008 A 
ATOM     10  C   UNL     1     127.900 142.131 135.424  1.00  0.00     0.132 A 
ATOM     11  C   UNL     1     128.852 141.770 134.447  1.00  0.00     0.031 A 
ENDROOT
BRANCH  11  12
ATOM     12  C   UNL     1     128.446 141.628 133.024  1.00  0.00     0.031 A 
ATOM     13  C   UNL     1     128.064 140.368 132.515  1.00  0.00     0.132 A 
ATOM     14  C   UNL     1     128.411 142.762 132.197  1.00  0.00    -0.039 A 
ATOM     15  C   UNL     1     127.662 140.229 131.150  1.00  0.00     0.039 A 
ATOM     16  C   UNL     1     128.020 142.631 130.865  1.00  0.00     0.013 A 
ATOM     17  C   UNL     1     128.781 144.125 132.730  1.00  0.00     0.045 C 
ATOM     18  C   UNL     1     127.687 141.378 130.303  1.00  0.00    -0.006 A 
ATOM     19  C   UNL     1     127.199 138.988 130.614  1.00  0.00     0.072 A 
ATOM     20  C   UNL     1     127.341 141.263 128.921  1.00  0.00     0.008 A 
ATOM     21  C   UNL     1     126.712 138.931 129.292  1.00  0.00     0.169 A 
ATOM     22  C   UNL     1     126.746 140.064 128.473  1.00  0.00     0.162 A 
BRANCH  13  23
ATOM     23  O   UNL     1     128.074 139.260 133.370  1.00  0.00    -0.507 OA
ATOM     24  H   UNL     1     128.402 138.341 133.102  1.00  0.00     0.293 HD
ENDBRANCH  13  23
BRANCH  19  25
ATOM     25  C   UNL     1     127.197 137.743 131.408  1.00  0.00     0.264 C 
ATOM     26  O   UNL     1     126.124 137.292 131.889  1.00  0.00    -0.298 OA
ENDBRANCH  19  25
BRANCH  20  27
ATOM     27  C   UNL     1     127.580 142.412 127.925  1.00  0.00     0.017 C 
ATOM     28  C   UNL     1     126.251 142.967 127.404  1.00  0.00     0.012 C 
ATOM     29  C   UNL     1     128.525 142.045 126.764  1.00  0.00     0.012 C 
ENDBRANCH  20  27
BRANCH  21  30
ATOM     30  O   UNL     1     126.212 137.743 128.744  1.00  0.00    -0.504 OA
ATOM     31  H   UNL     1     125.272 137.401 128.891  1.00  0.00     0.293 HD
ENDBRANCH  21  30
BRANCH  22  32
ATOM     32  O   UNL     1     126.185 139.999 127.195  1.00  0.00    -0.504 OA
ATOM     33  H   UNL     1     125.434 139.365 126.954  1.00  0.00     0.293 HD
ENDBRANCH  22  32
ENDBRANCH  11  12
BRANCH  10  34
ATOM     34  O   UNL     1     126.593 142.436 135.026  1.00  0.00    -0.507 OA
ATOM     35  H   UNL     1     125.992 143.088 135.514  1.00  0.00     0.293 HD
ENDBRANCH  10  34
BRANCH   9  36
ATOM     36  C   UNL     1     131.549 142.697 138.852  1.00  0.00     0.017 C 
ATOM     37  C   UNL     1     131.727 144.123 139.391  1.00  0.00     0.012 C 
ATOM     38  C   UNL     1     132.221 141.635 139.746  1.00  0.00     0.012 C 
ENDBRANCH   9  36
BRANCH   6  39
ATOM     39  C   UNL     1     125.863 142.435 137.571  1.00  0.00     0.264 C 
ATOM     40  O   UNL     1     125.204 143.500 137.709  1.00  0.00    -0.298 OA
ENDBRANCH   6  39
BRANCH   8  41
ATOM     41  O   UNL     1     129.436 142.506 140.854  1.00  0.00    -0.504 OA
ATOM     42  H   UNL     1     129.535 141.685 141.437  1.00  0.00     0.293 HD
ENDBRANCH   8  41
BRANCH   7  43
ATOM     43  O   UNL     1     126.840 142.553 140.244  1.00  0.00    -0.504 OA
ATOM     44  H   UNL     1     125.988 142.011 140.298  1.00  0.00     0.293 HD
ENDBRANCH   7  43
TORSDOF 11
ENDMDL
MODEL 7
REMARK VINA RESULT:    -5.325     17.356     21.065
REMARK INTER + INTRA:          -9.352
REMARK INTER:                  -7.947
REMARK INTRA:                  -1.405
REMARK UNBOUND:                -1.537
REMARK SMILES Cc1cc2c(C(C)C)c(O)c(O)c(C=O)c2c(O)c1-c1c(C)cc2c(C(C)C)c(O)c(O)c(C=O)c2c1O
REMARK SMILES IDX 1 1 2 2 3 3 4 4 16 5 13 6 11 7 9 8 5 9 17 10 19 11 20 12
REMARK SMILES IDX 37 13 21 14 36 15 23 16 22 17 24 18 33 19 25 20 31 21 29 22
REMARK SMILES IDX 38 23 34 25 35 26 26 27 27 28 28 29 32 30 30 32 18 34 6 36
REMARK SMILES IDX 7 37 8 38 14 39 15 40 10 41 12 43
REMARK H PARENT 38 24 32 31 30 33 18 35 10 42 12 44
REMARK Flexibility Score: inf
ROOT
ATOM      1  C   UNL     1     127.059 127.993 133.202  1.00  0.00     0.045 C 
ATOM      2  C   UNL     1     127.940 127.022 133.950  1.00  0.00    -0.039 A 
ATOM      3  C   UNL     1     127.813 126.908 135.334  1.00  0.00     0.013 A 
ATOM      4  C   UNL     1     128.602 126.016 136.086  1.00  0.00    -0.006 A 
ATOM      5  C   UNL     1     129.645 125.302 135.422  1.00  0.00     0.039 A 
ATOM      6  C   UNL     1     130.581 124.562 136.204  1.00  0.00     0.072 A 
ATOM      7  C   UNL     1     130.467 124.559 137.609  1.00  0.00     0.169 A 
ATOM      8  C   UNL     1     129.397 125.189 138.240  1.00  0.00     0.162 A 
ATOM      9  C   UNL     1     128.387 125.836 137.487  1.00  0.00     0.008 A 
ATOM     10  C   UNL     1     129.704 125.340 133.996  1.00  0.00     0.132 A 
ATOM     11  C   UNL     1     128.864 126.213 133.271  1.00  0.00     0.031 A 
ENDROOT
BRANCH  11  12
ATOM     12  C   UNL     1     128.971 126.293 131.790  1.00  0.00     0.031 A 
ATOM     13  C   UNL     1     128.121 125.519 130.972  1.00  0.00     0.132 A 
ATOM     14  C   UNL     1     129.900 127.171 131.209  1.00  0.00    -0.039 A 
ATOM     15  C   UNL     1     128.213 125.601 129.547  1.00  0.00     0.039 A 
ATOM     16  C   UNL     1     129.994 127.255 129.820  1.00  0.00     0.013 A 
ATOM     17  C   UNL     1     130.794 128.035 132.066  1.00  0.00     0.045 C 
ATOM     18  C   UNL     1     129.202 126.453 128.968  1.00  0.00    -0.006 A 
ATOM     19  C   UNL     1     127.324 124.891 128.683  1.00  0.00     0.072 A 
ATOM     20  C   UNL     1     129.354 126.519 127.548  1.00  0.00     0.008 A 
ATOM     21  C   UNL     1     127.388 125.092 127.289  1.00  0.00     0.169 A 
ATOM     22  C   UNL     1     128.363 125.927 126.736  1.00  0.00     0.162 A 
BRANCH  13  23
ATOM     23  O   UNL     1     127.179 124.678 131.576  1.00  0.00    -0.507 OA
ATOM     24  H   UNL     1     127.393 123.760 131.945  1.00  0.00     0.293 HD
ENDBRANCH  13  23
BRANCH  19  25
ATOM     25  C   UNL     1     126.313 123.948 129.202  1.00  0.00     0.264 C 
ATOM     26  O   UNL     1     125.095 124.265 129.229  1.00  0.00    -0.298 OA
ENDBRANCH  19  25
BRANCH  20  27
ATOM     27  C   UNL     1     130.550 127.233 126.892  1.00  0.00     0.017 C 
ATOM     28  C   UNL     1     130.126 128.584 126.309  1.00  0.00     0.012 C 
ATOM     29  C   UNL     1     131.287 126.379 125.842  1.00  0.00     0.012 C 
ENDBRANCH  20  27
BRANCH  21  30
ATOM     30  O   UNL     1     126.507 124.446 126.413  1.00  0.00    -0.504 OA
ATOM     31  H   UNL     1     126.571 124.493 125.405  1.00  0.00     0.293 HD
ENDBRANCH  21  30
BRANCH  22  32
ATOM     32  O   UNL     1     128.354 126.170 125.360  1.00  0.00    -0.504 OA
ATOM     33  H   UNL     1     128.396 127.101 124.964  1.00  0.00     0.293 HD
ENDBRANCH  22  32
ENDBRANCH  11  12
BRANCH  10  34
ATOM     34  O   UNL     1     130.573 124.492 133.300  1.00  0.00    -0.507 OA
ATOM     35  H   UNL     1     131.210 123.846 133.749  1.00  0.00     0.293 HD
ENDBRANCH  10  34
BRANCH   9  36
ATOM     36  C   UNL     1     127.079 126.224 138.205  1.00  0.00     0.017 C 
ATOM     37  C   UNL     1     126.524 125.084 139.069  1.00  0.00     0.012 C 
ATOM     38  C   UNL     1     127.136 127.569 138.959  1.00  0.00     0.012 C 
ENDBRANCH   9  36
BRANCH   6  39
ATOM     39  C   UNL     1     131.739 123.875 135.596  1.00  0.00     0.264 C 
ATOM     40  O   UNL     1     132.871 124.428 135.568  1.00  0.00    -0.298 OA
ENDBRANCH   6  39
BRANCH   8  41
ATOM     41  O   UNL     1     129.391 125.170 139.640  1.00  0.00    -0.504 OA
ATOM     42  H   UNL     1     129.274 124.334 140.197  1.00  0.00     0.293 HD
ENDBRANCH   8  41
BRANCH   7  43
ATOM     43  O   UNL     1     131.431 123.955 138.427  1.00  0.00    -0.504 OA
ATOM     44  H   UNL     1     131.554 122.955 138.514  1.00  0.00     0.293 HD
ENDBRANCH   7  43
TORSDOF 11
ENDMDL
MODEL 8
REMARK VINA RESULT:    -5.304     14.253     17.952
REMARK INTER + INTRA:          -9.321
REMARK INTER:                  -7.867
REMARK INTRA:                  -1.454
REMARK UNBOUND:                -1.537
REMARK SMILES Cc1cc2c(C(C)C)c(O)c(O)c(C=O)c2c(O)c1-c1c(C)cc2c(C(C)C)c(O)c(O)c(C=O)c2c1O
REMARK SMILES IDX 1 1 2 2 3 3 4 4 16 5 13 6 11 7 9 8 5 9 17 10 19 11 20 12
REMARK SMILES IDX 37 13 21 14 36 15 23 16 22 17 24 18 33 19 25 20 31 21 29 22
REMARK SMILES IDX 38 23 34 25 35 26 26 27 27 28 28 29 32 30 30 32 18 34 6 36
REMARK SMILES IDX 7 37 8 38 14 39 15 40 10 41 12 43
REMARK H PARENT 38 24 32 31 30 33 18 35 10 42 12 44
REMARK Flexibility Score: inf
ROOT
ATOM      1  C   UNL     1     137.805 128.492 135.086  1.00  0.00     0.045 C 
ATOM      2  C   UNL     1     138.495 127.487 135.976  1.00  0.00    -0.039 A 
ATOM      3  C   UNL     1     138.401 127.619 137.361  1.00  0.00     0.013 A 
ATOM      4  C   UNL     1     139.018 126.711 138.243  1.00  0.00    -0.006 A 
ATOM      5  C   UNL     1     139.866 125.700 137.696  1.00  0.00     0.039 A 
ATOM      6  C   UNL     1     140.659 124.912 138.583  1.00  0.00     0.072 A 
ATOM      7  C   UNL     1     140.601 125.153 139.971  1.00  0.00     0.169 A 
ATOM      8  C   UNL     1     139.709 126.083 140.498  1.00  0.00     0.162 A 
ATOM      9  C   UNL     1     138.825 126.801 139.656  1.00  0.00     0.008 A 
ATOM     10  C   UNL     1     139.876 125.501 136.283  1.00  0.00     0.132 A 
ATOM     11  C   UNL     1     139.206 126.406 135.431  1.00  0.00     0.031 A 
ENDROOT
BRANCH  11  12
ATOM     12  C   UNL     1     139.270 126.230 133.957  1.00  0.00     0.031 A 
ATOM     13  C   UNL     1     138.292 125.463 133.288  1.00  0.00     0.132 A 
ATOM     14  C   UNL     1     140.291 126.861 133.227  1.00  0.00    -0.039 A 
ATOM     15  C   UNL     1     138.343 125.299 131.868  1.00  0.00     0.039 A 
ATOM     16  C   UNL     1     140.345 126.704 131.842  1.00  0.00     0.013 A 
ATOM     17  C   UNL     1     141.326 127.715 133.918  1.00  0.00     0.045 C 
ATOM     18  C   UNL     1     139.420 125.897 131.144  1.00  0.00    -0.006 A 
ATOM     19  C   UNL     1     137.334 124.593 131.144  1.00  0.00     0.072 A 
ATOM     20  C   UNL     1     139.529 125.710 129.731  1.00  0.00     0.008 A 
ATOM     21  C   UNL     1     137.376 124.555 129.735  1.00  0.00     0.169 A 
ATOM     22  C   UNL     1     138.437 125.141 129.040  1.00  0.00     0.162 A 
BRANCH  13  23
ATOM     23  O   UNL     1     137.265 124.874 134.034  1.00  0.00    -0.507 OA
ATOM     24  H   UNL     1     137.169 123.876 134.177  1.00  0.00     0.293 HD
ENDBRANCH  13  23
BRANCH  19  25
ATOM     25  C   UNL     1     136.222 123.900 131.825  1.00  0.00     0.264 C 
ATOM     26  O   UNL     1     135.099 124.457 131.946  1.00  0.00    -0.298 OA
ENDBRANCH  19  25
BRANCH  20  27
ATOM     27  C   UNL     1     140.788 126.130 128.951  1.00  0.00     0.017 C 
ATOM     28  C   UNL     1     140.568 127.469 128.240  1.00  0.00     0.012 C 
ATOM     29  C   UNL     1     141.303 125.057 127.972  1.00  0.00     0.012 C 
ENDBRANCH  20  27
BRANCH  21  30
ATOM     30  O   UNL     1     136.383 123.908 128.989  1.00  0.00    -0.504 OA
ATOM     31  H   UNL     1     136.411 123.792 127.985  1.00  0.00     0.293 HD
ENDBRANCH  21  30
BRANCH  22  32
ATOM     32  O   UNL     1     138.412 125.158 127.643  1.00  0.00    -0.504 OA
ATOM     33  H   UNL     1     137.985 125.904 127.108  1.00  0.00     0.293 HD
ENDBRANCH  22  32
ENDBRANCH  11  12
BRANCH  10  34
ATOM     34  O   UNL     1     140.525 124.392 135.728  1.00  0.00    -0.507 OA
ATOM     35  H   UNL     1     140.771 124.314 134.749  1.00  0.00     0.293 HD
ENDBRANCH  10  34
BRANCH   9  36
ATOM     36  C   UNL     1     137.653 127.562 140.308  1.00  0.00     0.017 C 
ATOM     37  C   UNL     1     137.821 129.084 140.218  1.00  0.00     0.012 C 
ATOM     38  C   UNL     1     136.254 127.090 139.861  1.00  0.00     0.012 C 
ENDBRANCH   9  36
BRANCH   6  39
ATOM     39  C   UNL     1     141.626 123.911 138.087  1.00  0.00     0.264 C 
ATOM     40  O   UNL     1     142.829 124.227 137.884  1.00  0.00    -0.298 OA
ENDBRANCH   6  39
BRANCH   8  41
ATOM     41  O   UNL     1     139.753 126.285 141.883  1.00  0.00    -0.504 OA
ATOM     42  H   UNL     1     139.791 127.195 142.323  1.00  0.00     0.293 HD
ENDBRANCH   8  41
BRANCH   7  43
ATOM     43  O   UNL     1     141.451 124.495 140.870  1.00  0.00    -0.504 OA
ATOM     44  H   UNL     1     142.436 124.340 140.708  1.00  0.00     0.293 HD
ENDBRANCH   7  43
TORSDOF 11
ENDMDL
MODEL 9
REMARK VINA RESULT:    -5.273     17.374     19.446
REMARK INTER + INTRA:          -9.276
REMARK INTER:                  -7.728
REMARK INTRA:                  -1.548
REMARK UNBOUND:                -1.537
REMARK SMILES Cc1cc2c(C(C)C)c(O)c(O)c(C=O)c2c(O)c1-c1c(C)cc2c(C(C)C)c(O)c(O)c(C=O)c2c1O
REMARK SMILES IDX 1 1 2 2 3 3 4 4 16 5 13 6 11 7 9 8 5 9 17 10 19 11 20 12
REMARK SMILES IDX 37 13 21 14 36 15 23 16 22 17 24 18 33 19 25 20 31 21 29 22
REMARK SMILES IDX 38 23 34 25 35 26 26 27 27 28 28 29 32 30 30 32 18 34 6 36
REMARK SMILES IDX 7 37 8 38 14 39 15 40 10 41 12 43
REMARK H PARENT 38 24 32 31 30 33 18 35 10 42 12 44
REMARK Flexibility Score: inf
ROOT
ATOM      1  C   UNL     1     131.306 127.146 132.907  1.00  0.00     0.045 C 
ATOM      2  C   UNL     1     130.278 126.648 131.920  1.00  0.00    -0.039 A 
ATOM      3  C   UNL     1     130.617 126.541 130.571  1.00  0.00     0.013 A 
ATOM      4  C   UNL     1     129.704 126.077 129.605  1.00  0.00    -0.006 A 
ATOM      5  C   UNL     1     128.355 125.831 130.004  1.00  0.00     0.039 A 
ATOM      6  C   UNL     1     127.376 125.568 129.000  1.00  0.00     0.072 A 
ATOM      7  C   UNL     1     127.752 125.568 127.642  1.00  0.00     0.169 A 
ATOM      8  C   UNL     1     129.085 125.725 127.270  1.00  0.00     0.162 A 
ATOM      9  C   UNL     1     130.100 125.874 128.247  1.00  0.00     0.008 A 
ATOM     10  C   UNL     1     128.038 125.839 131.396  1.00  0.00     0.132 A 
ATOM     11  C   UNL     1     128.995 126.265 132.342  1.00  0.00     0.031 A 
ENDROOT
BRANCH  11  12
ATOM     12  C   UNL     1     128.641 126.331 133.785  1.00  0.00     0.031 A 
ATOM     13  C   UNL     1     128.157 127.532 134.345  1.00  0.00     0.132 A 
ATOM     14  C   UNL     1     128.758 125.180 134.580  1.00  0.00    -0.039 A 
ATOM     15  C   UNL     1     127.805 127.597 135.730  1.00  0.00     0.039 A 
ATOM     16  C   UNL     1     128.417 125.238 135.931  1.00  0.00     0.013 A 
ATOM     17  C   UNL     1     129.240 123.875 133.993  1.00  0.00     0.045 C 
ATOM     18  C   UNL     1     127.985 126.436 136.542  1.00  0.00    -0.006 A 
ATOM     19  C   UNL     1     127.244 128.771 136.320  1.00  0.00     0.072 A 
ATOM     20  C   UNL     1     127.691 126.482 137.940  1.00  0.00     0.008 A 
ATOM     21  C   UNL     1     126.814 128.746 137.663  1.00  0.00     0.169 A 
ATOM     22  C   UNL     1     126.999 127.603 138.447  1.00  0.00     0.162 A 
BRANCH  13  23
ATOM     23  O   UNL     1     128.016 128.656 133.523  1.00  0.00    -0.507 OA
ATOM     24  H   UNL     1     127.224 128.815 132.912  1.00  0.00     0.293 HD
ENDBRANCH  13  23
BRANCH  19  25
ATOM     25  C   UNL     1     127.080 130.027 135.563  1.00  0.00     0.264 C 
ATOM     26  O   UNL     1     125.946 130.377 135.140  1.00  0.00    -0.298 OA
ENDBRANCH  19  25
BRANCH  20  27
ATOM     27  C   UNL     1     128.090 125.340 138.892  1.00  0.00     0.017 C 
ATOM     28  C   UNL     1     126.858 124.548 139.339  1.00  0.00     0.012 C 
ATOM     29  C   UNL     1     128.928 125.799 140.102  1.00  0.00     0.012 C 
ENDBRANCH  20  27
BRANCH  21  30
ATOM     30  O   UNL     1     126.221 129.863 138.265  1.00  0.00    -0.504 OA
ATOM     31  H   UNL     1     125.690 129.831 139.124  1.00  0.00     0.293 HD
ENDBRANCH  21  30
BRANCH  22  32
ATOM     32  O   UNL     1     126.493 127.579 139.749  1.00  0.00    -0.504 OA
ATOM     33  H   UNL     1     126.711 128.287 140.439  1.00  0.00     0.293 HD
ENDBRANCH  22  32
ENDBRANCH  11  12
BRANCH  10  34
ATOM     34  O   UNL     1     126.786 125.399 131.840  1.00  0.00    -0.507 OA
ATOM     35  H   UNL     1     126.255 124.664 131.390  1.00  0.00     0.293 HD
ENDBRANCH  10  34
BRANCH   9  36
ATOM     36  C   UNL     1     131.568 125.717 127.802  1.00  0.00     0.017 C 
ATOM     37  C   UNL     1     131.846 124.346 127.173  1.00  0.00     0.012 C 
ATOM     38  C   UNL     1     132.108 126.884 126.949  1.00  0.00     0.012 C 
ENDBRANCH   9  36
BRANCH   6  39
ATOM     39  C   UNL     1     125.946 125.395 129.329  1.00  0.00     0.264 C 
ATOM     40  O   UNL     1     125.400 124.263 129.240  1.00  0.00    -0.298 OA
ENDBRANCH   6  39
BRANCH   8  41
ATOM     41  O   UNL     1     129.358 125.755 125.897  1.00  0.00    -0.504 OA
ATOM     42  H   UNL     1     128.658 125.638 125.176  1.00  0.00     0.293 HD
ENDBRANCH   8  41
BRANCH   7  43
ATOM     43  O   UNL     1     126.809 125.441 126.614  1.00  0.00    -0.504 OA
ATOM     44  H   UNL     1     125.850 125.156 126.758  1.00  0.00     0.293 HD
ENDBRANCH   7  43
TORSDOF 11
ENDMDL
