MODEL 1
REMARK VINA RESULT:    -5.386      0.000      0.000
REMARK INTER + INTRA:         -13.413
REMARK INTER:                 -10.424
REMARK INTRA:                  -2.988
REMARK UNBOUND:                -2.988
REMARK SMILES CCCCCCCCCCCCCCCCCC(=O)[O-]
REMARK SMILES IDX 10 1 11 2 12 3 13 4 14 5 15 6 16 7 17 8 18 9 19 10 20 11
REMARK SMILES IDX 9 12 8 13 7 14 6 15 5 16 4 17 3 18 2 19 1 20
REMARK H PARENT
REMARK Flexibility Score: inf
ROOT
ATOM      1  C   UNL     1      20.815  -2.664 -37.752  1.00  0.00     0.000 C 
ENDROOT
BRANCH   1   2
ATOM      2  C   UNL     1      20.516  -3.793 -38.757  1.00  0.00     0.000 C 
BRANCH   2   3
ATOM      3  C   UNL     1      21.451  -3.756 -39.979  1.00  0.00     0.000 C 
BRANCH   3   4
ATOM      4  C   UNL     1      22.371  -4.988 -40.069  1.00  0.00     0.000 C 
BRANCH   4   5
ATOM      5  C   UNL     1      23.867  -4.703 -39.845  1.00  0.00     0.000 C 
BRANCH   5   6
ATOM      6  C   UNL     1      24.154  -3.226 -39.530  1.00  0.00     0.000 C 
BRANCH   6   7
ATOM      7  C   UNL     1      25.512  -3.025 -38.839  1.00  0.00     0.006 C 
BRANCH   7   8
ATOM      8  C   UNL     1      25.982  -4.267 -38.069  1.00  0.00     0.053 C 
BRANCH   8   9
ATOM      9  C   UNL     1      27.477  -4.351 -38.075  1.00  0.00     0.041 C 
ATOM     10  O   UNL     1      28.057  -5.422 -37.749  1.00  0.00    -0.550 OA
ATOM     11  O   UNL     1      28.233  -3.237 -38.416  1.00  0.00    -0.550 OA
ENDBRANCH   8   9
ENDBRANCH   7   8
ENDBRANCH   6   7
ENDBRANCH   5   6
ENDBRANCH   4   5
ENDBRANCH   3   4
ENDBRANCH   2   3
ENDBRANCH   1   2
BRANCH   1  12
ATOM     12  C   UNL     1      21.764  -3.079 -36.606  1.00  0.00     0.000 C 
BRANCH  12  13
ATOM     13  C   UNL     1      21.863  -4.600 -36.386  1.00  0.00    -0.000 C 
BRANCH  13  14
ATOM     14  C   UNL     1      23.290  -5.055 -36.028  1.00  0.00    -0.000 C 
BRANCH  14  15
ATOM     15  C   UNL     1      23.575  -6.502 -36.461  1.00  0.00    -0.000 C 
BRANCH  15  16
ATOM     16  C   UNL     1      22.368  -7.154 -37.157  1.00  0.00    -0.000 C 
BRANCH  16  17
ATOM     17  C   UNL     1      22.718  -8.490 -37.835  1.00  0.00    -0.000 C 
BRANCH  17  18
ATOM     18  C   UNL     1      23.231  -8.375 -39.281  1.00  0.00    -0.000 C 
BRANCH  18  19
ATOM     19  C   UNL     1      24.674  -8.873 -39.447  1.00  0.00    -0.003 C 
ATOM     20  C   UNL     1      25.671  -7.851 -38.908  1.00  0.00     0.004 C 
ENDBRANCH  18  19
ENDBRANCH  17  18
ENDBRANCH  16  17
ENDBRANCH  15  16
ENDBRANCH  14  15
ENDBRANCH  13  14
ENDBRANCH  12  13
ENDBRANCH   1  12
TORSDOF 16
ENDMDL
MODEL 2
REMARK VINA RESULT:    -5.358      1.735      4.617
REMARK INTER + INTRA:         -13.359
REMARK INTER:                 -10.413
REMARK INTRA:                  -2.946
REMARK UNBOUND:                -2.988
REMARK SMILES CCCCCCCCCCCCCCCCCC(=O)[O-]
REMARK SMILES IDX 10 1 11 2 12 3 13 4 14 5 15 6 16 7 17 8 18 9 19 10 20 11
REMARK SMILES IDX 9 12 8 13 7 14 6 15 5 16 4 17 3 18 2 19 1 20
REMARK H PARENT
REMARK Flexibility Score: inf
ROOT
ATOM      1  C   UNL     1      20.924  -2.614 -37.714  1.00  0.00     0.000 C 
ENDROOT
BRANCH   1   2
ATOM      2  C   UNL     1      21.494  -3.000 -36.336  1.00  0.00     0.000 C 
BRANCH   2   3
ATOM      3  C   UNL     1      21.781  -4.508 -36.219  1.00  0.00     0.000 C 
BRANCH   3   4
ATOM      4  C   UNL     1      23.285  -4.827 -36.136  1.00  0.00     0.000 C 
BRANCH   4   5
ATOM      5  C   UNL     1      23.662  -6.285 -36.456  1.00  0.00     0.000 C 
BRANCH   5   6
ATOM      6  C   UNL     1      22.466  -7.117 -36.946  1.00  0.00     0.000 C 
BRANCH   6   7
ATOM      7  C   UNL     1      22.872  -8.179 -37.981  1.00  0.00     0.006 C 
BRANCH   7   8
ATOM      8  C   UNL     1      24.389  -8.399 -38.049  1.00  0.00     0.053 C 
BRANCH   8   9
ATOM      9  C   UNL     1      24.826  -8.605 -39.466  1.00  0.00     0.041 C 
ATOM     10  O   UNL     1      25.717  -7.872 -39.972  1.00  0.00    -0.550 OA
ATOM     11  O   UNL     1      24.229  -9.593 -40.239  1.00  0.00    -0.550 OA
ENDBRANCH   8   9
ENDBRANCH   7   8
ENDBRANCH   6   7
ENDBRANCH   5   6
ENDBRANCH   4   5
ENDBRANCH   3   4
ENDBRANCH   2   3
ENDBRANCH   1   2
BRANCH   1  12
ATOM     12  C   UNL     1      20.600  -3.822 -38.620  1.00  0.00     0.000 C 
BRANCH  12  13
ATOM     13  C   UNL     1      21.476  -3.918 -39.884  1.00  0.00    -0.000 C 
BRANCH  13  14
ATOM     14  C   UNL     1      22.398  -5.151 -39.872  1.00  0.00    -0.000 C 
BRANCH  14  15
ATOM     15  C   UNL     1      23.882  -4.781 -40.028  1.00  0.00    -0.000 C 
BRANCH  15  16
ATOM     16  C   UNL     1      24.180  -3.346 -39.562  1.00  0.00    -0.000 C 
BRANCH  16  17
ATOM     17  C   UNL     1      25.414  -3.257 -38.648  1.00  0.00    -0.000 C 
BRANCH  17  18
ATOM     18  C   UNL     1      26.171  -4.581 -38.441  1.00  0.00    -0.000 C 
BRANCH  18  19
ATOM     19  C   UNL     1      27.553  -4.388 -37.800  1.00  0.00    -0.003 C 
ATOM     20  C   UNL     1      28.341  -3.295 -38.517  1.00  0.00     0.004 C 
ENDBRANCH  18  19
ENDBRANCH  17  18
ENDBRANCH  16  17
ENDBRANCH  15  16
ENDBRANCH  14  15
ENDBRANCH  13  14
ENDBRANCH  12  13
ENDBRANCH   1  12
TORSDOF 16
ENDMDL
MODEL 3
REMARK VINA RESULT:    -5.308      2.023      4.664
REMARK INTER + INTRA:         -13.262
REMARK INTER:                 -10.467
REMARK INTRA:                  -2.796
REMARK UNBOUND:                -2.988
REMARK SMILES CCCCCCCCCCCCCCCCCC(=O)[O-]
REMARK SMILES IDX 10 1 11 2 12 3 13 4 14 5 15 6 16 7 17 8 18 9 19 10 20 11
REMARK SMILES IDX 9 12 8 13 7 14 6 15 5 16 4 17 3 18 2 19 1 20
REMARK H PARENT
REMARK Flexibility Score: inf
ROOT
ATOM      1  C   UNL     1      20.533  -3.866 -38.918  1.00  0.00     0.000 C 
ENDROOT
BRANCH   1   2
ATOM      2  C   UNL     1      20.790  -2.653 -38.003  1.00  0.00     0.000 C 
BRANCH   2   3
ATOM      3  C   UNL     1      21.290  -3.065 -36.606  1.00  0.00     0.000 C 
BRANCH   3   4
ATOM      4  C   UNL     1      21.601  -4.569 -36.500  1.00  0.00     0.000 C 
BRANCH   4   5
ATOM      5  C   UNL     1      23.076  -4.912 -36.222  1.00  0.00     0.000 C 
BRANCH   5   6
ATOM      6  C   UNL     1      23.401  -6.395 -36.464  1.00  0.00     0.000 C 
BRANCH   6   7
ATOM      7  C   UNL     1      22.344  -7.095 -37.333  1.00  0.00     0.006 C 
BRANCH   7   8
ATOM      8  C   UNL     1      22.762  -8.510 -37.759  1.00  0.00     0.053 C 
BRANCH   8   9
ATOM      9  C   UNL     1      23.232  -8.511 -39.181  1.00  0.00     0.041 C 
ATOM     10  O   UNL     1      24.463  -8.454 -39.445  1.00  0.00    -0.550 OA
ATOM     11  O   UNL     1      22.308  -8.550 -40.216  1.00  0.00    -0.550 OA
ENDBRANCH   8   9
ENDBRANCH   7   8
ENDBRANCH   6   7
ENDBRANCH   5   6
ENDBRANCH   4   5
ENDBRANCH   3   4
ENDBRANCH   2   3
ENDBRANCH   1   2
BRANCH   1  12
ATOM     12  C   UNL     1      21.450  -3.922 -40.159  1.00  0.00     0.000 C 
BRANCH  12  13
ATOM     13  C   UNL     1      22.374  -5.153 -40.208  1.00  0.00    -0.000 C 
BRANCH  13  14
ATOM     14  C   UNL     1      23.844  -4.803 -39.910  1.00  0.00    -0.000 C 
BRANCH  14  15
ATOM     15  C   UNL     1      24.035  -3.322 -39.543  1.00  0.00    -0.000 C 
BRANCH  15  16
ATOM     16  C   UNL     1      25.394  -3.055 -38.875  1.00  0.00    -0.000 C 
BRANCH  16  17
ATOM     17  C   UNL     1      25.948  -4.285 -38.133  1.00  0.00    -0.000 C 
BRANCH  17  18
ATOM     18  C   UNL     1      27.481  -4.355 -38.038  1.00  0.00    -0.000 C 
BRANCH  18  19
ATOM     19  C   UNL     1      27.995  -5.748 -37.645  1.00  0.00    -0.003 C 
ATOM     20  C   UNL     1      26.838  -6.725 -37.457  1.00  0.00     0.004 C 
ENDBRANCH  18  19
ENDBRANCH  17  18
ENDBRANCH  16  17
ENDBRANCH  15  16
ENDBRANCH  14  15
ENDBRANCH  13  14
ENDBRANCH  12  13
ENDBRANCH   1  12
TORSDOF 16
ENDMDL
MODEL 4
REMARK VINA RESULT:    -5.151      2.073      4.601
REMARK INTER + INTRA:         -12.958
REMARK INTER:                 -10.213
REMARK INTRA:                  -2.745
REMARK UNBOUND:                -2.988
REMARK SMILES CCCCCCCCCCCCCCCCCC(=O)[O-]
REMARK SMILES IDX 10 1 11 2 12 3 13 4 14 5 15 6 16 7 17 8 18 9 19 10 20 11
REMARK SMILES IDX 9 12 8 13 7 14 6 15 5 16 4 17 3 18 2 19 1 20
REMARK H PARENT
REMARK Flexibility Score: inf
ROOT
ATOM      1  C   UNL     1      23.907  -4.688 -39.813  1.00  0.00     0.000 C 
ENDROOT
BRANCH   1   2
ATOM      2  C   UNL     1      24.320  -3.233 -39.518  1.00  0.00     0.000 C 
BRANCH   2   3
ATOM      3  C   UNL     1      25.691  -3.139 -38.826  1.00  0.00     0.000 C 
BRANCH   3   4
ATOM      4  C   UNL     1      25.996  -4.355 -37.931  1.00  0.00     0.000 C 
BRANCH   4   5
ATOM      5  C   UNL     1      27.437  -4.888 -38.024  1.00  0.00     0.000 C 
BRANCH   5   6
ATOM      6  C   UNL     1      27.506  -6.424 -38.035  1.00  0.00     0.000 C 
BRANCH   6   7
ATOM      7  C   UNL     1      26.115  -7.077 -38.050  1.00  0.00     0.006 C 
BRANCH   7   8
ATOM      8  C   UNL     1      25.762  -7.702 -39.407  1.00  0.00     0.053 C 
BRANCH   8   9
ATOM      9  C   UNL     1      24.868  -8.889 -39.220  1.00  0.00     0.041 C 
ATOM     10  O   UNL     1      24.554  -9.274 -38.062  1.00  0.00    -0.550 OA
ATOM     11  O   UNL     1      24.400  -9.586 -40.326  1.00  0.00    -0.550 OA
ENDBRANCH   8   9
ENDBRANCH   7   8
ENDBRANCH   6   7
ENDBRANCH   5   6
ENDBRANCH   4   5
ENDBRANCH   3   4
ENDBRANCH   2   3
ENDBRANCH   1   2
BRANCH   1  12
ATOM     12  C   UNL     1      22.387  -4.883 -40.003  1.00  0.00     0.000 C 
BRANCH  12  13
ATOM     13  C   UNL     1      21.555  -3.602 -39.803  1.00  0.00    -0.000 C 
BRANCH  13  14
ATOM     14  C   UNL     1      20.454  -3.770 -38.739  1.00  0.00    -0.000 C 
BRANCH  14  15
ATOM     15  C   UNL     1      20.577  -2.748 -37.597  1.00  0.00    -0.000 C 
BRANCH  15  16
ATOM     16  C   UNL     1      21.891  -2.900 -36.814  1.00  0.00    -0.000 C 
BRANCH  16  17
ATOM     17  C   UNL     1      21.979  -4.229 -36.042  1.00  0.00    -0.000 C 
BRANCH  17  18
ATOM     18  C   UNL     1      23.359  -4.908 -36.065  1.00  0.00    -0.000 C 
BRANCH  18  19
ATOM     19  C   UNL     1      23.284  -6.407 -36.390  1.00  0.00    -0.003 C 
ATOM     20  C   UNL     1      22.030  -6.730 -37.198  1.00  0.00     0.004 C 
ENDBRANCH  18  19
ENDBRANCH  17  18
ENDBRANCH  16  17
ENDBRANCH  15  16
ENDBRANCH  14  15
ENDBRANCH  13  14
ENDBRANCH  12  13
ENDBRANCH   1  12
TORSDOF 16
ENDMDL
MODEL 5
REMARK VINA RESULT:    -5.088      3.123      5.814
REMARK INTER + INTRA:         -12.835
REMARK INTER:                 -10.116
REMARK INTRA:                  -2.719
REMARK UNBOUND:                -2.988
REMARK SMILES CCCCCCCCCCCCCCCCCC(=O)[O-]
REMARK SMILES IDX 10 1 11 2 12 3 13 4 14 5 15 6 16 7 17 8 18 9 19 10 20 11
REMARK SMILES IDX 9 12 8 13 7 14 6 15 5 16 4 17 3 18 2 19 1 20
REMARK H PARENT
REMARK Flexibility Score: inf
ROOT
ATOM      1  C   UNL     1      24.900  -7.970 -37.773  1.00  0.00     0.000 C 
ENDROOT
BRANCH   1   2
ATOM      2  C   UNL     1      24.947  -6.805 -36.764  1.00  0.00     0.000 C 
BRANCH   2   3
ATOM      3  C   UNL     1      23.559  -6.467 -36.191  1.00  0.00     0.000 C 
BRANCH   3   4
ATOM      4  C   UNL     1      23.315  -4.951 -36.067  1.00  0.00     0.000 C 
BRANCH   4   5
ATOM      5  C   UNL     1      21.924  -4.475 -36.521  1.00  0.00     0.000 C 
BRANCH   5   6
ATOM      6  C   UNL     1      21.746  -2.953 -36.406  1.00  0.00     0.000 C 
BRANCH   6   7
ATOM      7  C   UNL     1      20.720  -2.402 -37.409  1.00  0.00     0.006 C 
BRANCH   7   8
ATOM      8  C   UNL     1      20.322  -3.426 -38.481  1.00  0.00     0.053 C 
BRANCH   8   9
ATOM      9  C   UNL     1      19.378  -2.811 -39.468  1.00  0.00     0.041 C 
ATOM     10  O   UNL     1      19.493  -3.057 -40.698  1.00  0.00    -0.550 OA
ATOM     11  O   UNL     1      18.385  -1.945 -39.030  1.00  0.00    -0.550 OA
ENDBRANCH   8   9
ENDBRANCH   7   8
ENDBRANCH   6   7
ENDBRANCH   5   6
ENDBRANCH   4   5
ENDBRANCH   3   4
ENDBRANCH   2   3
ENDBRANCH   1   2
BRANCH   1  12
ATOM     12  C   UNL     1      23.471  -8.445 -38.116  1.00  0.00     0.000 C 
BRANCH  12  13
ATOM     13  C   UNL     1      22.983  -8.021 -39.515  1.00  0.00    -0.000 C 
BRANCH  13  14
ATOM     14  C   UNL     1      21.866  -6.963 -39.457  1.00  0.00    -0.000 C 
BRANCH  14  15
ATOM     15  C   UNL     1      22.233  -5.674 -40.210  1.00  0.00    -0.000 C 
BRANCH  15  16
ATOM     16  C   UNL     1      23.637  -5.164 -39.847  1.00  0.00    -0.000 C 
BRANCH  16  17
ATOM     17  C   UNL     1      23.703  -3.631 -39.719  1.00  0.00    -0.000 C 
BRANCH  17  18
ATOM     18  C   UNL     1      25.060  -3.072 -39.259  1.00  0.00    -0.000 C 
BRANCH  18  19
ATOM     19  C   UNL     1      25.824  -4.034 -38.338  1.00  0.00    -0.003 C 
ATOM     20  C   UNL     1      27.285  -3.612 -38.197  1.00  0.00     0.004 C 
ENDBRANCH  18  19
ENDBRANCH  17  18
ENDBRANCH  16  17
ENDBRANCH  15  16
ENDBRANCH  14  15
ENDBRANCH  13  14
ENDBRANCH  12  13
ENDBRANCH   1  12
TORSDOF 16
ENDMDL
MODEL 6
REMARK VINA RESULT:    -5.080      0.737      3.829
REMARK INTER + INTRA:         -12.821
REMARK INTER:                  -9.834
REMARK INTRA:                  -2.987
REMARK UNBOUND:                -2.988
REMARK SMILES CCCCCCCCCCCCCCCCCC(=O)[O-]
REMARK SMILES IDX 10 1 11 2 12 3 13 4 14 5 15 6 16 7 17 8 18 9 19 10 20 11
REMARK SMILES IDX 9 12 8 13 7 14 6 15 5 16 4 17 3 18 2 19 1 20
REMARK H PARENT
REMARK Flexibility Score: inf
ROOT
ATOM      1  C   UNL     1      23.434  -6.394 -36.342  1.00  0.00     0.000 C 
ENDROOT
BRANCH   1   2
ATOM      2  C   UNL     1      22.280  -7.099 -37.081  1.00  0.00     0.000 C 
BRANCH   2   3
ATOM      3  C   UNL     1      22.714  -7.665 -38.446  1.00  0.00     0.000 C 
BRANCH   3   4
ATOM      4  C   UNL     1      23.808  -8.742 -38.328  1.00  0.00     0.000 C 
BRANCH   4   5
ATOM      5  C   UNL     1      24.858  -8.732 -39.453  1.00  0.00     0.000 C 
BRANCH   5   6
ATOM      6  C   UNL     1      25.602  -7.391 -39.564  1.00  0.00     0.000 C 
BRANCH   6   7
ATOM      7  C   UNL     1      26.421  -7.065 -38.306  1.00  0.00     0.006 C 
BRANCH   7   8
ATOM      8  C   UNL     1      26.386  -5.574 -37.939  1.00  0.00     0.053 C 
BRANCH   8   9
ATOM      9  C   UNL     1      27.773  -5.009 -37.912  1.00  0.00     0.041 C 
ATOM     10  O   UNL     1      28.767  -5.766 -37.746  1.00  0.00    -0.550 OA
ATOM     11  O   UNL     1      27.966  -3.641 -38.046  1.00  0.00    -0.550 OA
ENDBRANCH   8   9
ENDBRANCH   7   8
ENDBRANCH   6   7
ENDBRANCH   5   6
ENDBRANCH   4   5
ENDBRANCH   3   4
ENDBRANCH   2   3
ENDBRANCH   1   2
BRANCH   1  12
ATOM     12  C   UNL     1      23.188  -4.891 -36.086  1.00  0.00     0.000 C 
BRANCH  12  13
ATOM     13  C   UNL     1      21.719  -4.455 -36.237  1.00  0.00    -0.000 C 
BRANCH  13  14
ATOM     14  C   UNL     1      21.576  -2.955 -36.555  1.00  0.00    -0.000 C 
BRANCH  14  15
ATOM     15  C   UNL     1      21.051  -2.700 -37.977  1.00  0.00    -0.000 C 
BRANCH  15  16
ATOM     16  C   UNL     1      20.951  -3.991 -38.805  1.00  0.00    -0.000 C 
BRANCH  16  17
ATOM     17  C   UNL     1      21.964  -4.041 -39.963  1.00  0.00    -0.000 C 
BRANCH  17  18
ATOM     18  C   UNL     1      23.421  -4.305 -39.545  1.00  0.00    -0.000 C 
BRANCH  18  19
ATOM     19  C   UNL     1      24.353  -3.121 -39.840  1.00  0.00    -0.003 C 
ATOM     20  C   UNL     1      24.671  -2.344 -38.564  1.00  0.00     0.004 C 
ENDBRANCH  18  19
ENDBRANCH  17  18
ENDBRANCH  16  17
ENDBRANCH  15  16
ENDBRANCH  14  15
ENDBRANCH  13  14
ENDBRANCH  12  13
ENDBRANCH   1  12
TORSDOF 16
ENDMDL
MODEL 7
REMARK VINA RESULT:    -4.949      2.826      5.601
REMARK INTER + INTRA:         -12.567
REMARK INTER:                 -10.112
REMARK INTRA:                  -2.456
REMARK UNBOUND:                -2.988
REMARK SMILES CCCCCCCCCCCCCCCCCC(=O)[O-]
REMARK SMILES IDX 10 1 11 2 12 3 13 4 14 5 15 6 16 7 17 8 18 9 19 10 20 11
REMARK SMILES IDX 9 12 8 13 7 14 6 15 5 16 4 17 3 18 2 19 1 20
REMARK H PARENT
REMARK Flexibility Score: inf
ROOT
ATOM      1  C   UNL     1      23.382  -8.673 -39.334  1.00  0.00     0.000 C 
ENDROOT
BRANCH   1   2
ATOM      2  C   UNL     1      22.428  -8.211 -38.215  1.00  0.00     0.000 C 
BRANCH   2   3
ATOM      3  C   UNL     1      22.071  -6.718 -38.325  1.00  0.00     0.000 C 
BRANCH   3   4
ATOM      4  C   UNL     1      21.858  -6.050 -36.954  1.00  0.00     0.000 C 
BRANCH   4   5
ATOM      5  C   UNL     1      23.019  -5.162 -36.474  1.00  0.00     0.000 C 
BRANCH   5   6
ATOM      6  C   UNL     1      22.580  -3.722 -36.159  1.00  0.00     0.000 C 
BRANCH   6   7
ATOM      7  C   UNL     1      21.194  -3.390 -36.733  1.00  0.00     0.006 C 
BRANCH   7   8
ATOM      8  C   UNL     1      21.261  -2.500 -37.983  1.00  0.00     0.053 C 
BRANCH   8   9
ATOM      9  C   UNL     1      20.324  -3.006 -39.036  1.00  0.00     0.041 C 
ATOM     10  O   UNL     1      20.756  -3.709 -39.989  1.00  0.00    -0.550 OA
ATOM     11  O   UNL     1      18.976  -2.679 -38.979  1.00  0.00    -0.550 OA
ENDBRANCH   8   9
ENDBRANCH   7   8
ENDBRANCH   6   7
ENDBRANCH   5   6
ENDBRANCH   4   5
ENDBRANCH   3   4
ENDBRANCH   2   3
ENDBRANCH   1   2
BRANCH   1  12
ATOM     12  C   UNL     1      24.825  -8.943 -38.856  1.00  0.00     0.000 C 
BRANCH  12  13
ATOM     13  C   UNL     1      25.791  -7.760 -39.060  1.00  0.00    -0.000 C 
BRANCH  13  14
ATOM     14  C   UNL     1      26.248  -7.132 -37.730  1.00  0.00    -0.000 C 
BRANCH  14  15
ATOM     15  C   UNL     1      27.617  -6.443 -37.842  1.00  0.00    -0.000 C 
BRANCH  15  16
ATOM     16  C   UNL     1      27.515  -4.913 -37.727  1.00  0.00    -0.000 C 
BRANCH  16  17
ATOM     17  C   UNL     1      26.077  -4.395 -37.911  1.00  0.00    -0.000 C 
BRANCH  17  18
ATOM     18  C   UNL     1      25.940  -3.154 -38.810  1.00  0.00    -0.000 C 
BRANCH  18  19
ATOM     19  C   UNL     1      24.575  -3.068 -39.508  1.00  0.00    -0.003 C 
ATOM     20  C   UNL     1      24.114  -4.444 -39.982  1.00  0.00     0.004 C 
ENDBRANCH  18  19
ENDBRANCH  17  18
ENDBRANCH  16  17
ENDBRANCH  15  16
ENDBRANCH  14  15
ENDBRANCH  13  14
ENDBRANCH  12  13
ENDBRANCH   1  12
TORSDOF 16
ENDMDL
MODEL 8
REMARK VINA RESULT:    -4.942      2.315      5.109
REMARK INTER + INTRA:         -12.553
REMARK INTER:                 -10.023
REMARK INTRA:                  -2.530
REMARK UNBOUND:                -2.988
REMARK SMILES CCCCCCCCCCCCCCCCCC(=O)[O-]
REMARK SMILES IDX 10 1 11 2 12 3 13 4 14 5 15 6 16 7 17 8 18 9 19 10 20 11
REMARK SMILES IDX 9 12 8 13 7 14 6 15 5 16 4 17 3 18 2 19 1 20
REMARK H PARENT
REMARK Flexibility Score: inf
ROOT
ATOM      1  C   UNL     1      24.216  -3.383 -39.839  1.00  0.00     0.000 C 
ENDROOT
BRANCH   1   2
ATOM      2  C   UNL     1      25.402  -3.078 -38.905  1.00  0.00     0.000 C 
BRANCH   2   3
ATOM      3  C   UNL     1      25.708  -4.240 -37.943  1.00  0.00     0.000 C 
BRANCH   3   4
ATOM      4  C   UNL     1      27.193  -4.646 -37.947  1.00  0.00     0.000 C 
BRANCH   4   5
ATOM      5  C   UNL     1      27.456  -6.159 -37.835  1.00  0.00     0.000 C 
BRANCH   5   6
ATOM      6  C   UNL     1      26.511  -6.996 -38.711  1.00  0.00     0.000 C 
BRANCH   6   7
ATOM      7  C   UNL     1      25.528  -7.837 -37.881  1.00  0.00     0.006 C 
BRANCH   7   8
ATOM      8  C   UNL     1      24.844  -8.941 -38.701  1.00  0.00     0.053 C 
BRANCH   8   9
ATOM      9  C   UNL     1      23.389  -8.633 -38.881  1.00  0.00     0.041 C 
ATOM     10  O   UNL     1      22.656  -8.412 -37.881  1.00  0.00    -0.550 OA
ATOM     11  O   UNL     1      22.838  -8.616 -40.155  1.00  0.00    -0.550 OA
ENDBRANCH   8   9
ENDBRANCH   7   8
ENDBRANCH   6   7
ENDBRANCH   5   6
ENDBRANCH   4   5
ENDBRANCH   3   4
ENDBRANCH   2   3
ENDBRANCH   1   2
BRANCH   1  12
ATOM     12  C   UNL     1      23.802  -4.871 -39.863  1.00  0.00     0.000 C 
BRANCH  12  13
ATOM     13  C   UNL     1      22.287  -5.104 -40.014  1.00  0.00    -0.000 C 
BRANCH  13  14
ATOM     14  C   UNL     1      21.475  -3.799 -39.927  1.00  0.00    -0.000 C 
BRANCH  14  15
ATOM     15  C   UNL     1      20.442  -3.821 -38.789  1.00  0.00    -0.000 C 
BRANCH  15  16
ATOM     16  C   UNL     1      20.647  -2.671 -37.790  1.00  0.00    -0.000 C 
BRANCH  16  17
ATOM     17  C   UNL     1      21.963  -2.791 -37.001  1.00  0.00    -0.000 C 
BRANCH  17  18
ATOM     18  C   UNL     1      21.991  -3.907 -35.943  1.00  0.00    -0.000 C 
BRANCH  18  19
ATOM     19  C   UNL     1      22.488  -5.249 -36.500  1.00  0.00    -0.003 C 
ATOM     20  C   UNL     1      23.709  -5.744 -35.728  1.00  0.00     0.004 C 
ENDBRANCH  18  19
ENDBRANCH  17  18
ENDBRANCH  16  17
ENDBRANCH  15  16
ENDBRANCH  14  15
ENDBRANCH  13  14
ENDBRANCH  12  13
ENDBRANCH   1  12
TORSDOF 16
ENDMDL
MODEL 9
REMARK VINA RESULT:    -4.895      1.303      2.669
REMARK INTER + INTRA:         -12.463
REMARK INTER:                 -10.028
REMARK INTRA:                  -2.435
REMARK UNBOUND:                -2.988
REMARK SMILES CCCCCCCCCCCCCCCCCC(=O)[O-]
REMARK SMILES IDX 10 1 11 2 12 3 13 4 14 5 15 6 16 7 17 8 18 9 19 10 20 11
REMARK SMILES IDX 9 12 8 13 7 14 6 15 5 16 4 17 3 18 2 19 1 20
REMARK H PARENT
REMARK Flexibility Score: inf
ROOT
ATOM      1  C   UNL     1      21.239  -3.593 -39.904  1.00  0.00     0.000 C 
ENDROOT
BRANCH   1   2
ATOM      2  C   UNL     1      22.091  -4.858 -40.130  1.00  0.00     0.000 C 
BRANCH   2   3
ATOM      3  C   UNL     1      23.590  -4.610 -39.882  1.00  0.00     0.000 C 
BRANCH   3   4
ATOM      4  C   UNL     1      23.901  -3.152 -39.498  1.00  0.00     0.000 C 
BRANCH   4   5
ATOM      5  C   UNL     1      25.234  -2.942 -38.758  1.00  0.00     0.000 C 
BRANCH   5   6
ATOM      6  C   UNL     1      25.829  -4.252 -38.215  1.00  0.00     0.000 C 
BRANCH   6   7
ATOM      7  C   UNL     1      27.354  -4.178 -38.037  1.00  0.00     0.006 C 
BRANCH   7   8
ATOM      8  C   UNL     1      28.028  -5.556 -38.070  1.00  0.00     0.053 C 
BRANCH   8   9
ATOM      9  C   UNL     1      27.003  -6.643 -37.961  1.00  0.00     0.041 C 
ATOM     10  O   UNL     1      26.462  -7.115 -38.997  1.00  0.00    -0.550 OA
ATOM     11  O   UNL     1      26.625  -7.117 -36.712  1.00  0.00    -0.550 OA
ENDBRANCH   8   9
ENDBRANCH   7   8
ENDBRANCH   6   7
ENDBRANCH   5   6
ENDBRANCH   4   5
ENDBRANCH   3   4
ENDBRANCH   2   3
ENDBRANCH   1   2
BRANCH   1  12
ATOM     12  C   UNL     1      20.312  -3.673 -38.672  1.00  0.00     0.000 C 
BRANCH  12  13
ATOM     13  C   UNL     1      20.524  -2.542 -37.647  1.00  0.00    -0.000 C 
BRANCH  13  14
ATOM     14  C   UNL     1      21.545  -2.914 -36.556  1.00  0.00    -0.000 C 
BRANCH  14  15
ATOM     15  C   UNL     1      21.704  -4.434 -36.390  1.00  0.00    -0.000 C 
BRANCH  15  16
ATOM     16  C   UNL     1      23.163  -4.846 -36.132  1.00  0.00    -0.000 C 
BRANCH  16  17
ATOM     17  C   UNL     1      23.401  -6.355 -36.322  1.00  0.00    -0.000 C 
BRANCH  17  18
ATOM     18  C   UNL     1      22.469  -7.041 -37.335  1.00  0.00    -0.000 C 
BRANCH  18  19
ATOM     19  C   UNL     1      23.114  -8.259 -38.014  1.00  0.00    -0.003 C 
ATOM     20  C   UNL     1      22.817  -8.272 -39.511  1.00  0.00     0.004 C 
ENDBRANCH  18  19
ENDBRANCH  17  18
ENDBRANCH  16  17
ENDBRANCH  15  16
ENDBRANCH  14  15
ENDBRANCH  13  14
ENDBRANCH  12  13
ENDBRANCH   1  12
TORSDOF 16
ENDMDL
