MODEL 1
REMARK VINA RESULT:    -2.868      0.000      0.000
REMARK INTER + INTRA:          -6.354
REMARK INTER:                  -5.215
REMARK INTRA:                  -1.139
REMARK UNBOUND:                -1.139
REMARK SMILES CCCCCCCCCCCCCCCC(=O)[O-]
REMARK SMILES IDX 9 1 10 2 11 3 12 4 13 5 14 6 15 7 16 8 17 9 18 10 8 11 7 12
REMARK SMILES IDX 6 13 5 14 4 15 3 16 2 17 1 18
REMARK H PARENT
REMARK Flexibility Score: inf
ROOT
ATOM      1  C   UNL     1       9.106 -34.345  14.282  1.00  0.00     0.000 C 
ENDROOT
BRANCH   1   2
ATOM      2  C   UNL     1       9.202 -32.856  13.905  1.00  0.00     0.000 C 
BRANCH   2   3
ATOM      3  C   UNL     1      10.376 -32.556  12.957  1.00  0.00     0.000 C 
BRANCH   3   4
ATOM      4  C   UNL     1      11.770 -32.568  13.617  1.00  0.00     0.000 C 
BRANCH   4   5
ATOM      5  C   UNL     1      12.340 -31.180  13.972  1.00  0.00     0.000 C 
BRANCH   5   6
ATOM      6  C   UNL     1      13.680 -31.205  14.732  1.00  0.00     0.006 C 
BRANCH   6   7
ATOM      7  C   UNL     1      14.855 -30.705  13.881  1.00  0.00     0.053 C 
BRANCH   7   8
ATOM      8  C   UNL     1      16.113 -31.417  14.262  1.00  0.00     0.041 C 
ATOM      9  O   UNL     1      16.407 -31.580  15.475  1.00  0.00    -0.550 OA
ATOM     10  O   UNL     1      16.988 -31.858  13.277  1.00  0.00    -0.550 OA
ENDBRANCH   7   8
ENDBRANCH   6   7
ENDBRANCH   5   6
ENDBRANCH   4   5
ENDBRANCH   3   4
ENDBRANCH   2   3
ENDBRANCH   1   2
BRANCH   1  11
ATOM     11  C   UNL     1       7.654 -34.843  14.353  1.00  0.00     0.000 C 
BRANCH  11  12
ATOM     12  C   UNL     1       6.646 -33.705  14.576  1.00  0.00    -0.000 C 
BRANCH  12  13
ATOM     13  C   UNL     1       5.984 -33.822  15.956  1.00  0.00    -0.000 C 
BRANCH  13  14
ATOM     14  C   UNL     1       6.503 -35.022  16.769  1.00  0.00    -0.000 C 
BRANCH  14  15
ATOM     15  C   UNL     1       7.279 -34.656  18.050  1.00  0.00    -0.000 C 
BRANCH  15  16
ATOM     16  C   UNL     1       7.472 -33.145  18.289  1.00  0.00    -0.000 C 
BRANCH  16  17
ATOM     17  C   UNL     1       8.737 -32.546  17.650  1.00  0.00    -0.003 C 
ATOM     18  C   UNL     1       9.391 -31.471  18.519  1.00  0.00     0.004 C 
ENDBRANCH  16  17
ENDBRANCH  15  16
ENDBRANCH  14  15
ENDBRANCH  13  14
ENDBRANCH  12  13
ENDBRANCH  11  12
ENDBRANCH   1  11
TORSDOF 14
ENDMDL
MODEL 2
REMARK VINA RESULT:    -2.866      4.158      6.811
REMARK INTER + INTRA:          -6.351
REMARK INTER:                  -5.072
REMARK INTRA:                  -1.279
REMARK UNBOUND:                -1.139
REMARK SMILES CCCCCCCCCCCCCCCC(=O)[O-]
REMARK SMILES IDX 9 1 10 2 11 3 12 4 13 5 14 6 15 7 16 8 17 9 18 10 8 11 7 12
REMARK SMILES IDX 6 13 5 14 4 15 3 16 2 17 1 18
REMARK H PARENT
REMARK Flexibility Score: inf
ROOT
ATOM      1  C   UNL     1      10.568 -35.366  13.728  1.00  0.00     0.000 C 
ENDROOT
BRANCH   1   2
ATOM      2  C   UNL     1       9.456 -36.214  13.087  1.00  0.00     0.000 C 
BRANCH   2   3
ATOM      3  C   UNL     1       8.254 -36.427  14.023  1.00  0.00     0.000 C 
BRANCH   3   4
ATOM      4  C   UNL     1       7.381 -37.656  13.700  1.00  0.00     0.000 C 
BRANCH   4   5
ATOM      5  C   UNL     1       6.391 -38.068  14.808  1.00  0.00     0.000 C 
BRANCH   5   6
ATOM      6  C   UNL     1       6.203 -37.030  15.929  1.00  0.00     0.006 C 
BRANCH   6   7
ATOM      7  C   UNL     1       6.369 -37.631  17.330  1.00  0.00     0.053 C 
BRANCH   7   8
ATOM      8  C   UNL     1       7.393 -36.866  18.107  1.00  0.00     0.041 C 
ATOM      9  O   UNL     1       7.960 -35.866  17.595  1.00  0.00    -0.550 OA
ATOM     10  O   UNL     1       7.759 -37.289  19.378  1.00  0.00    -0.550 OA
ENDBRANCH   7   8
ENDBRANCH   6   7
ENDBRANCH   5   6
ENDBRANCH   4   5
ENDBRANCH   3   4
ENDBRANCH   2   3
ENDBRANCH   1   2
BRANCH   1  11
ATOM     11  C   UNL     1      10.944 -34.143  12.875  1.00  0.00     0.000 C 
BRANCH  11  12
ATOM     12  C   UNL     1      10.631 -32.812  13.576  1.00  0.00    -0.000 C 
BRANCH  12  13
ATOM     13  C   UNL     1       9.226 -32.315  13.204  1.00  0.00    -0.000 C 
BRANCH  13  14
ATOM     14  C   UNL     1       8.128 -32.883  14.122  1.00  0.00    -0.000 C 
BRANCH  14  15
ATOM     15  C   UNL     1       8.514 -32.988  15.612  1.00  0.00    -0.000 C 
BRANCH  15  16
ATOM     16  C   UNL     1       7.366 -32.722  16.606  1.00  0.00    -0.000 C 
BRANCH  16  17
ATOM     17  C   UNL     1       7.811 -32.492  18.061  1.00  0.00    -0.003 C 
ATOM     18  C   UNL     1       9.170 -31.801  18.166  1.00  0.00     0.004 C 
ENDBRANCH  16  17
ENDBRANCH  15  16
ENDBRANCH  14  15
ENDBRANCH  13  14
ENDBRANCH  12  13
ENDBRANCH  11  12
ENDBRANCH   1  11
TORSDOF 14
ENDMDL
MODEL 3
REMARK VINA RESULT:    -2.777      2.561      6.232
REMARK INTER + INTRA:          -6.189
REMARK INTER:                  -4.925
REMARK INTRA:                  -1.264
REMARK UNBOUND:                -1.139
REMARK SMILES CCCCCCCCCCCCCCCC(=O)[O-]
REMARK SMILES IDX 9 1 10 2 11 3 12 4 13 5 14 6 15 7 16 8 17 9 18 10 8 11 7 12
REMARK SMILES IDX 6 13 5 14 4 15 3 16 2 17 1 18
REMARK H PARENT
REMARK Flexibility Score: inf
ROOT
ATOM      1  C   UNL     1       9.009 -35.278  14.979  1.00  0.00     0.000 C 
ENDROOT
BRANCH   1   2
ATOM      2  C   UNL     1       7.566 -35.730  14.694  1.00  0.00     0.000 C 
BRANCH   2   3
ATOM      3  C   UNL     1       6.568 -34.559  14.667  1.00  0.00     0.000 C 
BRANCH   3   4
ATOM      4  C   UNL     1       7.093 -33.238  15.261  1.00  0.00     0.000 C 
BRANCH   4   5
ATOM      5  C   UNL     1       6.472 -32.833  16.614  1.00  0.00     0.000 C 
BRANCH   5   6
ATOM      6  C   UNL     1       7.484 -32.630  17.757  1.00  0.00     0.006 C 
BRANCH   6   7
ATOM      7  C   UNL     1       8.931 -32.528  17.259  1.00  0.00     0.053 C 
BRANCH   7   8
ATOM      8  C   UNL     1       9.687 -31.515  18.057  1.00  0.00     0.041 C 
ATOM      9  O   UNL     1       9.498 -31.416  19.298  1.00  0.00    -0.550 OA
ATOM     10  O   UNL     1      10.564 -30.644  17.423  1.00  0.00    -0.550 OA
ENDBRANCH   7   8
ENDBRANCH   6   7
ENDBRANCH   5   6
ENDBRANCH   4   5
ENDBRANCH   3   4
ENDBRANCH   2   3
ENDBRANCH   1   2
BRANCH   1  11
ATOM     11  C   UNL     1       9.899 -35.318  13.726  1.00  0.00     0.000 C 
BRANCH  11  12
ATOM     12  C   UNL     1       9.813 -34.027  12.896  1.00  0.00    -0.000 C 
BRANCH  12  13
ATOM     13  C   UNL     1      11.146 -33.264  12.932  1.00  0.00    -0.000 C 
BRANCH  13  14
ATOM     14  C   UNL     1      11.154 -32.122  13.965  1.00  0.00    -0.000 C 
BRANCH  14  15
ATOM     15  C   UNL     1      12.297 -31.101  13.799  1.00  0.00    -0.000 C 
BRANCH  15  16
ATOM     16  C   UNL     1      13.580 -31.419  14.592  1.00  0.00    -0.000 C 
BRANCH  16  17
ATOM     17  C   UNL     1      14.838 -30.675  14.113  1.00  0.00    -0.003 C 
ATOM     18  C   UNL     1      16.128 -31.448  14.389  1.00  0.00     0.004 C 
ENDBRANCH  16  17
ENDBRANCH  15  16
ENDBRANCH  14  15
ENDBRANCH  13  14
ENDBRANCH  12  13
ENDBRANCH  11  12
ENDBRANCH   1  11
TORSDOF 14
ENDMDL
MODEL 4
REMARK VINA RESULT:    -2.759      3.185      7.636
REMARK INTER + INTRA:          -6.156
REMARK INTER:                  -5.215
REMARK INTRA:                  -0.940
REMARK UNBOUND:                -1.139
REMARK SMILES CCCCCCCCCCCCCCCC(=O)[O-]
REMARK SMILES IDX 9 1 10 2 11 3 12 4 13 5 14 6 15 7 16 8 17 9 18 10 8 11 7 12
REMARK SMILES IDX 6 13 5 14 4 15 3 16 2 17 1 18
REMARK H PARENT
REMARK Flexibility Score: inf
ROOT
ATOM      1  C   UNL     1       9.128 -32.765  14.074  1.00  0.00     0.000 C 
ENDROOT
BRANCH   1   2
ATOM      2  C   UNL     1       8.767 -34.255  14.206  1.00  0.00     0.000 C 
BRANCH   2   3
ATOM      3  C   UNL     1       7.375 -34.584  13.641  1.00  0.00     0.000 C 
BRANCH   3   4
ATOM      4  C   UNL     1       6.720 -35.858  14.210  1.00  0.00     0.000 C 
BRANCH   4   5
ATOM      5  C   UNL     1       7.005 -36.133  15.701  1.00  0.00     0.000 C 
BRANCH   5   6
ATOM      6  C   UNL     1       6.304 -35.176  16.682  1.00  0.00     0.006 C 
BRANCH   6   7
ATOM      7  C   UNL     1       7.272 -34.546  17.692  1.00  0.00     0.053 C 
BRANCH   7   8
ATOM      8  C   UNL     1       7.429 -33.084  17.421  1.00  0.00     0.041 C 
ATOM      9  O   UNL     1       6.608 -32.485  16.679  1.00  0.00    -0.550 OA
ATOM     10  O   UNL     1       8.512 -32.393  17.949  1.00  0.00    -0.550 OA
ENDBRANCH   7   8
ENDBRANCH   6   7
ENDBRANCH   5   6
ENDBRANCH   4   5
ENDBRANCH   3   4
ENDBRANCH   2   3
ENDBRANCH   1   2
BRANCH   1  11
ATOM     11  C   UNL     1      10.171 -32.505  12.975  1.00  0.00     0.000 C 
BRANCH  11  12
ATOM     12  C   UNL     1      11.614 -32.551  13.504  1.00  0.00    -0.000 C 
BRANCH  12  13
ATOM     13  C   UNL     1      11.898 -31.352  14.421  1.00  0.00    -0.000 C 
BRANCH  13  14
ATOM     14  C   UNL     1      13.296 -30.748  14.199  1.00  0.00    -0.000 C 
BRANCH  14  15
ATOM     15  C   UNL     1      14.464 -31.750  14.307  1.00  0.00    -0.000 C 
BRANCH  15  16
ATOM     16  C   UNL     1      15.870 -31.118  14.302  1.00  0.00    -0.000 C 
BRANCH  16  17
ATOM     17  C   UNL     1      17.004 -32.061  14.741  1.00  0.00    -0.003 C 
ATOM     18  C   UNL     1      18.276 -31.888  13.910  1.00  0.00     0.004 C 
ENDBRANCH  16  17
ENDBRANCH  15  16
ENDBRANCH  14  15
ENDBRANCH  13  14
ENDBRANCH  12  13
ENDBRANCH  11  12
ENDBRANCH   1  11
TORSDOF 14
ENDMDL
MODEL 5
REMARK VINA RESULT:    -2.418      0.938      1.627
REMARK INTER + INTRA:          -5.536
REMARK INTER:                  -4.528
REMARK INTRA:                  -1.009
REMARK UNBOUND:                -1.139
REMARK SMILES CCCCCCCCCCCCCCCC(=O)[O-]
REMARK SMILES IDX 9 1 10 2 11 3 12 4 13 5 14 6 15 7 16 8 17 9 18 10 8 11 7 12
REMARK SMILES IDX 6 13 5 14 4 15 3 16 2 17 1 18
REMARK H PARENT
REMARK Flexibility Score: inf
ROOT
ATOM      1  C   UNL     1       9.619 -34.044  14.043  1.00  0.00     0.000 C 
ENDROOT
BRANCH   1   2
ATOM      2  C   UNL     1      10.028 -32.589  14.330  1.00  0.00     0.000 C 
BRANCH   2   3
ATOM      3  C   UNL     1      11.232 -32.131  13.488  1.00  0.00     0.000 C 
BRANCH   3   4
ATOM      4  C   UNL     1      12.317 -31.358  14.264  1.00  0.00     0.000 C 
BRANCH   4   5
ATOM      5  C   UNL     1      13.768 -31.793  13.972  1.00  0.00     0.000 C 
BRANCH   5   6
ATOM      6  C   UNL     1      14.828 -30.694  14.176  1.00  0.00     0.006 C 
BRANCH   6   7
ATOM      7  C   UNL     1      16.008 -31.158  15.039  1.00  0.00     0.053 C 
BRANCH   7   8
ATOM      8  C   UNL     1      17.091 -31.726  14.179  1.00  0.00     0.041 C 
ATOM      9  O   UNL     1      16.929 -31.819  12.934  1.00  0.00    -0.550 OA
ATOM     10  O   UNL     1      18.261 -32.200  14.758  1.00  0.00    -0.550 OA
ENDBRANCH   7   8
ENDBRANCH   6   7
ENDBRANCH   5   6
ENDBRANCH   4   5
ENDBRANCH   3   4
ENDBRANCH   2   3
ENDBRANCH   1   2
BRANCH   1  11
ATOM     11  C   UNL     1       8.240 -34.148  13.371  1.00  0.00     0.000 C 
BRANCH  11  12
ATOM     12  C   UNL     1       7.527 -35.474  13.684  1.00  0.00    -0.000 C 
BRANCH  12  13
ATOM     13  C   UNL     1       6.071 -35.226  14.106  1.00  0.00    -0.000 C 
BRANCH  13  14
ATOM     14  C   UNL     1       5.949 -34.228  15.272  1.00  0.00    -0.000 C 
BRANCH  14  15
ATOM     15  C   UNL     1       6.108 -34.844  16.677  1.00  0.00    -0.000 C 
BRANCH  15  16
ATOM     16  C   UNL     1       7.316 -34.330  17.484  1.00  0.00    -0.000 C 
BRANCH  16  17
ATOM     17  C   UNL     1       7.371 -32.804  17.666  1.00  0.00    -0.003 C 
ATOM     18  C   UNL     1       8.799 -32.263  17.728  1.00  0.00     0.004 C 
ENDBRANCH  16  17
ENDBRANCH  15  16
ENDBRANCH  14  15
ENDBRANCH  13  14
ENDBRANCH  12  13
ENDBRANCH  11  12
ENDBRANCH   1  11
TORSDOF 14
ENDMDL
MODEL 6
REMARK VINA RESULT:    -2.295      3.588      6.949
REMARK INTER + INTRA:          -5.312
REMARK INTER:                  -4.502
REMARK INTRA:                  -0.810
REMARK UNBOUND:                -1.139
REMARK SMILES CCCCCCCCCCCCCCCC(=O)[O-]
REMARK SMILES IDX 9 1 10 2 11 3 12 4 13 5 14 6 15 7 16 8 17 9 18 10 8 11 7 12
REMARK SMILES IDX 6 13 5 14 4 15 3 16 2 17 1 18
REMARK H PARENT
REMARK Flexibility Score: inf
ROOT
ATOM      1  C   UNL     1       8.684 -36.288  13.902  1.00  0.00     0.000 C 
ENDROOT
BRANCH   1   2
ATOM      2  C   UNL     1       8.425 -37.652  13.239  1.00  0.00     0.000 C 
BRANCH   2   3
ATOM      3  C   UNL     1       6.951 -38.084  13.319  1.00  0.00     0.000 C 
BRANCH   3   4
ATOM      4  C   UNL     1       6.096 -37.308  14.341  1.00  0.00     0.000 C 
BRANCH   4   5
ATOM      5  C   UNL     1       5.936 -37.988  15.716  1.00  0.00     0.000 C 
BRANCH   5   6
ATOM      6  C   UNL     1       6.261 -37.091  16.924  1.00  0.00     0.006 C 
BRANCH   6   7
ATOM      7  C   UNL     1       6.425 -35.615  16.542  1.00  0.00     0.053 C 
BRANCH   7   8
ATOM      8  C   UNL     1       7.465 -34.967  17.398  1.00  0.00     0.041 C 
ATOM      9  O   UNL     1       7.159 -34.506  18.529  1.00  0.00    -0.550 OA
ATOM     10  O   UNL     1       8.764 -34.827  16.927  1.00  0.00    -0.550 OA
ENDBRANCH   7   8
ENDBRANCH   6   7
ENDBRANCH   5   6
ENDBRANCH   4   5
ENDBRANCH   3   4
ENDBRANCH   2   3
ENDBRANCH   1   2
BRANCH   1  11
ATOM     11  C   UNL     1       8.656 -35.127  12.894  1.00  0.00     0.000 C 
BRANCH  11  12
ATOM     12  C   UNL     1       7.356 -34.310  12.965  1.00  0.00    -0.000 C 
BRANCH  12  13
ATOM     13  C   UNL     1       7.548 -33.048  13.819  1.00  0.00    -0.000 C 
BRANCH  13  14
ATOM     14  C   UNL     1       9.019 -32.801  14.198  1.00  0.00    -0.000 C 
BRANCH  14  15
ATOM     15  C   UNL     1       9.953 -32.479  13.013  1.00  0.00    -0.000 C 
BRANCH  15  16
ATOM     16  C   UNL     1      11.457 -32.468  13.350  1.00  0.00    -0.000 C 
BRANCH  16  17
ATOM     17  C   UNL     1      11.881 -31.406  14.379  1.00  0.00    -0.003 C 
ATOM     18  C   UNL     1      13.371 -31.070  14.307  1.00  0.00     0.004 C 
ENDBRANCH  16  17
ENDBRANCH  15  16
ENDBRANCH  14  15
ENDBRANCH  13  14
ENDBRANCH  12  13
ENDBRANCH  11  12
ENDBRANCH   1  11
TORSDOF 14
ENDMDL
MODEL 7
REMARK VINA RESULT:    -2.156      3.180      6.892
REMARK INTER + INTRA:          -5.060
REMARK INTER:                  -3.941
REMARK INTRA:                  -1.119
REMARK UNBOUND:                -1.139
REMARK SMILES CCCCCCCCCCCCCCCC(=O)[O-]
REMARK SMILES IDX 9 1 10 2 11 3 12 4 13 5 14 6 15 7 16 8 17 9 18 10 8 11 7 12
REMARK SMILES IDX 6 13 5 14 4 15 3 16 2 17 1 18
REMARK H PARENT
REMARK Flexibility Score: inf
ROOT
ATOM      1  C   UNL     1       8.216 -32.791  17.356  1.00  0.00     0.000 C 
ENDROOT
BRANCH   1   2
ATOM      2  C   UNL     1       7.374 -33.924  17.968  1.00  0.00     0.000 C 
BRANCH   2   3
ATOM      3  C   UNL     1       7.471 -35.236  17.171  1.00  0.00     0.000 C 
BRANCH   3   4
ATOM      4  C   UNL     1       6.148 -35.724  16.549  1.00  0.00     0.000 C 
BRANCH   4   5
ATOM      5  C   UNL     1       6.097 -35.696  15.007  1.00  0.00     0.000 C 
BRANCH   5   6
ATOM      6  C   UNL     1       7.143 -36.584  14.308  1.00  0.00     0.006 C 
BRANCH   6   7
ATOM      7  C   UNL     1       8.180 -35.773  13.521  1.00  0.00     0.053 C 
BRANCH   7   8
ATOM      8  C   UNL     1       9.412 -36.587  13.290  1.00  0.00     0.041 C 
ATOM      9  O   UNL     1      10.514 -36.021  13.063  1.00  0.00    -0.550 OA
ATOM     10  O   UNL     1       9.336 -37.974  13.275  1.00  0.00    -0.550 OA
ENDBRANCH   7   8
ENDBRANCH   6   7
ENDBRANCH   5   6
ENDBRANCH   4   5
ENDBRANCH   3   4
ENDBRANCH   2   3
ENDBRANCH   1   2
BRANCH   1  11
ATOM     11  C   UNL     1       8.505 -33.012  15.862  1.00  0.00     0.000 C 
BRANCH  11  12
ATOM     12  C   UNL     1       9.676 -32.158  15.352  1.00  0.00    -0.000 C 
BRANCH  12  13
ATOM     13  C   UNL     1      10.013 -32.506  13.894  1.00  0.00    -0.000 C 
BRANCH  13  14
ATOM     14  C   UNL     1      11.524 -32.468  13.604  1.00  0.00    -0.000 C 
BRANCH  14  15
ATOM     15  C   UNL     1      12.307 -31.378  14.366  1.00  0.00    -0.000 C 
BRANCH  15  16
ATOM     16  C   UNL     1      13.726 -31.099  13.833  1.00  0.00    -0.000 C 
BRANCH  16  17
ATOM     17  C   UNL     1      14.840 -31.167  14.892  1.00  0.00    -0.003 C 
ATOM     18  C   UNL     1      16.214 -31.465  14.292  1.00  0.00     0.004 C 
ENDBRANCH  16  17
ENDBRANCH  15  16
ENDBRANCH  14  15
ENDBRANCH  13  14
ENDBRANCH  12  13
ENDBRANCH  11  12
ENDBRANCH   1  11
TORSDOF 14
ENDMDL
MODEL 8
REMARK VINA RESULT:    -1.950      5.098      7.189
REMARK INTER + INTRA:          -4.685
REMARK INTER:                  -3.822
REMARK INTRA:                  -0.863
REMARK UNBOUND:                -1.139
REMARK SMILES CCCCCCCCCCCCCCCC(=O)[O-]
REMARK SMILES IDX 9 1 10 2 11 3 12 4 13 5 14 6 15 7 16 8 17 9 18 10 8 11 7 12
REMARK SMILES IDX 6 13 5 14 4 15 3 16 2 17 1 18
REMARK H PARENT
REMARK Flexibility Score: inf
ROOT
ATOM      1  C   UNL     1       7.233 -33.245  13.714  1.00  0.00     0.000 C 
ENDROOT
BRANCH   1   2
ATOM      2  C   UNL     1       7.683 -33.008  15.166  1.00  0.00     0.000 C 
BRANCH   2   3
ATOM      3  C   UNL     1       6.533 -32.553  16.080  1.00  0.00     0.000 C 
BRANCH   3   4
ATOM      4  C   UNL     1       6.859 -32.540  17.587  1.00  0.00     0.000 C 
BRANCH   4   5
ATOM      5  C   UNL     1       7.677 -33.747  18.092  1.00  0.00     0.000 C 
BRANCH   5   6
ATOM      6  C   UNL     1       7.048 -35.122  17.803  1.00  0.00     0.006 C 
BRANCH   6   7
ATOM      7  C   UNL     1       7.988 -36.287  18.137  1.00  0.00     0.053 C 
BRANCH   7   8
ATOM      8  C   UNL     1       7.200 -37.515  18.464  1.00  0.00     0.041 C 
ATOM      9  O   UNL     1       7.370 -38.103  19.564  1.00  0.00    -0.550 OA
ATOM     10  O   UNL     1       6.314 -38.041  17.533  1.00  0.00    -0.550 OA
ENDBRANCH   7   8
ENDBRANCH   6   7
ENDBRANCH   5   6
ENDBRANCH   4   5
ENDBRANCH   3   4
ENDBRANCH   2   3
ENDBRANCH   1   2
BRANCH   1  11
ATOM     11  C   UNL     1       5.895 -33.999  13.627  1.00  0.00     0.000 C 
BRANCH  11  12
ATOM     12  C   UNL     1       5.965 -35.403  14.248  1.00  0.00    -0.000 C 
BRANCH  12  13
ATOM     13  C   UNL     1       7.423 -35.856  14.414  1.00  0.00    -0.000 C 
BRANCH  13  14
ATOM     14  C   UNL     1       7.877 -36.827  13.309  1.00  0.00    -0.000 C 
BRANCH  14  15
ATOM     15  C   UNL     1       9.350 -36.679  12.876  1.00  0.00    -0.000 C 
BRANCH  15  16
ATOM     16  C   UNL     1      10.117 -35.523  13.548  1.00  0.00    -0.000 C 
BRANCH  16  17
ATOM     17  C   UNL     1      11.601 -35.417  13.156  1.00  0.00    -0.003 C 
ATOM     18  C   UNL     1      12.415 -36.643  13.569  1.00  0.00     0.004 C 
ENDBRANCH  16  17
ENDBRANCH  15  16
ENDBRANCH  14  15
ENDBRANCH  13  14
ENDBRANCH  12  13
ENDBRANCH  11  12
ENDBRANCH   1  11
TORSDOF 14
ENDMDL
