MODEL 1
REMARK VINA RESULT:    -4.651      0.000      0.000
REMARK INTER + INTRA:          -5.989
REMARK INTER:                  -6.554
REMARK INTRA:                   0.565
REMARK UNBOUND:                 0.565
REMARK SMILES CC1=CCC(=C(C)C)C(=O)CC(C)=CCC1
REMARK SMILES IDX 12 1 14 2 13 3 15 4 16 5 2 6 1 7 3 8 11 10 9 11 10 12 5 13
REMARK SMILES IDX 6 14 7 15 8 16 4 17
REMARK H PARENT
REMARK Flexibility Score: 60.00
ROOT
ATOM      1  C   UNL     1      19.509  -9.623  64.895  1.00  0.00    -0.070 C 
ATOM      2  C   UNL     1      19.770  -9.691  66.222  1.00  0.00    -0.027 C 
ATOM      3  C   UNL     1      20.689  -9.611  63.954  1.00  0.00     0.039 C 
ENDROOT
BRANCH   2   4
ATOM      4  C   UNL     1      18.756  -9.611  67.338  1.00  0.00     0.032 C 
BRANCH   4   5
ATOM      5  C   UNL     1      18.754 -10.867  68.230  1.00  0.00     0.034 C 
BRANCH   5   6
ATOM      6  C   UNL     1      18.642 -12.144  67.420  1.00  0.00    -0.077 C 
ATOM      7  C   UNL     1      19.726 -13.182  67.566  1.00  0.00     0.039 C 
ATOM      8  C   UNL     1      17.610 -12.418  66.592  1.00  0.00    -0.023 CG0
ATOM      9  G   UNL     1      16.417 -11.526  66.341  1.00  0.00     0.000 G0
ENDBRANCH   5   6
ENDBRANCH   4   5
ENDBRANCH   2   4
BRANCH   1  10
ATOM     10  C   UNL     1      18.110  -9.489  64.315  1.00  0.00     0.111 C 
BRANCH  10  11
ATOM     11  C   UNL     1      17.474 -10.839  64.086  1.00  0.00     0.163 C 
ATOM     12  O   UNL     1      18.026 -11.623  63.268  1.00  0.00    -0.294 OA
BRANCH  11  13
ATOM     13  C   UNL     1      16.256 -11.277  64.836  1.00  0.00    -0.002 C 
ATOM     14  C   UNL     1      15.038 -11.393  64.225  1.00  0.00    -0.069 C 
ATOM     15  C   UNL     1      13.819 -11.874  64.981  1.00  0.00     0.039 C 
ATOM     16  C   UNL     1      14.841 -11.014  62.774  1.00  0.00     0.039 C 
BRANCH  13  17
ATOM     17  C   UNL     1      16.412 -11.517  66.326  1.00  0.00     0.066 CG0
ATOM     18  G   UNL     1      17.607 -12.404  66.580  1.00  0.00     0.000 G0
ENDBRANCH  13  17
ENDBRANCH  11  13
ENDBRANCH  10  11
ENDBRANCH   1  10
TORSDOF 0
ENDMDL
MODEL 2
REMARK VINA RESULT:    -4.315      1.531      4.096
REMARK INTER + INTRA:          -5.516
REMARK INTER:                  -6.254
REMARK INTRA:                   0.739
REMARK UNBOUND:                 0.565
REMARK SMILES CC1=CCC(=C(C)C)C(=O)CC(C)=CCC1
REMARK SMILES IDX 12 1 14 2 13 3 15 4 16 5 2 6 1 7 3 8 11 10 9 11 10 12 5 13
REMARK SMILES IDX 6 14 7 15 8 16 4 17
REMARK H PARENT
REMARK Flexibility Score: 60.00
ROOT
ATOM      1  C   UNL     1      19.840  -9.784  65.262  1.00  0.00    -0.070 C 
ATOM      2  C   UNL     1      19.312  -9.779  64.015  1.00  0.00    -0.027 C 
ATOM      3  C   UNL     1      21.220 -10.373  65.431  1.00  0.00     0.039 C 
ENDROOT
BRANCH   2   4
ATOM      4  C   UNL     1      17.918  -9.339  63.637  1.00  0.00     0.032 C 
BRANCH   4   5
ATOM      5  C   UNL     1      17.055 -10.498  63.101  1.00  0.00     0.034 C 
BRANCH   5   6
ATOM      6  C   UNL     1      16.016 -10.950  64.108  1.00  0.00    -0.077 C 
ATOM      7  C   UNL     1      14.593 -10.488  63.925  1.00  0.00     0.039 C 
ATOM      8  C   UNL     1      16.287 -11.768  65.150  1.00  0.00    -0.023 CG0
ATOM      9  G   UNL     1      17.636 -12.362  65.479  1.00  0.00     0.000 G0
ENDBRANCH   5   6
ENDBRANCH   4   5
ENDBRANCH   2   4
BRANCH   1  10
ATOM     10  C   UNL     1      19.098  -9.296  66.495  1.00  0.00     0.111 C 
BRANCH  10  11
ATOM     11  C   UNL     1      18.030 -10.272  66.922  1.00  0.00     0.163 C 
ATOM     12  O   UNL     1      16.955  -9.808  67.390  1.00  0.00    -0.294 OA
BRANCH  11  13
ATOM     13  C   UNL     1      18.194 -11.750  66.754  1.00  0.00    -0.002 C 
ATOM     14  C   UNL     1      18.886 -12.504  67.661  1.00  0.00    -0.069 C 
ATOM     15  C   UNL     1      19.016 -14.003  67.504  1.00  0.00     0.039 C 
ATOM     16  C   UNL     1      19.586 -11.874  68.845  1.00  0.00     0.039 C 
BRANCH  13  17
ATOM     17  C   UNL     1      17.622 -12.368  65.492  1.00  0.00     0.066 CG0
ATOM     18  G   UNL     1      16.283 -11.746  65.178  1.00  0.00     0.000 G0
ENDBRANCH  13  17
ENDBRANCH  11  13
ENDBRANCH  10  11
ENDBRANCH   1  10
TORSDOF 0
ENDMDL
MODEL 3
REMARK VINA RESULT:    -4.275      2.256      4.579
REMARK INTER + INTRA:          -5.460
REMARK INTER:                  -5.909
REMARK INTRA:                   0.450
REMARK UNBOUND:                 0.565
REMARK SMILES CC1=CCC(=C(C)C)C(=O)CC(C)=CCC1
REMARK SMILES IDX 12 1 14 2 13 3 15 4 16 5 2 6 1 7 3 8 11 10 9 11 10 12 5 13
REMARK SMILES IDX 6 14 7 15 8 16 4 17
REMARK H PARENT
REMARK Flexibility Score: 60.00
ROOT
ATOM      1  C   UNL     1      19.941 -10.196  64.389  1.00  0.00    -0.070 C 
ATOM      2  C   UNL     1      18.737  -9.578  64.405  1.00  0.00    -0.027 C 
ATOM      3  C   UNL     1      21.020  -9.595  63.521  1.00  0.00     0.039 C 
ENDROOT
BRANCH   2   4
ATOM      4  C   UNL     1      17.494 -10.061  65.113  1.00  0.00     0.032 C 
BRANCH   4   5
ATOM      5  C   UNL     1      17.536  -9.798  66.631  1.00  0.00     0.034 C 
BRANCH   5   6
ATOM      6  C   UNL     1      17.413 -11.077  67.436  1.00  0.00    -0.077 C 
ATOM      7  C   UNL     1      16.135 -11.870  67.330  1.00  0.00     0.039 C 
ATOM      8  C   UNL     1      18.396 -11.563  68.226  1.00  0.00    -0.023 CG0
ATOM      9  G   UNL     1      19.754 -10.935  68.434  1.00  0.00     0.000 G0
ENDBRANCH   5   6
ENDBRANCH   4   5
ENDBRANCH   2   4
BRANCH   1  10
ATOM     10  C   UNL     1      20.238 -11.487  65.135  1.00  0.00     0.111 C 
BRANCH  10  11
ATOM     11  C   UNL     1      21.156 -11.250  66.309  1.00  0.00     0.163 C 
ATOM     12  O   UNL     1      22.209 -10.586  66.114  1.00  0.00    -0.294 OA
BRANCH  11  13
ATOM     13  C   UNL     1      20.820 -11.731  67.686  1.00  0.00    -0.002 C 
ATOM     14  C   UNL     1      21.380 -12.864  68.208  1.00  0.00    -0.069 C 
ATOM     15  C   UNL     1      21.065 -13.322  69.615  1.00  0.00     0.039 C 
ATOM     16  C   UNL     1      22.313 -13.734  67.395  1.00  0.00     0.039 C 
BRANCH  13  17
ATOM     17  C   UNL     1      19.772 -10.947  68.454  1.00  0.00     0.066 CG0
ATOM     18  G   UNL     1      18.407 -11.545  68.213  1.00  0.00     0.000 G0
ENDBRANCH  13  17
ENDBRANCH  11  13
ENDBRANCH  10  11
ENDBRANCH   1  10
TORSDOF 0
ENDMDL
MODEL 4
REMARK VINA RESULT:    -4.218     15.861     17.537
REMARK INTER + INTRA:          -5.379
REMARK INTER:                  -5.788
REMARK INTRA:                   0.408
REMARK UNBOUND:                 0.565
REMARK SMILES CC1=CCC(=C(C)C)C(=O)CC(C)=CCC1
REMARK SMILES IDX 12 1 14 2 13 3 15 4 16 5 2 6 1 7 3 8 11 10 9 11 10 12 5 13
REMARK SMILES IDX 6 14 7 15 8 16 4 17
REMARK H PARENT
REMARK Flexibility Score: 60.00
ROOT
ATOM      1  C   UNL     1       5.754   3.994  63.442  1.00  0.00    -0.070 C 
ATOM      2  C   UNL     1       5.458   3.024  64.340  1.00  0.00    -0.027 C 
ATOM      3  C   UNL     1       5.230   5.382  63.720  1.00  0.00     0.039 C 
ENDROOT
BRANCH   2   4
ATOM      4  C   UNL     1       5.787   1.557  64.211  1.00  0.00     0.032 C 
BRANCH   4   5
ATOM      5  C   UNL     1       7.268   1.252  64.508  1.00  0.00     0.034 C 
BRANCH   5   6
ATOM      6  C   UNL     1       7.940   0.513  63.368  1.00  0.00    -0.077 C 
ATOM      7  C   UNL     1       7.398  -0.837  62.971  1.00  0.00     0.039 C 
ATOM      8  C   UNL     1       8.984   1.007  62.666  1.00  0.00    -0.023 CG0
ATOM      9  G   UNL     1       9.642   2.348  62.887  1.00  0.00     0.000 G0
ENDBRANCH   5   6
ENDBRANCH   4   5
ENDBRANCH   2   4
BRANCH   1  10
ATOM     10  C   UNL     1       6.517   3.746  62.151  1.00  0.00     0.111 C 
BRANCH  10  11
ATOM     11  C   UNL     1       7.948   4.212  62.255  1.00  0.00     0.163 C 
ATOM     12  O   UNL     1       8.166   5.353  62.746  1.00  0.00    -0.294 OA
BRANCH  11  13
ATOM     13  C   UNL     1       9.096   3.344  61.845  1.00  0.00    -0.002 C 
ATOM     14  C   UNL     1       9.608   3.379  60.578  1.00  0.00    -0.069 C 
ATOM     15  C   UNL     1      10.793   2.526  60.182  1.00  0.00     0.039 C 
ATOM     16  C   UNL     1       8.994   4.245  59.500  1.00  0.00     0.039 C 
BRANCH  13  17
ATOM     17  C   UNL     1       9.622   2.365  62.878  1.00  0.00     0.066 CG0
ATOM     18  G   UNL     1       8.989   1.010  62.669  1.00  0.00     0.000 G0
ENDBRANCH  13  17
ENDBRANCH  11  13
ENDBRANCH  10  11
ENDBRANCH   1  10
TORSDOF 0
ENDMDL
MODEL 5
REMARK VINA RESULT:    -4.211      2.156      4.662
REMARK INTER + INTRA:          -5.369
REMARK INTER:                  -5.964
REMARK INTRA:                   0.595
REMARK UNBOUND:                 0.565
REMARK SMILES CC1=CCC(=C(C)C)C(=O)CC(C)=CCC1
REMARK SMILES IDX 12 1 14 2 13 3 15 4 16 5 2 6 1 7 3 8 11 10 9 11 10 12 5 13
REMARK SMILES IDX 6 14 7 15 8 16 4 17
REMARK H PARENT
REMARK Flexibility Score: 60.00
ROOT
ATOM      1  C   UNL     1      17.631 -11.115  65.148  1.00  0.00    -0.070 C 
ATOM      2  C   UNL     1      17.477 -11.780  66.318  1.00  0.00    -0.027 C 
ATOM      3  C   UNL     1      16.537 -10.157  64.743  1.00  0.00     0.039 C 
ENDROOT
BRANCH   2   4
ATOM      4  C   UNL     1      18.389 -12.853  66.861  1.00  0.00     0.032 C 
BRANCH   4   5
ATOM      5  C   UNL     1      18.978 -12.490  68.238  1.00  0.00     0.034 C 
BRANCH   5   6
ATOM      6  C   UNL     1      19.609 -11.112  68.245  1.00  0.00    -0.077 C 
ATOM      7  C   UNL     1      19.122 -10.106  69.257  1.00  0.00     0.039 C 
ATOM      8  C   UNL     1      20.604 -10.739  67.410  1.00  0.00    -0.023 CG0
ATOM      9  G   UNL     1      21.247 -11.610  66.357  1.00  0.00     0.000 G0
ENDBRANCH   5   6
ENDBRANCH   4   5
ENDBRANCH   2   4
BRANCH   1  10
ATOM     10  C   UNL     1      18.800 -11.331  64.201  1.00  0.00     0.111 C 
BRANCH  10  11
ATOM     11  C   UNL     1      19.946 -10.400  64.513  1.00  0.00     0.163 C 
ATOM     12  O   UNL     1      19.754  -9.160  64.387  1.00  0.00    -0.294 OA
BRANCH  11  13
ATOM     13  C   UNL     1      21.264 -10.905  65.011  1.00  0.00    -0.002 C 
ATOM     14  C   UNL     1      22.405 -10.793  64.266  1.00  0.00    -0.069 C 
ATOM     15  C   UNL     1      23.740 -11.272  64.792  1.00  0.00     0.039 C 
ATOM     16  C   UNL     1      22.384 -10.219  62.866  1.00  0.00     0.039 C 
BRANCH  13  17
ATOM     17  C   UNL     1      21.267 -11.617  66.351  1.00  0.00     0.066 CG0
ATOM     18  G   UNL     1      20.597 -10.753  67.392  1.00  0.00     0.000 G0
ENDBRANCH  13  17
ENDBRANCH  11  13
ENDBRANCH  10  11
ENDBRANCH   1  10
TORSDOF 0
ENDMDL
MODEL 6
REMARK VINA RESULT:    -4.174      2.242      5.859
REMARK INTER + INTRA:          -5.318
REMARK INTER:                  -5.676
REMARK INTRA:                   0.358
REMARK UNBOUND:                 0.565
REMARK SMILES CC1=CCC(=C(C)C)C(=O)CC(C)=CCC1
REMARK SMILES IDX 12 1 14 2 13 3 15 4 16 5 2 6 1 7 3 8 11 10 9 11 10 12 5 13
REMARK SMILES IDX 6 14 7 15 8 16 4 17
REMARK H PARENT
REMARK Flexibility Score: 60.00
ROOT
ATOM      1  C   UNL     1      13.043 -11.961  63.146  1.00  0.00    -0.070 C 
ATOM      2  C   UNL     1      12.778 -11.263  62.016  1.00  0.00    -0.027 C 
ATOM      3  C   UNL     1      12.366 -13.300  63.311  1.00  0.00     0.039 C 
ENDROOT
BRANCH   2   4
ATOM      4  C   UNL     1      13.258  -9.868  61.695  1.00  0.00     0.032 C 
BRANCH   4   5
ATOM      5  C   UNL     1      14.770  -9.815  61.398  1.00  0.00     0.034 C 
BRANCH   5   6
ATOM      6  C   UNL     1      15.490  -8.809  62.273  1.00  0.00    -0.077 C 
ATOM      7  C   UNL     1      15.011  -7.379  62.263  1.00  0.00     0.039 C 
ATOM      8  C   UNL     1      16.523  -9.124  63.085  1.00  0.00    -0.023 CG0
ATOM      9  G   UNL     1      17.121 -10.500  63.260  1.00  0.00     0.000 G0
ENDBRANCH   5   6
ENDBRANCH   4   5
ENDBRANCH   2   4
BRANCH   1  10
ATOM     10  C   UNL     1      13.922 -11.443  64.272  1.00  0.00     0.111 C 
BRANCH  10  11
ATOM     11  C   UNL     1      15.310 -12.034  64.209  1.00  0.00     0.163 C 
ATOM     12  O   UNL     1      15.424 -13.247  63.886  1.00  0.00    -0.294 OA
BRANCH  11  13
ATOM     13  C   UNL     1      16.533 -11.211  64.464  1.00  0.00    -0.002 C 
ATOM     14  C   UNL     1      17.041 -11.048  65.724  1.00  0.00    -0.069 C 
ATOM     15  C   UNL     1      18.299 -10.245  65.968  1.00  0.00     0.039 C 
ATOM     16  C   UNL     1      16.351 -11.630  66.937  1.00  0.00     0.039 C 
BRANCH  13  17
ATOM     17  C   UNL     1      17.146 -10.500  63.272  1.00  0.00     0.066 CG0
ATOM     18  G   UNL     1      16.500  -9.147  63.094  1.00  0.00     0.000 G0
ENDBRANCH  13  17
ENDBRANCH  11  13
ENDBRANCH  10  11
ENDBRANCH   1  10
TORSDOF 0
ENDMDL
MODEL 7
REMARK VINA RESULT:    -4.093      1.848      3.315
REMARK INTER + INTRA:          -5.203
REMARK INTER:                  -6.016
REMARK INTRA:                   0.813
REMARK UNBOUND:                 0.565
REMARK SMILES CC1=CCC(=C(C)C)C(=O)CC(C)=CCC1
REMARK SMILES IDX 12 1 14 2 13 3 15 4 16 5 2 6 1 7 3 8 11 10 9 11 10 12 5 13
REMARK SMILES IDX 6 14 7 15 8 16 4 17
REMARK H PARENT
REMARK Flexibility Score: 60.00
ROOT
ATOM      1  C   UNL     1      17.752 -12.670  65.841  1.00  0.00    -0.070 C 
ATOM      2  C   UNL     1      18.524 -11.776  66.503  1.00  0.00    -0.027 C 
ATOM      3  C   UNL     1      18.223 -14.103  65.806  1.00  0.00     0.039 C 
ENDROOT
BRANCH   2   4
ATOM      4  C   UNL     1      18.302 -10.284  66.576  1.00  0.00     0.032 C 
BRANCH   4   5
ATOM      5  C   UNL     1      19.486  -9.479  66.007  1.00  0.00     0.034 C 
BRANCH   5   6
ATOM      6  C   UNL     1      19.770  -9.826  64.558  1.00  0.00    -0.077 C 
ATOM      7  C   UNL     1      21.138 -10.350  64.202  1.00  0.00     0.039 C 
ATOM      8  C   UNL     1      18.855  -9.718  63.568  1.00  0.00    -0.023 CG0
ATOM      9  G   UNL     1      17.429  -9.250  63.730  1.00  0.00     0.000 G0
ENDBRANCH   5   6
ENDBRANCH   4   5
ENDBRANCH   2   4
BRANCH   1  10
ATOM     10  C   UNL     1      16.489 -12.297  65.084  1.00  0.00     0.111 C 
BRANCH  10  11
ATOM     11  C   UNL     1      16.805 -11.750  63.713  1.00  0.00     0.163 C 
ATOM     12  O   UNL     1      17.330 -12.528  62.871  1.00  0.00    -0.294 OA
BRANCH  11  13
ATOM     13  C   UNL     1      16.465 -10.347  63.322  1.00  0.00    -0.002 C 
ATOM     14  C   UNL     1      15.371 -10.059  62.553  1.00  0.00    -0.069 C 
ATOM     15  C   UNL     1      15.013  -8.634  62.194  1.00  0.00     0.039 C 
ATOM     16  C   UNL     1      14.486 -11.151  61.995  1.00  0.00     0.039 C 
BRANCH  13  17
ATOM     17  C   UNL     1      17.430  -9.258  63.753  1.00  0.00     0.066 CG0
ATOM     18  G   UNL     1      18.852  -9.722  63.544  1.00  0.00     0.000 G0
ENDBRANCH  13  17
ENDBRANCH  11  13
ENDBRANCH  10  11
ENDBRANCH   1  10
TORSDOF 0
ENDMDL
MODEL 8
REMARK VINA RESULT:    -4.053      1.696      4.462
REMARK INTER + INTRA:          -5.147
REMARK INTER:                  -5.869
REMARK INTRA:                   0.723
REMARK UNBOUND:                 0.565
REMARK SMILES CC1=CCC(=C(C)C)C(=O)CC(C)=CCC1
REMARK SMILES IDX 12 1 14 2 13 3 15 4 16 5 2 6 1 7 3 8 11 10 9 11 10 12 5 13
REMARK SMILES IDX 6 14 7 15 8 16 4 17
REMARK H PARENT
REMARK Flexibility Score: 60.00
ROOT
ATOM      1  C   UNL     1      15.540  -9.300  63.166  1.00  0.00    -0.070 C 
ATOM      2  C   UNL     1      14.501 -10.163  63.268  1.00  0.00    -0.027 C 
ATOM      3  C   UNL     1      15.672  -8.520  61.880  1.00  0.00     0.039 C 
ENDROOT
BRANCH   2   4
ATOM      4  C   UNL     1      14.239 -11.113  64.411  1.00  0.00     0.032 C 
BRANCH   4   5
ATOM      5  C   UNL     1      14.228 -12.588  63.965  1.00  0.00     0.034 C 
BRANCH   5   6
ATOM      6  C   UNL     1      15.514 -12.985  63.269  1.00  0.00    -0.077 C 
ATOM      7  C   UNL     1      15.437 -13.473  61.844  1.00  0.00     0.039 C 
ATOM      8  C   UNL     1      16.735 -12.903  63.844  1.00  0.00    -0.023 CG0
ATOM      9  G   UNL     1      17.021 -12.408  65.242  1.00  0.00     0.000 G0
ENDBRANCH   5   6
ENDBRANCH   4   5
ENDBRANCH   2   4
BRANCH   1  10
ATOM     10  C   UNL     1      16.606  -9.130  64.236  1.00  0.00     0.111 C 
BRANCH  10  11
ATOM     11  C   UNL     1      17.682 -10.180  64.119  1.00  0.00     0.163 C 
ATOM     12  O   UNL     1      18.413 -10.168  63.091  1.00  0.00    -0.294 OA
BRANCH  11  13
ATOM     13  C   UNL     1      17.932 -11.183  65.201  1.00  0.00    -0.002 C 
ATOM     14  C   UNL     1      18.973 -11.050  66.078  1.00  0.00    -0.069 C 
ATOM     15  C   UNL     1      19.197 -12.048  67.192  1.00  0.00     0.039 C 
ATOM     16  C   UNL     1      19.973  -9.922  65.955  1.00  0.00     0.039 C 
BRANCH  13  17
ATOM     17  C   UNL     1      17.024 -12.397  65.238  1.00  0.00     0.066 CG0
ATOM     18  G   UNL     1      16.746 -12.874  63.833  1.00  0.00     0.000 G0
ENDBRANCH  13  17
ENDBRANCH  11  13
ENDBRANCH  10  11
ENDBRANCH   1  10
TORSDOF 0
ENDMDL
MODEL 9
REMARK VINA RESULT:    -4.039      1.747      4.508
REMARK INTER + INTRA:          -5.127
REMARK INTER:                  -5.865
REMARK INTRA:                   0.738
REMARK UNBOUND:                 0.565
REMARK SMILES CC1=CCC(=C(C)C)C(=O)CC(C)=CCC1
REMARK SMILES IDX 12 1 14 2 13 3 15 4 16 5 2 6 1 7 3 8 11 10 9 11 10 12 5 13
REMARK SMILES IDX 6 14 7 15 8 16 4 17
REMARK H PARENT
REMARK Flexibility Score: 60.00
ROOT
ATOM      1  C   UNL     1      17.571 -10.871  67.303  1.00  0.00    -0.070 C 
ATOM      2  C   UNL     1      16.298 -10.755  66.857  1.00  0.00    -0.027 C 
ATOM      3  C   UNL     1      18.239  -9.625  67.833  1.00  0.00     0.039 C 
ENDROOT
BRANCH   2   4
ATOM      4  C   UNL     1      15.482 -11.838  66.194  1.00  0.00     0.032 C 
BRANCH   4   5
ATOM      5  C   UNL     1      15.123 -11.501  64.734  1.00  0.00     0.034 C 
BRANCH   5   6
ATOM      6  C   UNL     1      15.963 -12.284  63.744  1.00  0.00    -0.077 C 
ATOM      7  C   UNL     1      15.330 -13.456  63.038  1.00  0.00     0.039 C 
ATOM      8  C   UNL     1      17.242 -11.975  63.436  1.00  0.00    -0.023 CG0
ATOM      9  G   UNL     1      18.035 -10.823  64.007  1.00  0.00     0.000 G0
ENDBRANCH   5   6
ENDBRANCH   4   5
ENDBRANCH   2   4
BRANCH   1  10
ATOM     10  C   UNL     1      18.377 -12.158  67.233  1.00  0.00     0.111 C 
BRANCH  10  11
ATOM     11  C   UNL     1      18.864 -12.432  65.831  1.00  0.00     0.163 C 
ATOM     12  O   UNL     1      18.957 -13.633  65.460  1.00  0.00    -0.294 OA
BRANCH  11  13
ATOM     13  C   UNL     1      19.181 -11.328  64.872  1.00  0.00    -0.002 C 
ATOM     14  C   UNL     1      20.419 -10.749  64.826  1.00  0.00    -0.069 C 
ATOM     15  C   UNL     1      20.742  -9.659  63.828  1.00  0.00     0.039 C 
ATOM     16  C   UNL     1      21.515 -11.144  65.791  1.00  0.00     0.039 C 
BRANCH  13  17
ATOM     17  C   UNL     1      18.045 -10.823  64.003  1.00  0.00     0.066 CG0
ATOM     18  G   UNL     1      17.267 -11.991  63.446  1.00  0.00     0.000 G0
ENDBRANCH  13  17
ENDBRANCH  11  13
ENDBRANCH  10  11
ENDBRANCH   1  10
TORSDOF 0
ENDMDL
