MODEL 1
REMARK VINA RESULT:    -4.423      0.000      0.000
REMARK INTER + INTRA:          -5.762
REMARK INTER:                  -5.457
REMARK INTRA:                  -0.305
REMARK UNBOUND:                -0.305
REMARK SMILES CCOC(=O)c1ccc(O)c(O)c1
REMARK SMILES IDX 4 1 5 2 3 3 2 4 1 5 6 6 13 7 7 8 11 9 8 10 9 11 12 12 10 14
REMARK H PARENT 12 13 10 15
REMARK Flexibility Score: inf
ROOT
ATOM      1  C   UNL     1       2.628  38.362   6.719  1.00  0.00     0.338 C 
ATOM      2  O   UNL     1       1.711  38.460   7.582  1.00  0.00    -0.246 OA
ENDROOT
BRANCH   1   3
ATOM      3  O   UNL     1       2.301  38.208   5.367  1.00  0.00    -0.462 OA
BRANCH   3   4
ATOM      4  C   UNL     1       2.564  37.011   4.643  1.00  0.00     0.230 C 
ATOM      5  C   UNL     1       1.904  35.835   5.346  1.00  0.00     0.049 C 
ENDBRANCH   3   4
ENDBRANCH   1   3
BRANCH   1   6
ATOM      6  C   UNL     1       4.047  38.409   7.133  1.00  0.00     0.064 A 
ATOM      7  C   UNL     1       4.530  37.556   8.142  1.00  0.00     0.065 A 
ATOM      8  C   UNL     1       4.935  39.310   6.520  1.00  0.00     0.020 A 
ATOM      9  C   UNL     1       5.874  37.601   8.533  1.00  0.00     0.158 A 
ATOM     10  C   UNL     1       6.276  39.357   6.909  1.00  0.00     0.051 A 
ATOM     11  C   UNL     1       6.752  38.505   7.914  1.00  0.00     0.157 A 
BRANCH   9  12
ATOM     12  O   UNL     1       6.316  36.741   9.537  1.00  0.00    -0.504 OA
ATOM     13  H   UNL     1       6.326  35.735   9.419  1.00  0.00     0.293 HD
ENDBRANCH   9  12
BRANCH  11  14
ATOM     14  O   UNL     1       8.091  38.556   8.299  1.00  0.00    -0.504 OA
ATOM     15  H   UNL     1       8.572  37.738   8.655  1.00  0.00     0.293 HD
ENDBRANCH  11  14
ENDBRANCH   1   6
TORSDOF 5
ENDMDL
MODEL 2
REMARK VINA RESULT:    -4.252      2.471      5.993
REMARK INTER + INTRA:          -5.552
REMARK INTER:                  -5.276
REMARK INTRA:                  -0.276
REMARK UNBOUND:                -0.305
REMARK SMILES CCOC(=O)c1ccc(O)c(O)c1
REMARK SMILES IDX 4 1 5 2 3 3 2 4 1 5 6 6 13 7 7 8 11 9 8 10 9 11 12 12 10 14
REMARK H PARENT 12 13 10 15
REMARK Flexibility Score: inf
ROOT
ATOM      1  C   UNL     1       2.512  37.825   5.350  1.00  0.00     0.338 C 
ATOM      2  O   UNL     1       3.010  37.743   4.192  1.00  0.00    -0.246 OA
ENDROOT
BRANCH   1   3
ATOM      3  O   UNL     1       3.036  38.736   6.273  1.00  0.00    -0.462 OA
BRANCH   3   4
ATOM      4  C   UNL     1       4.365  38.646   6.774  1.00  0.00     0.230 C 
ATOM      5  C   UNL     1       4.405  37.670   7.940  1.00  0.00     0.049 C 
ENDBRANCH   3   4
ENDBRANCH   1   3
BRANCH   1   6
ATOM      6  C   UNL     1       1.375  36.960   5.732  1.00  0.00     0.064 A 
ATOM      7  C   UNL     1       0.310  37.468   6.498  1.00  0.00     0.065 A 
ATOM      8  C   UNL     1       1.343  35.613   5.332  1.00  0.00     0.020 A 
ATOM      9  C   UNL     1      -0.766  36.648   6.859  1.00  0.00     0.158 A 
ATOM     10  C   UNL     1       0.271  34.793   5.690  1.00  0.00     0.051 A 
ATOM     11  C   UNL     1      -0.787  35.304   6.454  1.00  0.00     0.157 A 
BRANCH   9  12
ATOM     12  O   UNL     1      -1.803  37.187   7.620  1.00  0.00    -0.504 OA
ATOM     13  H   UNL     1      -2.082  36.789   8.508  1.00  0.00     0.293 HD
ENDBRANCH   9  12
BRANCH  11  14
ATOM     14  O   UNL     1      -1.855  34.482   6.810  1.00  0.00    -0.504 OA
ATOM     15  H   UNL     1      -2.627  34.309   6.176  1.00  0.00     0.293 HD
ENDBRANCH  11  14
ENDBRANCH   1   6
TORSDOF 5
ENDMDL
MODEL 3
REMARK VINA RESULT:    -4.092      1.170      2.091
REMARK INTER + INTRA:          -5.354
REMARK INTER:                  -5.189
REMARK INTRA:                  -0.165
REMARK UNBOUND:                -0.305
REMARK SMILES CCOC(=O)c1ccc(O)c(O)c1
REMARK SMILES IDX 4 1 5 2 3 3 2 4 1 5 6 6 13 7 7 8 11 9 8 10 9 11 12 12 10 14
REMARK H PARENT 12 13 10 15
REMARK Flexibility Score: inf
ROOT
ATOM      1  C   UNL     1       2.696  37.925   6.672  1.00  0.00     0.338 C 
ATOM      2  O   UNL     1       2.457  37.200   5.666  1.00  0.00    -0.246 OA
ENDROOT
BRANCH   1   3
ATOM      3  O   UNL     1       1.640  38.513   7.376  1.00  0.00    -0.462 OA
BRANCH   3   4
ATOM      4  C   UNL     1       1.126  39.801   7.059  1.00  0.00     0.230 C 
ATOM      5  C   UNL     1       0.151  40.241   8.140  1.00  0.00     0.049 C 
ENDBRANCH   3   4
ENDBRANCH   1   3
BRANCH   1   6
ATOM      6  C   UNL     1       4.090  38.154   7.107  1.00  0.00     0.064 A 
ATOM      7  C   UNL     1       4.651  37.399   8.154  1.00  0.00     0.065 A 
ATOM      8  C   UNL     1       4.878  39.134   6.478  1.00  0.00     0.020 A 
ATOM      9  C   UNL     1       5.972  37.618   8.564  1.00  0.00     0.158 A 
ATOM     10  C   UNL     1       6.195  39.354   6.886  1.00  0.00     0.051 A 
ATOM     11  C   UNL     1       6.749  38.599   7.929  1.00  0.00     0.157 A 
BRANCH   9  12
ATOM     12  O   UNL     1       6.493  36.850   9.606  1.00  0.00    -0.504 OA
ATOM     13  H   UNL     1       6.425  37.139  10.574  1.00  0.00     0.293 HD
ENDBRANCH   9  12
BRANCH  11  14
ATOM     14  O   UNL     1       8.064  38.822   8.333  1.00  0.00    -0.504 OA
ATOM     15  H   UNL     1       8.849  38.424   7.831  1.00  0.00     0.293 HD
ENDBRANCH  11  14
ENDBRANCH   1   6
TORSDOF 5
ENDMDL
MODEL 4
REMARK VINA RESULT:    -4.019      0.873      1.943
REMARK INTER + INTRA:          -5.264
REMARK INTER:                  -4.944
REMARK INTRA:                  -0.321
REMARK UNBOUND:                -0.305
REMARK SMILES CCOC(=O)c1ccc(O)c(O)c1
REMARK SMILES IDX 4 1 5 2 3 3 2 4 1 5 6 6 13 7 7 8 11 9 8 10 9 11 12 12 10 14
REMARK H PARENT 12 13 10 15
REMARK Flexibility Score: inf
ROOT
ATOM      1  C   UNL     1       2.460  38.350   6.731  1.00  0.00     0.338 C 
ATOM      2  O   UNL     1       1.589  38.482   7.636  1.00  0.00    -0.246 OA
ENDROOT
BRANCH   1   3
ATOM      3  O   UNL     1       2.064  38.140   5.406  1.00  0.00    -0.462 OA
BRANCH   3   4
ATOM      4  C   UNL     1       2.411  36.968   4.675  1.00  0.00     0.230 C 
ATOM      5  C   UNL     1       1.840  35.745   5.375  1.00  0.00     0.049 C 
ENDBRANCH   3   4
ENDBRANCH   1   3
BRANCH   1   6
ATOM      6  C   UNL     1       3.898  38.417   7.068  1.00  0.00     0.064 A 
ATOM      7  C   UNL     1       4.761  39.286   6.374  1.00  0.00     0.065 A 
ATOM      8  C   UNL     1       4.424  37.612   8.093  1.00  0.00     0.020 A 
ATOM      9  C   UNL     1       6.122  39.348   6.696  1.00  0.00     0.158 A 
ATOM     10  C   UNL     1       5.782  37.673   8.416  1.00  0.00     0.051 A 
ATOM     11  C   UNL     1       6.637  38.539   7.721  1.00  0.00     0.157 A 
BRANCH   9  12
ATOM     12  O   UNL     1       6.946  40.220   5.984  1.00  0.00    -0.504 OA
ATOM     13  H   UNL     1       6.996  40.209   4.973  1.00  0.00     0.293 HD
ENDBRANCH   9  12
BRANCH  11  14
ATOM     14  O   UNL     1       7.991  38.596   8.045  1.00  0.00    -0.504 OA
ATOM     15  H   UNL     1       8.498  37.775   8.357  1.00  0.00     0.293 HD
ENDBRANCH  11  14
ENDBRANCH   1   6
TORSDOF 5
ENDMDL
MODEL 5
REMARK VINA RESULT:    -3.902      2.336      5.558
REMARK INTER + INTRA:          -5.120
REMARK INTER:                  -4.859
REMARK INTRA:                  -0.261
REMARK UNBOUND:                -0.305
REMARK SMILES CCOC(=O)c1ccc(O)c(O)c1
REMARK SMILES IDX 4 1 5 2 3 3 2 4 1 5 6 6 13 7 7 8 11 9 8 10 9 11 12 12 10 14
REMARK H PARENT 12 13 10 15
REMARK Flexibility Score: inf
ROOT
ATOM      1  C   UNL     1       3.263  38.471   5.728  1.00  0.00     0.338 C 
ATOM      2  O   UNL     1       3.777  38.557   4.578  1.00  0.00    -0.246 OA
ENDROOT
BRANCH   1   3
ATOM      3  O   UNL     1       3.881  39.092   6.818  1.00  0.00    -0.462 OA
BRANCH   3   4
ATOM      4  C   UNL     1       5.183  38.736   7.270  1.00  0.00     0.230 C 
ATOM      5  C   UNL     1       5.080  37.601   8.277  1.00  0.00     0.049 C 
ENDBRANCH   3   4
ENDBRANCH   1   3
BRANCH   1   6
ATOM      6  C   UNL     1       2.007  37.716   5.925  1.00  0.00     0.064 A 
ATOM      7  C   UNL     1       1.907  36.369   5.528  1.00  0.00     0.065 A 
ATOM      8  C   UNL     1       0.892  38.335   6.516  1.00  0.00     0.020 A 
ATOM      9  C   UNL     1       0.717  35.656   5.716  1.00  0.00     0.158 A 
ATOM     10  C   UNL     1      -0.296  37.625   6.704  1.00  0.00     0.051 A 
ATOM     11  C   UNL     1      -0.391  36.285   6.307  1.00  0.00     0.157 A 
BRANCH   9  12
ATOM     12  O   UNL     1       0.656  34.323   5.309  1.00  0.00    -0.504 OA
ATOM     13  H   UNL     1       0.002  34.005   4.604  1.00  0.00     0.293 HD
ENDBRANCH   9  12
BRANCH  11  14
ATOM     14  O   UNL     1      -1.578  35.580   6.496  1.00  0.00    -0.504 OA
ATOM     15  H   UNL     1      -2.464  36.056   6.622  1.00  0.00     0.293 HD
ENDBRANCH  11  14
ENDBRANCH   1   6
TORSDOF 5
ENDMDL
MODEL 6
REMARK VINA RESULT:    -3.796      3.790      7.227
REMARK INTER + INTRA:          -4.989
REMARK INTER:                  -4.829
REMARK INTRA:                  -0.159
REMARK UNBOUND:                -0.305
REMARK SMILES CCOC(=O)c1ccc(O)c(O)c1
REMARK SMILES IDX 4 1 5 2 3 3 2 4 1 5 6 6 13 7 7 8 11 9 8 10 9 11 12 12 10 14
REMARK H PARENT 12 13 10 15
REMARK Flexibility Score: inf
ROOT
ATOM      1  C   UNL     1       1.266  36.466   5.714  1.00  0.00     0.338 C 
ATOM      2  O   UNL     1       2.028  35.502   5.423  1.00  0.00    -0.246 OA
ENDROOT
BRANCH   1   3
ATOM      3  O   UNL     1       1.810  37.693   6.108  1.00  0.00    -0.462 OA
BRANCH   3   4
ATOM      4  C   UNL     1       3.199  37.987   6.008  1.00  0.00     0.230 C 
ATOM      5  C   UNL     1       3.835  37.916   7.388  1.00  0.00     0.049 C 
ENDBRANCH   3   4
ENDBRANCH   1   3
BRANCH   1   6
ATOM      6  C   UNL     1      -0.202  36.300   5.640  1.00  0.00     0.064 A 
ATOM      7  C   UNL     1      -0.840  35.234   6.299  1.00  0.00     0.065 A 
ATOM      8  C   UNL     1      -0.982  37.212   4.908  1.00  0.00     0.020 A 
ATOM      9  C   UNL     1      -2.230  35.079   6.229  1.00  0.00     0.158 A 
ATOM     10  C   UNL     1      -2.368  37.059   4.835  1.00  0.00     0.051 A 
ATOM     11  C   UNL     1      -2.999  35.995   5.494  1.00  0.00     0.157 A 
BRANCH   9  12
ATOM     12  O   UNL     1      -2.826  34.009   6.895  1.00  0.00    -0.504 OA
ATOM     13  H   UNL     1      -2.969  33.110   6.450  1.00  0.00     0.293 HD
ENDBRANCH   9  12
BRANCH  11  14
ATOM     14  O   UNL     1      -4.383  35.846   5.419  1.00  0.00    -0.504 OA
ATOM     15  H   UNL     1      -4.810  35.145   4.824  1.00  0.00     0.293 HD
ENDBRANCH  11  14
ENDBRANCH   1   6
TORSDOF 5
ENDMDL
MODEL 7
REMARK VINA RESULT:    -3.685      1.919      5.330
REMARK INTER + INTRA:          -4.851
REMARK INTER:                  -4.635
REMARK INTRA:                  -0.216
REMARK UNBOUND:                -0.305
REMARK SMILES CCOC(=O)c1ccc(O)c(O)c1
REMARK SMILES IDX 4 1 5 2 3 3 2 4 1 5 6 6 13 7 7 8 11 9 8 10 9 11 12 12 10 14
REMARK H PARENT 12 13 10 15
REMARK Flexibility Score: inf
ROOT
ATOM      1  C   UNL     1       4.380  38.104   7.323  1.00  0.00     0.338 C 
ATOM      2  O   UNL     1       4.725  37.505   8.379  1.00  0.00    -0.246 OA
ENDROOT
BRANCH   1   3
ATOM      3  O   UNL     1       5.275  38.970   6.686  1.00  0.00    -0.462 OA
BRANCH   3   4
ATOM      4  C   UNL     1       5.233  40.383   6.857  1.00  0.00     0.230 C 
ATOM      5  C   UNL     1       6.264  40.801   7.894  1.00  0.00     0.049 C 
ENDBRANCH   3   4
ENDBRANCH   1   3
BRANCH   1   6
ATOM      6  C   UNL     1       3.031  37.892   6.756  1.00  0.00     0.064 A 
ATOM      7  C   UNL     1       1.883  38.319   7.450  1.00  0.00     0.065 A 
ATOM      8  C   UNL     1       2.876  37.260   5.510  1.00  0.00     0.020 A 
ATOM      9  C   UNL     1       0.607  38.118   6.911  1.00  0.00     0.158 A 
ATOM     10  C   UNL     1       1.604  37.058   4.971  1.00  0.00     0.051 A 
ATOM     11  C   UNL     1       0.464  37.485   5.666  1.00  0.00     0.157 A 
BRANCH   9  12
ATOM     12  O   UNL     1      -0.507  38.554   7.629  1.00  0.00    -0.504 OA
ATOM     13  H   UNL     1      -0.845  38.064   8.448  1.00  0.00     0.293 HD
ENDBRANCH   9  12
BRANCH  11  14
ATOM     14  O   UNL     1      -0.804  37.281   5.125  1.00  0.00    -0.504 OA
ATOM     15  H   UNL     1      -1.627  37.723   5.519  1.00  0.00     0.293 HD
ENDBRANCH  11  14
ENDBRANCH   1   6
TORSDOF 5
ENDMDL
MODEL 8
REMARK VINA RESULT:    -3.665      3.404      5.470
REMARK INTER + INTRA:          -4.827
REMARK INTER:                  -4.576
REMARK INTRA:                  -0.250
REMARK UNBOUND:                -0.305
REMARK SMILES CCOC(=O)c1ccc(O)c(O)c1
REMARK SMILES IDX 4 1 5 2 3 3 2 4 1 5 6 6 13 7 7 8 11 9 8 10 9 11 12 12 10 14
REMARK H PARENT 12 13 10 15
REMARK Flexibility Score: inf
ROOT
ATOM      1  C   UNL     1      -1.756  35.703   5.997  1.00  0.00     0.338 C 
ATOM      2  O   UNL     1      -2.623  36.147   5.194  1.00  0.00    -0.246 OA
ENDROOT
BRANCH   1   3
ATOM      3  O   UNL     1      -2.095  34.693   6.903  1.00  0.00    -0.462 OA
BRANCH   3   4
ATOM      4  C   UNL     1      -1.920  34.828   8.309  1.00  0.00     0.230 C 
ATOM      5  C   UNL     1      -1.428  33.512   8.890  1.00  0.00     0.049 C 
ENDBRANCH   3   4
ENDBRANCH   1   3
BRANCH   1   6
ATOM      6  C   UNL     1      -0.381  36.248   5.982  1.00  0.00     0.064 A 
ATOM      7  C   UNL     1      -0.105  37.518   6.521  1.00  0.00     0.065 A 
ATOM      8  C   UNL     1       0.672  35.500   5.428  1.00  0.00     0.020 A 
ATOM      9  C   UNL     1       1.197  38.033   6.506  1.00  0.00     0.158 A 
ATOM     10  C   UNL     1       1.972  36.012   5.412  1.00  0.00     0.051 A 
ATOM     11  C   UNL     1       2.242  37.277   5.950  1.00  0.00     0.157 A 
BRANCH   9  12
ATOM     12  O   UNL     1       1.432  39.296   7.049  1.00  0.00    -0.504 OA
ATOM     13  H   UNL     1       1.271  40.146   6.522  1.00  0.00     0.293 HD
ENDBRANCH   9  12
BRANCH  11  14
ATOM     14  O   UNL     1       3.540  37.784   5.932  1.00  0.00    -0.504 OA
ATOM     15  H   UNL     1       3.751  38.716   6.271  1.00  0.00     0.293 HD
ENDBRANCH  11  14
ENDBRANCH   1   6
TORSDOF 5
ENDMDL
MODEL 9
REMARK VINA RESULT:    -3.581      4.942      6.729
REMARK INTER + INTRA:          -4.723
REMARK INTER:                  -4.437
REMARK INTRA:                  -0.286
REMARK UNBOUND:                -0.305
REMARK SMILES CCOC(=O)c1ccc(O)c(O)c1
REMARK SMILES IDX 4 1 5 2 3 3 2 4 1 5 6 6 13 7 7 8 11 9 8 10 9 11 12 12 10 14
REMARK H PARENT 12 13 10 15
REMARK Flexibility Score: inf
ROOT
ATOM      1  C   UNL     1      -2.435  35.850   8.182  1.00  0.00     0.338 C 
ATOM      2  O   UNL     1      -3.126  36.888   8.376  1.00  0.00    -0.246 OA
ENDROOT
BRANCH   1   3
ATOM      3  O   UNL     1      -2.736  34.671   8.872  1.00  0.00    -0.462 OA
BRANCH   3   4
ATOM      4  C   UNL     1      -2.637  34.561  10.288  1.00  0.00     0.230 C 
ATOM      5  C   UNL     1      -1.263  34.030  10.663  1.00  0.00     0.049 C 
ENDBRANCH   3   4
ENDBRANCH   1   3
BRANCH   1   6
ATOM      6  C   UNL     1      -1.307  35.876   7.226  1.00  0.00     0.064 A 
ATOM      7  C   UNL     1      -0.735  37.096   6.821  1.00  0.00     0.065 A 
ATOM      8  C   UNL     1      -0.789  34.677   6.707  1.00  0.00     0.020 A 
ATOM      9  C   UNL     1       0.333  37.119   5.916  1.00  0.00     0.158 A 
ATOM     10  C   UNL     1       0.277  34.698   5.804  1.00  0.00     0.051 A 
ATOM     11  C   UNL     1       0.843  35.916   5.404  1.00  0.00     0.157 A 
BRANCH   9  12
ATOM     12  O   UNL     1       0.874  38.348   5.538  1.00  0.00    -0.504 OA
ATOM     13  H   UNL     1       1.866  38.474   5.379  1.00  0.00     0.293 HD
ENDBRANCH   9  12
BRANCH  11  14
ATOM     14  O   UNL     1       1.906  35.932   4.502  1.00  0.00    -0.504 OA
ATOM     15  H   UNL     1       2.274  35.077   4.100  1.00  0.00     0.293 HD
ENDBRANCH  11  14
ENDBRANCH   1   6
TORSDOF 5
ENDMDL
