MODEL 1
REMARK VINA RESULT:    -5.408      0.000      0.000
REMARK INTER + INTRA:          -5.408
REMARK INTER:                  -5.408
REMARK INTRA:                   0.000
REMARK UNBOUND:                 0.000
REMARK SMILES O=c1ccc2ccccc2o1
REMARK SMILES IDX 7 1 8 2 9 3 10 4 5 5 6 6 4 7 3 8 2 9 1 10 11 11
REMARK H PARENT
REMARK Flexibility Score: inf
ROOT
ATOM      1  C   UNL     1      -3.592  -9.501   4.742  1.00  0.00     0.001 A 
ATOM      2  C   UNL     1      -2.623  -8.767   5.434  1.00  0.00     0.004 A 
ATOM      3  C   UNL     1      -2.867  -7.437   5.790  1.00  0.00     0.048 A 
ATOM      4  C   UNL     1      -4.086  -6.835   5.454  1.00  0.00     0.138 A 
ATOM      5  C   UNL     1      -5.065  -7.577   4.755  1.00  0.00     0.018 A 
ATOM      6  C   UNL     1      -4.813  -8.910   4.402  1.00  0.00     0.012 A 
ATOM      7  C   UNL     1      -6.272  -6.948   4.433  1.00  0.00     0.019 A 
ATOM      8  C   UNL     1      -6.473  -5.621   4.806  1.00  0.00     0.094 A 
ATOM      9  C   UNL     1      -5.458  -4.948   5.497  1.00  0.00     0.336 A 
ATOM     10  O   UNL     1      -5.622  -3.749   5.843  1.00  0.00    -0.246 OA
ATOM     11  O   UNL     1      -4.319  -5.569   5.791  1.00  0.00    -0.423 OA
ENDROOT
TORSDOF 0
ENDMDL
MODEL 2
REMARK VINA RESULT:    -5.402      2.086      3.305
REMARK INTER + INTRA:          -5.402
REMARK INTER:                  -5.402
REMARK INTRA:                   0.000
REMARK UNBOUND:                 0.000
REMARK SMILES O=c1ccc2ccccc2o1
REMARK SMILES IDX 7 1 8 2 9 3 10 4 5 5 6 6 4 7 3 8 2 9 1 10 11 11
REMARK H PARENT
REMARK Flexibility Score: inf
ROOT
ATOM      1  C   UNL     1      -4.077  -7.474   6.872  1.00  0.00     0.001 A 
ATOM      2  C   UNL     1      -4.468  -7.188   5.559  1.00  0.00     0.004 A 
ATOM      3  C   UNL     1      -5.023  -5.943   5.245  1.00  0.00     0.048 A 
ATOM      4  C   UNL     1      -5.189  -4.977   6.245  1.00  0.00     0.138 A 
ATOM      5  C   UNL     1      -4.793  -5.266   7.570  1.00  0.00     0.018 A 
ATOM      6  C   UNL     1      -4.237  -6.516   7.878  1.00  0.00     0.012 A 
ATOM      7  C   UNL     1      -4.972  -4.282   8.547  1.00  0.00     0.019 A 
ATOM      8  C   UNL     1      -5.529  -3.056   8.190  1.00  0.00     0.094 A 
ATOM      9  C   UNL     1      -5.898  -2.840   6.857  1.00  0.00     0.336 A 
ATOM     10  O   UNL     1      -6.402  -1.739   6.514  1.00  0.00    -0.246 OA
ATOM     11  O   UNL     1      -5.718  -3.793   5.947  1.00  0.00    -0.423 OA
ENDROOT
TORSDOF 0
ENDMDL
MODEL 3
REMARK VINA RESULT:    -5.358      3.246      5.498
REMARK INTER + INTRA:          -5.358
REMARK INTER:                  -5.358
REMARK INTRA:                   0.000
REMARK UNBOUND:                 0.000
REMARK SMILES O=c1ccc2ccccc2o1
REMARK SMILES IDX 7 1 8 2 9 3 10 4 5 5 6 6 4 7 3 8 2 9 1 10 11 11
REMARK H PARENT
REMARK Flexibility Score: inf
ROOT
ATOM      1  C   UNL     1      -6.607  -2.848   9.899  1.00  0.00     0.001 A 
ATOM      2  C   UNL     1      -6.560  -2.154   8.685  1.00  0.00     0.004 A 
ATOM      3  C   UNL     1      -5.962  -2.736   7.563  1.00  0.00     0.048 A 
ATOM      4  C   UNL     1      -5.408  -4.018   7.651  1.00  0.00     0.138 A 
ATOM      5  C   UNL     1      -5.455  -4.720   8.876  1.00  0.00     0.018 A 
ATOM      6  C   UNL     1      -6.057  -4.130   9.997  1.00  0.00     0.012 A 
ATOM      7  C   UNL     1      -4.893  -5.999   8.933  1.00  0.00     0.019 A 
ATOM      8  C   UNL     1      -4.307  -6.540   7.790  1.00  0.00     0.094 A 
ATOM      9  C   UNL     1      -4.296  -5.787   6.610  1.00  0.00     0.336 A 
ATOM     10  O   UNL     1      -3.772  -6.259   5.568  1.00  0.00    -0.246 OA
ATOM     11  O   UNL     1      -4.838  -4.572   6.583  1.00  0.00    -0.423 OA
ENDROOT
TORSDOF 0
ENDMDL
MODEL 4
REMARK VINA RESULT:    -5.159     10.129     10.415
REMARK INTER + INTRA:          -5.159
REMARK INTER:                  -5.159
REMARK INTRA:                   0.000
REMARK UNBOUND:                 0.000
REMARK SMILES O=c1ccc2ccccc2o1
REMARK SMILES IDX 7 1 8 2 9 3 10 4 5 5 6 6 4 7 3 8 2 9 1 10 11 11
REMARK H PARENT
REMARK Flexibility Score: inf
ROOT
ATOM      1  C   UNL     1      -4.337  -7.164  -5.634  1.00  0.00     0.001 A 
ATOM      2  C   UNL     1      -3.271  -6.322  -5.968  1.00  0.00     0.004 A 
ATOM      3  C   UNL     1      -3.355  -4.947  -5.725  1.00  0.00     0.048 A 
ATOM      4  C   UNL     1      -4.510  -4.409  -5.145  1.00  0.00     0.138 A 
ATOM      5  C   UNL     1      -5.587  -5.259  -4.806  1.00  0.00     0.018 A 
ATOM      6  C   UNL     1      -5.494  -6.636  -5.053  1.00  0.00     0.012 A 
ATOM      7  C   UNL     1      -6.727  -4.692  -4.228  1.00  0.00     0.019 A 
ATOM      8  C   UNL     1      -6.769  -3.317  -4.004  1.00  0.00     0.094 A 
ATOM      9  C   UNL     1      -5.664  -2.536  -4.365  1.00  0.00     0.336 A 
ATOM     10  O   UNL     1      -5.683  -1.293  -4.170  1.00  0.00    -0.246 OA
ATOM     11  O   UNL     1      -4.592  -3.101  -4.914  1.00  0.00    -0.423 OA
ENDROOT
TORSDOF 0
ENDMDL
MODEL 5
REMARK VINA RESULT:    -5.132      2.449      4.111
REMARK INTER + INTRA:          -5.132
REMARK INTER:                  -5.132
REMARK INTRA:                   0.000
REMARK UNBOUND:                 0.000
REMARK SMILES O=c1ccc2ccccc2o1
REMARK SMILES IDX 7 1 8 2 9 3 10 4 5 5 6 6 4 7 3 8 2 9 1 10 11 11
REMARK H PARENT
REMARK Flexibility Score: inf
ROOT
ATOM      1  C   UNL     1      -5.808  -7.533   5.927  1.00  0.00     0.001 A 
ATOM      2  C   UNL     1      -4.793  -6.797   6.550  1.00  0.00     0.004 A 
ATOM      3  C   UNL     1      -3.457  -6.993   6.188  1.00  0.00     0.048 A 
ATOM      4  C   UNL     1      -3.129  -7.929   5.199  1.00  0.00     0.138 A 
ATOM      5  C   UNL     1      -4.153  -8.672   4.570  1.00  0.00     0.018 A 
ATOM      6  C   UNL     1      -5.491  -8.469   4.938  1.00  0.00     0.012 A 
ATOM      7  C   UNL     1      -3.795  -9.599   3.587  1.00  0.00     0.019 A 
ATOM      8  C   UNL     1      -2.451  -9.763   3.258  1.00  0.00     0.094 A 
ATOM      9  C   UNL     1      -1.490  -8.992   3.923  1.00  0.00     0.336 A 
ATOM     10  O   UNL     1      -0.271  -9.125   3.640  1.00  0.00    -0.246 OA
ATOM     11  O   UNL     1      -1.858  -8.117   4.855  1.00  0.00    -0.423 OA
ENDROOT
TORSDOF 0
ENDMDL
MODEL 6
REMARK VINA RESULT:    -5.102      1.318      3.748
REMARK INTER + INTRA:          -5.102
REMARK INTER:                  -5.102
REMARK INTRA:                   0.000
REMARK UNBOUND:                 0.000
REMARK SMILES O=c1ccc2ccccc2o1
REMARK SMILES IDX 7 1 8 2 9 3 10 4 5 5 6 6 4 7 3 8 2 9 1 10 11 11
REMARK H PARENT
REMARK Flexibility Score: inf
ROOT
ATOM      1  C   UNL     1      -7.474  -5.388   4.756  1.00  0.00     0.001 A 
ATOM      2  C   UNL     1      -6.681  -4.488   5.476  1.00  0.00     0.004 A 
ATOM      3  C   UNL     1      -5.369  -4.826   5.823  1.00  0.00     0.048 A 
ATOM      4  C   UNL     1      -4.845  -6.070   5.449  1.00  0.00     0.138 A 
ATOM      5  C   UNL     1      -5.645  -6.979   4.722  1.00  0.00     0.018 A 
ATOM      6  C   UNL     1      -6.960  -6.632   4.377  1.00  0.00     0.012 A 
ATOM      7  C   UNL     1      -5.094  -8.213   4.364  1.00  0.00     0.019 A 
ATOM      8  C   UNL     1      -3.783  -8.508   4.731  1.00  0.00     0.094 A 
ATOM      9  C   UNL     1      -3.048  -7.559   5.452  1.00  0.00     0.336 A 
ATOM     10  O   UNL     1      -1.862  -7.808   5.792  1.00  0.00    -0.246 OA
ATOM     11  O   UNL     1      -3.597  -6.393   5.780  1.00  0.00    -0.423 OA
ENDROOT
TORSDOF 0
ENDMDL
MODEL 7
REMARK VINA RESULT:    -4.963      2.124      4.568
REMARK INTER + INTRA:          -4.963
REMARK INTER:                  -4.963
REMARK INTRA:                   0.000
REMARK UNBOUND:                 0.000
REMARK SMILES O=c1ccc2ccccc2o1
REMARK SMILES IDX 7 1 8 2 9 3 10 4 5 5 6 6 4 7 3 8 2 9 1 10 11 11
REMARK H PARENT
REMARK Flexibility Score: inf
ROOT
ATOM      1  C   UNL     1      -8.034  -4.286   7.201  1.00  0.00     0.001 A 
ATOM      2  C   UNL     1      -7.756  -3.974   5.866  1.00  0.00     0.004 A 
ATOM      3  C   UNL     1      -6.581  -4.436   5.265  1.00  0.00     0.048 A 
ATOM      4  C   UNL     1      -5.678  -5.214   6.000  1.00  0.00     0.138 A 
ATOM      5  C   UNL     1      -5.959  -5.530   7.347  1.00  0.00     0.018 A 
ATOM      6  C   UNL     1      -7.140  -5.063   7.943  1.00  0.00     0.012 A 
ATOM      7  C   UNL     1      -5.038  -6.308   8.055  1.00  0.00     0.019 A 
ATOM      8  C   UNL     1      -3.879  -6.747   7.417  1.00  0.00     0.094 A 
ATOM      9  C   UNL     1      -3.667  -6.395   6.078  1.00  0.00     0.336 A 
ATOM     10  O   UNL     1      -2.627  -6.782   5.485  1.00  0.00    -0.246 OA
ATOM     11  O   UNL     1      -4.559  -5.653   5.428  1.00  0.00    -0.423 OA
ENDROOT
TORSDOF 0
ENDMDL
MODEL 8
REMARK VINA RESULT:    -4.945      1.814      4.547
REMARK INTER + INTRA:          -4.945
REMARK INTER:                  -4.945
REMARK INTRA:                   0.000
REMARK UNBOUND:                 0.000
REMARK SMILES O=c1ccc2ccccc2o1
REMARK SMILES IDX 7 1 8 2 9 3 10 4 5 5 6 6 4 7 3 8 2 9 1 10 11 11
REMARK H PARENT
REMARK Flexibility Score: inf
ROOT
ATOM      1  C   UNL     1      -8.101  -2.961   5.696  1.00  0.00     0.001 A 
ATOM      2  C   UNL     1      -7.170  -2.531   6.648  1.00  0.00     0.004 A 
ATOM      3  C   UNL     1      -5.994  -3.258   6.863  1.00  0.00     0.048 A 
ATOM      4  C   UNL     1      -5.745  -4.421   6.124  1.00  0.00     0.138 A 
ATOM      5  C   UNL     1      -6.685  -4.855   5.163  1.00  0.00     0.018 A 
ATOM      6  C   UNL     1      -7.861  -4.121   4.952  1.00  0.00     0.012 A 
ATOM      7  C   UNL     1      -6.409  -6.021   4.441  1.00  0.00     0.019 A 
ATOM      8  C   UNL     1      -5.225  -6.714   4.688  1.00  0.00     0.094 A 
ATOM      9  C   UNL     1      -4.341  -6.224   5.656  1.00  0.00     0.336 A 
ATOM     10  O   UNL     1      -3.267  -6.836   5.893  1.00  0.00    -0.246 OA
ATOM     11  O   UNL     1      -4.627  -5.113   6.329  1.00  0.00    -0.423 OA
ENDROOT
TORSDOF 0
ENDMDL
MODEL 9
REMARK VINA RESULT:    -4.845      1.877      2.704
REMARK INTER + INTRA:          -4.845
REMARK INTER:                  -4.845
REMARK INTRA:                   0.000
REMARK UNBOUND:                 0.000
REMARK SMILES O=c1ccc2ccccc2o1
REMARK SMILES IDX 7 1 8 2 9 3 10 4 5 5 6 6 4 7 3 8 2 9 1 10 11 11
REMARK H PARENT
REMARK Flexibility Score: inf
ROOT
ATOM      1  C   UNL     1      -5.264  -7.265   4.395  1.00  0.00     0.001 A 
ATOM      2  C   UNL     1      -4.287  -7.791   5.247  1.00  0.00     0.004 A 
ATOM      3  C   UNL     1      -3.916  -7.100   6.405  1.00  0.00     0.048 A 
ATOM      4  C   UNL     1      -4.523  -5.877   6.716  1.00  0.00     0.138 A 
ATOM      5  C   UNL     1      -5.510  -5.346   5.856  1.00  0.00     0.018 A 
ATOM      6  C   UNL     1      -5.877  -6.045   4.697  1.00  0.00     0.012 A 
ATOM      7  C   UNL     1      -6.098  -4.123   6.193  1.00  0.00     0.019 A 
ATOM      8  C   UNL     1      -5.698  -3.469   7.356  1.00  0.00     0.094 A 
ATOM      9  C   UNL     1      -4.714  -4.055   8.161  1.00  0.00     0.336 A 
ATOM     10  O   UNL     1      -4.340  -3.479   9.216  1.00  0.00    -0.246 OA
ATOM     11  O   UNL     1      -4.170  -5.219   7.818  1.00  0.00    -0.423 OA
ENDROOT
TORSDOF 0
ENDMDL
