MODEL 1
REMARK VINA RESULT:    -6.912      0.000      0.000
REMARK INTER + INTRA:          -8.367
REMARK INTER:                  -7.923
REMARK INTRA:                  -0.445
REMARK UNBOUND:                -0.445
REMARK SMILES C=C(C)[C@@H]1CC[C@]2(C(=O)[O-])CC[C@]3(C)[C@H](CC[C@@H]4[C@@]5(C)CC[C@@H](O)C(C)(C)[C@H]5CC[C@@]43C)[C@@H]12
REMARK SMILES IDX 7 1 6 2 33 3 11 4 5 5 15 6 4 7 12 8 16 9 13 10 17 11 31 12
REMARK SMILES IDX 14 13 18 14 30 15 32 16 19 17 29 18 21 19 20 20 28 21 22 22
REMARK SMILES IDX 25 23 23 24 26 25 27 26 8 27 9 28 10 29 2 30 3 31 1 32 24 33
REMARK H PARENT 24 34
REMARK Flexibility Score: inf
ROOT
ATOM      1  C   UNL     1     -14.633  -8.893  96.893  1.00  0.00     0.014 C 
ATOM      2  C   UNL     1     -15.426  -9.215  98.168  1.00  0.00     0.014 C 
ATOM      3  C   UNL     1     -13.203  -9.122  97.399  1.00  0.00     0.012 C 
ATOM      4  C   UNL     1     -14.903  -9.815  95.657  1.00  0.00     0.014 C 
ATOM      5  C   UNL     1     -14.589  -8.601  99.313  1.00  0.00     0.009 C 
ATOM      6  C   UNL     1     -12.212  -8.823  96.253  1.00  0.00     0.000 C 
ATOM      7  C   UNL     1     -13.146  -8.427  98.767  1.00  0.00     0.018 C 
ATOM      8  C   UNL     1     -13.679 -10.574  95.036  1.00  0.00     0.008 C 
ATOM      9  C   UNL     1     -10.810  -8.395  96.639  1.00  0.00     0.005 C 
ATOM     10  C   UNL     1     -12.188 -10.014  95.238  1.00  0.00    -0.024 C 
ATOM     11  C   UNL     1     -10.091  -7.888  95.383  1.00  0.00     0.005 C 
ATOM     12  C   UNL     1     -11.474  -9.544  93.862  1.00  0.00    -0.024 C 
ATOM     13  C   UNL     1     -11.354 -11.211  95.849  1.00  0.00     0.012 C 
ATOM     14  C   UNL     1     -10.044  -8.869  94.146  1.00  0.00     0.002 C 
ATOM     15  C   UNL     1     -12.345  -8.496  93.103  1.00  0.00     0.008 C 
ATOM     16  C   UNL     1     -11.321 -10.824  92.963  1.00  0.00     0.012 C 
ATOM     17  C   UNL     1      -9.321  -8.166  92.879  1.00  0.00    -0.026 C 
ATOM     18  C   UNL     1     -11.687  -7.912  91.851  1.00  0.00     0.005 C 
ATOM     19  C   UNL     1      -8.736  -9.219  91.885  1.00  0.00     0.010 C 
ATOM     20  C   UNL     1      -8.092  -7.371  93.437  1.00  0.00     0.012 C 
ATOM     21  C   UNL     1     -10.318  -7.213  92.099  1.00  0.00     0.003 C 
ATOM     22  C   UNL     1      -8.098  -8.618  90.618  1.00  0.00     0.033 C 
ATOM     23  C   UNL     1      -9.726  -6.599  90.742  1.00  0.00    -0.006 C 
ATOM     24  C   UNL     1      -9.062  -7.702  89.845  1.00  0.00     0.120 C 
ATOM     25  C   UNL     1     -10.840  -5.889  89.913  1.00  0.00     0.014 C 
ATOM     26  C   UNL     1      -8.684  -5.473  91.038  1.00  0.00     0.014 C 
ENDROOT
BRANCH   1  27
ATOM     27  C   UNL     1     -14.989  -7.444  96.516  1.00  0.00     0.048 C 
ATOM     28  O   UNL     1     -14.248  -6.740  95.780  1.00  0.00    -0.550 OA
ATOM     29  O   UNL     1     -16.125  -6.857  97.066  1.00  0.00    -0.550 OA
ENDBRANCH   1  27
BRANCH   7  30
ATOM     30  C   UNL     1     -12.083  -9.003  99.702  1.00  0.00    -0.077 C 
ATOM     31  C   UNL     1     -11.063  -8.091 100.336  1.00  0.00     0.039 C 
ATOM     32  C   UNL     1     -12.035 -10.315  99.996  1.00  0.00     0.008 C 
ENDBRANCH   7  30
BRANCH  24  33
ATOM     33  O   UNL     1     -10.032  -8.513  89.225  1.00  0.00    -0.393 OA
ATOM     34  H   UNL     1     -10.288  -8.076  88.371  1.00  0.00     0.210 HD
ENDBRANCH  24  33
TORSDOF 3
ENDMDL
MODEL 2
REMARK VINA RESULT:    -6.870      2.814      7.720
REMARK INTER + INTRA:          -8.319
REMARK INTER:                  -7.859
REMARK INTRA:                  -0.460
REMARK UNBOUND:                -0.445
REMARK SMILES C=C(C)[C@@H]1CC[C@]2(C(=O)[O-])CC[C@]3(C)[C@H](CC[C@@H]4[C@@]5(C)CC[C@@H](O)C(C)(C)[C@H]5CC[C@@]43C)[C@@H]12
REMARK SMILES IDX 7 1 6 2 33 3 11 4 5 5 15 6 4 7 12 8 16 9 13 10 17 11 31 12
REMARK SMILES IDX 14 13 18 14 30 15 32 16 19 17 29 18 21 19 20 20 28 21 22 22
REMARK SMILES IDX 25 23 23 24 26 25 27 26 8 27 9 28 10 29 2 30 3 31 1 32 24 33
REMARK H PARENT 24 34
REMARK Flexibility Score: inf
ROOT
ATOM      1  C   UNL     1      -7.058  -5.976  91.810  1.00  0.00     0.014 C 
ATOM      2  C   UNL     1      -6.099  -4.916  91.250  1.00  0.00     0.014 C 
ATOM      3  C   UNL     1      -8.393  -5.234  91.666  1.00  0.00     0.012 C 
ATOM      4  C   UNL     1      -7.127  -7.331  91.028  1.00  0.00     0.014 C 
ATOM      5  C   UNL     1      -6.638  -3.575  91.797  1.00  0.00     0.009 C 
ATOM      6  C   UNL     1      -9.526  -6.133  92.207  1.00  0.00     0.000 C 
ATOM      7  C   UNL     1      -8.122  -3.815  92.185  1.00  0.00     0.018 C 
ATOM      8  C   UNL     1      -8.526  -7.783  90.483  1.00  0.00     0.008 C 
ATOM      9  C   UNL     1     -10.775  -5.445  92.723  1.00  0.00     0.005 C 
ATOM     10  C   UNL     1      -9.877  -7.245  91.161  1.00  0.00    -0.024 C 
ATOM     11  C   UNL     1     -11.636  -6.481  93.455  1.00  0.00     0.005 C 
ATOM     12  C   UNL     1     -10.759  -8.403  91.872  1.00  0.00    -0.024 C 
ATOM     13  C   UNL     1     -10.731  -6.616  89.989  1.00  0.00     0.012 C 
ATOM     14  C   UNL     1     -12.022  -7.783  92.648  1.00  0.00     0.002 C 
ATOM     15  C   UNL     1      -9.913  -9.199  92.912  1.00  0.00     0.008 C 
ATOM     16  C   UNL     1     -11.225  -9.386  90.738  1.00  0.00     0.012 C 
ATOM     17  C   UNL     1     -12.864  -8.808  93.575  1.00  0.00    -0.026 C 
ATOM     18  C   UNL     1     -10.704 -10.235  93.714  1.00  0.00     0.005 C 
ATOM     19  C   UNL     1     -13.742  -9.778  92.721  1.00  0.00     0.010 C 
ATOM     20  C   UNL     1     -13.868  -7.946  94.415  1.00  0.00     0.012 C 
ATOM     21  C   UNL     1     -11.912  -9.659  94.512  1.00  0.00     0.003 C 
ATOM     22  C   UNL     1     -14.514 -10.830  93.539  1.00  0.00     0.033 C 
ATOM     23  C   UNL     1     -12.653 -10.807  95.350  1.00  0.00    -0.006 C 
ATOM     24  C   UNL     1     -13.596 -11.672  94.442  1.00  0.00     0.120 C 
ATOM     25  C   UNL     1     -11.624 -11.753  96.040  1.00  0.00     0.014 C 
ATOM     26  C   UNL     1     -13.480 -10.202  96.529  1.00  0.00     0.014 C 
ENDROOT
BRANCH   1  27
ATOM     27  C   UNL     1      -6.598  -6.260  93.250  1.00  0.00     0.048 C 
ATOM     28  O   UNL     1      -7.410  -6.529  94.174  1.00  0.00    -0.550 OA
ATOM     29  O   UNL     1      -5.249  -6.137  93.571  1.00  0.00    -0.550 OA
ENDBRANCH   1  27
BRANCH   7  30
ATOM     30  C   UNL     1      -9.066  -2.761  91.607  1.00  0.00    -0.077 C 
ATOM     31  C   UNL     1      -9.725  -2.993  90.271  1.00  0.00     0.039 C 
ATOM     32  C   UNL     1      -9.346  -1.623  92.268  1.00  0.00     0.008 C 
ENDBRANCH   7  30
BRANCH  24  33
ATOM     33  O   UNL     1     -12.859 -12.547  93.621  1.00  0.00    -0.393 OA
ATOM     34  H   UNL     1     -12.856 -13.439  94.058  1.00  0.00     0.210 HD
ENDBRANCH  24  33
TORSDOF 3
ENDMDL
MODEL 3
REMARK VINA RESULT:    -6.744      2.131      7.598
REMARK INTER + INTRA:          -8.175
REMARK INTER:                  -7.670
REMARK INTRA:                  -0.505
REMARK UNBOUND:                -0.445
REMARK SMILES C=C(C)[C@@H]1CC[C@]2(C(=O)[O-])CC[C@]3(C)[C@H](CC[C@@H]4[C@@]5(C)CC[C@@H](O)C(C)(C)[C@H]5CC[C@@]43C)[C@@H]12
REMARK SMILES IDX 7 1 6 2 33 3 11 4 5 5 15 6 4 7 12 8 16 9 13 10 17 11 31 12
REMARK SMILES IDX 14 13 18 14 30 15 32 16 19 17 29 18 21 19 20 20 28 21 22 22
REMARK SMILES IDX 25 23 23 24 26 25 27 26 8 27 9 28 10 29 2 30 3 31 1 32 24 33
REMARK H PARENT 24 34
REMARK Flexibility Score: inf
ROOT
ATOM      1  C   UNL     1     -10.512  -8.379  91.620  1.00  0.00     0.014 C 
ATOM      2  C   UNL     1     -10.259  -8.313  90.106  1.00  0.00     0.014 C 
ATOM      3  C   UNL     1     -11.915  -8.999  91.632  1.00  0.00     0.012 C 
ATOM      4  C   UNL     1      -9.535  -9.280  92.447  1.00  0.00     0.014 C 
ATOM      5  C   UNL     1     -11.617  -7.890  89.503  1.00  0.00     0.009 C 
ATOM      6  C   UNL     1     -12.388  -9.137  93.095  1.00  0.00     0.000 C 
ATOM      7  C   UNL     1     -12.702  -8.233  90.559  1.00  0.00     0.018 C 
ATOM      8  C   UNL     1     -10.162 -10.442  93.294  1.00  0.00     0.008 C 
ATOM      9  C   UNL     1     -13.884  -9.140  93.346  1.00  0.00     0.005 C 
ATOM     10  C   UNL     1     -11.692 -10.365  93.772  1.00  0.00    -0.024 C 
ATOM     11  C   UNL     1     -14.126  -9.006  94.854  1.00  0.00     0.005 C 
ATOM     12  C   UNL     1     -11.872 -10.276  95.380  1.00  0.00    -0.024 C 
ATOM     13  C   UNL     1     -12.372 -11.701  93.268  1.00  0.00     0.012 C 
ATOM     14  C   UNL     1     -13.411 -10.064  95.786  1.00  0.00     0.002 C 
ATOM     15  C   UNL     1     -11.061  -9.083  95.973  1.00  0.00     0.008 C 
ATOM     16  C   UNL     1     -11.314 -11.617  95.979  1.00  0.00     0.012 C 
ATOM     17  C   UNL     1     -13.702  -9.747  97.347  1.00  0.00    -0.026 C 
ATOM     18  C   UNL     1     -11.271  -8.857  97.472  1.00  0.00     0.005 C 
ATOM     19  C   UNL     1     -13.541 -11.020  98.238  1.00  0.00     0.010 C 
ATOM     20  C   UNL     1     -15.210  -9.333  97.456  1.00  0.00     0.012 C 
ATOM     21  C   UNL     1     -12.749  -8.606  97.894  1.00  0.00     0.003 C 
ATOM     22  C   UNL     1     -13.732 -10.773  99.746  1.00  0.00     0.033 C 
ATOM     23  C   UNL     1     -12.866  -8.341  99.470  1.00  0.00    -0.006 C 
ATOM     24  C   UNL     1     -12.801  -9.676 100.291  1.00  0.00     0.120 C 
ATOM     25  C   UNL     1     -11.728  -7.397  99.967  1.00  0.00     0.014 C 
ATOM     26  C   UNL     1     -14.185  -7.579  99.819  1.00  0.00     0.014 C 
ENDROOT
BRANCH   1  27
ATOM     27  C   UNL     1     -10.410  -6.934  92.139  1.00  0.00     0.048 C 
ATOM     28  O   UNL     1     -11.127  -6.508  93.083  1.00  0.00    -0.550 OA
ATOM     29  O   UNL     1      -9.559  -6.038  91.498  1.00  0.00    -0.550 OA
ENDBRANCH   1  27
BRANCH   7  30
ATOM     30  C   UNL     1     -13.871  -9.024  89.976  1.00  0.00    -0.077 C 
ATOM     31  C   UNL     1     -13.782 -10.525  89.863  1.00  0.00     0.039 C 
ATOM     32  C   UNL     1     -15.002  -8.420  89.570  1.00  0.00     0.008 C 
ENDBRANCH   7  30
BRANCH  24  33
ATOM     33  O   UNL     1     -11.492 -10.194 100.329  1.00  0.00    -0.393 OA
ATOM     34  H   UNL     1     -10.908  -9.504 100.741  1.00  0.00     0.210 HD
ENDBRANCH  24  33
TORSDOF 3
ENDMDL
MODEL 4
REMARK VINA RESULT:    -6.669      2.407      7.561
REMARK INTER + INTRA:          -8.088
REMARK INTER:                  -7.973
REMARK INTRA:                  -0.115
REMARK UNBOUND:                -0.445
REMARK SMILES C=C(C)[C@@H]1CC[C@]2(C(=O)[O-])CC[C@]3(C)[C@H](CC[C@@H]4[C@@]5(C)CC[C@@H](O)C(C)(C)[C@H]5CC[C@@]43C)[C@@H]12
REMARK SMILES IDX 7 1 6 2 33 3 11 4 5 5 15 6 4 7 12 8 16 9 13 10 17 11 31 12
REMARK SMILES IDX 14 13 18 14 30 15 32 16 19 17 29 18 21 19 20 20 28 21 22 22
REMARK SMILES IDX 25 23 23 24 26 25 27 26 8 27 9 28 10 29 2 30 3 31 1 32 24 33
REMARK H PARENT 24 34
REMARK Flexibility Score: inf
ROOT
ATOM      1  C   UNL     1     -12.975  -8.613  89.547  1.00  0.00     0.014 C 
ATOM      2  C   UNL     1     -12.709  -8.592  88.034  1.00  0.00     0.014 C 
ATOM      3  C   UNL     1     -11.629  -9.153  90.049  1.00  0.00     0.012 C 
ATOM      4  C   UNL     1     -13.266  -7.230  90.219  1.00  0.00     0.014 C 
ATOM      5  C   UNL     1     -11.911  -9.886  87.761  1.00  0.00     0.009 C 
ATOM      6  C   UNL     1     -11.685  -9.282  91.587  1.00  0.00     0.000 C 
ATOM      7  C   UNL     1     -11.294 -10.326  89.116  1.00  0.00     0.018 C 
ATOM      8  C   UNL     1     -12.327  -6.782  91.394  1.00  0.00     0.008 C 
ATOM      9  C   UNL     1     -10.775 -10.309  92.233  1.00  0.00     0.005 C 
ATOM     10  C   UNL     1     -11.521  -7.873  92.251  1.00  0.00    -0.024 C 
ATOM     11  C   UNL     1     -11.182 -10.465  93.703  1.00  0.00     0.005 C 
ATOM     12  C   UNL     1     -11.970  -7.947  93.805  1.00  0.00    -0.024 C 
ATOM     13  C   UNL     1     -10.002  -7.436  92.191  1.00  0.00     0.012 C 
ATOM     14  C   UNL     1     -11.226  -9.146  94.573  1.00  0.00     0.002 C 
ATOM     15  C   UNL     1     -13.505  -8.185  93.938  1.00  0.00     0.008 C 
ATOM     16  C   UNL     1     -11.613  -6.561  94.453  1.00  0.00     0.012 C 
ATOM     17  C   UNL     1     -11.743  -9.464  96.074  1.00  0.00    -0.026 C 
ATOM     18  C   UNL     1     -13.994  -8.385  95.375  1.00  0.00     0.005 C 
ATOM     19  C   UNL     1     -11.263  -8.383  97.095  1.00  0.00     0.010 C 
ATOM     20  C   UNL     1     -11.065 -10.805  96.517  1.00  0.00     0.012 C 
ATOM     21  C   UNL     1     -13.322  -9.568  96.134  1.00  0.00     0.003 C 
ATOM     22  C   UNL     1     -11.781  -8.584  98.531  1.00  0.00     0.033 C 
ATOM     23  C   UNL     1     -13.924  -9.725  97.611  1.00  0.00    -0.006 C 
ATOM     24  C   UNL     1     -13.314  -8.672  98.602  1.00  0.00     0.120 C 
ATOM     25  C   UNL     1     -15.475  -9.564  97.607  1.00  0.00     0.014 C 
ATOM     26  C   UNL     1     -13.683 -11.164  98.170  1.00  0.00     0.014 C 
ENDROOT
BRANCH   1  27
ATOM     27  C   UNL     1     -14.191  -9.531  89.760  1.00  0.00     0.048 C 
ATOM     28  O   UNL     1     -15.153  -9.570  88.949  1.00  0.00    -0.550 OA
ATOM     29  O   UNL     1     -14.278 -10.287  90.925  1.00  0.00    -0.550 OA
ENDBRANCH   1  27
BRANCH   7  30
ATOM     30  C   UNL     1      -9.799 -10.624  89.021  1.00  0.00    -0.077 C 
ATOM     31  C   UNL     1      -8.804  -9.693  89.667  1.00  0.00     0.039 C 
ATOM     32  C   UNL     1      -9.334 -11.714  88.385  1.00  0.00     0.008 C 
ENDBRANCH   7  30
BRANCH  24  33
ATOM     33  O   UNL     1     -13.837  -7.385  98.370  1.00  0.00    -0.393 OA
ATOM     34  H   UNL     1     -14.041  -6.979  99.253  1.00  0.00     0.210 HD
ENDBRANCH  24  33
TORSDOF 3
ENDMDL
MODEL 5
REMARK VINA RESULT:    -6.579      2.895      4.476
REMARK INTER + INTRA:          -7.985
REMARK INTER:                  -7.533
REMARK INTRA:                  -0.452
REMARK UNBOUND:                -0.445
REMARK SMILES C=C(C)[C@@H]1CC[C@]2(C(=O)[O-])CC[C@]3(C)[C@H](CC[C@@H]4[C@@]5(C)CC[C@@H](O)C(C)(C)[C@H]5CC[C@@]43C)[C@@H]12
REMARK SMILES IDX 7 1 6 2 33 3 11 4 5 5 15 6 4 7 12 8 16 9 13 10 17 11 31 12
REMARK SMILES IDX 14 13 18 14 30 15 32 16 19 17 29 18 21 19 20 20 28 21 22 22
REMARK SMILES IDX 25 23 23 24 26 25 27 26 8 27 9 28 10 29 2 30 3 31 1 32 24 33
REMARK H PARENT 24 34
REMARK Flexibility Score: inf
ROOT
ATOM      1  C   UNL     1     -12.003 -10.410  95.678  1.00  0.00     0.014 C 
ATOM      2  C   UNL     1     -11.483 -10.533  97.117  1.00  0.00     0.014 C 
ATOM      3  C   UNL     1     -11.305  -9.112  95.249  1.00  0.00     0.012 C 
ATOM      4  C   UNL     1     -11.608 -11.563  94.696  1.00  0.00     0.014 C 
ATOM      5  C   UNL     1     -11.494  -9.087  97.661  1.00  0.00     0.009 C 
ATOM      6  C   UNL     1     -11.719  -8.777  93.800  1.00  0.00     0.000 C 
ATOM      7  C   UNL     1     -11.498  -8.145  96.427  1.00  0.00     0.018 C 
ATOM      8  C   UNL     1     -10.827 -11.172  93.393  1.00  0.00     0.008 C 
ATOM      9  C   UNL     1     -11.671  -7.320  93.381  1.00  0.00     0.005 C 
ATOM     10  C   UNL     1     -10.939  -9.688  92.793  1.00  0.00    -0.024 C 
ATOM     11  C   UNL     1     -12.372  -7.179  92.025  1.00  0.00     0.005 C 
ATOM     12  C   UNL     1     -11.645  -9.622  91.337  1.00  0.00    -0.024 C 
ATOM     13  C   UNL     1      -9.453  -9.164  92.650  1.00  0.00     0.012 C 
ATOM     14  C   UNL     1     -11.851  -8.104  90.854  1.00  0.00     0.002 C 
ATOM     15  C   UNL     1     -13.049 -10.302  91.360  1.00  0.00     0.008 C 
ATOM     16  C   UNL     1     -10.718 -10.406  90.340  1.00  0.00     0.012 C 
ATOM     17  C   UNL     1     -12.736  -7.893  89.515  1.00  0.00    -0.026 C 
ATOM     18  C   UNL     1     -13.834 -10.179  90.052  1.00  0.00     0.005 C 
ATOM     19  C   UNL     1     -11.948  -8.298  88.228  1.00  0.00     0.010 C 
ATOM     20  C   UNL     1     -13.010  -6.356  89.385  1.00  0.00     0.012 C 
ATOM     21  C   UNL     1     -14.087  -8.717  89.578  1.00  0.00     0.003 C 
ATOM     22  C   UNL     1     -12.758  -8.192  86.922  1.00  0.00     0.033 C 
ATOM     23  C   UNL     1     -14.948  -8.686  88.226  1.00  0.00    -0.006 C 
ATOM     24  C   UNL     1     -14.066  -9.000  86.967  1.00  0.00     0.120 C 
ATOM     25  C   UNL     1     -16.118  -9.716  88.281  1.00  0.00     0.014 C 
ATOM     26  C   UNL     1     -15.654  -7.305  88.036  1.00  0.00     0.014 C 
ENDROOT
BRANCH   1  27
ATOM     27  C   UNL     1     -13.537 -10.349  95.776  1.00  0.00     0.048 C 
ATOM     28  O   UNL     1     -14.138 -10.316  96.882  1.00  0.00    -0.550 OA
ATOM     29  O   UNL     1     -14.298 -10.414  94.612  1.00  0.00    -0.550 OA
ENDBRANCH   1  27
BRANCH   7  30
ATOM     30  C   UNL     1     -10.430  -7.056  96.505  1.00  0.00    -0.077 C 
ATOM     31  C   UNL     1      -9.015  -7.358  96.078  1.00  0.00     0.039 C 
ATOM     32  C   UNL     1     -10.716  -5.813  96.932  1.00  0.00     0.008 C 
ENDBRANCH   7  30
BRANCH  24  33
ATOM     33  O   UNL     1     -13.737 -10.367  86.897  1.00  0.00    -0.393 OA
ATOM     34  H   UNL     1     -13.057 -10.477  86.182  1.00  0.00     0.210 HD
ENDBRANCH  24  33
TORSDOF 3
ENDMDL
MODEL 6
REMARK VINA RESULT:    -6.548      1.931      7.769
REMARK INTER + INTRA:          -7.949
REMARK INTER:                  -7.459
REMARK INTRA:                  -0.491
REMARK UNBOUND:                -0.445
REMARK SMILES C=C(C)[C@@H]1CC[C@]2(C(=O)[O-])CC[C@]3(C)[C@H](CC[C@@H]4[C@@]5(C)CC[C@@H](O)C(C)(C)[C@H]5CC[C@@]43C)[C@@H]12
REMARK SMILES IDX 7 1 6 2 33 3 11 4 5 5 15 6 4 7 12 8 16 9 13 10 17 11 31 12
REMARK SMILES IDX 14 13 18 14 30 15 32 16 19 17 29 18 21 19 20 20 28 21 22 22
REMARK SMILES IDX 25 23 23 24 26 25 27 26 8 27 9 28 10 29 2 30 3 31 1 32 24 33
REMARK H PARENT 24 34
REMARK Flexibility Score: inf
ROOT
ATOM      1  C   UNL     1      -9.916  -8.355  90.929  1.00  0.00     0.014 C 
ATOM      2  C   UNL     1      -9.430  -8.032  89.508  1.00  0.00     0.014 C 
ATOM      3  C   UNL     1     -11.237  -7.574  90.946  1.00  0.00     0.012 C 
ATOM      4  C   UNL     1     -10.199  -9.864  91.239  1.00  0.00     0.014 C 
ATOM      5  C   UNL     1      -9.791  -6.544  89.302  1.00  0.00     0.009 C 
ATOM      6  C   UNL     1     -11.901  -7.744  92.329  1.00  0.00     0.000 C 
ATOM      7  C   UNL     1     -10.902  -6.206  90.333  1.00  0.00     0.018 C 
ATOM      8  C   UNL     1     -11.639 -10.247  91.727  1.00  0.00     0.008 C 
ATOM      9  C   UNL     1     -12.837  -6.644  92.792  1.00  0.00     0.005 C 
ATOM     10  C   UNL     1     -12.576  -9.152  92.433  1.00  0.00    -0.024 C 
ATOM     11  C   UNL     1     -13.160  -6.870  94.274  1.00  0.00     0.005 C 
ATOM     12  C   UNL     1     -12.916  -9.482  93.982  1.00  0.00    -0.024 C 
ATOM     13  C   UNL     1     -13.931  -9.149  91.616  1.00  0.00     0.012 C 
ATOM     14  C   UNL     1     -13.739  -8.286  94.669  1.00  0.00     0.002 C 
ATOM     15  C   UNL     1     -11.613  -9.693  94.813  1.00  0.00     0.008 C 
ATOM     16  C   UNL     1     -13.747 -10.816  93.996  1.00  0.00     0.012 C 
ATOM     17  C   UNL     1     -13.957  -8.395  96.269  1.00  0.00    -0.026 C 
ATOM     18  C   UNL     1     -11.842  -9.892  96.312  1.00  0.00     0.005 C 
ATOM     19  C   UNL     1     -15.026  -9.473  96.639  1.00  0.00     0.010 C 
ATOM     20  C   UNL     1     -14.547  -7.023  96.744  1.00  0.00     0.012 C 
ATOM     21  C   UNL     1     -12.602  -8.729  97.017  1.00  0.00     0.003 C 
ATOM     22  C   UNL     1     -15.229  -9.680  98.151  1.00  0.00     0.033 C 
ATOM     23  C   UNL     1     -12.760  -9.008  98.588  1.00  0.00    -0.006 C 
ATOM     24  C   UNL     1     -13.921 -10.019  98.885  1.00  0.00     0.120 C 
ATOM     25  C   UNL     1     -11.440  -9.575  99.194  1.00  0.00     0.014 C 
ATOM     26  C   UNL     1     -13.011  -7.681  99.375  1.00  0.00     0.014 C 
ENDROOT
BRANCH   1  27
ATOM     27  C   UNL     1      -8.823  -7.850  91.886  1.00  0.00     0.048 C 
ATOM     28  O   UNL     1      -9.088  -7.413  93.037  1.00  0.00    -0.550 OA
ATOM     29  O   UNL     1      -7.504  -7.795  91.445  1.00  0.00    -0.550 OA
ENDBRANCH   1  27
BRANCH   7  30
ATOM     30  C   UNL     1     -12.105  -5.507  89.704  1.00  0.00    -0.077 C 
ATOM     31  C   UNL     1     -13.051  -6.283  88.822  1.00  0.00     0.039 C 
ATOM     32  C   UNL     1     -12.363  -4.206  89.926  1.00  0.00     0.008 C 
ENDBRANCH   7  30
BRANCH  24  33
ATOM     33  O   UNL     1     -13.557 -11.336  98.542  1.00  0.00    -0.393 OA
ATOM     34  H   UNL     1     -13.896 -11.938  99.256  1.00  0.00     0.210 HD
ENDBRANCH  24  33
TORSDOF 3
ENDMDL
MODEL 7
REMARK VINA RESULT:    -6.455      2.306      7.728
REMARK INTER + INTRA:          -7.844
REMARK INTER:                  -7.349
REMARK INTRA:                  -0.495
REMARK UNBOUND:                -0.445
REMARK SMILES C=C(C)[C@@H]1CC[C@]2(C(=O)[O-])CC[C@]3(C)[C@H](CC[C@@H]4[C@@]5(C)CC[C@@H](O)C(C)(C)[C@H]5CC[C@@]43C)[C@@H]12
REMARK SMILES IDX 7 1 6 2 33 3 11 4 5 5 15 6 4 7 12 8 16 9 13 10 17 11 31 12
REMARK SMILES IDX 14 13 18 14 30 15 32 16 19 17 29 18 21 19 20 20 28 21 22 22
REMARK SMILES IDX 25 23 23 24 26 25 27 26 8 27 9 28 10 29 2 30 3 31 1 32 24 33
REMARK H PARENT 24 34
REMARK Flexibility Score: inf
ROOT
ATOM      1  C   UNL     1     -10.457  -9.656  92.848  1.00  0.00     0.014 C 
ATOM      2  C   UNL     1     -10.291  -9.665  91.321  1.00  0.00     0.014 C 
ATOM      3  C   UNL     1     -11.854  -9.034  92.964  1.00  0.00     0.012 C 
ATOM      4  C   UNL     1     -10.447 -11.052  93.555  1.00  0.00     0.014 C 
ATOM      5  C   UNL     1     -10.904  -8.326  90.855  1.00  0.00     0.009 C 
ATOM      6  C   UNL     1     -12.222  -8.905  94.458  1.00  0.00     0.000 C 
ATOM      7  C   UNL     1     -11.846  -7.846  91.991  1.00  0.00     0.018 C 
ATOM      8  C   UNL     1     -11.699 -11.439  94.415  1.00  0.00     0.008 C 
ATOM      9  C   UNL     1     -13.214  -7.823  94.840  1.00  0.00     0.005 C 
ATOM     10  C   UNL     1     -12.647 -10.299  95.030  1.00  0.00    -0.024 C 
ATOM     11  C   UNL     1     -13.224  -7.687  96.367  1.00  0.00     0.005 C 
ATOM     12  C   UNL     1     -12.646 -10.248  96.649  1.00  0.00    -0.024 C 
ATOM     13  C   UNL     1     -14.113 -10.644  94.544  1.00  0.00     0.012 C 
ATOM     14  C   UNL     1     -13.502  -9.004  97.196  1.00  0.00     0.002 C 
ATOM     15  C   UNL     1     -11.197 -10.103  97.207  1.00  0.00     0.008 C 
ATOM     16  C   UNL     1     -13.250 -11.609  97.152  1.00  0.00     0.012 C 
ATOM     17  C   UNL     1     -13.406  -8.715  98.787  1.00  0.00    -0.026 C 
ATOM     18  C   UNL     1     -11.117  -9.929  98.725  1.00  0.00     0.005 C 
ATOM     19  C   UNL     1     -14.214  -9.762  99.617  1.00  0.00     0.010 C 
ATOM     20  C   UNL     1     -14.100  -7.333  99.043  1.00  0.00     0.012 C 
ATOM     21  C   UNL     1     -11.902  -8.706  99.284  1.00  0.00     0.003 C 
ATOM     22  C   UNL     1     -14.106  -9.588 101.144  1.00  0.00     0.033 C 
ATOM     23  C   UNL     1     -11.728  -8.581 100.873  1.00  0.00    -0.006 C 
ATOM     24  C   UNL     1     -12.650  -9.593 101.640  1.00  0.00     0.120 C 
ATOM     25  C   UNL     1     -10.250  -8.836 101.298  1.00  0.00     0.014 C 
ATOM     26  C   UNL     1     -12.030  -7.129 101.363  1.00  0.00     0.014 C 
ENDROOT
BRANCH   1  27
ATOM     27  C   UNL     1      -9.296  -8.812  93.404  1.00  0.00     0.048 C 
ATOM     28  O   UNL     1      -9.435  -8.052  94.398  1.00  0.00    -0.550 OA
ATOM     29  O   UNL     1      -8.070  -8.821  92.744  1.00  0.00    -0.550 OA
ENDBRANCH   1  27
BRANCH   7  30
ATOM     30  C   UNL     1     -13.236  -7.458  91.488  1.00  0.00    -0.077 C 
ATOM     31  C   UNL     1     -14.297  -8.516  91.318  1.00  0.00     0.039 C 
ATOM     32  C   UNL     1     -13.555  -6.183  91.203  1.00  0.00     0.008 C 
ENDBRANCH   7  30
BRANCH  24  33
ATOM     33  O   UNL     1     -12.160 -10.910 101.544  1.00  0.00    -0.393 OA
ATOM     34  H   UNL     1     -12.941 -11.515 101.440  1.00  0.00     0.210 HD
ENDBRANCH  24  33
TORSDOF 3
ENDMDL
MODEL 8
REMARK VINA RESULT:    -6.348      1.266      1.753
REMARK INTER + INTRA:          -7.720
REMARK INTER:                  -7.304
REMARK INTRA:                  -0.416
REMARK UNBOUND:                -0.445
REMARK SMILES C=C(C)[C@@H]1CC[C@]2(C(=O)[O-])CC[C@]3(C)[C@H](CC[C@@H]4[C@@]5(C)CC[C@@H](O)C(C)(C)[C@H]5CC[C@@]43C)[C@@H]12
REMARK SMILES IDX 7 1 6 2 33 3 11 4 5 5 15 6 4 7 12 8 16 9 13 10 17 11 31 12
REMARK SMILES IDX 14 13 18 14 30 15 32 16 19 17 29 18 21 19 20 20 28 21 22 22
REMARK SMILES IDX 25 23 23 24 26 25 27 26 8 27 9 28 10 29 2 30 3 31 1 32 24 33
REMARK H PARENT 24 34
REMARK Flexibility Score: inf
ROOT
ATOM      1  C   UNL     1     -14.926  -8.056  98.117  1.00  0.00     0.014 C 
ATOM      2  C   UNL     1     -15.520  -8.124  99.531  1.00  0.00     0.014 C 
ATOM      3  C   UNL     1     -13.619  -8.829  98.336  1.00  0.00     0.012 C 
ATOM      4  C   UNL     1     -15.756  -8.745  96.982  1.00  0.00     0.014 C 
ATOM      5  C   UNL     1     -14.310  -7.927 100.472  1.00  0.00     0.009 C 
ATOM      6  C   UNL     1     -12.830  -8.862  97.009  1.00  0.00     0.000 C 
ATOM      7  C   UNL     1     -13.042  -8.277  99.648  1.00  0.00     0.018 C 
ATOM      8  C   UNL     1     -15.052  -9.873  96.151  1.00  0.00     0.008 C 
ATOM      9  C   UNL     1     -11.323  -9.009  97.099  1.00  0.00     0.005 C 
ATOM     10  C   UNL     1     -13.452  -9.922  96.039  1.00  0.00    -0.024 C 
ATOM     11  C   UNL     1     -10.723  -8.744  95.713  1.00  0.00     0.005 C 
ATOM     12  C   UNL     1     -12.892  -9.682  94.538  1.00  0.00    -0.024 C 
ATOM     13  C   UNL     1     -13.028 -11.374  96.502  1.00  0.00     0.012 C 
ATOM     14  C   UNL     1     -11.288  -9.606  94.516  1.00  0.00     0.002 C 
ATOM     15  C   UNL     1     -13.434  -8.347  93.941  1.00  0.00     0.008 C 
ATOM     16  C   UNL     1     -13.409 -10.878  93.659  1.00  0.00     0.012 C 
ATOM     17  C   UNL     1     -10.613  -9.158  93.114  1.00  0.00    -0.026 C 
ATOM     18  C   UNL     1     -12.859  -7.987  92.569  1.00  0.00     0.005 C 
ATOM     19  C   UNL     1     -10.670 -10.301  92.050  1.00  0.00     0.010 C 
ATOM     20  C   UNL     1      -9.092  -8.911  93.398  1.00  0.00     0.012 C 
ATOM     21  C   UNL     1     -11.307  -7.863  92.523  1.00  0.00     0.003 C 
ATOM     22  C   UNL     1     -10.110  -9.917  90.668  1.00  0.00     0.033 C 
ATOM     23  C   UNL     1     -10.802  -7.445  91.061  1.00  0.00    -0.006 C 
ATOM     24  C   UNL     1     -10.788  -8.669  90.078  1.00  0.00     0.120 C 
ATOM     25  C   UNL     1     -11.704  -6.329  90.451  1.00  0.00     0.014 C 
ATOM     26  C   UNL     1      -9.377  -6.807  91.116  1.00  0.00     0.014 C 
ENDROOT
BRANCH   1  27
ATOM     27  C   UNL     1     -14.777  -6.561  97.781  1.00  0.00     0.048 C 
ATOM     28  O   UNL     1     -15.568  -5.690  98.230  1.00  0.00    -0.550 OA
ATOM     29  O   UNL     1     -13.788  -6.159  96.888  1.00  0.00    -0.550 OA
ENDBRANCH   1  27
BRANCH   7  30
ATOM     30  C   UNL     1     -12.115  -9.256 100.367  1.00  0.00    -0.077 C 
ATOM     31  C   UNL     1     -12.611 -10.633 100.729  1.00  0.00     0.039 C 
ATOM     32  C   UNL     1     -10.847  -8.931 100.678  1.00  0.00     0.008 C 
ENDBRANCH   7  30
BRANCH  24  33
ATOM     33  O   UNL     1     -12.092  -9.025  89.683  1.00  0.00    -0.393 OA
ATOM     34  H   UNL     1     -12.037  -9.395  88.763  1.00  0.00     0.210 HD
ENDBRANCH  24  33
TORSDOF 3
ENDMDL
MODEL 9
REMARK VINA RESULT:    -6.315      2.293      7.583
REMARK INTER + INTRA:          -7.683
REMARK INTER:                  -7.189
REMARK INTRA:                  -0.494
REMARK UNBOUND:                -0.445
REMARK SMILES C=C(C)[C@@H]1CC[C@]2(C(=O)[O-])CC[C@]3(C)[C@H](CC[C@@H]4[C@@]5(C)CC[C@@H](O)C(C)(C)[C@H]5CC[C@@]43C)[C@@H]12
REMARK SMILES IDX 7 1 6 2 33 3 11 4 5 5 15 6 4 7 12 8 16 9 13 10 17 11 31 12
REMARK SMILES IDX 14 13 18 14 30 15 32 16 19 17 29 18 21 19 20 20 28 21 22 22
REMARK SMILES IDX 25 23 23 24 26 25 27 26 8 27 9 28 10 29 2 30 3 31 1 32 24 33
REMARK H PARENT 24 34
REMARK Flexibility Score: inf
ROOT
ATOM      1  C   UNL     1     -11.564  -6.708  90.119  1.00  0.00     0.014 C 
ATOM      2  C   UNL     1     -11.260  -6.522  88.625  1.00  0.00     0.014 C 
ATOM      3  C   UNL     1     -11.487  -8.237  90.221  1.00  0.00     0.012 C 
ATOM      4  C   UNL     1     -10.544  -6.066  91.119  1.00  0.00     0.014 C 
ATOM      5  C   UNL     1     -12.014  -7.676  87.928  1.00  0.00     0.009 C 
ATOM      6  C   UNL     1     -11.793  -8.656  91.675  1.00  0.00     0.000 C 
ATOM      7  C   UNL     1     -12.272  -8.759  89.009  1.00  0.00     0.018 C 
ATOM      8  C   UNL     1      -9.851  -7.016  92.157  1.00  0.00     0.008 C 
ATOM      9  C   UNL     1     -12.361 -10.046  91.894  1.00  0.00     0.005 C 
ATOM     10  C   UNL     1     -10.544  -8.399  92.584  1.00  0.00    -0.024 C 
ATOM     11  C   UNL     1     -12.843 -10.153  93.346  1.00  0.00     0.005 C 
ATOM     12  C   UNL     1     -10.982  -8.458  94.143  1.00  0.00    -0.024 C 
ATOM     13  C   UNL     1      -9.463  -9.524  92.327  1.00  0.00     0.012 C 
ATOM     14  C   UNL     1     -11.790  -9.806  94.473  1.00  0.00     0.002 C 
ATOM     15  C   UNL     1     -11.902  -7.255  94.516  1.00  0.00     0.008 C 
ATOM     16  C   UNL     1      -9.664  -8.372  94.993  1.00  0.00     0.012 C 
ATOM     17  C   UNL     1     -12.468  -9.892  95.941  1.00  0.00    -0.026 C 
ATOM     18  C   UNL     1     -12.456  -7.300  95.942  1.00  0.00     0.005 C 
ATOM     19  C   UNL     1     -11.405 -10.141  97.058  1.00  0.00     0.010 C 
ATOM     20  C   UNL     1     -13.397 -11.154  95.942  1.00  0.00     0.012 C 
ATOM     21  C   UNL     1     -13.282  -8.577  96.281  1.00  0.00     0.003 C 
ATOM     22  C   UNL     1     -11.974 -10.160  98.489  1.00  0.00     0.033 C 
ATOM     23  C   UNL     1     -13.854  -8.517  97.777  1.00  0.00    -0.006 C 
ATOM     24  C   UNL     1     -12.754  -8.881  98.836  1.00  0.00     0.120 C 
ATOM     25  C   UNL     1     -14.413  -7.100  98.110  1.00  0.00     0.014 C 
ATOM     26  C   UNL     1     -15.079  -9.470  97.953  1.00  0.00     0.014 C 
ENDROOT
BRANCH   1  27
ATOM     27  C   UNL     1     -12.950  -6.085  90.360  1.00  0.00     0.048 C 
ATOM     28  O   UNL     1     -13.746  -6.534  91.226  1.00  0.00    -0.550 OA
ATOM     29  O   UNL     1     -13.379  -5.043  89.544  1.00  0.00    -0.550 OA
ENDBRANCH   1  27
BRANCH   7  30
ATOM     30  C   UNL     1     -11.848 -10.158  88.564  1.00  0.00    -0.077 C 
ATOM     31  C   UNL     1     -10.430 -10.620  88.781  1.00  0.00     0.039 C 
ATOM     32  C   UNL     1     -12.716 -11.011  87.990  1.00  0.00     0.008 C 
ENDBRANCH   7  30
BRANCH  24  33
ATOM     33  O   UNL     1     -11.826  -7.833  98.994  1.00  0.00    -0.393 OA
ATOM     34  H   UNL     1     -11.776  -7.342  98.132  1.00  0.00     0.210 HD
ENDBRANCH  24  33
TORSDOF 3
ENDMDL
