MODEL 1
REMARK VINA RESULT:    -4.480      0.000      0.000
REMARK INTER + INTRA:          -5.018
REMARK INTER:                  -5.004
REMARK INTRA:                  -0.014
REMARK UNBOUND:                -0.014
REMARK SMILES COc1cc2ccc(=O)oc2c(O)c1O
REMARK SMILES IDX 3 1 14 2 12 3 11 4 5 5 4 6 6 7 7 8 8 9 9 10 10 11 2 12 1 13
REMARK SMILES IDX 15 14 13 16
REMARK H PARENT 15 15 13 17
REMARK Flexibility Score: inf
ROOT
ATOM      1  C   UNL     1      10.952 -17.400   7.930  1.00  0.00     0.165 A 
ATOM      2  C   UNL     1      10.989 -18.392   6.937  1.00  0.00     0.204 A 
ATOM      3  C   UNL     1       9.838 -19.144   6.637  1.00  0.00     0.205 A 
ATOM      4  C   UNL     1       8.644 -18.903   7.336  1.00  0.00     0.184 A 
ATOM      5  C   UNL     1       8.606 -17.906   8.335  1.00  0.00     0.025 A 
ATOM      6  C   UNL     1       9.753 -17.160   8.628  1.00  0.00     0.062 A 
ATOM      7  C   UNL     1       7.402 -17.687   9.015  1.00  0.00     0.020 A 
ATOM      8  C   UNL     1       6.283 -18.452   8.691  1.00  0.00     0.094 A 
ATOM      9  C   UNL     1       6.393 -19.422   7.690  1.00  0.00     0.336 A 
ATOM     10  O   UNL     1       5.395 -20.124   7.383  1.00  0.00    -0.246 OA
ATOM     11  O   UNL     1       7.550 -19.609   7.060  1.00  0.00    -0.419 OA
ENDROOT
BRANCH   1  12
ATOM     12  O   UNL     1      12.126 -16.676   8.193  1.00  0.00    -0.493 OA
ATOM     13  C   UNL     1      13.149 -17.095   9.090  1.00  0.00     0.278 C 
ENDBRANCH   1  12
BRANCH   2  14
ATOM     14  O   UNL     1      12.185 -18.616   6.253  1.00  0.00    -0.502 OA
ATOM     15  H   UNL     1      12.358 -19.468   5.733  1.00  0.00     0.293 HD
ENDBRANCH   2  14
BRANCH   3  16
ATOM     16  O   UNL     1       9.897 -20.125   5.646  1.00  0.00    -0.502 OA
ATOM     17  H   UNL     1       9.210 -20.183   4.903  1.00  0.00     0.293 HD
ENDBRANCH   3  16
TORSDOF 3
ENDMDL
MODEL 2
REMARK VINA RESULT:    -4.425      1.759      5.132
REMARK INTER + INTRA:          -4.957
REMARK INTER:                  -4.959
REMARK INTRA:                   0.002
REMARK UNBOUND:                -0.014
REMARK SMILES COc1cc2ccc(=O)oc2c(O)c1O
REMARK SMILES IDX 3 1 14 2 12 3 11 4 5 5 4 6 6 7 7 8 8 9 9 10 10 11 2 12 1 13
REMARK SMILES IDX 15 14 13 16
REMARK H PARENT 15 15 13 17
REMARK Flexibility Score: inf
ROOT
ATOM      1  C   UNL     1       8.929 -19.167   8.242  1.00  0.00     0.165 A 
ATOM      2  C   UNL     1       8.690 -18.300   7.164  1.00  0.00     0.204 A 
ATOM      3  C   UNL     1       9.640 -17.323   6.811  1.00  0.00     0.205 A 
ATOM      4  C   UNL     1      10.834 -17.213   7.542  1.00  0.00     0.184 A 
ATOM      5  C   UNL     1      11.074 -18.084   8.627  1.00  0.00     0.025 A 
ATOM      6  C   UNL     1      10.128 -19.054   8.972  1.00  0.00     0.062 A 
ATOM      7  C   UNL     1      12.273 -17.952   9.337  1.00  0.00     0.020 A 
ATOM      8  C   UNL     1      13.190 -16.972   8.959  1.00  0.00     0.094 A 
ATOM      9  C   UNL     1      12.885 -16.144   7.874  1.00  0.00     0.336 A 
ATOM     10  O   UNL     1      13.699 -15.253   7.516  1.00  0.00    -0.246 OA
ATOM     11  O   UNL     1      11.738 -16.292   7.217  1.00  0.00    -0.419 OA
ENDROOT
BRANCH   1  12
ATOM     12  O   UNL     1       7.952 -20.125   8.555  1.00  0.00    -0.493 OA
ATOM     13  C   UNL     1       6.805 -19.875   9.362  1.00  0.00     0.278 C 
ENDBRANCH   1  12
BRANCH   2  14
ATOM     14  O   UNL     1       7.498 -18.425   6.449  1.00  0.00    -0.502 OA
ATOM     15  H   UNL     1       6.615 -18.623   6.903  1.00  0.00     0.293 HD
ENDBRANCH   2  14
BRANCH   3  16
ATOM     16  O   UNL     1       9.383 -16.471   5.735  1.00  0.00    -0.502 OA
ATOM     17  H   UNL     1      10.122 -15.971   5.256  1.00  0.00     0.293 HD
ENDBRANCH   3  16
TORSDOF 3
ENDMDL
MODEL 3
REMARK VINA RESULT:    -4.203      1.866      2.435
REMARK INTER + INTRA:          -4.708
REMARK INTER:                  -4.639
REMARK INTRA:                  -0.069
REMARK UNBOUND:                -0.014
REMARK SMILES COc1cc2ccc(=O)oc2c(O)c1O
REMARK SMILES IDX 3 1 14 2 12 3 11 4 5 5 4 6 6 7 7 8 8 9 9 10 10 11 2 12 1 13
REMARK SMILES IDX 15 14 13 16
REMARK H PARENT 15 15 13 17
REMARK Flexibility Score: inf
ROOT
ATOM      1  C   UNL     1      12.235 -16.750   8.052  1.00  0.00     0.165 A 
ATOM      2  C   UNL     1      12.300 -17.961   8.759  1.00  0.00     0.204 A 
ATOM      3  C   UNL     1      11.246 -18.891   8.680  1.00  0.00     0.205 A 
ATOM      4  C   UNL     1      10.122 -18.606   7.888  1.00  0.00     0.184 A 
ATOM      5  C   UNL     1      10.056 -17.388   7.177  1.00  0.00     0.025 A 
ATOM      6  C   UNL     1      11.107 -16.468   7.259  1.00  0.00     0.062 A 
ATOM      7  C   UNL     1       8.923 -17.131   6.396  1.00  0.00     0.020 A 
ATOM      8  C   UNL     1       7.899 -18.075   6.342  1.00  0.00     0.094 A 
ATOM      9  C   UNL     1       8.032 -19.259   7.072  1.00  0.00     0.336 A 
ATOM     10  O   UNL     1       7.119 -20.125   7.037  1.00  0.00    -0.246 OA
ATOM     11  O   UNL     1       9.120 -19.478   7.807  1.00  0.00    -0.419 OA
ENDROOT
BRANCH   1  12
ATOM     12  O   UNL     1      13.311 -15.856   8.163  1.00  0.00    -0.493 OA
ATOM     13  C   UNL     1      14.261 -15.604   7.133  1.00  0.00     0.278 C 
ENDBRANCH   1  12
BRANCH   2  14
ATOM     14  O   UNL     1      13.426 -18.227   9.540  1.00  0.00    -0.502 OA
ATOM     15  H   UNL     1      13.941 -17.493  10.012  1.00  0.00     0.293 HD
ENDBRANCH   2  14
BRANCH   3  16
ATOM     16  O   UNL     1      11.331 -20.089   9.391  1.00  0.00    -0.502 OA
ATOM     17  H   UNL     1      12.218 -20.482   9.681  1.00  0.00     0.293 HD
ENDBRANCH   3  16
TORSDOF 3
ENDMDL
MODEL 4
REMARK VINA RESULT:    -3.428      2.133      5.265
REMARK INTER + INTRA:          -3.843
REMARK INTER:                  -3.860
REMARK INTRA:                   0.017
REMARK UNBOUND:                -0.014
REMARK SMILES COc1cc2ccc(=O)oc2c(O)c1O
REMARK SMILES IDX 3 1 14 2 12 3 11 4 5 5 4 6 6 7 7 8 8 9 9 10 10 11 2 12 1 13
REMARK SMILES IDX 15 14 13 16
REMARK H PARENT 15 15 13 17
REMARK Flexibility Score: inf
ROOT
ATOM      1  C   UNL     1       9.149 -18.166   6.913  1.00  0.00     0.165 A 
ATOM      2  C   UNL     1       9.314 -19.135   7.917  1.00  0.00     0.204 A 
ATOM      3  C   UNL     1      10.442 -19.106   8.757  1.00  0.00     0.205 A 
ATOM      4  C   UNL     1      11.411 -18.103   8.592  1.00  0.00     0.184 A 
ATOM      5  C   UNL     1      11.247 -17.129   7.583  1.00  0.00     0.025 A 
ATOM      6  C   UNL     1      10.122 -17.162   6.751  1.00  0.00     0.062 A 
ATOM      7  C   UNL     1      12.228 -16.141   7.441  1.00  0.00     0.020 A 
ATOM      8  C   UNL     1      13.332 -16.145   8.292  1.00  0.00     0.094 A 
ATOM      9  C   UNL     1      13.430 -17.140   9.269  1.00  0.00     0.336 A 
ATOM     10  O   UNL     1      14.419 -17.162  10.047  1.00  0.00    -0.246 OA
ATOM     11  O   UNL     1      12.482 -18.068   9.381  1.00  0.00    -0.419 OA
ENDROOT
BRANCH   1  12
ATOM     12  O   UNL     1       8.007 -18.237   6.101  1.00  0.00    -0.493 OA
ATOM     13  C   UNL     1       7.874 -19.087   4.966  1.00  0.00     0.278 C 
ENDBRANCH   1  12
BRANCH   2  14
ATOM     14  O   UNL     1       8.339 -20.123   8.066  1.00  0.00    -0.502 OA
ATOM     15  H   UNL     1       8.329 -20.757   8.855  1.00  0.00     0.293 HD
ENDBRANCH   2  14
BRANCH   3  16
ATOM     16  O   UNL     1      10.586 -20.078   9.749  1.00  0.00    -0.502 OA
ATOM     17  H   UNL     1      11.304 -20.020  10.460  1.00  0.00     0.293 HD
ENDBRANCH   3  16
TORSDOF 3
ENDMDL
MODEL 5
REMARK VINA RESULT:    -3.151      1.761      2.293
REMARK INTER + INTRA:          -3.533
REMARK INTER:                  -3.482
REMARK INTRA:                  -0.051
REMARK UNBOUND:                -0.014
REMARK SMILES COc1cc2ccc(=O)oc2c(O)c1O
REMARK SMILES IDX 3 1 14 2 12 3 11 4 5 5 4 6 6 7 7 8 8 9 9 10 10 11 2 12 1 13
REMARK SMILES IDX 15 14 13 16
REMARK H PARENT 15 15 13 17
REMARK Flexibility Score: inf
ROOT
ATOM      1  C   UNL     1      12.288 -17.260   8.583  1.00  0.00     0.165 A 
ATOM      2  C   UNL     1      11.708 -16.525   7.536  1.00  0.00     0.204 A 
ATOM      3  C   UNL     1      10.444 -16.880   7.031  1.00  0.00     0.205 A 
ATOM      4  C   UNL     1       9.756 -17.976   7.576  1.00  0.00     0.184 A 
ATOM      5  C   UNL     1      10.338 -18.716   8.629  1.00  0.00     0.025 A 
ATOM      6  C   UNL     1      11.596 -18.358   9.128  1.00  0.00     0.062 A 
ATOM      7  C   UNL     1       9.630 -19.803   9.153  1.00  0.00     0.020 A 
ATOM      8  C   UNL     1       8.381 -20.125   8.627  1.00  0.00     0.094 A 
ATOM      9  C   UNL     1       7.865 -19.349   7.585  1.00  0.00     0.336 A 
ATOM     10  O   UNL     1       6.738 -19.623   7.095  1.00  0.00    -0.246 OA
ATOM     11  O   UNL     1       8.560 -18.320   7.105  1.00  0.00    -0.419 OA
ENDROOT
BRANCH   1  12
ATOM     12  O   UNL     1      13.551 -16.866   9.053  1.00  0.00    -0.493 OA
ATOM     13  C   UNL     1      14.248 -17.500  10.120  1.00  0.00     0.278 C 
ENDBRANCH   1  12
BRANCH   2  14
ATOM     14  O   UNL     1      12.407 -15.438   7.008  1.00  0.00    -0.502 OA
ATOM     15  H   UNL     1      12.053 -14.895   6.230  1.00  0.00     0.293 HD
ENDBRANCH   2  14
BRANCH   3  16
ATOM     16  O   UNL     1       9.885 -16.136   5.990  1.00  0.00    -0.502 OA
ATOM     17  H   UNL     1       9.845 -15.124   6.012  1.00  0.00     0.293 HD
ENDBRANCH   3  16
TORSDOF 3
ENDMDL
MODEL 6
REMARK VINA RESULT:    -2.450      1.659      2.911
REMARK INTER + INTRA:          -2.750
REMARK INTER:                  -2.700
REMARK INTRA:                  -0.051
REMARK UNBOUND:                -0.014
REMARK SMILES COc1cc2ccc(=O)oc2c(O)c1O
REMARK SMILES IDX 3 1 14 2 12 3 11 4 5 5 4 6 6 7 7 8 8 9 9 10 10 11 2 12 1 13
REMARK SMILES IDX 15 14 13 16
REMARK H PARENT 15 15 13 17
REMARK Flexibility Score: inf
ROOT
ATOM      1  C   UNL     1      11.096 -19.489   6.509  1.00  0.00     0.165 A 
ATOM      2  C   UNL     1      11.267 -18.178   6.981  1.00  0.00     0.204 A 
ATOM      3  C   UNL     1      10.203 -17.499   7.602  1.00  0.00     0.205 A 
ATOM      4  C   UNL     1       8.960 -18.135   7.751  1.00  0.00     0.184 A 
ATOM      5  C   UNL     1       8.787 -19.454   7.277  1.00  0.00     0.025 A 
ATOM      6  C   UNL     1       9.849 -20.125   6.661  1.00  0.00     0.062 A 
ATOM      7  C   UNL     1       7.537 -20.064   7.439  1.00  0.00     0.020 A 
ATOM      8  C   UNL     1       6.506 -19.360   8.059  1.00  0.00     0.094 A 
ATOM      9  C   UNL     1       6.749 -18.057   8.504  1.00  0.00     0.336 A 
ATOM     10  O   UNL     1       5.832 -17.404   9.066  1.00  0.00    -0.246 OA
ATOM     11  O   UNL     1       7.946 -17.502   8.337  1.00  0.00    -0.419 OA
ENDROOT
BRANCH   1  12
ATOM     12  O   UNL     1      12.188 -20.125   5.897  1.00  0.00    -0.493 OA
ATOM     13  C   UNL     1      12.440 -20.125   4.496  1.00  0.00     0.278 C 
ENDBRANCH   1  12
BRANCH   2  14
ATOM     14  O   UNL     1      12.510 -17.562   6.825  1.00  0.00    -0.502 OA
ATOM     15  H   UNL     1      13.302 -17.784   7.416  1.00  0.00     0.293 HD
ENDBRANCH   2  14
BRANCH   3  16
ATOM     16  O   UNL     1      10.394 -16.196   8.065  1.00  0.00    -0.502 OA
ATOM     17  H   UNL     1      10.724 -15.452   7.461  1.00  0.00     0.293 HD
ENDBRANCH   3  16
TORSDOF 3
ENDMDL
MODEL 7
REMARK VINA RESULT:    -2.381      1.578      5.442
REMARK INTER + INTRA:          -2.673
REMARK INTER:                  -3.480
REMARK INTRA:                   0.807
REMARK UNBOUND:                -0.014
REMARK SMILES COc1cc2ccc(=O)oc2c(O)c1O
REMARK SMILES IDX 3 1 14 2 12 3 11 4 5 5 4 6 6 7 7 8 8 9 9 10 10 11 2 12 1 13
REMARK SMILES IDX 15 14 13 16
REMARK H PARENT 15 15 13 17
REMARK Flexibility Score: inf
ROOT
ATOM      1  C   UNL     1       6.874 -19.401   7.684  1.00  0.00     0.165 A 
ATOM      2  C   UNL     1       6.811 -18.205   8.418  1.00  0.00     0.204 A 
ATOM      3  C   UNL     1       7.973 -17.443   8.641  1.00  0.00     0.205 A 
ATOM      4  C   UNL     1       9.205 -17.881   8.127  1.00  0.00     0.184 A 
ATOM      5  C   UNL     1       9.269 -19.082   7.388  1.00  0.00     0.025 A 
ATOM      6  C   UNL     1       8.110 -19.835   7.169  1.00  0.00     0.062 A 
ATOM      7  C   UNL     1      10.509 -19.493   6.887  1.00  0.00     0.020 A 
ATOM      8  C   UNL     1      11.638 -18.713   7.128  1.00  0.00     0.094 A 
ATOM      9  C   UNL     1      11.501 -17.534   7.867  1.00  0.00     0.336 A 
ATOM     10  O   UNL     1      12.508 -16.815   8.096  1.00  0.00    -0.246 OA
ATOM     11  O   UNL     1      10.310 -17.167   8.332  1.00  0.00    -0.419 OA
ENDROOT
BRANCH   1  12
ATOM     12  O   UNL     1       5.688 -20.125   7.489  1.00  0.00    -0.493 OA
ATOM     13  C   UNL     1       4.584 -20.125   8.388  1.00  0.00     0.278 C 
ENDBRANCH   1  12
BRANCH   2  14
ATOM     14  O   UNL     1       5.578 -17.787   8.921  1.00  0.00    -0.502 OA
ATOM     15  H   UNL     1       4.848 -18.442   9.174  1.00  0.00     0.293 HD
ENDBRANCH   2  14
BRANCH   3  16
ATOM     16  O   UNL     1       7.889 -16.258   9.373  1.00  0.00    -0.502 OA
ATOM     17  H   UNL     1       8.402 -15.425   9.112  1.00  0.00     0.293 HD
ENDBRANCH   3  16
TORSDOF 3
ENDMDL
MODEL 8
REMARK VINA RESULT:    -1.644      1.220      4.761
REMARK INTER + INTRA:          -1.850
REMARK INTER:                  -1.781
REMARK INTRA:                  -0.069
REMARK UNBOUND:                -0.014
REMARK SMILES COc1cc2ccc(=O)oc2c(O)c1O
REMARK SMILES IDX 3 1 14 2 12 3 11 4 5 5 4 6 6 7 7 8 8 9 9 10 10 11 2 12 1 13
REMARK SMILES IDX 15 14 13 16
REMARK H PARENT 15 15 13 17
REMARK Flexibility Score: inf
ROOT
ATOM      1  C   UNL     1       6.969 -18.952   8.162  1.00  0.00     0.165 A 
ATOM      2  C   UNL     1       7.269 -19.437   6.879  1.00  0.00     0.204 A 
ATOM      3  C   UNL     1       8.544 -19.231   6.320  1.00  0.00     0.205 A 
ATOM      4  C   UNL     1       9.523 -18.536   7.049  1.00  0.00     0.184 A 
ATOM      5  C   UNL     1       9.222 -18.049   8.339  1.00  0.00     0.025 A 
ATOM      6  C   UNL     1       7.953 -18.257   8.891  1.00  0.00     0.062 A 
ATOM      7  C   UNL     1      10.217 -17.361   9.043  1.00  0.00     0.020 A 
ATOM      8  C   UNL     1      11.467 -17.176   8.457  1.00  0.00     0.094 A 
ATOM      9  C   UNL     1      11.696 -17.685   7.175  1.00  0.00     0.336 A 
ATOM     10  O   UNL     1      12.818 -17.529   6.628  1.00  0.00    -0.246 OA
ATOM     11  O   UNL     1      10.732 -18.336   6.529  1.00  0.00    -0.419 OA
ENDROOT
BRANCH   1  12
ATOM     12  O   UNL     1       5.683 -19.183   8.677  1.00  0.00    -0.493 OA
ATOM     13  C   UNL     1       5.382 -20.125   9.702  1.00  0.00     0.278 C 
ENDBRANCH   1  12
BRANCH   2  14
ATOM     14  O   UNL     1       6.284 -20.125   6.170  1.00  0.00    -0.502 OA
ATOM     15  H   UNL     1       5.586 -19.647   5.612  1.00  0.00     0.293 HD
ENDBRANCH   2  14
BRANCH   3  16
ATOM     16  O   UNL     1       8.822 -19.720   5.043  1.00  0.00    -0.502 OA
ATOM     17  H   UNL     1       8.948 -20.709   4.860  1.00  0.00     0.293 HD
ENDBRANCH   3  16
TORSDOF 3
ENDMDL
