MODEL 1
REMARK VINA RESULT:    -6.221      0.000      0.000
REMARK INTER + INTRA:          -6.221
REMARK INTER:                  -6.221
REMARK INTRA:                   0.000
REMARK UNBOUND:                 0.000
REMARK SMILES CC(C)=C1CC[C@H](C)CC1=O
REMARK SMILES IDX 8 1 7 2 6 3 5 4 4 5 2 6 1 7 3 8 10 9 11 10 9 11
REMARK H PARENT
REMARK Flexibility Score: inf
ROOT
ATOM      1  C   UNL     1      -8.257  27.875  22.753  1.00  0.00     0.008 C 
ATOM      2  C   UNL     1      -8.547  29.346  23.070  1.00  0.00    -0.006 C 
ATOM      3  C   UNL     1      -7.396  29.960  23.883  1.00  0.00     0.008 C 
ATOM      4  C   UNL     1      -7.714  31.403  24.298  1.00  0.00     0.039 C 
ATOM      5  C   UNL     1      -8.125  32.272  23.117  1.00  0.00    -0.006 C 
ATOM      6  C   UNL     1      -7.841  33.608  23.087  1.00  0.00    -0.070 C 
ATOM      7  C   UNL     1      -8.194  34.470  21.896  1.00  0.00     0.039 C 
ATOM      8  C   UNL     1      -7.122  34.283  24.232  1.00  0.00     0.039 C 
ATOM      9  C   UNL     1      -8.950  31.605  22.066  1.00  0.00     0.159 C 
ATOM     10  O   UNL     1      -9.819  32.242  21.412  1.00  0.00    -0.295 OA
ATOM     11  C   UNL     1      -8.758  30.144  21.776  1.00  0.00     0.084 C 
ENDROOT
TORSDOF 0
ENDMDL
MODEL 2
REMARK VINA RESULT:    -5.939      1.545      2.277
REMARK INTER + INTRA:          -5.939
REMARK INTER:                  -5.939
REMARK INTRA:                   0.000
REMARK UNBOUND:                 0.000
REMARK SMILES CC(C)=C1CC[C@H](C)CC1=O
REMARK SMILES IDX 8 1 7 2 6 3 5 4 4 5 2 6 1 7 3 8 10 9 11 10 9 11
REMARK H PARENT
REMARK Flexibility Score: inf
ROOT
ATOM      1  C   UNL     1      -9.007  28.095  22.763  1.00  0.00     0.008 C 
ATOM      2  C   UNL     1      -8.324  29.460  22.904  1.00  0.00    -0.006 C 
ATOM      3  C   UNL     1      -8.588  30.326  21.661  1.00  0.00     0.008 C 
ATOM      4  C   UNL     1      -7.828  31.657  21.738  1.00  0.00     0.039 C 
ATOM      5  C   UNL     1      -8.091  32.404  23.039  1.00  0.00    -0.006 C 
ATOM      6  C   UNL     1      -8.087  33.769  23.086  1.00  0.00    -0.070 C 
ATOM      7  C   UNL     1      -8.401  34.523  24.358  1.00  0.00     0.039 C 
ATOM      8  C   UNL     1      -7.804  34.596  21.853  1.00  0.00     0.039 C 
ATOM      9  C   UNL     1      -8.233  31.561  24.263  1.00  0.00     0.159 C 
ATOM     10  O   UNL     1      -7.861  31.978  25.393  1.00  0.00    -0.295 OA
ATOM     11  C   UNL     1      -8.823  30.184  24.162  1.00  0.00     0.084 C 
ENDROOT
TORSDOF 0
ENDMDL
MODEL 3
REMARK VINA RESULT:    -5.886      1.493      4.496
REMARK INTER + INTRA:          -5.886
REMARK INTER:                  -5.886
REMARK INTRA:                   0.000
REMARK UNBOUND:                 0.000
REMARK SMILES CC(C)=C1CC[C@H](C)CC1=O
REMARK SMILES IDX 8 1 7 2 6 3 5 4 4 5 2 6 1 7 3 8 10 9 11 10 9 11
REMARK H PARENT
REMARK Flexibility Score: inf
ROOT
ATOM      1  C   UNL     1      -7.499  35.009  21.666  1.00  0.00     0.008 C 
ATOM      2  C   UNL     1      -8.259  33.732  22.039  1.00  0.00    -0.006 C 
ATOM      3  C   UNL     1      -7.845  32.570  21.121  1.00  0.00     0.008 C 
ATOM      4  C   UNL     1      -8.671  31.309  21.412  1.00  0.00     0.039 C 
ATOM      5  C   UNL     1      -8.651  30.926  22.886  1.00  0.00    -0.006 C 
ATOM      6  C   UNL     1      -8.728  29.621  23.281  1.00  0.00    -0.070 C 
ATOM      7  C   UNL     1      -8.653  29.225  24.738  1.00  0.00     0.039 C 
ATOM      8  C   UNL     1      -8.853  28.502  22.273  1.00  0.00     0.039 C 
ATOM      9  C   UNL     1      -8.662  32.060  23.859  1.00  0.00     0.159 C 
ATOM     10  O   UNL     1      -9.226  31.954  24.981  1.00  0.00    -0.295 OA
ATOM     11  C   UNL     1      -8.000  33.360  23.505  1.00  0.00     0.084 C 
ENDROOT
TORSDOF 0
ENDMDL
MODEL 4
REMARK VINA RESULT:    -5.877      1.942      4.374
REMARK INTER + INTRA:          -5.877
REMARK INTER:                  -5.877
REMARK INTRA:                   0.000
REMARK UNBOUND:                 0.000
REMARK SMILES CC(C)=C1CC[C@H](C)CC1=O
REMARK SMILES IDX 8 1 7 2 6 3 5 4 4 5 2 6 1 7 3 8 10 9 11 10 9 11
REMARK H PARENT
REMARK Flexibility Score: inf
ROOT
ATOM      1  C   UNL     1      -8.627  35.705  26.449  1.00  0.00     0.008 C 
ATOM      2  C   UNL     1      -7.973  34.862  25.349  1.00  0.00    -0.006 C 
ATOM      3  C   UNL     1      -8.344  33.380  25.511  1.00  0.00     0.008 C 
ATOM      4  C   UNL     1      -7.616  32.506  24.480  1.00  0.00     0.039 C 
ATOM      5  C   UNL     1      -7.809  33.005  23.054  1.00  0.00    -0.006 C 
ATOM      6  C   UNL     1      -7.837  32.139  21.998  1.00  0.00    -0.070 C 
ATOM      7  C   UNL     1      -8.084  32.616  20.585  1.00  0.00     0.039 C 
ATOM      8  C   UNL     1      -7.661  30.652  22.198  1.00  0.00     0.039 C 
ATOM      9  C   UNL     1      -7.845  34.487  22.876  1.00  0.00     0.159 C 
ATOM     10  O   UNL     1      -7.407  35.032  21.827  1.00  0.00    -0.295 OA
ATOM     11  C   UNL     1      -8.403  35.361  23.962  1.00  0.00     0.084 C 
ENDROOT
TORSDOF 0
ENDMDL
MODEL 5
REMARK VINA RESULT:    -5.770      1.809      4.471
REMARK INTER + INTRA:          -5.770
REMARK INTER:                  -5.770
REMARK INTRA:                   0.000
REMARK UNBOUND:                 0.000
REMARK SMILES CC(C)=C1CC[C@H](C)CC1=O
REMARK SMILES IDX 8 1 7 2 6 3 5 4 4 5 2 6 1 7 3 8 10 9 11 10 9 11
REMARK H PARENT
REMARK Flexibility Score: inf
ROOT
ATOM      1  C   UNL     1      -8.617  35.728  26.121  1.00  0.00     0.008 C 
ATOM      2  C   UNL     1      -8.867  34.885  24.867  1.00  0.00    -0.006 C 
ATOM      3  C   UNL     1      -7.831  35.214  23.780  1.00  0.00     0.008 C 
ATOM      4  C   UNL     1      -8.126  34.454  22.479  1.00  0.00     0.039 C 
ATOM      5  C   UNL     1      -8.285  32.956  22.703  1.00  0.00    -0.006 C 
ATOM      6  C   UNL     1      -7.921  32.054  21.744  1.00  0.00    -0.070 C 
ATOM      7  C   UNL     1      -8.021  30.563  21.975  1.00  0.00     0.039 C 
ATOM      8  C   UNL     1      -7.361  32.505  20.415  1.00  0.00     0.039 C 
ATOM      9  C   UNL     1      -8.964  32.549  23.969  1.00  0.00     0.159 C 
ATOM     10  O   UNL     1      -9.674  31.509  24.026  1.00  0.00    -0.295 OA
ATOM     11  C   UNL     1      -8.815  33.388  25.205  1.00  0.00     0.084 C 
ENDROOT
TORSDOF 0
ENDMDL
MODEL 6
REMARK VINA RESULT:    -5.754      2.450      3.946
REMARK INTER + INTRA:          -5.754
REMARK INTER:                  -5.754
REMARK INTRA:                   0.000
REMARK UNBOUND:                 0.000
REMARK SMILES CC(C)=C1CC[C@H](C)CC1=O
REMARK SMILES IDX 8 1 7 2 6 3 5 4 4 5 2 6 1 7 3 8 10 9 11 10 9 11
REMARK H PARENT
REMARK Flexibility Score: inf
ROOT
ATOM      1  C   UNL     1      -7.345  33.504  20.120  1.00  0.00     0.008 C 
ATOM      2  C   UNL     1      -8.070  33.488  21.470  1.00  0.00    -0.006 C 
ATOM      3  C   UNL     1      -7.838  32.150  22.191  1.00  0.00     0.008 C 
ATOM      4  C   UNL     1      -8.640  32.074  23.498  1.00  0.00     0.039 C 
ATOM      5  C   UNL     1      -8.395  33.276  24.402  1.00  0.00    -0.006 C 
ATOM      6  C   UNL     1      -8.443  33.161  25.761  1.00  0.00    -0.070 C 
ATOM      7  C   UNL     1      -8.147  34.333  26.670  1.00  0.00     0.039 C 
ATOM      8  C   UNL     1      -8.757  31.841  26.427  1.00  0.00     0.039 C 
ATOM      9  C   UNL     1      -8.222  34.590  23.714  1.00  0.00     0.159 C 
ATOM     10  O   UNL     1      -8.602  35.665  24.250  1.00  0.00    -0.295 OA
ATOM     11  C   UNL     1      -7.590  34.648  22.353  1.00  0.00     0.084 C 
ENDROOT
TORSDOF 0
ENDMDL
MODEL 7
REMARK VINA RESULT:    -5.680      2.295      3.767
REMARK INTER + INTRA:          -5.680
REMARK INTER:                  -5.680
REMARK INTRA:                   0.000
REMARK UNBOUND:                 0.000
REMARK SMILES CC(C)=C1CC[C@H](C)CC1=O
REMARK SMILES IDX 8 1 7 2 6 3 5 4 4 5 2 6 1 7 3 8 10 9 11 10 9 11
REMARK H PARENT
REMARK Flexibility Score: inf
ROOT
ATOM      1  C   UNL     1      -7.770  32.750  20.118  1.00  0.00     0.008 C 
ATOM      2  C   UNL     1      -7.499  33.094  21.587  1.00  0.00    -0.006 C 
ATOM      3  C   UNL     1      -8.109  34.459  21.942  1.00  0.00     0.008 C 
ATOM      4  C   UNL     1      -7.760  34.868  23.380  1.00  0.00     0.039 C 
ATOM      5  C   UNL     1      -8.112  33.788  24.395  1.00  0.00    -0.006 C 
ATOM      6  C   UNL     1      -8.496  34.107  25.666  1.00  0.00    -0.070 C 
ATOM      7  C   UNL     1      -8.902  33.047  26.664  1.00  0.00     0.039 C 
ATOM      8  C   UNL     1      -8.572  35.545  26.125  1.00  0.00     0.039 C 
ATOM      9  C   UNL     1      -7.898  32.377  23.953  1.00  0.00     0.159 C 
ATOM     10  O   UNL     1      -7.565  31.478  24.770  1.00  0.00    -0.295 OA
ATOM     11  C   UNL     1      -8.073  32.008  22.508  1.00  0.00     0.084 C 
ENDROOT
TORSDOF 0
ENDMDL
MODEL 8
REMARK VINA RESULT:    -5.586      1.733      3.965
REMARK INTER + INTRA:          -5.586
REMARK INTER:                  -5.586
REMARK INTRA:                   0.000
REMARK UNBOUND:                 0.000
REMARK SMILES CC(C)=C1CC[C@H](C)CC1=O
REMARK SMILES IDX 8 1 7 2 6 3 5 4 4 5 2 6 1 7 3 8 10 9 11 10 9 11
REMARK H PARENT
REMARK Flexibility Score: inf
ROOT
ATOM      1  C   UNL     1      -8.075  33.485  20.871  1.00  0.00     0.008 C 
ATOM      2  C   UNL     1      -7.841  32.255  21.756  1.00  0.00    -0.006 C 
ATOM      3  C   UNL     1      -7.835  32.652  23.241  1.00  0.00     0.008 C 
ATOM      4  C   UNL     1      -7.501  31.451  24.137  1.00  0.00     0.039 C 
ATOM      5  C   UNL     1      -8.391  30.248  23.856  1.00  0.00    -0.006 C 
ATOM      6  C   UNL     1      -8.733  29.373  24.847  1.00  0.00    -0.070 C 
ATOM      7  C   UNL     1      -9.661  28.207  24.593  1.00  0.00     0.039 C 
ATOM      8  C   UNL     1      -8.229  29.551  26.260  1.00  0.00     0.039 C 
ATOM      9  C   UNL     1      -8.761  30.025  22.426  1.00  0.00     0.159 C 
ATOM     10  O   UNL     1      -8.938  28.864  21.969  1.00  0.00    -0.295 OA
ATOM     11  C   UNL     1      -8.922  31.196  21.500  1.00  0.00     0.084 C 
ENDROOT
TORSDOF 0
ENDMDL
MODEL 9
REMARK VINA RESULT:    -5.544      2.396      5.089
REMARK INTER + INTRA:          -5.544
REMARK INTER:                  -5.544
REMARK INTRA:                   0.000
REMARK UNBOUND:                 0.000
REMARK SMILES CC(C)=C1CC[C@H](C)CC1=O
REMARK SMILES IDX 8 1 7 2 6 3 5 4 4 5 2 6 1 7 3 8 10 9 11 10 9 11
REMARK H PARENT
REMARK Flexibility Score: inf
ROOT
ATOM      1  C   UNL     1      -8.735  36.288  25.320  1.00  0.00     0.008 C 
ATOM      2  C   UNL     1      -8.800  34.790  25.001  1.00  0.00    -0.006 C 
ATOM      3  C   UNL     1      -7.646  34.385  24.070  1.00  0.00     0.008 C 
ATOM      4  C   UNL     1      -7.754  32.911  23.657  1.00  0.00     0.039 C 
ATOM      5  C   UNL     1      -7.895  31.979  24.853  1.00  0.00    -0.006 C 
ATOM      6  C   UNL     1      -7.387  30.712  24.829  1.00  0.00    -0.070 C 
ATOM      7  C   UNL     1      -7.472  29.797  26.029  1.00  0.00     0.039 C 
ATOM      8  C   UNL     1      -6.678  30.174  23.606  1.00  0.00     0.039 C 
ATOM      9  C   UNL     1      -8.716  32.492  25.991  1.00  0.00     0.159 C 
ATOM     10  O   UNL     1      -9.397  31.712  26.711  1.00  0.00    -0.295 OA
ATOM     11  C   UNL     1      -8.747  33.962  26.293  1.00  0.00     0.084 C 
ENDROOT
TORSDOF 0
ENDMDL
