MODEL 1
REMARK VINA RESULT:    22.581      0.000      0.000
REMARK INTER + INTRA:          33.098
REMARK INTER:                  30.501
REMARK INTRA:                   2.596
REMARK UNBOUND:                 2.596
REMARK SMILES COc1ccc(-c2cc(=O)c3c(OC)c(OC)c(OC)c(OC)c3o2)cc1
REMARK SMILES IDX 7 1 8 2 9 3 10 4 11 5 24 6 25 7 21 8 18 9 15 10 12 11 6 12
REMARK SMILES IDX 3 13 4 14 27 15 5 16 26 17 2 18 1 19 22 20 23 21 13 22 14 23
REMARK SMILES IDX 19 24 20 25 16 26 17 27
REMARK H PARENT
REMARK Flexibility Score: inf
ROOT
ATOM      1  C   UNL     1      14.318  -1.269  14.986  1.00  0.00     0.138 A 
ATOM      2  C   UNL     1      15.374  -0.350  14.906  1.00  0.00     0.100 A 
ATOM      3  C   UNL     1      16.688  -0.811  14.946  1.00  0.00     0.197 A 
ATOM      4  O   UNL     1      17.628   0.025  14.877  1.00  0.00    -0.289 OA
ATOM      5  C   UNL     1      16.940  -2.196  15.071  1.00  0.00     0.115 A 
ATOM      6  C   UNL     1      15.827  -3.059  15.152  1.00  0.00     0.188 A 
ATOM      7  O   UNL     1      14.591  -2.565  15.110  1.00  0.00    -0.452 OA
ATOM      8  C   UNL     1      15.994  -4.444  15.269  1.00  0.00     0.209 A 
ATOM      9  C   UNL     1      17.299  -4.996  15.336  1.00  0.00     0.211 A 
ATOM     10  C   UNL     1      18.419  -4.125  15.303  1.00  0.00     0.208 A 
ATOM     11  C   UNL     1      18.240  -2.740  15.105  1.00  0.00     0.179 A 
ENDROOT
BRANCH   1  12
ATOM     12  C   UNL     1      12.897  -0.839  14.951  1.00  0.00     0.018 A 
ATOM     13  C   UNL     1      10.213   0.040  14.917  1.00  0.00     0.118 A 
ATOM     14  C   UNL     1      10.511  -1.334  14.909  1.00  0.00     0.047 A 
ATOM     15  C   UNL     1      11.261   0.965  14.953  1.00  0.00     0.047 A 
ATOM     16  C   UNL     1      11.841  -1.769  14.929  1.00  0.00     0.016 A 
ATOM     17  C   UNL     1      12.591   0.533  14.974  1.00  0.00     0.016 A 
BRANCH  13  18
ATOM     18  O   UNL     1       8.896   0.525  14.896  1.00  0.00    -0.497 OA
ATOM     19  C   UNL     1       8.081   0.689  16.051  1.00  0.00     0.278 C 
ENDBRANCH  13  18
ENDBRANCH   1  12
BRANCH   8  20
ATOM     20  O   UNL     1      14.813  -5.213  15.316  1.00  0.00    -0.490 OA
ATOM     21  C   UNL     1      14.483  -6.222  16.263  1.00  0.00     0.278 C 
ENDBRANCH   8  20
BRANCH  11  22
ATOM     22  O   UNL     1      19.347  -1.900  14.933  1.00  0.00    -0.492 OA
ATOM     23  C   UNL     1      19.753  -0.960  15.924  1.00  0.00     0.278 C 
ENDBRANCH  11  22
BRANCH   9  24
ATOM     24  O   UNL     1      17.429  -6.393  15.446  1.00  0.00    -0.490 OA
ATOM     25  C   UNL     1      18.145  -7.114  16.443  1.00  0.00     0.279 C 
ENDBRANCH   9  24
BRANCH  10  26
ATOM     26  O   UNL     1      19.707  -4.637  15.486  1.00  0.00    -0.490 OA
ATOM     27  C   UNL     1      20.052  -5.468  16.590  1.00  0.00     0.278 C 
ENDBRANCH  10  26
TORSDOF 6
ENDMDL
