MODEL 1
REMARK VINA RESULT:    85.270      0.000      0.000
REMARK INTER + INTRA:          93.349
REMARK INTER:                  92.747
REMARK INTRA:                   0.602
REMARK UNBOUND:                 0.602
REMARK SMILES C[C@H]1[C@H](C)CC[C@@]2(C(=O)[O-])CC[C@@]3(C)C(=CC[C@@H]4[C@]5(C)CC[C@H](O)C(C)(C)[C@@H]5CC[C@@]43C)[C@H]12
REMARK SMILES IDX 7 1 6 2 11 3 33 4 5 5 12 6 15 7 2 8 3 9 13 10 16 11 1 12
REMARK SMILES IDX 4 13 14 14 31 15 17 16 18 17 30 18 32 19 19 20 29 21 28 22
REMARK SMILES IDX 21 23 20 24 25 25 22 26 23 27 26 28 27 29 8 30 9 31 10 32
REMARK SMILES IDX 24 33
REMARK H PARENT 24 34
REMARK Flexibility Score: inf
ROOT
ATOM      1  C   UNL     1     139.834 164.723 173.454  1.00  0.00     0.017 C 
ATOM      2  C   UNL     1     139.740 163.292 172.862  1.00  0.00     0.014 C 
ATOM      3  C   UNL     1     139.633 164.630 174.994  1.00  0.00     0.014 C 
ATOM      4  C   UNL     1     141.271 165.274 173.158  1.00  0.00     0.030 C 
ATOM      5  C   UNL     1     140.010 163.288 171.353  1.00  0.00     0.004 C 
ATOM      6  C   UNL     1     139.987 165.931 175.759  1.00  0.00     0.013 C 
ATOM      7  C   UNL     1     141.487 166.596 173.926  1.00  0.00    -0.063 C 
ATOM      8  C   UNL     1     141.641 165.246 171.634  1.00  0.00    -0.003 C 
ATOM      9  C   UNL     1     141.423 163.817 171.042  1.00  0.00    -0.011 C 
ATOM     10  C   UNL     1     141.416 166.520 175.459  1.00  0.00    -0.006 C 
ATOM     11  C   UNL     1     141.381 167.770 173.280  1.00  0.00    -0.027 C 
ATOM     12  C   UNL     1     143.113 165.677 171.427  1.00  0.00     0.008 C 
ATOM     13  C   UNL     1     141.649 163.778 169.520  1.00  0.00     0.008 C 
ATOM     14  C   UNL     1     142.503 165.506 175.960  1.00  0.00     0.017 C 
ATOM     15  C   UNL     1     141.645 167.954 176.189  1.00  0.00    -0.020 C 
ATOM     16  C   UNL     1     141.366 169.106 173.933  1.00  0.00     0.032 C 
ATOM     17  C   UNL     1     140.919 169.116 175.420  1.00  0.00     0.006 C 
ATOM     18  C   UNL     1     143.169 168.323 176.243  1.00  0.00     0.008 C 
ATOM     19  C   UNL     1     141.092 167.831 177.652  1.00  0.00     0.012 C 
ATOM     20  C   UNL     1     141.048 170.576 176.118  1.00  0.00    -0.025 C 
ATOM     21  C   UNL     1     143.529 169.833 176.303  1.00  0.00     0.005 C 
ATOM     22  C   UNL     1     142.431 170.744 176.908  1.00  0.00     0.003 C 
ATOM     23  C   UNL     1     140.885 171.709 175.039  1.00  0.00     0.010 C 
ATOM     24  C   UNL     1     139.849 170.730 177.113  1.00  0.00     0.012 C 
ATOM     25  C   UNL     1     142.910 172.242 177.207  1.00  0.00    -0.006 C 
ATOM     26  C   UNL     1     141.217 173.124 175.513  1.00  0.00     0.033 C 
ATOM     27  C   UNL     1     142.661 173.198 176.008  1.00  0.00     0.120 C 
ATOM     28  C   UNL     1     142.181 172.797 178.466  1.00  0.00     0.014 C 
ATOM     29  C   UNL     1     144.421 172.321 177.570  1.00  0.00     0.014 C 
ENDROOT
BRANCH   1  30
ATOM     30  C   UNL     1     138.698 165.569 172.874  1.00  0.00     0.048 C 
ATOM     31  O   UNL     1     137.875 166.127 173.654  1.00  0.00    -0.550 OA
ATOM     32  O   UNL     1     138.561 165.784 171.507  1.00  0.00    -0.550 OA
ENDBRANCH   1  30
BRANCH  27  33
ATOM     33  O   UNL     1     143.532 172.892 174.945  1.00  0.00    -0.393 OA
ATOM     34  H   UNL     1     144.374 172.546 175.343  1.00  0.00     0.210 HD
ENDBRANCH  27  33
TORSDOF 2
ENDMDL
MODEL 2
REMARK VINA RESULT:    85.970      4.945      8.052
REMARK INTER + INTRA:          94.111
REMARK INTER:                  93.690
REMARK INTRA:                   0.421
REMARK UNBOUND:                 0.602
REMARK SMILES C[C@H]1[C@H](C)CC[C@@]2(C(=O)[O-])CC[C@@]3(C)C(=CC[C@@H]4[C@]5(C)CC[C@H](O)C(C)(C)[C@@H]5CC[C@@]43C)[C@H]12
REMARK SMILES IDX 7 1 6 2 11 3 33 4 5 5 12 6 15 7 2 8 3 9 13 10 16 11 1 12
REMARK SMILES IDX 4 13 14 14 31 15 17 16 18 17 30 18 32 19 19 20 29 21 28 22
REMARK SMILES IDX 21 23 20 24 25 25 22 26 23 27 26 28 27 29 8 30 9 31 10 32
REMARK SMILES IDX 24 33
REMARK H PARENT 24 34
REMARK Flexibility Score: inf
ROOT
ATOM      1  C   UNL     1     141.860 174.438 169.410  1.00  0.00     0.017 C 
ATOM      2  C   UNL     1     141.809 175.258 168.094  1.00  0.00     0.014 C 
ATOM      3  C   UNL     1     143.319 174.466 169.948  1.00  0.00     0.014 C 
ATOM      4  C   UNL     1     140.918 175.136 170.450  1.00  0.00     0.030 C 
ATOM      5  C   UNL     1     140.381 175.348 167.542  1.00  0.00     0.004 C 
ATOM      6  C   UNL     1     143.470 173.939 171.397  1.00  0.00     0.013 C 
ATOM      7  C   UNL     1     141.114 174.491 171.839  1.00  0.00    -0.063 C 
ATOM      8  C   UNL     1     139.448 175.315 169.930  1.00  0.00    -0.003 C 
ATOM      9  C   UNL     1     139.441 176.041 168.546  1.00  0.00    -0.011 C 
ATOM     10  C   UNL     1     142.516 174.605 172.458  1.00  0.00    -0.006 C 
ATOM     11  C   UNL     1     140.222 173.592 172.293  1.00  0.00    -0.027 C 
ATOM     12  C   UNL     1     138.609 176.124 170.947  1.00  0.00     0.008 C 
ATOM     13  C   UNL     1     138.029 176.119 167.939  1.00  0.00     0.008 C 
ATOM     14  C   UNL     1     142.881 176.125 172.592  1.00  0.00     0.017 C 
ATOM     15  C   UNL     1     142.640 173.895 173.915  1.00  0.00    -0.020 C 
ATOM     16  C   UNL     1     140.395 172.757 173.511  1.00  0.00     0.032 C 
ATOM     17  C   UNL     1     141.865 172.529 173.959  1.00  0.00     0.006 C 
ATOM     18  C   UNL     1     142.031 174.803 175.040  1.00  0.00     0.008 C 
ATOM     19  C   UNL     1     144.166 173.672 174.202  1.00  0.00     0.012 C 
ATOM     20  C   UNL     1     141.988 171.724 175.364  1.00  0.00    -0.025 C 
ATOM     21  C   UNL     1     141.494 174.090 176.311  1.00  0.00     0.005 C 
ATOM     22  C   UNL     1     142.140 172.715 176.613  1.00  0.00     0.003 C 
ATOM     23  C   UNL     1     140.747 170.776 175.556  1.00  0.00     0.010 C 
ATOM     24  C   UNL     1     143.247 170.798 175.266  1.00  0.00     0.012 C 
ATOM     25  C   UNL     1     141.776 172.117 178.052  1.00  0.00    -0.006 C 
ATOM     26  C   UNL     1     140.614 170.136 176.937  1.00  0.00     0.033 C 
ATOM     27  C   UNL     1     140.513 171.211 178.019  1.00  0.00     0.120 C 
ATOM     28  C   UNL     1     142.977 171.301 178.615  1.00  0.00     0.014 C 
ATOM     29  C   UNL     1     141.533 173.229 179.113  1.00  0.00     0.014 C 
ENDROOT
BRANCH   1  30
ATOM     30  C   UNL     1     141.494 172.986 169.096  1.00  0.00     0.048 C 
ATOM     31  O   UNL     1     140.341 172.556 169.386  1.00  0.00    -0.550 OA
ATOM     32  O   UNL     1     142.378 172.122 168.457  1.00  0.00    -0.550 OA
ENDBRANCH   1  30
BRANCH  27  33
ATOM     33  O   UNL     1     139.358 171.985 177.798  1.00  0.00    -0.393 OA
ATOM     34  H   UNL     1     138.840 171.991 178.646  1.00  0.00     0.210 HD
ENDBRANCH  27  33
TORSDOF 2
ENDMDL
