MODEL 1
REMARK VINA RESULT:    -6.554      0.000      0.000
REMARK INTER + INTRA:          -8.227
REMARK INTER:                  -7.895
REMARK INTRA:                  -0.332
REMARK UNBOUND:                -0.332
REMARK SMILES O=c1c(O)c(-c2ccc(O)c(O)c2)oc2cc(O)cc(O)c12
REMARK SMILES IDX 5 1 3 2 2 3 1 4 22 5 20 6 19 7 17 8 16 9 15 10 14 11 6 12
REMARK SMILES IDX 7 13 8 14 9 15 13 16 11 17 10 18 12 20 4 22 21 24 18 26
REMARK H PARENT 10 19 12 21 4 23 21 25 18 27
REMARK Flexibility Score: inf
ROOT
ATOM      1  C   UNL     1     179.148 181.661 175.350  1.00  0.00     0.180 A 
ATOM      2  C   UNL     1     177.940 181.187 174.801  1.00  0.00     0.208 A 
ATOM      3  C   UNL     1     177.353 181.896 173.742  1.00  0.00     0.238 A 
ATOM      4  O   UNL     1     176.267 181.488 173.248  1.00  0.00    -0.285 OA
ATOM      5  C   UNL     1     177.988 183.050 173.238  1.00  0.00     0.111 A 
ATOM      6  C   UNL     1     177.465 183.818 172.171  1.00  0.00     0.134 A 
ATOM      7  C   UNL     1     178.162 184.950 171.720  1.00  0.00     0.093 A 
ATOM      8  C   UNL     1     179.371 185.325 172.316  1.00  0.00     0.123 A 
ATOM      9  C   UNL     1     179.891 184.571 173.369  1.00  0.00     0.094 A 
ATOM     10  C   UNL     1     179.211 183.441 173.834  1.00  0.00     0.146 A 
ATOM     11  O   UNL     1     179.726 182.745 174.840  1.00  0.00    -0.452 OA
ENDROOT
BRANCH   1  12
ATOM     12  C   UNL     1     179.818 180.979 176.481  1.00  0.00     0.025 A 
ATOM     13  C   UNL     1     180.819 180.034 176.220  1.00  0.00     0.016 A 
ATOM     14  C   UNL     1     181.479 179.393 177.271  1.00  0.00     0.051 A 
ATOM     15  C   UNL     1     181.164 179.694 178.600  1.00  0.00     0.157 A 
ATOM     16  C   UNL     1     179.514 181.300 177.815  1.00  0.00     0.062 A 
ATOM     17  C   UNL     1     180.173 180.666 178.876  1.00  0.00     0.158 A 
BRANCH  15  18
ATOM     18  O   UNL     1     181.853 179.013 179.605  1.00  0.00    -0.504 OA
ATOM     19  H   UNL     1     181.856 179.290 180.576  1.00  0.00     0.293 HD
ENDBRANCH  15  18
BRANCH  17  20
ATOM     20  O   UNL     1     179.818 181.034 180.176  1.00  0.00    -0.504 OA
ATOM     21  H   UNL     1     180.201 181.833 180.660  1.00  0.00     0.293 HD
ENDBRANCH  17  20
ENDBRANCH   1  12
BRANCH   2  22
ATOM     22  O   UNL     1     177.358 180.014 175.285  1.00  0.00    -0.502 OA
ATOM     23  H   UNL     1     176.570 179.570 174.828  1.00  0.00     0.293 HD
ENDBRANCH   2  22
BRANCH   6  24
ATOM     24  O   UNL     1     176.261 183.469 171.556  1.00  0.00    -0.507 OA
ATOM     25  H   UNL     1     175.508 184.137 171.441  1.00  0.00     0.293 HD
ENDBRANCH   6  24
BRANCH   8  26
ATOM     26  O   UNL     1     180.065 186.447 171.869  1.00  0.00    -0.508 OA
ATOM     27  H   UNL     1     180.905 186.772 172.335  1.00  0.00     0.293 HD
ENDBRANCH   8  26
TORSDOF 6
ENDMDL
MODEL 2
REMARK VINA RESULT:    -6.543      4.186      6.647
REMARK INTER + INTRA:          -8.214
REMARK INTER:                  -7.882
REMARK INTRA:                  -0.332
REMARK UNBOUND:                -0.332
REMARK SMILES O=c1c(O)c(-c2ccc(O)c(O)c2)oc2cc(O)cc(O)c12
REMARK SMILES IDX 5 1 3 2 2 3 1 4 22 5 20 6 19 7 17 8 16 9 15 10 14 11 6 12
REMARK SMILES IDX 7 13 8 14 9 15 13 16 11 17 10 18 12 20 4 22 21 24 18 26
REMARK H PARENT 10 19 12 21 4 23 21 25 18 27
REMARK Flexibility Score: inf
ROOT
ATOM      1  C   UNL     1     181.582 179.055 175.356  1.00  0.00     0.180 A 
ATOM      2  C   UNL     1     182.783 179.534 174.797  1.00  0.00     0.208 A 
ATOM      3  C   UNL     1     183.370 178.822 173.739  1.00  0.00     0.238 A 
ATOM      4  O   UNL     1     184.450 179.235 173.237  1.00  0.00    -0.285 OA
ATOM      5  C   UNL     1     182.740 177.661 173.246  1.00  0.00     0.111 A 
ATOM      6  C   UNL     1     183.263 176.889 172.181  1.00  0.00     0.134 A 
ATOM      7  C   UNL     1     182.571 175.750 171.742  1.00  0.00     0.093 A 
ATOM      8  C   UNL     1     181.367 175.370 172.347  1.00  0.00     0.123 A 
ATOM      9  C   UNL     1     180.848 176.128 173.397  1.00  0.00     0.094 A 
ATOM     10  C   UNL     1     181.523 177.266 173.851  1.00  0.00     0.146 A 
ATOM     11  O   UNL     1     181.008 177.965 174.855  1.00  0.00    -0.452 OA
ENDROOT
BRANCH   1  12
ATOM     12  C   UNL     1     180.913 179.740 176.486  1.00  0.00     0.025 A 
ATOM     13  C   UNL     1     179.925 180.699 176.223  1.00  0.00     0.016 A 
ATOM     14  C   UNL     1     179.267 181.343 177.273  1.00  0.00     0.051 A 
ATOM     15  C   UNL     1     179.570 181.032 178.602  1.00  0.00     0.157 A 
ATOM     16  C   UNL     1     181.205 179.409 177.820  1.00  0.00     0.062 A 
ATOM     17  C   UNL     1     180.548 180.047 178.879  1.00  0.00     0.158 A 
BRANCH  15  18
ATOM     18  O   UNL     1     178.883 181.716 179.606  1.00  0.00    -0.504 OA
ATOM     19  H   UNL     1     179.332 182.190 180.377  1.00  0.00     0.293 HD
ENDBRANCH  15  18
BRANCH  17  20
ATOM     20  O   UNL     1     180.890 179.669 180.180  1.00  0.00    -0.504 OA
ATOM     21  H   UNL     1     181.370 180.270 180.835  1.00  0.00     0.293 HD
ENDBRANCH  17  20
ENDBRANCH   1  12
BRANCH   2  22
ATOM     22  O   UNL     1     183.360 180.715 175.270  1.00  0.00    -0.502 OA
ATOM     23  H   UNL     1     183.297 181.591 174.765  1.00  0.00     0.293 HD
ENDBRANCH   2  22
BRANCH   6  24
ATOM     24  O   UNL     1     184.460 177.242 171.558  1.00  0.00    -0.507 OA
ATOM     25  H   UNL     1     185.331 176.771 171.771  1.00  0.00     0.293 HD
ENDBRANCH   6  24
BRANCH   8  26
ATOM     26  O   UNL     1     180.679 174.241 171.910  1.00  0.00    -0.508 OA
ATOM     27  H   UNL     1     179.802 174.316 171.406  1.00  0.00     0.293 HD
ENDBRANCH   8  26
TORSDOF 6
ENDMDL
MODEL 3
REMARK VINA RESULT:    -6.281      4.011      6.672
REMARK INTER + INTRA:          -7.898
REMARK INTER:                  -7.590
REMARK INTRA:                  -0.309
REMARK UNBOUND:                -0.332
REMARK SMILES O=c1c(O)c(-c2ccc(O)c(O)c2)oc2cc(O)cc(O)c12
REMARK SMILES IDX 5 1 3 2 2 3 1 4 22 5 20 6 19 7 17 8 16 9 15 10 14 11 6 12
REMARK SMILES IDX 7 13 8 14 9 15 13 16 11 17 10 18 12 20 4 22 21 24 18 26
REMARK H PARENT 10 19 12 21 4 23 21 25 18 27
REMARK Flexibility Score: inf
ROOT
ATOM      1  C   UNL     1     182.423 179.495 174.875  1.00  0.00     0.180 A 
ATOM      2  C   UNL     1     182.707 179.163 176.214  1.00  0.00     0.208 A 
ATOM      3  C   UNL     1     181.798 179.542 177.214  1.00  0.00     0.238 A 
ATOM      4  O   UNL     1     182.046 179.260 178.418  1.00  0.00    -0.285 OA
ATOM      5  C   UNL     1     180.616 180.226 176.860  1.00  0.00     0.111 A 
ATOM      6  C   UNL     1     179.648 180.639 177.805  1.00  0.00     0.134 A 
ATOM      7  C   UNL     1     178.492 181.307 177.371  1.00  0.00     0.093 A 
ATOM      8  C   UNL     1     178.289 181.567 176.011  1.00  0.00     0.123 A 
ATOM      9  C   UNL     1     179.241 181.162 175.076  1.00  0.00     0.094 A 
ATOM     10  C   UNL     1     180.400 180.496 175.487  1.00  0.00     0.146 A 
ATOM     11  O   UNL     1     181.291 180.126 174.576  1.00  0.00    -0.452 OA
ENDROOT
BRANCH   1  12
ATOM     12  C   UNL     1     183.341 179.146 173.767  1.00  0.00     0.025 A 
ATOM     13  C   UNL     1     184.450 179.963 173.508  1.00  0.00     0.016 A 
ATOM     14  C   UNL     1     185.341 179.642 172.482  1.00  0.00     0.051 A 
ATOM     15  C   UNL     1     185.151 178.494 171.705  1.00  0.00     0.157 A 
ATOM     16  C   UNL     1     183.159 177.980 173.003  1.00  0.00     0.062 A 
ATOM     17  C   UNL     1     184.048 177.649 171.974  1.00  0.00     0.158 A 
BRANCH  15  18
ATOM     18  O   UNL     1     186.072 178.233 170.689  1.00  0.00    -0.504 OA
ATOM     19  H   UNL     1     186.632 178.942 170.239  1.00  0.00     0.293 HD
ENDBRANCH  15  18
BRANCH  17  20
ATOM     20  O   UNL     1     183.804 176.476 171.255  1.00  0.00    -0.504 OA
ATOM     21  H   UNL     1     183.163 176.414 170.477  1.00  0.00     0.293 HD
ENDBRANCH  17  20
ENDBRANCH   1  12
BRANCH   2  22
ATOM     22  O   UNL     1     183.860 178.442 176.534  1.00  0.00    -0.502 OA
ATOM     23  H   UNL     1     184.692 178.886 176.903  1.00  0.00     0.293 HD
ENDBRANCH   2  22
BRANCH   6  24
ATOM     24  O   UNL     1     179.822 180.394 179.167  1.00  0.00    -0.507 OA
ATOM     25  H   UNL     1     179.569 179.507 179.586  1.00  0.00     0.293 HD
ENDBRANCH   6  24
BRANCH   8  26
ATOM     26  O   UNL     1     177.141 182.229 175.579  1.00  0.00    -0.508 OA
ATOM     27  H   UNL     1     177.190 183.141 175.138  1.00  0.00     0.293 HD
ENDBRANCH   8  26
TORSDOF 6
ENDMDL
MODEL 4
REMARK VINA RESULT:    -6.273      1.919      6.866
REMARK INTER + INTRA:          -7.889
REMARK INTER:                  -7.581
REMARK INTRA:                  -0.307
REMARK UNBOUND:                -0.332
REMARK SMILES O=c1c(O)c(-c2ccc(O)c(O)c2)oc2cc(O)cc(O)c12
REMARK SMILES IDX 5 1 3 2 2 3 1 4 22 5 20 6 19 7 17 8 16 9 15 10 14 11 6 12
REMARK SMILES IDX 7 13 8 14 9 15 13 16 11 17 10 18 12 20 4 22 21 24 18 26
REMARK H PARENT 10 19 12 21 4 23 21 25 18 27
REMARK Flexibility Score: inf
ROOT
ATOM      1  C   UNL     1     178.327 181.201 174.833  1.00  0.00     0.180 A 
ATOM      2  C   UNL     1     178.067 181.532 176.177  1.00  0.00     0.208 A 
ATOM      3  C   UNL     1     178.990 181.144 177.161  1.00  0.00     0.238 A 
ATOM      4  O   UNL     1     178.764 181.425 178.369  1.00  0.00    -0.285 OA
ATOM      5  C   UNL     1     180.160 180.453 176.786  1.00  0.00     0.111 A 
ATOM      6  C   UNL     1     181.141 180.030 177.714  1.00  0.00     0.134 A 
ATOM      7  C   UNL     1     182.284 179.354 177.260  1.00  0.00     0.093 A 
ATOM      8  C   UNL     1     182.463 179.095 175.896  1.00  0.00     0.123 A 
ATOM      9  C   UNL     1     181.499 179.510 174.977  1.00  0.00     0.094 A 
ATOM     10  C   UNL     1     180.352 180.183 175.409  1.00  0.00     0.146 A 
ATOM     11  O   UNL     1     179.448 180.562 174.514  1.00  0.00    -0.452 OA
ENDROOT
BRANCH   1  12
ATOM     12  C   UNL     1     177.393 181.560 173.741  1.00  0.00     0.025 A 
ATOM     13  C   UNL     1     176.272 180.753 173.500  1.00  0.00     0.016 A 
ATOM     14  C   UNL     1     175.367 181.083 172.489  1.00  0.00     0.051 A 
ATOM     15  C   UNL     1     175.555 182.229 171.710  1.00  0.00     0.157 A 
ATOM     16  C   UNL     1     177.573 182.724 172.975  1.00  0.00     0.062 A 
ATOM     17  C   UNL     1     176.669 183.064 171.960  1.00  0.00     0.158 A 
BRANCH  15  18
ATOM     18  O   UNL     1     174.619 182.499 170.710  1.00  0.00    -0.504 OA
ATOM     19  H   UNL     1     174.050 183.332 170.678  1.00  0.00     0.293 HD
ENDBRANCH  15  18
BRANCH  17  20
ATOM     20  O   UNL     1     176.912 184.235 171.238  1.00  0.00    -0.504 OA
ATOM     21  H   UNL     1     176.272 184.622 170.559  1.00  0.00     0.293 HD
ENDBRANCH  17  20
ENDBRANCH   1  12
BRANCH   2  22
ATOM     22  O   UNL     1     176.925 182.261 176.517  1.00  0.00    -0.502 OA
ATOM     23  H   UNL     1     175.990 181.883 176.416  1.00  0.00     0.293 HD
ENDBRANCH   2  22
BRANCH   6  24
ATOM     24  O   UNL     1     180.991 180.274 179.080  1.00  0.00    -0.507 OA
ATOM     25  H   UNL     1     180.802 181.202 179.438  1.00  0.00     0.293 HD
ENDBRANCH   6  24
BRANCH   8  26
ATOM     26  O   UNL     1     183.599 178.426 175.444  1.00  0.00    -0.508 OA
ATOM     27  H   UNL     1     184.293 178.889 174.868  1.00  0.00     0.293 HD
ENDBRANCH   8  26
TORSDOF 6
ENDMDL
MODEL 5
REMARK VINA RESULT:    -6.108      4.512      6.049
REMARK INTER + INTRA:          -7.690
REMARK INTER:                  -7.421
REMARK INTRA:                  -0.269
REMARK UNBOUND:                -0.332
REMARK SMILES O=c1c(O)c(-c2ccc(O)c(O)c2)oc2cc(O)cc(O)c12
REMARK SMILES IDX 5 1 3 2 2 3 1 4 22 5 20 6 19 7 17 8 16 9 15 10 14 11 6 12
REMARK SMILES IDX 7 13 8 14 9 15 13 16 11 17 10 18 12 20 4 22 21 24 18 26
REMARK H PARENT 10 19 12 21 4 23 21 25 18 27
REMARK Flexibility Score: inf
ROOT
ATOM      1  C   UNL     1     182.039 179.084 174.908  1.00  0.00     0.180 A 
ATOM      2  C   UNL     1     181.366 177.984 174.342  1.00  0.00     0.208 A 
ATOM      3  C   UNL     1     181.900 177.382 173.191  1.00  0.00     0.238 A 
ATOM      4  O   UNL     1     181.302 176.403 172.668  1.00  0.00    -0.285 OA
ATOM      5  C   UNL     1     183.101 177.875 172.640  1.00  0.00     0.111 A 
ATOM      6  C   UNL     1     183.707 177.323 171.486  1.00  0.00     0.134 A 
ATOM      7  C   UNL     1     184.909 177.865 171.005  1.00  0.00     0.093 A 
ATOM      8  C   UNL     1     185.514 178.945 171.656  1.00  0.00     0.123 A 
ATOM      9  C   UNL     1     184.920 179.492 172.794  1.00  0.00     0.094 A 
ATOM     10  C   UNL     1     183.723 178.969 173.289  1.00  0.00     0.146 A 
ATOM     11  O   UNL     1     183.177 179.512 174.370  1.00  0.00    -0.452 OA
ENDROOT
BRANCH   1  12
ATOM     12  C   UNL     1     181.528 179.783 176.110  1.00  0.00     0.025 A 
ATOM     13  C   UNL     1     180.855 181.004 175.963  1.00  0.00     0.016 A 
ATOM     14  C   UNL     1     180.347 181.670 177.080  1.00  0.00     0.051 A 
ATOM     15  C   UNL     1     180.488 181.126 178.360  1.00  0.00     0.157 A 
ATOM     16  C   UNL     1     181.653 179.223 177.392  1.00  0.00     0.062 A 
ATOM     17  C   UNL     1     181.144 179.883 178.518  1.00  0.00     0.158 A 
BRANCH  15  18
ATOM     18  O   UNL     1     179.966 181.846 179.437  1.00  0.00    -0.504 OA
ATOM     19  H   UNL     1     180.018 181.541 180.398  1.00  0.00     0.293 HD
ENDBRANCH  15  18
BRANCH  17  20
ATOM     20  O   UNL     1     181.306 179.268 179.762  1.00  0.00    -0.504 OA
ATOM     21  H   UNL     1     180.696 179.422 180.552  1.00  0.00     0.293 HD
ENDBRANCH  17  20
ENDBRANCH   1  12
BRANCH   2  22
ATOM     22  O   UNL     1     180.205 177.484 174.935  1.00  0.00    -0.502 OA
ATOM     23  H   UNL     1     179.933 176.511 174.860  1.00  0.00     0.293 HD
ENDBRANCH   2  22
BRANCH   6  24
ATOM     24  O   UNL     1     183.128 176.246 170.816  1.00  0.00    -0.507 OA
ATOM     25  H   UNL     1     182.215 176.317 170.380  1.00  0.00     0.293 HD
ENDBRANCH   6  24
BRANCH   8  26
ATOM     26  O   UNL     1     186.708 179.483 171.179  1.00  0.00    -0.508 OA
ATOM     27  H   UNL     1     186.766 179.920 170.266  1.00  0.00     0.293 HD
ENDBRANCH   8  26
TORSDOF 6
ENDMDL
MODEL 6
REMARK VINA RESULT:    -6.082      1.521      3.090
REMARK INTER + INTRA:          -7.659
REMARK INTER:                  -7.401
REMARK INTRA:                  -0.258
REMARK UNBOUND:                -0.332
REMARK SMILES O=c1c(O)c(-c2ccc(O)c(O)c2)oc2cc(O)cc(O)c12
REMARK SMILES IDX 5 1 3 2 2 3 1 4 22 5 20 6 19 7 17 8 16 9 15 10 14 11 6 12
REMARK SMILES IDX 7 13 8 14 9 15 13 16 11 17 10 18 12 20 4 22 21 24 18 26
REMARK H PARENT 10 19 12 21 4 23 21 25 18 27
REMARK Flexibility Score: inf
ROOT
ATOM      1  C   UNL     1     178.675 181.587 174.913  1.00  0.00     0.180 A 
ATOM      2  C   UNL     1     179.356 182.682 174.345  1.00  0.00     0.208 A 
ATOM      3  C   UNL     1     178.840 183.269 173.179  1.00  0.00     0.238 A 
ATOM      4  O   UNL     1     179.446 184.244 172.655  1.00  0.00    -0.285 OA
ATOM      5  C   UNL     1     177.650 182.769 172.613  1.00  0.00     0.111 A 
ATOM      6  C   UNL     1     177.063 183.306 171.443  1.00  0.00     0.134 A 
ATOM      7  C   UNL     1     175.870 182.757 170.947  1.00  0.00     0.093 A 
ATOM      8  C   UNL     1     175.255 181.683 171.600  1.00  0.00     0.123 A 
ATOM      9  C   UNL     1     175.831 181.150 172.754  1.00  0.00     0.094 A 
ATOM     10  C   UNL     1     177.019 181.681 173.264  1.00  0.00     0.146 A 
ATOM     11  O   UNL     1     177.547 181.151 174.360  1.00  0.00    -0.452 OA
ENDROOT
BRANCH   1  12
ATOM     12  C   UNL     1     179.166 180.903 176.131  1.00  0.00     0.025 A 
ATOM     13  C   UNL     1     179.814 179.666 176.012  1.00  0.00     0.016 A 
ATOM     14  C   UNL     1     180.303 179.012 177.145  1.00  0.00     0.051 A 
ATOM     15  C   UNL     1     180.169 179.586 178.414  1.00  0.00     0.157 A 
ATOM     16  C   UNL     1     179.049 181.493 177.401  1.00  0.00     0.062 A 
ATOM     17  C   UNL     1     179.539 180.846 178.542  1.00  0.00     0.158 A 
BRANCH  15  18
ATOM     18  O   UNL     1     180.672 178.878 179.507  1.00  0.00    -0.504 OA
ATOM     19  H   UNL     1     181.607 178.989 179.871  1.00  0.00     0.293 HD
ENDBRANCH  15  18
BRANCH  17  20
ATOM     20  O   UNL     1     179.386 181.491 179.772  1.00  0.00    -0.504 OA
ATOM     21  H   UNL     1     178.492 181.731 180.176  1.00  0.00     0.293 HD
ENDBRANCH  17  20
ENDBRANCH   1  12
BRANCH   2  22
ATOM     22  O   UNL     1     180.506 183.191 174.953  1.00  0.00    -0.502 OA
ATOM     23  H   UNL     1     181.104 182.624 175.542  1.00  0.00     0.293 HD
ENDBRANCH   2  22
BRANCH   6  24
ATOM     24  O   UNL     1     177.652 184.377 170.769  1.00  0.00    -0.507 OA
ATOM     25  H   UNL     1     177.142 185.231 170.576  1.00  0.00     0.293 HD
ENDBRANCH   6  24
BRANCH   8  26
ATOM     26  O   UNL     1     174.070 181.138 171.110  1.00  0.00    -0.508 OA
ATOM     27  H   UNL     1     173.264 181.718 170.907  1.00  0.00     0.293 HD
ENDBRANCH   8  26
TORSDOF 6
ENDMDL
MODEL 7
REMARK VINA RESULT:    -6.069      4.323      6.088
REMARK INTER + INTRA:          -7.643
REMARK INTER:                  -7.327
REMARK INTRA:                  -0.316
REMARK UNBOUND:                -0.332
REMARK SMILES O=c1c(O)c(-c2ccc(O)c(O)c2)oc2cc(O)cc(O)c12
REMARK SMILES IDX 5 1 3 2 2 3 1 4 22 5 20 6 19 7 17 8 16 9 15 10 14 11 6 12
REMARK SMILES IDX 7 13 8 14 9 15 13 16 11 17 10 18 12 20 4 22 21 24 18 26
REMARK H PARENT 10 19 12 21 4 23 21 25 18 27
REMARK Flexibility Score: inf
ROOT
ATOM      1  C   UNL     1     180.722 178.268 175.097  1.00  0.00     0.180 A 
ATOM      2  C   UNL     1     179.923 177.182 174.690  1.00  0.00     0.208 A 
ATOM      3  C   UNL     1     180.336 176.410 173.593  1.00  0.00     0.238 A 
ATOM      4  O   UNL     1     179.625 175.442 173.211  1.00  0.00    -0.285 OA
ATOM      5  C   UNL     1     181.545 176.722 172.936  1.00  0.00     0.111 A 
ATOM      6  C   UNL     1     182.034 175.993 171.827  1.00  0.00     0.134 A 
ATOM      7  C   UNL     1     183.252 176.361 171.233  1.00  0.00     0.093 A 
ATOM      8  C   UNL     1     183.987 177.443 171.730  1.00  0.00     0.123 A 
ATOM      9  C   UNL     1     183.508 178.165 172.824  1.00  0.00     0.094 A 
ATOM     10  C   UNL     1     182.297 177.816 173.428  1.00  0.00     0.146 A 
ATOM     11  O   UNL     1     181.864 178.523 174.464  1.00  0.00    -0.452 OA
ENDROOT
BRANCH   1  12
ATOM     12  C   UNL     1     180.344 179.139 176.233  1.00  0.00     0.025 A 
ATOM     13  C   UNL     1     179.452 180.200 176.021  1.00  0.00     0.016 A 
ATOM     14  C   UNL     1     179.066 181.022 177.082  1.00  0.00     0.051 A 
ATOM     15  C   UNL     1     179.549 180.793 178.374  1.00  0.00     0.157 A 
ATOM     16  C   UNL     1     180.814 178.893 177.535  1.00  0.00     0.062 A 
ATOM     17  C   UNL     1     180.430 179.710 178.605  1.00  0.00     0.158 A 
BRANCH  15  18
ATOM     18  O   UNL     1     179.131 181.656 179.390  1.00  0.00    -0.504 OA
ATOM     19  H   UNL     1     179.661 181.838 180.230  1.00  0.00     0.293 HD
ENDBRANCH  15  18
BRANCH  17  20
ATOM     20  O   UNL     1     180.937 179.407 179.870  1.00  0.00    -0.504 OA
ATOM     21  H   UNL     1     181.894 179.135 180.044  1.00  0.00     0.293 HD
ENDBRANCH  17  20
ENDBRANCH   1  12
BRANCH   2  22
ATOM     22  O   UNL     1     178.756 176.863 175.388  1.00  0.00    -0.502 OA
ATOM     23  H   UNL     1     177.946 176.458 174.934  1.00  0.00     0.293 HD
ENDBRANCH   2  22
BRANCH   6  24
ATOM     24  O   UNL     1     181.323 174.909 171.309  1.00  0.00    -0.507 OA
ATOM     25  H   UNL     1     181.124 174.827 170.319  1.00  0.00     0.293 HD
ENDBRANCH   6  24
BRANCH   8  26
ATOM     26  O   UNL     1     185.197 177.808 171.143  1.00  0.00    -0.508 OA
ATOM     27  H   UNL     1     185.481 178.779 171.075  1.00  0.00     0.293 HD
ENDBRANCH   8  26
TORSDOF 6
ENDMDL
MODEL 8
REMARK VINA RESULT:    -6.039      1.546      7.069
REMARK INTER + INTRA:          -7.607
REMARK INTER:                  -7.280
REMARK INTRA:                  -0.327
REMARK UNBOUND:                -0.332
REMARK SMILES O=c1c(O)c(-c2ccc(O)c(O)c2)oc2cc(O)cc(O)c12
REMARK SMILES IDX 5 1 3 2 2 3 1 4 22 5 20 6 19 7 17 8 16 9 15 10 14 11 6 12
REMARK SMILES IDX 7 13 8 14 9 15 13 16 11 17 10 18 12 20 4 22 21 24 18 26
REMARK H PARENT 10 19 12 21 4 23 21 25 18 27
REMARK Flexibility Score: inf
ROOT
ATOM      1  C   UNL     1     179.888 182.233 174.366  1.00  0.00     0.180 A 
ATOM      2  C   UNL     1     180.947 181.399 173.957  1.00  0.00     0.208 A 
ATOM      3  C   UNL     1     181.557 180.563 174.905  1.00  0.00     0.238 A 
ATOM      4  O   UNL     1     182.512 179.820 174.554  1.00  0.00    -0.285 OA
ATOM      5  C   UNL     1     181.088 180.559 176.236  1.00  0.00     0.111 A 
ATOM      6  C   UNL     1     181.645 179.745 177.250  1.00  0.00     0.134 A 
ATOM      7  C   UNL     1     181.116 179.791 178.549  1.00  0.00     0.093 A 
ATOM      8  C   UNL     1     180.042 180.636 178.850  1.00  0.00     0.123 A 
ATOM      9  C   UNL     1     179.490 181.442 177.853  1.00  0.00     0.094 A 
ATOM     10  C   UNL     1     180.003 181.411 176.553  1.00  0.00     0.146 A 
ATOM     11  O   UNL     1     179.462 182.192 175.626  1.00  0.00    -0.452 OA
ENDROOT
BRANCH   1  12
ATOM     12  C   UNL     1     179.206 183.156 173.429  1.00  0.00     0.025 A 
ATOM     13  C   UNL     1     177.991 182.773 172.847  1.00  0.00     0.016 A 
ATOM     14  C   UNL     1     177.321 183.635 171.977  1.00  0.00     0.051 A 
ATOM     15  C   UNL     1     177.842 184.899 171.683  1.00  0.00     0.157 A 
ATOM     16  C   UNL     1     179.723 184.434 173.154  1.00  0.00     0.062 A 
ATOM     17  C   UNL     1     179.056 185.306 172.285  1.00  0.00     0.158 A 
BRANCH  15  18
ATOM     18  O   UNL     1     177.129 185.711 170.799  1.00  0.00    -0.504 OA
ATOM     19  H   UNL     1     176.706 186.590 171.056  1.00  0.00     0.293 HD
ENDBRANCH  15  18
BRANCH  17  20
ATOM     20  O   UNL     1     179.628 186.560 172.056  1.00  0.00    -0.504 OA
ATOM     21  H   UNL     1     179.977 186.866 171.159  1.00  0.00     0.293 HD
ENDBRANCH  17  20
ENDBRANCH   1  12
BRANCH   2  22
ATOM     22  O   UNL     1     181.359 181.386 172.623  1.00  0.00    -0.502 OA
ATOM     23  H   UNL     1     180.722 181.570 171.856  1.00  0.00     0.293 HD
ENDBRANCH   2  22
BRANCH   6  24
ATOM     24  O   UNL     1     182.716 178.892 176.980  1.00  0.00    -0.507 OA
ATOM     25  H   UNL     1     183.324 178.551 177.715  1.00  0.00     0.293 HD
ENDBRANCH   6  24
BRANCH   8  26
ATOM     26  O   UNL     1     179.515 180.682 180.139  1.00  0.00    -0.508 OA
ATOM     27  H   UNL     1     178.592 181.060 180.321  1.00  0.00     0.293 HD
ENDBRANCH   8  26
TORSDOF 6
ENDMDL
MODEL 9
REMARK VINA RESULT:    -5.982      5.723      8.336
REMARK INTER + INTRA:          -7.538
REMARK INTER:                  -7.241
REMARK INTRA:                  -0.297
REMARK UNBOUND:                -0.332
REMARK SMILES O=c1c(O)c(-c2ccc(O)c(O)c2)oc2cc(O)cc(O)c12
REMARK SMILES IDX 5 1 3 2 2 3 1 4 22 5 20 6 19 7 17 8 16 9 15 10 14 11 6 12
REMARK SMILES IDX 7 13 8 14 9 15 13 16 11 17 10 18 12 20 4 22 21 24 18 26
REMARK H PARENT 10 19 12 21 4 23 21 25 18 27
REMARK Flexibility Score: inf
ROOT
ATOM      1  C   UNL     1     177.549 176.631 172.287  1.00  0.00     0.180 A 
ATOM      2  C   UNL     1     178.793 176.227 172.808  1.00  0.00     0.208 A 
ATOM      3  C   UNL     1     179.391 177.001 173.815  1.00  0.00     0.238 A 
ATOM      4  O   UNL     1     180.509 176.655 174.282  1.00  0.00    -0.285 OA
ATOM      5  C   UNL     1     178.729 178.149 174.297  1.00  0.00     0.111 A 
ATOM      6  C   UNL     1     179.260 178.980 175.311  1.00  0.00     0.134 A 
ATOM      7  C   UNL     1     178.535 180.102 175.743  1.00  0.00     0.093 A 
ATOM      8  C   UNL     1     177.291 180.406 175.180  1.00  0.00     0.123 A 
ATOM      9  C   UNL     1     176.764 179.589 174.179  1.00  0.00     0.094 A 
ATOM     10  C   UNL     1     177.470 178.468 173.733  1.00  0.00     0.146 A 
ATOM     11  O   UNL     1     176.947 177.712 172.776  1.00  0.00    -0.452 OA
ENDROOT
BRANCH   1  12
ATOM     12  C   UNL     1     176.865 175.878 171.211  1.00  0.00     0.025 A 
ATOM     13  C   UNL     1     177.280 176.044 169.882  1.00  0.00     0.016 A 
ATOM     14  C   UNL     1     176.663 175.329 168.854  1.00  0.00     0.051 A 
ATOM     15  C   UNL     1     175.632 174.426 169.132  1.00  0.00     0.157 A 
ATOM     16  C   UNL     1     175.843 174.956 171.497  1.00  0.00     0.062 A 
ATOM     17  C   UNL     1     175.221 174.232 170.472  1.00  0.00     0.158 A 
BRANCH  15  18
ATOM     18  O   UNL     1     175.050 173.748 168.059  1.00  0.00    -0.504 OA
ATOM     19  H   UNL     1     174.900 172.750 168.036  1.00  0.00     0.293 HD
ENDBRANCH  15  18
BRANCH  17  20
ATOM     20  O   UNL     1     174.213 173.334 170.830  1.00  0.00    -0.504 OA
ATOM     21  H   UNL     1     173.996 172.493 170.313  1.00  0.00     0.293 HD
ENDBRANCH  17  20
ENDBRANCH   1  12
BRANCH   2  22
ATOM     22  O   UNL     1     179.404 175.058 172.348  1.00  0.00    -0.502 OA
ATOM     23  H   UNL     1     180.221 174.660 172.797  1.00  0.00     0.293 HD
ENDBRANCH   2  22
BRANCH   6  24
ATOM     24  O   UNL     1     180.498 178.703 175.893  1.00  0.00    -0.507 OA
ATOM     25  H   UNL     1     180.619 177.947 176.556  1.00  0.00     0.293 HD
ENDBRANCH   6  24
BRANCH   8  26
ATOM     26  O   UNL     1     176.570 181.518 175.609  1.00  0.00    -0.508 OA
ATOM     27  H   UNL     1     176.378 182.296 174.988  1.00  0.00     0.293 HD
ENDBRANCH   8  26
TORSDOF 6
ENDMDL
