MODEL 1
REMARK VINA RESULT:    -7.740      0.000      0.000
REMARK INTER + INTRA:         -11.617
REMARK INTER:                 -10.456
REMARK INTRA:                  -1.162
REMARK UNBOUND:                -1.162
REMARK SMILES O=c1c(-c2ccc(O)cc2)coc2c([C@@H]3O[C@H](CO)[C@H](O)[C@H](O)[C@H]3O)c(O)ccc12
REMARK SMILES IDX 3 1 11 2 12 3 13 4 30 5 2 6 1 7 29 8 28 9 26 10 14 11 4 12
REMARK SMILES IDX 5 13 6 14 7 15 10 16 9 17 8 18 15 20 24 21 16 22 22 23 17 24
REMARK SMILES IDX 20 25 25 26 23 28 18 30 19 31 21 33 27 35
REMARK H PARENT 8 19 25 27 23 29 19 32 21 34 27 36
REMARK Flexibility Score: inf
ROOT
ATOM      1  C   UNL     1      -5.928  -3.466  13.845  1.00  0.00     0.065 A 
ATOM      2  C   UNL     1      -4.879  -2.526  13.808  1.00  0.00     0.208 A 
ATOM      3  O   UNL     1      -4.663  -1.845  12.649  1.00  0.00    -0.463 OA
ATOM      4  C   UNL     1      -5.406  -2.044  11.494  1.00  0.00     0.147 A 
ATOM      5  C   UNL     1      -6.490  -2.938  11.526  1.00  0.00     0.066 A 
ATOM      6  C   UNL     1      -6.733  -3.664  12.706  1.00  0.00     0.200 A 
ATOM      7  O   UNL     1      -7.638  -4.545  12.711  1.00  0.00    -0.288 OA
ATOM      8  C   UNL     1      -7.265  -3.128  10.370  1.00  0.00     0.020 A 
ATOM      9  C   UNL     1      -6.921  -2.494   9.177  1.00  0.00     0.047 A 
ATOM     10  C   UNL     1      -5.798  -1.660   9.121  1.00  0.00     0.125 A 
ATOM     11  C   UNL     1      -5.056  -1.382  10.294  1.00  0.00     0.069 A 
ENDROOT
BRANCH   1  12
ATOM     12  C   UNL     1      -6.042  -4.307  15.074  1.00  0.00    -0.011 A 
ATOM     13  C   UNL     1      -5.469  -5.599  15.089  1.00  0.00     0.013 A 
ATOM     14  C   UNL     1      -5.592  -6.422  16.213  1.00  0.00     0.047 A 
ATOM     15  C   UNL     1      -6.297  -5.983  17.337  1.00  0.00     0.115 A 
ATOM     16  C   UNL     1      -6.708  -3.857  16.234  1.00  0.00     0.013 A 
ATOM     17  C   UNL     1      -6.852  -4.701  17.351  1.00  0.00     0.047 A 
BRANCH  15  18
ATOM     18  O   UNL     1      -6.448  -6.820  18.450  1.00  0.00    -0.508 OA
ATOM     19  H   UNL     1      -7.363  -7.133  18.760  1.00  0.00     0.293 HD
ENDBRANCH  15  18
ENDBRANCH   1  12
BRANCH  11  20
ATOM     20  C   UNL     1      -3.829  -0.477  10.252  1.00  0.00     0.188 C 
ATOM     21  C   UNL     1      -2.690  -1.138   9.429  1.00  0.00     0.179 C 
ATOM     22  O   UNL     1      -4.196   0.812   9.759  1.00  0.00    -0.362 OA
ATOM     23  C   UNL     1      -1.402  -0.279   9.492  1.00  0.00     0.177 C 
ATOM     24  C   UNL     1      -3.135   1.599   9.212  1.00  0.00     0.176 C 
ATOM     25  C   UNL     1      -1.726   1.217   9.729  1.00  0.00     0.177 C 
BRANCH  21  26
ATOM     26  O   UNL     1      -2.424  -2.453   9.851  1.00  0.00    -0.387 OA
ATOM     27  H   UNL     1      -2.596  -3.063   9.088  1.00  0.00     0.211 HD
ENDBRANCH  21  26
BRANCH  23  28
ATOM     28  O   UNL     1      -0.671  -0.450   8.304  1.00  0.00    -0.387 OA
ATOM     29  H   UNL     1      -0.139  -1.282   8.406  1.00  0.00     0.211 HD
ENDBRANCH  23  28
BRANCH  24  30
ATOM     30  C   UNL     1      -3.233   1.645   7.672  1.00  0.00     0.191 C 
BRANCH  30  31
ATOM     31  O   UNL     1      -4.541   1.346   7.276  1.00  0.00    -0.394 OA
ATOM     32  H   UNL     1      -5.017   2.216   7.210  1.00  0.00     0.210 HD
ENDBRANCH  30  31
ENDBRANCH  24  30
BRANCH  25  33
ATOM     33  O   UNL     1      -0.746   2.028   9.125  1.00  0.00    -0.388 OA
ATOM     34  H   UNL     1      -0.749   1.827   8.151  1.00  0.00     0.211 HD
ENDBRANCH  25  33
ENDBRANCH  11  20
BRANCH  10  35
ATOM     35  O   UNL     1      -5.420  -1.113   7.895  1.00  0.00    -0.507 OA
ATOM     36  H   UNL     1      -4.449  -1.066   7.601  1.00  0.00     0.293 HD
ENDBRANCH  10  35
TORSDOF 9
ENDMDL
MODEL 2
REMARK VINA RESULT:    -7.564      2.134      3.311
REMARK INTER + INTRA:         -11.379
REMARK INTER:                 -10.233
REMARK INTRA:                  -1.146
REMARK UNBOUND:                -1.162
REMARK SMILES O=c1c(-c2ccc(O)cc2)coc2c([C@@H]3O[C@H](CO)[C@H](O)[C@H](O)[C@H]3O)c(O)ccc12
REMARK SMILES IDX 3 1 11 2 12 3 13 4 30 5 2 6 1 7 29 8 28 9 26 10 14 11 4 12
REMARK SMILES IDX 5 13 6 14 7 15 10 16 9 17 8 18 15 20 24 21 16 22 22 23 17 24
REMARK SMILES IDX 20 25 25 26 23 28 18 30 19 31 21 33 27 35
REMARK H PARENT 8 19 25 27 23 29 19 32 21 34 27 36
REMARK Flexibility Score: inf
ROOT
ATOM      1  C   UNL     1      -5.279  -3.504  14.190  1.00  0.00     0.065 A 
ATOM      2  C   UNL     1      -4.646  -3.565  12.933  1.00  0.00     0.208 A 
ATOM      3  O   UNL     1      -4.188  -2.406  12.384  1.00  0.00    -0.463 OA
ATOM      4  C   UNL     1      -4.331  -1.165  12.986  1.00  0.00     0.147 A 
ATOM      5  C   UNL     1      -4.911  -1.088  14.263  1.00  0.00     0.066 A 
ATOM      6  C   UNL     1      -5.403  -2.267  14.853  1.00  0.00     0.200 A 
ATOM      7  O   UNL     1      -6.020  -2.193  15.953  1.00  0.00    -0.288 OA
ATOM      8  C   UNL     1      -5.038   0.160  14.893  1.00  0.00     0.020 A 
ATOM      9  C   UNL     1      -4.660   1.328  14.230  1.00  0.00     0.047 A 
ATOM     10  C   UNL     1      -4.151   1.264  12.928  1.00  0.00     0.125 A 
ATOM     11  C   UNL     1      -3.929   0.011  12.308  1.00  0.00     0.069 A 
ENDROOT
BRANCH   1  12
ATOM     12  C   UNL     1      -5.908  -4.760  14.695  1.00  0.00    -0.011 A 
ATOM     13  C   UNL     1      -7.302  -4.946  14.553  1.00  0.00     0.013 A 
ATOM     14  C   UNL     1      -7.924  -6.096  15.048  1.00  0.00     0.047 A 
ATOM     15  C   UNL     1      -7.175  -7.078  15.706  1.00  0.00     0.115 A 
ATOM     16  C   UNL     1      -5.157  -5.782  15.315  1.00  0.00     0.013 A 
ATOM     17  C   UNL     1      -5.793  -6.923  15.836  1.00  0.00     0.047 A 
BRANCH  15  18
ATOM     18  O   UNL     1      -7.803  -8.214  16.230  1.00  0.00    -0.508 OA
ATOM     19  H   UNL     1      -7.461  -8.671  17.070  1.00  0.00     0.293 HD
ENDBRANCH  15  18
ENDBRANCH   1  12
BRANCH  11  20
ATOM     20  C   UNL     1      -3.375  -0.078  10.890  1.00  0.00     0.188 C 
ATOM     21  C   UNL     1      -4.419   0.439   9.863  1.00  0.00     0.179 C 
ATOM     22  O   UNL     1      -2.129   0.615  10.814  1.00  0.00    -0.362 OA
ATOM     23  C   UNL     1      -3.908   0.231   8.415  1.00  0.00     0.177 C 
ATOM     24  C   UNL     1      -1.726   1.037   9.508  1.00  0.00     0.176 C 
ATOM     25  C   UNL     1      -2.360   0.226   8.351  1.00  0.00     0.177 C 
BRANCH  21  26
ATOM     26  O   UNL     1      -5.676  -0.169  10.031  1.00  0.00    -0.387 OA
ATOM     27  H   UNL     1      -5.972  -0.013  10.965  1.00  0.00     0.211 HD
ENDBRANCH  21  26
BRANCH  23  28
ATOM     28  O   UNL     1      -4.439   1.235   7.586  1.00  0.00    -0.387 OA
ATOM     29  H   UNL     1      -5.420   1.246   7.735  1.00  0.00     0.211 HD
ENDBRANCH  23  28
BRANCH  24  30
ATOM     30  C   UNL     1      -1.897   2.564   9.355  1.00  0.00     0.191 C 
BRANCH  30  31
ATOM     31  O   UNL     1      -1.881   3.167  10.618  1.00  0.00    -0.394 OA
ATOM     32  H   UNL     1      -2.724   3.690  10.686  1.00  0.00     0.210 HD
ENDBRANCH  30  31
ENDBRANCH  24  30
BRANCH  25  33
ATOM     33  O   UNL     1      -1.923   0.722   7.108  1.00  0.00    -0.388 OA
ATOM     34  H   UNL     1      -2.376   1.594   6.957  1.00  0.00     0.211 HD
ENDBRANCH  25  33
ENDBRANCH  11  20
BRANCH  10  35
ATOM     35  O   UNL     1      -3.870   2.451  12.251  1.00  0.00    -0.507 OA
ATOM     36  H   UNL     1      -4.423   3.292  12.385  1.00  0.00     0.293 HD
ENDBRANCH  10  35
TORSDOF 9
ENDMDL
MODEL 3
REMARK VINA RESULT:    -7.541      2.131      3.237
REMARK INTER + INTRA:         -11.347
REMARK INTER:                 -10.224
REMARK INTRA:                  -1.124
REMARK UNBOUND:                -1.162
REMARK SMILES O=c1c(-c2ccc(O)cc2)coc2c([C@@H]3O[C@H](CO)[C@H](O)[C@H](O)[C@H]3O)c(O)ccc12
REMARK SMILES IDX 3 1 11 2 12 3 13 4 30 5 2 6 1 7 29 8 28 9 26 10 14 11 4 12
REMARK SMILES IDX 5 13 6 14 7 15 10 16 9 17 8 18 15 20 24 21 16 22 22 23 17 24
REMARK SMILES IDX 20 25 25 26 23 28 18 30 19 31 21 33 27 35
REMARK H PARENT 8 19 25 27 23 29 19 32 21 34 27 36
REMARK Flexibility Score: inf
ROOT
ATOM      1  C   UNL     1      -5.382  -3.840  13.638  1.00  0.00     0.065 A 
ATOM      2  C   UNL     1      -5.766  -2.743  12.842  1.00  0.00     0.208 A 
ATOM      3  O   UNL     1      -4.840  -2.192  12.011  1.00  0.00    -0.463 OA
ATOM      4  C   UNL     1      -3.529  -2.640  11.921  1.00  0.00     0.147 A 
ATOM      5  C   UNL     1      -3.141  -3.766  12.666  1.00  0.00     0.066 A 
ATOM      6  C   UNL     1      -4.072  -4.352  13.542  1.00  0.00     0.200 A 
ATOM      7  O   UNL     1      -3.701  -5.297  14.292  1.00  0.00    -0.288 OA
ATOM      8  C   UNL     1      -1.823  -4.243  12.564  1.00  0.00     0.020 A 
ATOM      9  C   UNL     1      -0.885  -3.564  11.788  1.00  0.00     0.047 A 
ATOM     10  C   UNL     1      -1.248  -2.398  11.103  1.00  0.00     0.125 A 
ATOM     11  C   UNL     1      -2.590  -1.950  11.118  1.00  0.00     0.069 A 
ENDROOT
BRANCH   1  12
ATOM     12  C   UNL     1      -6.368  -4.323  14.650  1.00  0.00    -0.011 A 
ATOM     13  C   UNL     1      -6.279  -3.861  15.983  1.00  0.00     0.013 A 
ATOM     14  C   UNL     1      -7.166  -4.324  16.960  1.00  0.00     0.047 A 
ATOM     15  C   UNL     1      -8.149  -5.264  16.634  1.00  0.00     0.115 A 
ATOM     16  C   UNL     1      -7.396  -5.233  14.324  1.00  0.00     0.013 A 
ATOM     17  C   UNL     1      -8.268  -5.716  15.318  1.00  0.00     0.047 A 
BRANCH  15  18
ATOM     18  O   UNL     1      -9.016  -5.751  17.620  1.00  0.00    -0.508 OA
ATOM     19  H   UNL     1      -8.957  -5.436  18.583  1.00  0.00     0.293 HD
ENDBRANCH  15  18
ENDBRANCH   1  12
BRANCH  11  20
ATOM     20  C   UNL     1      -3.004  -0.682  10.378  1.00  0.00     0.188 C 
ATOM     21  C   UNL     1      -2.355   0.567  11.030  1.00  0.00     0.179 C 
ATOM     22  O   UNL     1      -2.695  -0.810   8.990  1.00  0.00    -0.362 OA
ATOM     23  C   UNL     1      -2.874   1.865  10.361  1.00  0.00     0.177 C 
ATOM     24  C   UNL     1      -2.567   0.413   8.262  1.00  0.00     0.176 C 
ATOM     25  C   UNL     1      -3.311   1.614   8.895  1.00  0.00     0.177 C 
BRANCH  21  26
ATOM     26  O   UNL     1      -2.568   0.613  12.420  1.00  0.00    -0.387 OA
ATOM     27  H   UNL     1      -2.741   1.555  12.676  1.00  0.00     0.211 HD
ENDBRANCH  21  26
BRANCH  23  28
ATOM     28  O   UNL     1      -1.875   2.851  10.423  1.00  0.00    -0.387 OA
ATOM     29  H   UNL     1      -1.109   2.459  10.916  1.00  0.00     0.211 HD
ENDBRANCH  23  28
BRANCH  24  30
ATOM     30  C   UNL     1      -1.083   0.705   7.949  1.00  0.00     0.191 C 
BRANCH  30  31
ATOM     31  O   UNL     1      -0.991   1.468   6.780  1.00  0.00    -0.394 OA
ATOM     32  H   UNL     1      -0.429   2.256   7.006  1.00  0.00     0.210 HD
ENDBRANCH  30  31
ENDBRANCH  24  30
BRANCH  25  33
ATOM     33  O   UNL     1      -3.113   2.776   8.124  1.00  0.00    -0.388 OA
ATOM     34  H   UNL     1      -3.177   2.514   7.167  1.00  0.00     0.211 HD
ENDBRANCH  25  33
ENDBRANCH  11  20
BRANCH  10  35
ATOM     35  O   UNL     1      -0.268  -1.686  10.411  1.00  0.00    -0.507 OA
ATOM     36  H   UNL     1       0.603  -1.402  10.849  1.00  0.00     0.293 HD
ENDBRANCH  10  35
TORSDOF 9
ENDMDL
MODEL 4
REMARK VINA RESULT:    -7.074      1.615      2.748
REMARK INTER + INTRA:         -10.717
REMARK INTER:                  -9.960
REMARK INTRA:                  -0.757
REMARK UNBOUND:                -1.162
REMARK SMILES O=c1c(-c2ccc(O)cc2)coc2c([C@@H]3O[C@H](CO)[C@H](O)[C@H](O)[C@H]3O)c(O)ccc12
REMARK SMILES IDX 3 1 11 2 12 3 13 4 30 5 2 6 1 7 29 8 28 9 26 10 14 11 4 12
REMARK SMILES IDX 5 13 6 14 7 15 10 16 9 17 8 18 15 20 24 21 16 22 22 23 17 24
REMARK SMILES IDX 20 25 25 26 23 28 18 30 19 31 21 33 27 35
REMARK H PARENT 8 19 25 27 23 29 19 32 21 34 27 36
REMARK Flexibility Score: inf
ROOT
ATOM      1  C   UNL     1      -6.077  -3.664  14.184  1.00  0.00     0.065 A 
ATOM      2  C   UNL     1      -5.007  -2.750  14.259  1.00  0.00     0.208 A 
ATOM      3  O   UNL     1      -4.712  -2.009  13.156  1.00  0.00    -0.463 OA
ATOM      4  C   UNL     1      -5.393  -2.123  11.953  1.00  0.00     0.147 A 
ATOM      5  C   UNL     1      -6.496  -2.989  11.872  1.00  0.00     0.066 A 
ATOM      6  C   UNL     1      -6.821  -3.776  12.993  1.00  0.00     0.200 A 
ATOM      7  O   UNL     1      -7.744  -4.633  12.896  1.00  0.00    -0.288 OA
ATOM      8  C   UNL     1      -7.209  -3.093  10.666  1.00  0.00     0.020 A 
ATOM      9  C   UNL     1      -6.784  -2.400   9.533  1.00  0.00     0.047 A 
ATOM     10  C   UNL     1      -5.642  -1.594   9.588  1.00  0.00     0.125 A 
ATOM     11  C   UNL     1      -4.961  -1.402  10.814  1.00  0.00     0.069 A 
ENDROOT
BRANCH   1  12
ATOM     12  C   UNL     1      -6.278  -4.571  15.353  1.00  0.00    -0.011 A 
ATOM     13  C   UNL     1      -5.620  -5.821  15.385  1.00  0.00     0.013 A 
ATOM     14  C   UNL     1      -5.819  -6.706  16.450  1.00  0.00     0.047 A 
ATOM     15  C   UNL     1      -6.685  -6.371  17.496  1.00  0.00     0.115 A 
ATOM     16  C   UNL     1      -7.110  -4.224  16.440  1.00  0.00     0.013 A 
ATOM     17  C   UNL     1      -7.327  -5.130  17.494  1.00  0.00     0.047 A 
BRANCH  15  18
ATOM     18  O   UNL     1      -6.908  -7.270  18.545  1.00  0.00    -0.508 OA
ATOM     19  H   UNL     1      -7.787  -7.771  18.638  1.00  0.00     0.293 HD
ENDBRANCH  15  18
ENDBRANCH   1  12
BRANCH  11  20
ATOM     20  C   UNL     1      -3.714  -0.527  10.893  1.00  0.00     0.188 C 
ATOM     21  C   UNL     1      -4.042   0.832  11.567  1.00  0.00     0.179 C 
ATOM     22  O   UNL     1      -2.667  -1.238  11.552  1.00  0.00    -0.362 OA
ATOM     23  C   UNL     1      -2.808   1.769  11.533  1.00  0.00     0.177 C 
ATOM     24  C   UNL     1      -1.631  -0.437  12.126  1.00  0.00     0.176 C 
ATOM     25  C   UNL     1      -1.484   0.967  11.491  1.00  0.00     0.177 C 
BRANCH  21  26
ATOM     26  O   UNL     1      -5.154   1.462  10.981  1.00  0.00    -0.387 OA
ATOM     27  H   UNL     1      -5.758   0.760  10.628  1.00  0.00     0.211 HD
ENDBRANCH  21  26
BRANCH  23  28
ATOM     28  O   UNL     1      -2.842   2.621  12.650  1.00  0.00    -0.387 OA
ATOM     29  H   UNL     1      -2.310   3.427  12.418  1.00  0.00     0.211 HD
ENDBRANCH  23  28
BRANCH  24  30
ATOM     30  C   UNL     1      -1.761  -0.404  13.665  1.00  0.00     0.191 C 
BRANCH  30  31
ATOM     31  O   UNL     1      -1.754  -1.711  14.164  1.00  0.00    -0.394 OA
ATOM     32  H   UNL     1      -0.960  -1.777  14.758  1.00  0.00     0.210 HD
ENDBRANCH  30  31
ENDBRANCH  24  30
BRANCH  25  33
ATOM     33  O   UNL     1      -0.458   1.690  12.130  1.00  0.00    -0.388 OA
ATOM     34  H   UNL     1      -0.889   2.373  12.710  1.00  0.00     0.211 HD
ENDBRANCH  25  33
ENDBRANCH  11  20
BRANCH  10  35
ATOM     35  O   UNL     1      -5.184  -0.987   8.418  1.00  0.00    -0.507 OA
ATOM     36  H   UNL     1      -5.652  -0.184   8.009  1.00  0.00     0.293 HD
ENDBRANCH  10  35
TORSDOF 9
ENDMDL
MODEL 5
REMARK VINA RESULT:    -6.658      2.139      3.536
REMARK INTER + INTRA:         -10.156
REMARK INTER:                  -9.372
REMARK INTRA:                  -0.783
REMARK UNBOUND:                -1.162
REMARK SMILES O=c1c(-c2ccc(O)cc2)coc2c([C@@H]3O[C@H](CO)[C@H](O)[C@H](O)[C@H]3O)c(O)ccc12
REMARK SMILES IDX 3 1 11 2 12 3 13 4 30 5 2 6 1 7 29 8 28 9 26 10 14 11 4 12
REMARK SMILES IDX 5 13 6 14 7 15 10 16 9 17 8 18 15 20 24 21 16 22 22 23 17 24
REMARK SMILES IDX 20 25 25 26 23 28 18 30 19 31 21 33 27 35
REMARK H PARENT 8 19 25 27 23 29 19 32 21 34 27 36
REMARK Flexibility Score: inf
ROOT
ATOM      1  C   UNL     1      -5.630  -4.185  13.933  1.00  0.00     0.065 A 
ATOM      2  C   UNL     1      -6.128  -3.125  13.151  1.00  0.00     0.208 A 
ATOM      3  O   UNL     1      -5.276  -2.503  12.290  1.00  0.00    -0.463 OA
ATOM      4  C   UNL     1      -3.937  -2.843  12.158  1.00  0.00     0.147 A 
ATOM      5  C   UNL     1      -3.434  -3.931  12.889  1.00  0.00     0.066 A 
ATOM      6  C   UNL     1      -4.287  -4.589  13.795  1.00  0.00     0.200 A 
ATOM      7  O   UNL     1      -3.816  -5.499  14.533  1.00  0.00    -0.288 OA
ATOM      8  C   UNL     1      -2.087  -4.300  12.745  1.00  0.00     0.020 A 
ATOM      9  C   UNL     1      -1.232  -3.549  11.939  1.00  0.00     0.047 A 
ATOM     10  C   UNL     1      -1.711  -2.419  11.266  1.00  0.00     0.125 A 
ATOM     11  C   UNL     1      -3.083  -2.082  11.324  1.00  0.00     0.069 A 
ENDROOT
BRANCH   1  12
ATOM     12  C   UNL     1      -6.540  -4.744  14.977  1.00  0.00    -0.011 A 
ATOM     13  C   UNL     1      -6.444  -4.275  16.307  1.00  0.00     0.013 A 
ATOM     14  C   UNL     1      -7.259  -4.806  17.312  1.00  0.00     0.047 A 
ATOM     15  C   UNL     1      -8.175  -5.821  17.018  1.00  0.00     0.115 A 
ATOM     16  C   UNL     1      -7.503  -5.733  14.684  1.00  0.00     0.013 A 
ATOM     17  C   UNL     1      -8.300  -6.282  15.705  1.00  0.00     0.047 A 
BRANCH  15  18
ATOM     18  O   UNL     1      -8.967  -6.375  18.031  1.00  0.00    -0.508 OA
ATOM     19  H   UNL     1      -9.669  -7.081  17.831  1.00  0.00     0.293 HD
ENDBRANCH  15  18
ENDBRANCH   1  12
BRANCH  11  20
ATOM     20  C   UNL     1      -3.623  -0.853  10.598  1.00  0.00     0.188 C 
ATOM     21  C   UNL     1      -4.488  -1.275   9.380  1.00  0.00     0.179 C 
ATOM     22  O   UNL     1      -4.326  -0.019  11.518  1.00  0.00    -0.362 OA
ATOM     23  C   UNL     1      -4.930  -0.031   8.569  1.00  0.00     0.177 C 
ATOM     24  C   UNL     1      -5.274   0.885  10.945  1.00  0.00     0.176 C 
ATOM     25  C   UNL     1      -5.007   1.233   9.460  1.00  0.00     0.177 C 
BRANCH  21  26
ATOM     26  O   UNL     1      -3.822  -2.193   8.547  1.00  0.00    -0.387 OA
ATOM     27  H   UNL     1      -3.836  -1.837   7.622  1.00  0.00     0.211 HD
ENDBRANCH  21  26
BRANCH  23  28
ATOM     28  O   UNL     1      -6.171  -0.290   7.961  1.00  0.00    -0.387 OA
ATOM     29  H   UNL     1      -6.587  -1.042   8.457  1.00  0.00     0.211 HD
ENDBRANCH  23  28
BRANCH  24  30
ATOM     30  C   UNL     1      -6.716   0.400  11.213  1.00  0.00     0.191 C 
BRANCH  30  31
ATOM     31  O   UNL     1      -6.876   0.136  12.578  1.00  0.00    -0.394 OA
ATOM     32  H   UNL     1      -6.887  -0.854  12.670  1.00  0.00     0.210 HD
ENDBRANCH  30  31
ENDBRANCH  24  30
BRANCH  25  33
ATOM     33  O   UNL     1      -5.997   2.110   8.977  1.00  0.00    -0.388 OA
ATOM     34  H   UNL     1      -5.567   2.710   8.311  1.00  0.00     0.211 HD
ENDBRANCH  25  33
ENDBRANCH  11  20
BRANCH  10  35
ATOM     35  O   UNL     1      -0.815  -1.632  10.543  1.00  0.00    -0.507 OA
ATOM     36  H   UNL     1      -0.489  -1.895   9.618  1.00  0.00     0.293 HD
ENDBRANCH  10  35
TORSDOF 9
ENDMDL
MODEL 6
REMARK VINA RESULT:    -6.601      2.348      3.407
REMARK INTER + INTRA:         -10.078
REMARK INTER:                  -9.337
REMARK INTRA:                  -0.741
REMARK UNBOUND:                -1.162
REMARK SMILES O=c1c(-c2ccc(O)cc2)coc2c([C@@H]3O[C@H](CO)[C@H](O)[C@H](O)[C@H]3O)c(O)ccc12
REMARK SMILES IDX 3 1 11 2 12 3 13 4 30 5 2 6 1 7 29 8 28 9 26 10 14 11 4 12
REMARK SMILES IDX 5 13 6 14 7 15 10 16 9 17 8 18 15 20 24 21 16 22 22 23 17 24
REMARK SMILES IDX 20 25 25 26 23 28 18 30 19 31 21 33 27 35
REMARK H PARENT 8 19 25 27 23 29 19 32 21 34 27 36
REMARK Flexibility Score: inf
ROOT
ATOM      1  C   UNL     1      -5.361  -3.726  14.410  1.00  0.00     0.065 A 
ATOM      2  C   UNL     1      -4.741  -3.911  13.158  1.00  0.00     0.208 A 
ATOM      3  O   UNL     1      -4.244  -2.819  12.517  1.00  0.00    -0.463 OA
ATOM      4  C   UNL     1      -4.334  -1.528  13.018  1.00  0.00     0.147 A 
ATOM      5  C   UNL     1      -4.901  -1.329  14.289  1.00  0.00     0.066 A 
ATOM      6  C   UNL     1      -5.433  -2.437  14.973  1.00  0.00     0.200 A 
ATOM      7  O   UNL     1      -6.037  -2.252  16.067  1.00  0.00    -0.288 OA
ATOM      8  C   UNL     1      -4.975  -0.030  14.818  1.00  0.00     0.020 A 
ATOM      9  C   UNL     1      -4.559   1.065  14.062  1.00  0.00     0.047 A 
ATOM     10  C   UNL     1      -4.063   0.879  12.766  1.00  0.00     0.125 A 
ATOM     11  C   UNL     1      -3.894  -0.427  12.247  1.00  0.00     0.069 A 
ENDROOT
BRANCH   1  12
ATOM     12  C   UNL     1      -6.033  -4.914  15.017  1.00  0.00    -0.011 A 
ATOM     13  C   UNL     1      -5.266  -5.850  15.746  1.00  0.00     0.013 A 
ATOM     14  C   UNL     1      -5.862  -6.990  16.294  1.00  0.00     0.047 A 
ATOM     15  C   UNL     1      -7.229  -7.228  16.117  1.00  0.00     0.115 A 
ATOM     16  C   UNL     1      -7.420  -5.140  14.889  1.00  0.00     0.013 A 
ATOM     17  C   UNL     1      -8.009  -6.303  15.419  1.00  0.00     0.047 A 
BRANCH  15  18
ATOM     18  O   UNL     1      -7.820  -8.386  16.638  1.00  0.00    -0.508 OA
ATOM     19  H   UNL     1      -8.275  -9.067  16.038  1.00  0.00     0.293 HD
ENDBRANCH  15  18
ENDBRANCH   1  12
BRANCH  11  20
ATOM     20  C   UNL     1      -3.356  -0.649  10.837  1.00  0.00     0.188 C 
ATOM     21  C   UNL     1      -1.892  -1.162  10.886  1.00  0.00     0.179 C 
ATOM     22  O   UNL     1      -4.229  -1.522  10.120  1.00  0.00    -0.362 OA
ATOM     23  C   UNL     1      -1.303  -1.266   9.456  1.00  0.00     0.177 C 
ATOM     24  C   UNL     1      -3.653  -2.202   9.002  1.00  0.00     0.176 C 
ATOM     25  C   UNL     1      -2.410  -1.502   8.399  1.00  0.00     0.177 C 
BRANCH  21  26
ATOM     26  O   UNL     1      -1.073  -0.356  11.697  1.00  0.00    -0.387 OA
ATOM     27  H   UNL     1      -1.556  -0.176  12.543  1.00  0.00     0.211 HD
ENDBRANCH  21  26
BRANCH  23  28
ATOM     28  O   UNL     1      -0.350  -2.300   9.421  1.00  0.00    -0.387 OA
ATOM     29  H   UNL     1      -0.011  -2.351   8.490  1.00  0.00     0.211 HD
ENDBRANCH  23  28
BRANCH  24  30
ATOM     30  C   UNL     1      -3.418  -3.691   9.335  1.00  0.00     0.191 C 
BRANCH  30  31
ATOM     31  O   UNL     1      -4.602  -4.256   9.821  1.00  0.00    -0.394 OA
ATOM     32  H   UNL     1      -5.304  -3.559   9.719  1.00  0.00     0.210 HD
ENDBRANCH  30  31
ENDBRANCH  24  30
BRANCH  25  33
ATOM     33  O   UNL     1      -1.901  -2.249   7.320  1.00  0.00    -0.388 OA
ATOM     34  H   UNL     1      -2.299  -1.881   6.486  1.00  0.00     0.211 HD
ENDBRANCH  25  33
ENDBRANCH  11  20
BRANCH  10  35
ATOM     35  O   UNL     1      -3.743   1.997  11.996  1.00  0.00    -0.507 OA
ATOM     36  H   UNL     1      -3.143   1.935  11.179  1.00  0.00     0.293 HD
ENDBRANCH  10  35
TORSDOF 9
ENDMDL
MODEL 7
REMARK VINA RESULT:    -6.227      2.135      3.616
REMARK INTER + INTRA:          -9.573
REMARK INTER:                  -9.430
REMARK INTRA:                  -0.144
REMARK UNBOUND:                -1.162
REMARK SMILES O=c1c(-c2ccc(O)cc2)coc2c([C@@H]3O[C@H](CO)[C@H](O)[C@H](O)[C@H]3O)c(O)ccc12
REMARK SMILES IDX 3 1 11 2 12 3 13 4 30 5 2 6 1 7 29 8 28 9 26 10 14 11 4 12
REMARK SMILES IDX 5 13 6 14 7 15 10 16 9 17 8 18 15 20 24 21 16 22 22 23 17 24
REMARK SMILES IDX 20 25 25 26 23 28 18 30 19 31 21 33 27 35
REMARK H PARENT 8 19 25 27 23 29 19 32 21 34 27 36
REMARK Flexibility Score: inf
ROOT
ATOM      1  C   UNL     1      -5.904  -3.285  14.072  1.00  0.00     0.065 A 
ATOM      2  C   UNL     1      -5.964  -3.147  12.671  1.00  0.00     0.208 A 
ATOM      3  O   UNL     1      -5.708  -1.924  12.131  1.00  0.00    -0.463 OA
ATOM      4  C   UNL     1      -5.413  -0.799  12.888  1.00  0.00     0.147 A 
ATOM      5  C   UNL     1      -5.295  -0.927  14.282  1.00  0.00     0.066 A 
ATOM      6  C   UNL     1      -5.563  -2.176  14.871  1.00  0.00     0.200 A 
ATOM      7  O   UNL     1      -5.563  -2.275  16.131  1.00  0.00    -0.288 OA
ATOM      8  C   UNL     1      -4.972   0.199  15.056  1.00  0.00     0.020 A 
ATOM      9  C   UNL     1      -4.840   1.453  14.459  1.00  0.00     0.047 A 
ATOM     10  C   UNL     1      -5.030   1.598  13.080  1.00  0.00     0.125 A 
ATOM     11  C   UNL     1      -5.266   0.464  12.267  1.00  0.00     0.069 A 
ENDROOT
BRANCH   1  12
ATOM     12  C   UNL     1      -6.340  -4.593  14.644  1.00  0.00    -0.011 A 
ATOM     13  C   UNL     1      -5.376  -5.470  15.190  1.00  0.00     0.013 A 
ATOM     14  C   UNL     1      -5.751  -6.717  15.700  1.00  0.00     0.047 A 
ATOM     15  C   UNL     1      -7.090  -7.121  15.666  1.00  0.00     0.115 A 
ATOM     16  C   UNL     1      -7.694  -4.993  14.662  1.00  0.00     0.013 A 
ATOM     17  C   UNL     1      -8.061  -6.260  15.151  1.00  0.00     0.047 A 
BRANCH  15  18
ATOM     18  O   UNL     1      -7.460  -8.383  16.147  1.00  0.00    -0.508 OA
ATOM     19  H   UNL     1      -8.155  -8.951  15.672  1.00  0.00     0.293 HD
ENDBRANCH  15  18
ENDBRANCH   1  12
BRANCH  11  20
ATOM     20  C   UNL     1      -5.476   0.604  10.763  1.00  0.00     0.188 C 
ATOM     21  C   UNL     1      -4.115   0.763  10.034  1.00  0.00     0.179 C 
ATOM     22  O   UNL     1      -6.243  -0.498  10.278  1.00  0.00    -0.362 OA
ATOM     23  C   UNL     1      -4.333   1.032   8.524  1.00  0.00     0.177 C 
ATOM     24  C   UNL     1      -6.123  -0.778   8.881  1.00  0.00     0.176 C 
ATOM     25  C   UNL     1      -5.671   0.431   8.025  1.00  0.00     0.177 C 
BRANCH  21  26
ATOM     26  O   UNL     1      -3.321   1.775  10.603  1.00  0.00    -0.387 OA
ATOM     27  H   UNL     1      -2.418   1.402  10.772  1.00  0.00     0.211 HD
ENDBRANCH  21  26
BRANCH  23  28
ATOM     28  O   UNL     1      -3.249   0.510   7.797  1.00  0.00    -0.387 OA
ATOM     29  H   UNL     1      -3.296  -0.478   7.873  1.00  0.00     0.211 HD
ENDBRANCH  23  28
BRANCH  24  30
ATOM     30  C   UNL     1      -5.271  -2.046   8.653  1.00  0.00     0.191 C 
BRANCH  30  31
ATOM     31  O   UNL     1      -5.509  -2.546   7.368  1.00  0.00    -0.394 OA
ATOM     32  H   UNL     1      -5.554  -3.535   7.460  1.00  0.00     0.210 HD
ENDBRANCH  30  31
ENDBRANCH  24  30
BRANCH  25  33
ATOM     33  O   UNL     1      -5.562   0.059   6.671  1.00  0.00    -0.388 OA
ATOM     34  H   UNL     1      -5.013  -0.769   6.631  1.00  0.00     0.211 HD
ENDBRANCH  25  33
ENDBRANCH  11  20
BRANCH  10  35
ATOM     35  O   UNL     1      -4.986   2.876  12.521  1.00  0.00    -0.507 OA
ATOM     36  H   UNL     1      -5.669   3.590  12.755  1.00  0.00     0.293 HD
ENDBRANCH  10  35
TORSDOF 9
ENDMDL
MODEL 8
REMARK VINA RESULT:    -6.053      1.590      2.044
REMARK INTER + INTRA:          -9.337
REMARK INTER:                  -8.211
REMARK INTRA:                  -1.126
REMARK UNBOUND:                -1.162
REMARK SMILES O=c1c(-c2ccc(O)cc2)coc2c([C@@H]3O[C@H](CO)[C@H](O)[C@H](O)[C@H]3O)c(O)ccc12
REMARK SMILES IDX 3 1 11 2 12 3 13 4 30 5 2 6 1 7 29 8 28 9 26 10 14 11 4 12
REMARK SMILES IDX 5 13 6 14 7 15 10 16 9 17 8 18 15 20 24 21 16 22 22 23 17 24
REMARK SMILES IDX 20 25 25 26 23 28 18 30 19 31 21 33 27 35
REMARK H PARENT 8 19 25 27 23 29 19 32 21 34 27 36
REMARK Flexibility Score: inf
ROOT
ATOM      1  C   UNL     1      -6.543  -4.065  14.451  1.00  0.00     0.065 A 
ATOM      2  C   UNL     1      -5.509  -3.168  14.788  1.00  0.00     0.208 A 
ATOM      3  O   UNL     1      -5.080  -2.292  13.839  1.00  0.00    -0.463 OA
ATOM      4  C   UNL     1      -5.590  -2.249  12.549  1.00  0.00     0.147 A 
ATOM      5  C   UNL     1      -6.657  -3.097  12.209  1.00  0.00     0.066 A 
ATOM      6  C   UNL     1      -7.117  -4.021  13.165  1.00  0.00     0.200 A 
ATOM      7  O   UNL     1      -8.004  -4.858  12.835  1.00  0.00    -0.288 OA
ATOM      8  C   UNL     1      -7.198  -3.045  10.914  1.00  0.00     0.020 A 
ATOM      9  C   UNL     1      -6.637  -2.212   9.947  1.00  0.00     0.047 A 
ATOM     10  C   UNL     1      -5.526  -1.419  10.260  1.00  0.00     0.125 A 
ATOM     11  C   UNL     1      -5.021  -1.387  11.582  1.00  0.00     0.069 A 
ENDROOT
BRANCH   1  12
ATOM     12  C   UNL     1      -6.885  -5.115  15.456  1.00  0.00    -0.011 A 
ATOM     13  C   UNL     1      -8.071  -4.991  16.214  1.00  0.00     0.013 A 
ATOM     14  C   UNL     1      -8.399  -5.940  17.188  1.00  0.00     0.047 A 
ATOM     15  C   UNL     1      -7.548  -7.022  17.436  1.00  0.00     0.115 A 
ATOM     16  C   UNL     1      -6.061  -6.238  15.681  1.00  0.00     0.013 A 
ATOM     17  C   UNL     1      -6.382  -7.174  16.681  1.00  0.00     0.047 A 
BRANCH  15  18
ATOM     18  O   UNL     1      -7.860  -7.954  18.433  1.00  0.00    -0.508 OA
ATOM     19  H   UNL     1      -7.652  -8.942  18.322  1.00  0.00     0.293 HD
ENDBRANCH  15  18
ENDBRANCH   1  12
BRANCH  11  20
ATOM     20  C   UNL     1      -3.811  -0.531  11.941  1.00  0.00     0.188 C 
ATOM     21  C   UNL     1      -2.496  -1.328  11.730  1.00  0.00     0.179 C 
ATOM     22  O   UNL     1      -3.847   0.690  11.201  1.00  0.00    -0.362 OA
ATOM     23  C   UNL     1      -1.275  -0.504  12.214  1.00  0.00     0.177 C 
ATOM     24  C   UNL     1      -2.597   1.367  11.048  1.00  0.00     0.176 C 
ATOM     25  C   UNL     1      -1.546   1.019  12.131  1.00  0.00     0.177 C 
BRANCH  21  26
ATOM     26  O   UNL     1      -2.525  -2.581  12.367  1.00  0.00    -0.387 OA
ATOM     27  H   UNL     1      -1.639  -2.739  12.782  1.00  0.00     0.211 HD
ENDBRANCH  21  26
BRANCH  23  28
ATOM     28  O   UNL     1      -0.147  -0.853  11.452  1.00  0.00    -0.387 OA
ATOM     29  H   UNL     1       0.161  -1.739  11.777  1.00  0.00     0.211 HD
ENDBRANCH  23  28
BRANCH  24  30
ATOM     30  C   UNL     1      -2.068   1.209   9.606  1.00  0.00     0.191 C 
BRANCH  30  31
ATOM     31  O   UNL     1      -1.172   2.245   9.319  1.00  0.00    -0.394 OA
ATOM     32  H   UNL     1      -1.661   2.879   8.730  1.00  0.00     0.210 HD
ENDBRANCH  30  31
ENDBRANCH  24  30
BRANCH  25  33
ATOM     33  O   UNL     1      -0.345   1.714  11.890  1.00  0.00    -0.388 OA
ATOM     34  H   UNL     1       0.384   1.041  11.835  1.00  0.00     0.211 HD
ENDBRANCH  25  33
ENDBRANCH  11  20
BRANCH  10  35
ATOM     35  O   UNL     1      -4.925  -0.667   9.251  1.00  0.00    -0.507 OA
ATOM     36  H   UNL     1      -5.333  -0.583   8.325  1.00  0.00     0.293 HD
ENDBRANCH  10  35
TORSDOF 9
ENDMDL
MODEL 9
REMARK VINA RESULT:    -5.568      2.095      3.390
REMARK INTER + INTRA:          -8.683
REMARK INTER:                  -7.381
REMARK INTRA:                  -1.302
REMARK UNBOUND:                -1.162
REMARK SMILES O=c1c(-c2ccc(O)cc2)coc2c([C@@H]3O[C@H](CO)[C@H](O)[C@H](O)[C@H]3O)c(O)ccc12
REMARK SMILES IDX 3 1 11 2 12 3 13 4 30 5 2 6 1 7 29 8 28 9 26 10 14 11 4 12
REMARK SMILES IDX 5 13 6 14 7 15 10 16 9 17 8 18 15 20 24 21 16 22 22 23 17 24
REMARK SMILES IDX 20 25 25 26 23 28 18 30 19 31 21 33 27 35
REMARK H PARENT 8 19 25 27 23 29 19 32 21 34 27 36
REMARK Flexibility Score: inf
ROOT
ATOM      1  C   UNL     1      -5.569  -4.917  14.488  1.00  0.00     0.065 A 
ATOM      2  C   UNL     1      -6.368  -3.912  13.907  1.00  0.00     0.208 A 
ATOM      3  O   UNL     1      -5.810  -3.114  12.956  1.00  0.00    -0.463 OA
ATOM      4  C   UNL     1      -4.489  -3.222  12.543  1.00  0.00     0.147 A 
ATOM      5  C   UNL     1      -3.692  -4.252  13.071  1.00  0.00     0.066 A 
ATOM      6  C   UNL     1      -4.237  -5.087  14.063  1.00  0.00     0.200 A 
ATOM      7  O   UNL     1      -3.496  -5.947  14.618  1.00  0.00    -0.288 OA
ATOM      8  C   UNL     1      -2.361  -4.386  12.642  1.00  0.00     0.020 A 
ATOM      9  C   UNL     1      -1.808  -3.463  11.755  1.00  0.00     0.047 A 
ATOM     10  C   UNL     1      -2.577  -2.392  11.284  1.00  0.00     0.125 A 
ATOM     11  C   UNL     1      -3.945  -2.288  11.630  1.00  0.00     0.069 A 
ENDROOT
BRANCH   1  12
ATOM     12  C   UNL     1      -6.157  -5.673  15.634  1.00  0.00    -0.011 A 
ATOM     13  C   UNL     1      -6.838  -6.887  15.392  1.00  0.00     0.013 A 
ATOM     14  C   UNL     1      -7.429  -7.597  16.441  1.00  0.00     0.047 A 
ATOM     15  C   UNL     1      -7.366  -7.107  17.750  1.00  0.00     0.115 A 
ATOM     16  C   UNL     1      -6.057  -5.216  16.966  1.00  0.00     0.013 A 
ATOM     17  C   UNL     1      -6.678  -5.921  18.014  1.00  0.00     0.047 A 
BRANCH  15  18
ATOM     18  O   UNL     1      -7.986  -7.802  18.795  1.00  0.00    -0.508 OA
ATOM     19  H   UNL     1      -7.553  -8.613  19.226  1.00  0.00     0.293 HD
ENDBRANCH  15  18
ENDBRANCH   1  12
BRANCH  11  20
ATOM     20  C   UNL     1      -4.797  -1.127  11.127  1.00  0.00     0.188 C 
ATOM     21  C   UNL     1      -4.588   0.129  12.015  1.00  0.00     0.179 C 
ATOM     22  O   UNL     1      -4.520  -0.888   9.748  1.00  0.00    -0.362 OA
ATOM     23  C   UNL     1      -5.547   1.267  11.583  1.00  0.00     0.177 C 
ATOM     24  C   UNL     1      -4.847   0.416   9.261  1.00  0.00     0.176 C 
ATOM     25  C   UNL     1      -5.930   1.153  10.086  1.00  0.00     0.177 C 
BRANCH  21  26
ATOM     26  O   UNL     1      -4.747  -0.154  13.383  1.00  0.00    -0.387 OA
ATOM     27  H   UNL     1      -4.075  -0.837  13.638  1.00  0.00     0.211 HD
ENDBRANCH  21  26
BRANCH  23  28
ATOM     28  O   UNL     1      -4.943   2.508  11.850  1.00  0.00    -0.387 OA
ATOM     29  H   UNL     1      -5.003   2.657  12.830  1.00  0.00     0.211 HD
ENDBRANCH  23  28
BRANCH  24  30
ATOM     30  C   UNL     1      -3.566   1.252   9.044  1.00  0.00     0.191 C 
BRANCH  30  31
ATOM     31  O   UNL     1      -2.684   0.551   8.215  1.00  0.00    -0.394 OA
ATOM     32  H   UNL     1      -1.962   0.207   8.806  1.00  0.00     0.210 HD
ENDBRANCH  30  31
ENDBRANCH  24  30
BRANCH  25  33
ATOM     33  O   UNL     1      -6.174   2.431   9.548  1.00  0.00    -0.388 OA
ATOM     34  H   UNL     1      -5.516   2.578   8.816  1.00  0.00     0.211 HD
ENDBRANCH  25  33
ENDBRANCH  11  20
BRANCH  10  35
ATOM     35  O   UNL     1      -1.973  -1.431  10.473  1.00  0.00    -0.507 OA
ATOM     36  H   UNL     1      -2.172  -1.361   9.480  1.00  0.00     0.293 HD
ENDBRANCH  10  35
TORSDOF 9
ENDMDL
