MODEL 1
REMARK VINA RESULT:    -5.899      0.000      0.000
REMARK INTER + INTRA:          -6.781
REMARK INTER:                  -6.417
REMARK INTRA:                  -0.365
REMARK UNBOUND:                -0.365
REMARK SMILES CC1(C)CC[C@]2(C(=O)[O-])CC[C@]3(C)C(=CC[C@@H]4[C@]5(C)CC[C@H](O)C(C)(C)[C@@H]5CC[C@@]43C)[C@@H]2C1
REMARK SMILES IDX 6 1 5 2 10 3 32 4 4 5 11 6 14 7 33 8 2 9 12 10 15 11 1 12
REMARK SMILES IDX 3 13 13 14 30 15 16 16 17 17 29 18 31 19 18 20 28 21 27 22
REMARK SMILES IDX 20 23 19 24 24 25 21 26 22 27 25 28 26 29 7 30 8 31 9 32
REMARK SMILES IDX 23 33
REMARK H PARENT 23 34
REMARK Flexibility Score: inf
ROOT
ATOM      1  C   UNL     1       8.416  13.875 -20.526  1.00  0.00     0.017 C 
ATOM      2  C   UNL     1       8.532  15.433 -20.359  1.00  0.00     0.014 C 
ATOM      3  C   UNL     1       9.712  13.386 -21.234  1.00  0.00     0.014 C 
ATOM      4  C   UNL     1       7.161  13.477 -21.385  1.00  0.00     0.028 C 
ATOM      5  C   UNL     1       7.173  16.147 -20.376  1.00  0.00     0.007 C 
ATOM      6  C   UNL     1       9.703  11.885 -21.528  1.00  0.00     0.013 C 
ATOM      7  C   UNL     1       7.226  12.096 -22.062  1.00  0.00    -0.064 C 
ATOM      8  C   UNL     1       6.818  14.591 -22.406  1.00  0.00     0.015 C 
ATOM      9  C   UNL     1       6.386  15.918 -21.708  1.00  0.00    -0.035 C 
ATOM     10  C   UNL     1       8.535  11.394 -22.448  1.00  0.00    -0.006 C 
ATOM     11  C   UNL     1       6.059  11.601 -22.518  1.00  0.00    -0.027 C 
ATOM     12  C   UNL     1       4.875  15.885 -21.396  1.00  0.00     0.011 C 
ATOM     13  C   UNL     1       6.645  17.091 -22.683  1.00  0.00     0.011 C 
ATOM     14  C   UNL     1       8.862  11.948 -23.878  1.00  0.00     0.017 C 
ATOM     15  C   UNL     1       8.380   9.742 -22.430  1.00  0.00    -0.020 C 
ATOM     16  C   UNL     1       5.986  10.271 -23.190  1.00  0.00     0.032 C 
ATOM     17  C   UNL     1       6.866   9.239 -22.458  1.00  0.00     0.006 C 
ATOM     18  C   UNL     1       9.080   9.057 -21.212  1.00  0.00     0.008 C 
ATOM     19  C   UNL     1       9.103   9.149 -23.688  1.00  0.00     0.012 C 
ATOM     20  C   UNL     1       6.230   8.661 -21.093  1.00  0.00    -0.025 C 
ATOM     21  C   UNL     1       8.621   7.611 -20.978  1.00  0.00     0.005 C 
ATOM     22  C   UNL     1       7.179   7.572 -20.408  1.00  0.00     0.003 C 
ATOM     23  C   UNL     1       5.907   9.791 -20.072  1.00  0.00     0.010 C 
ATOM     24  C   UNL     1       4.881   7.961 -21.492  1.00  0.00     0.012 C 
ATOM     25  C   UNL     1       7.129   7.474 -18.807  1.00  0.00    -0.006 C 
ATOM     26  C   UNL     1       5.311   9.326 -18.725  1.00  0.00     0.033 C 
ATOM     27  C   UNL     1       5.722   7.899 -18.282  1.00  0.00     0.120 C 
ATOM     28  C   UNL     1       7.361   5.996 -18.405  1.00  0.00     0.014 C 
ATOM     29  C   UNL     1       8.216   8.319 -18.074  1.00  0.00     0.014 C 
ENDROOT
BRANCH   1  30
ATOM     30  C   UNL     1       8.273  13.280 -19.124  1.00  0.00     0.048 C 
ATOM     31  O   UNL     1       7.136  12.945 -18.691  1.00  0.00    -0.550 OA
ATOM     32  O   UNL     1       9.375  13.126 -18.281  1.00  0.00    -0.550 OA
ENDBRANCH   1  30
BRANCH  27  33
ATOM     33  O   UNL     1       5.605   7.749 -16.885  1.00  0.00    -0.393 OA
ATOM     34  H   UNL     1       4.954   7.035 -16.687  1.00  0.00     0.210 HD
ENDBRANCH  27  33
TORSDOF 2
ENDMDL
MODEL 2
REMARK VINA RESULT:    -5.626      2.136      7.016
REMARK INTER + INTRA:          -6.484
REMARK INTER:                  -6.673
REMARK INTRA:                   0.189
REMARK UNBOUND:                -0.365
REMARK SMILES CC1(C)CC[C@]2(C(=O)[O-])CC[C@]3(C)C(=CC[C@@H]4[C@]5(C)CC[C@H](O)C(C)(C)[C@@H]5CC[C@@]43C)[C@@H]2C1
REMARK SMILES IDX 6 1 5 2 10 3 32 4 4 5 11 6 14 7 33 8 2 9 12 10 15 11 1 12
REMARK SMILES IDX 3 13 13 14 30 15 16 16 17 17 29 18 31 19 18 20 28 21 27 22
REMARK SMILES IDX 20 23 19 24 24 25 21 26 22 27 25 28 26 29 7 30 8 31 9 32
REMARK SMILES IDX 23 33
REMARK H PARENT 23 34
REMARK Flexibility Score: inf
ROOT
ATOM      1  C   UNL     1       8.177   8.448 -18.082  1.00  0.00     0.017 C 
ATOM      2  C   UNL     1       8.415   6.999 -17.522  1.00  0.00     0.014 C 
ATOM      3  C   UNL     1       7.809   9.357 -16.874  1.00  0.00     0.014 C 
ATOM      4  C   UNL     1       7.015   8.476 -19.140  1.00  0.00     0.028 C 
ATOM      5  C   UNL     1       8.072   5.895 -18.533  1.00  0.00     0.007 C 
ATOM      6  C   UNL     1       7.478  10.792 -17.286  1.00  0.00     0.013 C 
ATOM      7  C   UNL     1       6.336   9.841 -19.350  1.00  0.00    -0.064 C 
ATOM      8  C   UNL     1       5.974   7.367 -18.843  1.00  0.00     0.015 C 
ATOM      9  C   UNL     1       6.578   5.936 -18.991  1.00  0.00    -0.035 C 
ATOM     10  C   UNL     1       6.277  10.940 -18.279  1.00  0.00    -0.006 C 
ATOM     11  C   UNL     1       5.584   9.968 -20.459  1.00  0.00    -0.027 C 
ATOM     12  C   UNL     1       6.493   5.475 -20.461  1.00  0.00     0.011 C 
ATOM     13  C   UNL     1       5.737   4.959 -18.136  1.00  0.00     0.011 C 
ATOM     14  C   UNL     1       4.994  10.594 -17.445  1.00  0.00     0.017 C 
ATOM     15  C   UNL     1       6.205  12.455 -18.951  1.00  0.00    -0.020 C 
ATOM     16  C   UNL     1       4.876  11.242 -20.780  1.00  0.00     0.032 C 
ATOM     17  C   UNL     1       5.777  12.457 -20.488  1.00  0.00     0.006 C 
ATOM     18  C   UNL     1       7.540  13.259 -18.835  1.00  0.00     0.008 C 
ATOM     19  C   UNL     1       5.157  13.313 -18.163  1.00  0.00     0.012 C 
ATOM     20  C   UNL     1       6.917  12.731 -21.596  1.00  0.00    -0.025 C 
ATOM     21  C   UNL     1       7.607  14.472 -19.773  1.00  0.00     0.005 C 
ATOM     22  C   UNL     1       7.789  14.024 -21.247  1.00  0.00     0.003 C 
ATOM     23  C   UNL     1       7.855  11.504 -21.789  1.00  0.00     0.010 C 
ATOM     24  C   UNL     1       6.166  12.991 -22.951  1.00  0.00     0.012 C 
ATOM     25  C   UNL     1       9.320  14.016 -21.725  1.00  0.00    -0.006 C 
ATOM     26  C   UNL     1       8.991  11.684 -22.819  1.00  0.00     0.033 C 
ATOM     27  C   UNL     1       9.481  13.142 -23.008  1.00  0.00     0.120 C 
ATOM     28  C   UNL     1       9.724  15.468 -22.084  1.00  0.00     0.014 C 
ATOM     29  C   UNL     1      10.331  13.517 -20.647  1.00  0.00     0.014 C 
ENDROOT
BRANCH   1  30
ATOM     30  C   UNL     1       9.478   8.890 -18.754  1.00  0.00     0.048 C 
ATOM     31  O   UNL     1      10.364   8.039 -19.043  1.00  0.00    -0.550 OA
ATOM     32  O   UNL     1       9.735  10.234 -19.032  1.00  0.00    -0.550 OA
ENDBRANCH   1  30
BRANCH  27  33
ATOM     33  O   UNL     1      10.797  13.171 -23.514  1.00  0.00    -0.393 OA
ATOM     34  H   UNL     1      11.316  13.857 -23.031  1.00  0.00     0.210 HD
ENDBRANCH  27  33
TORSDOF 2
ENDMDL
MODEL 3
REMARK VINA RESULT:    -5.587      1.629      6.746
REMARK INTER + INTRA:          -6.442
REMARK INTER:                  -6.116
REMARK INTRA:                  -0.325
REMARK UNBOUND:                -0.365
REMARK SMILES CC1(C)CC[C@]2(C(=O)[O-])CC[C@]3(C)C(=CC[C@@H]4[C@]5(C)CC[C@H](O)C(C)(C)[C@@H]5CC[C@@]43C)[C@@H]2C1
REMARK SMILES IDX 6 1 5 2 10 3 32 4 4 5 11 6 14 7 33 8 2 9 12 10 15 11 1 12
REMARK SMILES IDX 3 13 13 14 30 15 16 16 17 17 29 18 31 19 18 20 28 21 27 22
REMARK SMILES IDX 20 23 19 24 24 25 21 26 22 27 25 28 26 29 7 30 8 31 9 32
REMARK SMILES IDX 23 33
REMARK H PARENT 23 34
REMARK Flexibility Score: inf
ROOT
ATOM      1  C   UNL     1       6.307   8.941 -17.849  1.00  0.00     0.017 C 
ATOM      2  C   UNL     1       6.166   8.103 -16.528  1.00  0.00     0.014 C 
ATOM      3  C   UNL     1       4.879   9.124 -18.438  1.00  0.00     0.014 C 
ATOM      4  C   UNL     1       7.225   8.216 -18.900  1.00  0.00     0.028 C 
ATOM      5  C   UNL     1       7.399   7.240 -16.223  1.00  0.00     0.007 C 
ATOM      6  C   UNL     1       4.875   9.868 -19.775  1.00  0.00     0.013 C 
ATOM      7  C   UNL     1       7.017   8.631 -20.367  1.00  0.00    -0.064 C 
ATOM      8  C   UNL     1       7.145   6.678 -18.731  1.00  0.00     0.015 C 
ATOM      9  C   UNL     1       7.709   6.206 -17.354  1.00  0.00    -0.035 C 
ATOM     10  C   UNL     1       5.695   9.184 -20.920  1.00  0.00    -0.006 C 
ATOM     11  C   UNL     1       7.990   8.282 -21.229  1.00  0.00    -0.027 C 
ATOM     12  C   UNL     1       9.237   6.010 -17.447  1.00  0.00     0.011 C 
ATOM     13  C   UNL     1       7.074   4.839 -17.008  1.00  0.00     0.011 C 
ATOM     14  C   UNL     1       4.880   7.904 -21.318  1.00  0.00     0.017 C 
ATOM     15  C   UNL     1       5.941  10.203 -22.206  1.00  0.00    -0.020 C 
ATOM     16  C   UNL     1       7.911   8.628 -22.679  1.00  0.00     0.032 C 
ATOM     17  C   UNL     1       7.385  10.063 -22.870  1.00  0.00     0.006 C 
ATOM     18  C   UNL     1       5.727  11.713 -21.862  1.00  0.00     0.008 C 
ATOM     19  C   UNL     1       4.875   9.893 -23.312  1.00  0.00     0.012 C 
ATOM     20  C   UNL     1       8.471  11.221 -22.583  1.00  0.00    -0.025 C 
ATOM     21  C   UNL     1       6.318  12.667 -22.909  1.00  0.00     0.005 C 
ATOM     22  C   UNL     1       7.867  12.680 -22.835  1.00  0.00     0.003 C 
ATOM     23  C   UNL     1       9.052  11.137 -21.141  1.00  0.00     0.010 C 
ATOM     24  C   UNL     1       9.647  10.989 -23.598  1.00  0.00     0.012 C 
ATOM     25  C   UNL     1       8.453  13.871 -21.934  1.00  0.00    -0.006 C 
ATOM     26  C   UNL     1      10.086  12.221 -20.771  1.00  0.00     0.033 C 
ATOM     27  C   UNL     1       9.928  13.566 -21.525  1.00  0.00     0.120 C 
ATOM     28  C   UNL     1       8.452  15.167 -22.783  1.00  0.00     0.014 C 
ATOM     29  C   UNL     1       7.627  14.172 -20.646  1.00  0.00     0.014 C 
ENDROOT
BRANCH   1  30
ATOM     30  C   UNL     1       6.943  10.280 -17.468  1.00  0.00     0.048 C 
ATOM     31  O   UNL     1       6.228  11.212 -17.007  1.00  0.00    -0.550 OA
ATOM     32  O   UNL     1       8.307  10.517 -17.648  1.00  0.00    -0.550 OA
ENDBRANCH   1  30
BRANCH  27  33
ATOM     33  O   UNL     1      10.512  14.625 -20.800  1.00  0.00    -0.393 OA
ATOM     34  H   UNL     1      10.135  14.642 -19.888  1.00  0.00     0.210 HD
ENDBRANCH  27  33
TORSDOF 2
ENDMDL
MODEL 4
REMARK VINA RESULT:    -5.553      2.338      4.396
REMARK INTER + INTRA:          -6.404
REMARK INTER:                  -6.116
REMARK INTRA:                  -0.288
REMARK UNBOUND:                -0.365
REMARK SMILES CC1(C)CC[C@]2(C(=O)[O-])CC[C@]3(C)C(=CC[C@@H]4[C@]5(C)CC[C@H](O)C(C)(C)[C@@H]5CC[C@@]43C)[C@@H]2C1
REMARK SMILES IDX 6 1 5 2 10 3 32 4 4 5 11 6 14 7 33 8 2 9 12 10 15 11 1 12
REMARK SMILES IDX 3 13 13 14 30 15 16 16 17 17 29 18 31 19 18 20 28 21 27 22
REMARK SMILES IDX 20 23 19 24 24 25 21 26 22 27 25 28 26 29 7 30 8 31 9 32
REMARK SMILES IDX 23 33
REMARK H PARENT 23 34
REMARK Flexibility Score: inf
ROOT
ATOM      1  C   UNL     1       7.145  12.948 -22.289  1.00  0.00     0.017 C 
ATOM      2  C   UNL     1       7.550  14.051 -23.333  1.00  0.00     0.014 C 
ATOM      3  C   UNL     1       5.805  13.395 -21.638  1.00  0.00     0.014 C 
ATOM      4  C   UNL     1       8.243  12.774 -21.178  1.00  0.00     0.028 C 
ATOM      5  C   UNL     1       9.068  14.181 -23.520  1.00  0.00     0.007 C 
ATOM      6  C   UNL     1       5.327  12.442 -20.541  1.00  0.00     0.013 C 
ATOM      7  C   UNL     1       7.759  12.159 -19.852  1.00  0.00    -0.064 C 
ATOM      8  C   UNL     1       9.001  14.105 -20.939  1.00  0.00     0.015 C 
ATOM      9  C   UNL     1       9.810  14.555 -22.195  1.00  0.00    -0.035 C 
ATOM     10  C   UNL     1       6.314  12.260 -19.340  1.00  0.00    -0.006 C 
ATOM     11  C   UNL     1       8.716  11.702 -19.023  1.00  0.00    -0.027 C 
ATOM     12  C   UNL     1      11.201  13.885 -22.196  1.00  0.00     0.011 C 
ATOM     13  C   UNL     1      10.019  16.085 -22.121  1.00  0.00     0.011 C 
ATOM     14  C   UNL     1       6.280  13.618 -18.555  1.00  0.00     0.017 C 
ATOM     15  C   UNL     1       5.905  10.967 -18.385  1.00  0.00    -0.020 C 
ATOM     16  C   UNL     1       8.378  11.080 -17.709  1.00  0.00     0.032 C 
ATOM     17  C   UNL     1       7.160  10.145 -17.843  1.00  0.00     0.006 C 
ATOM     18  C   UNL     1       4.944   9.950 -19.082  1.00  0.00     0.008 C 
ATOM     19  C   UNL     1       5.101  11.484 -17.144  1.00  0.00     0.012 C 
ATOM     20  C   UNL     1       7.482   8.714 -18.515  1.00  0.00    -0.025 C 
ATOM     21  C   UNL     1       4.875   8.590 -18.373  1.00  0.00     0.005 C 
ATOM     22  C   UNL     1       6.183   7.785 -18.590  1.00  0.00     0.003 C 
ATOM     23  C   UNL     1       8.105   8.859 -19.935  1.00  0.00     0.010 C 
ATOM     24  C   UNL     1       8.539   8.014 -17.587  1.00  0.00     0.012 C 
ATOM     25  C   UNL     1       6.101   6.753 -19.816  1.00  0.00    -0.006 C 
ATOM     26  C   UNL     1       8.427   7.536 -20.663  1.00  0.00     0.033 C 
ATOM     27  C   UNL     1       7.535   6.333 -20.267  1.00  0.00     0.120 C 
ATOM     28  C   UNL     1       5.363   5.481 -19.330  1.00  0.00     0.014 C 
ATOM     29  C   UNL     1       5.320   7.285 -21.056  1.00  0.00     0.014 C 
ENDROOT
BRANCH   1  30
ATOM     30  C   UNL     1       6.996  11.634 -23.057  1.00  0.00     0.048 C 
ATOM     31  O   UNL     1       7.993  10.875 -23.215  1.00  0.00    -0.550 OA
ATOM     32  O   UNL     1       5.779  11.256 -23.628  1.00  0.00    -0.550 OA
ENDBRANCH   1  30
BRANCH  27  33
ATOM     33  O   UNL     1       7.511   5.362 -21.289  1.00  0.00    -0.393 OA
ATOM     34  H   UNL     1       6.656   4.872 -21.252  1.00  0.00     0.210 HD
ENDBRANCH  27  33
TORSDOF 2
ENDMDL
MODEL 5
REMARK VINA RESULT:    -5.009      2.506      6.899
REMARK INTER + INTRA:          -5.812
REMARK INTER:                  -5.602
REMARK INTRA:                  -0.210
REMARK UNBOUND:                -0.365
REMARK SMILES CC1(C)CC[C@]2(C(=O)[O-])CC[C@]3(C)C(=CC[C@@H]4[C@]5(C)CC[C@H](O)C(C)(C)[C@@H]5CC[C@@]43C)[C@@H]2C1
REMARK SMILES IDX 6 1 5 2 10 3 32 4 4 5 11 6 14 7 33 8 2 9 12 10 15 11 1 12
REMARK SMILES IDX 3 13 13 14 30 15 16 16 17 17 29 18 31 19 18 20 28 21 27 22
REMARK SMILES IDX 20 23 19 24 24 25 21 26 22 27 25 28 26 29 7 30 8 31 9 32
REMARK SMILES IDX 23 33
REMARK H PARENT 23 34
REMARK Flexibility Score: inf
ROOT
ATOM      1  C   UNL     1       8.658   7.750 -19.103  1.00  0.00     0.017 C 
ATOM      2  C   UNL     1       8.700   6.307 -18.482  1.00  0.00     0.014 C 
ATOM      3  C   UNL     1       9.751   8.595 -18.387  1.00  0.00     0.014 C 
ATOM      4  C   UNL     1       7.252   8.424 -18.905  1.00  0.00     0.028 C 
ATOM      5  C   UNL     1       7.337   5.600 -18.499  1.00  0.00     0.007 C 
ATOM      6  C   UNL     1       9.774  10.054 -18.845  1.00  0.00     0.013 C 
ATOM      7  C   UNL     1       7.235   9.962 -18.965  1.00  0.00    -0.064 C 
ATOM      8  C   UNL     1       6.568   7.902 -17.616  1.00  0.00     0.015 C 
ATOM      9  C   UNL     1       6.242   6.378 -17.698  1.00  0.00    -0.035 C 
ATOM     10  C   UNL     1       8.442  10.845 -18.617  1.00  0.00    -0.006 C 
ATOM     11  C   UNL     1       6.029  10.538 -19.128  1.00  0.00    -0.027 C 
ATOM     12  C   UNL     1       4.876   6.165 -18.383  1.00  0.00     0.011 C 
ATOM     13  C   UNL     1       6.145   5.820 -16.259  1.00  0.00     0.011 C 
ATOM     14  C   UNL     1       8.333  11.050 -17.065  1.00  0.00     0.017 C 
ATOM     15  C   UNL     1       8.419  12.281 -19.448  1.00  0.00    -0.020 C 
ATOM     16  C   UNL     1       5.877  12.021 -19.206  1.00  0.00     0.032 C 
ATOM     17  C   UNL     1       6.994  12.641 -20.068  1.00  0.00     0.006 C 
ATOM     18  C   UNL     1       9.467  12.356 -20.605  1.00  0.00     0.008 C 
ATOM     19  C   UNL     1       8.821  13.440 -18.473  1.00  0.00     0.012 C 
ATOM     20  C   UNL     1       6.789  12.468 -21.659  1.00  0.00    -0.025 C 
ATOM     21  C   UNL     1       9.195  13.489 -21.603  1.00  0.00     0.005 C 
ATOM     22  C   UNL     1       7.964  13.164 -22.490  1.00  0.00     0.003 C 
ATOM     23  C   UNL     1       6.668  10.973 -22.076  1.00  0.00     0.010 C 
ATOM     24  C   UNL     1       5.438  13.186 -22.015  1.00  0.00     0.012 C 
ATOM     25  C   UNL     1       8.351  12.495 -23.896  1.00  0.00    -0.006 C 
ATOM     26  C   UNL     1       6.491  10.711 -23.587  1.00  0.00     0.033 C 
ATOM     27  C   UNL     1       7.108  11.785 -24.517  1.00  0.00     0.120 C 
ATOM     28  C   UNL     1       8.790  13.622 -24.864  1.00  0.00     0.014 C 
ATOM     29  C   UNL     1       9.529  11.476 -23.823  1.00  0.00     0.014 C 
ENDROOT
BRANCH   1  30
ATOM     30  C   UNL     1       8.939   7.605 -20.599  1.00  0.00     0.048 C 
ATOM     31  O   UNL     1       8.143   8.102 -21.444  1.00  0.00    -0.550 OA
ATOM     32  O   UNL     1      10.048   6.899 -21.069  1.00  0.00    -0.550 OA
ENDBRANCH   1  30
BRANCH  27  33
ATOM     33  O   UNL     1       7.380  11.252 -25.795  1.00  0.00    -0.393 OA
ATOM     34  H   UNL     1       6.540  10.928 -26.198  1.00  0.00     0.210 HD
ENDBRANCH  27  33
TORSDOF 2
ENDMDL
MODEL 6
REMARK VINA RESULT:    -4.878      1.406      6.896
REMARK INTER + INTRA:          -5.671
REMARK INTER:                  -5.805
REMARK INTRA:                   0.135
REMARK UNBOUND:                -0.365
REMARK SMILES CC1(C)CC[C@]2(C(=O)[O-])CC[C@]3(C)C(=CC[C@@H]4[C@]5(C)CC[C@H](O)C(C)(C)[C@@H]5CC[C@@]43C)[C@@H]2C1
REMARK SMILES IDX 6 1 5 2 10 3 32 4 4 5 11 6 14 7 33 8 2 9 12 10 15 11 1 12
REMARK SMILES IDX 3 13 13 14 30 15 16 16 17 17 29 18 31 19 18 20 28 21 27 22
REMARK SMILES IDX 20 23 19 24 24 25 21 26 22 27 25 28 26 29 7 30 8 31 9 32
REMARK SMILES IDX 23 33
REMARK H PARENT 23 34
REMARK Flexibility Score: inf
ROOT
ATOM      1  C   UNL     1       5.848   7.791 -18.238  1.00  0.00     0.017 C 
ATOM      2  C   UNL     1       5.625   6.677 -17.152  1.00  0.00     0.014 C 
ATOM      3  C   UNL     1       4.875   7.493 -19.415  1.00  0.00     0.014 C 
ATOM      4  C   UNL     1       7.329   7.798 -18.763  1.00  0.00     0.028 C 
ATOM      5  C   UNL     1       6.886   6.368 -16.333  1.00  0.00     0.007 C 
ATOM      6  C   UNL     1       5.037   8.465 -20.584  1.00  0.00     0.013 C 
ATOM      7  C   UNL     1       7.542   8.430 -20.151  1.00  0.00    -0.064 C 
ATOM      8  C   UNL     1       7.947   6.379 -18.688  1.00  0.00     0.015 C 
ATOM      9  C   UNL     1       8.075   5.869 -17.218  1.00  0.00    -0.035 C 
ATOM     10  C   UNL     1       6.459   8.491 -21.237  1.00  0.00    -0.006 C 
ATOM     11  C   UNL     1       8.811   8.743 -20.474  1.00  0.00    -0.027 C 
ATOM     12  C   UNL     1       9.400   6.364 -16.600  1.00  0.00     0.011 C 
ATOM     13  C   UNL     1       8.107   4.323 -17.238  1.00  0.00     0.011 C 
ATOM     14  C   UNL     1       6.600   7.126 -21.998  1.00  0.00     0.017 C 
ATOM     15  C   UNL     1       6.662   9.798 -22.240  1.00  0.00    -0.020 C 
ATOM     16  C   UNL     1       9.151   9.365 -21.788  1.00  0.00     0.032 C 
ATOM     17  C   UNL     1       8.118  10.444 -22.165  1.00  0.00     0.006 C 
ATOM     18  C   UNL     1       5.627  10.943 -21.997  1.00  0.00     0.008 C 
ATOM     19  C   UNL     1       6.415   9.347 -23.720  1.00  0.00     0.012 C 
ATOM     20  C   UNL     1       8.292  11.844 -21.382  1.00  0.00    -0.025 C 
ATOM     21  C   UNL     1       6.037  12.281 -22.629  1.00  0.00     0.005 C 
ATOM     22  C   UNL     1       7.212  12.926 -21.848  1.00  0.00     0.003 C 
ATOM     23  C   UNL     1       8.219  11.664 -19.837  1.00  0.00     0.010 C 
ATOM     24  C   UNL     1       9.722  12.383 -21.745  1.00  0.00     0.012 C 
ATOM     25  C   UNL     1       6.736  13.994 -20.750  1.00  0.00    -0.006 C 
ATOM     26  C   UNL     1       8.356  12.958 -19.005  1.00  0.00     0.033 C 
ATOM     27  C   UNL     1       7.876  14.249 -19.714  1.00  0.00     0.120 C 
ATOM     28  C   UNL     1       6.440  15.333 -21.472  1.00  0.00     0.014 C 
ATOM     29  C   UNL     1       5.438  13.597 -19.982  1.00  0.00     0.014 C 
ENDROOT
BRANCH   1  30
ATOM     30  C   UNL     1       5.544   9.135 -17.573  1.00  0.00     0.048 C 
ATOM     31  O   UNL     1       5.266   9.185 -16.343  1.00  0.00    -0.550 OA
ATOM     32  O   UNL     1       5.533  10.324 -18.305  1.00  0.00    -0.550 OA
ENDBRANCH   1  30
BRANCH  27  33
ATOM     33  O   UNL     1       7.532  15.244 -18.776  1.00  0.00    -0.393 OA
ATOM     34  H   UNL     1       7.724  16.133 -19.159  1.00  0.00     0.210 HD
ENDBRANCH  27  33
TORSDOF 2
ENDMDL
MODEL 7
REMARK VINA RESULT:    -4.075      2.557      4.613
REMARK INTER + INTRA:          -4.797
REMARK INTER:                  -5.019
REMARK INTRA:                   0.222
REMARK UNBOUND:                -0.365
REMARK SMILES CC1(C)CC[C@]2(C(=O)[O-])CC[C@]3(C)C(=CC[C@@H]4[C@]5(C)CC[C@H](O)C(C)(C)[C@@H]5CC[C@@]43C)[C@@H]2C1
REMARK SMILES IDX 6 1 5 2 10 3 32 4 4 5 11 6 14 7 33 8 2 9 12 10 15 11 1 12
REMARK SMILES IDX 3 13 13 14 30 15 16 16 17 17 29 18 31 19 18 20 28 21 27 22
REMARK SMILES IDX 20 23 19 24 24 25 21 26 22 27 25 28 26 29 7 30 8 31 9 32
REMARK SMILES IDX 23 33
REMARK H PARENT 23 34
REMARK Flexibility Score: inf
ROOT
ATOM      1  C   UNL     1       6.575  11.516 -22.084  1.00  0.00     0.017 C 
ATOM      2  C   UNL     1       6.421  12.369 -23.394  1.00  0.00     0.014 C 
ATOM      3  C   UNL     1       6.086  12.397 -20.897  1.00  0.00     0.014 C 
ATOM      4  C   UNL     1       8.068  11.086 -21.845  1.00  0.00     0.028 C 
ATOM      5  C   UNL     1       7.453  12.013 -24.474  1.00  0.00     0.007 C 
ATOM      6  C   UNL     1       6.249  11.712 -19.539  1.00  0.00     0.013 C 
ATOM      7  C   UNL     1       8.439  10.740 -20.392  1.00  0.00    -0.064 C 
ATOM      8  C   UNL     1       9.043  12.132 -22.443  1.00  0.00     0.015 C 
ATOM      9  C   UNL     1       8.927  12.226 -23.996  1.00  0.00    -0.035 C 
ATOM     10  C   UNL     1       7.716  11.315 -19.165  1.00  0.00    -0.006 C 
ATOM     11  C   UNL     1       9.591  10.066 -20.215  1.00  0.00    -0.027 C 
ATOM     12  C   UNL     1       9.826  11.162 -24.660  1.00  0.00     0.011 C 
ATOM     13  C   UNL     1       9.430  13.619 -24.441  1.00  0.00     0.011 C 
ATOM     14  C   UNL     1       8.460  12.666 -18.879  1.00  0.00     0.017 C 
ATOM     15  C   UNL     1       7.771  10.276 -17.872  1.00  0.00    -0.020 C 
ATOM     16  C   UNL     1      10.061   9.667 -18.856  1.00  0.00     0.032 C 
ATOM     17  C   UNL     1       8.889   9.146 -18.003  1.00  0.00     0.006 C 
ATOM     18  C   UNL     1       6.412   9.561 -17.581  1.00  0.00     0.008 C 
ATOM     19  C   UNL     1       8.073  11.098 -16.572  1.00  0.00     0.012 C 
ATOM     20  C   UNL     1       8.416   7.644 -18.355  1.00  0.00    -0.025 C 
ATOM     21  C   UNL     1       6.549   8.339 -16.663  1.00  0.00     0.005 C 
ATOM     22  C   UNL     1       7.223   7.158 -17.409  1.00  0.00     0.003 C 
ATOM     23  C   UNL     1       7.995   7.496 -19.847  1.00  0.00     0.010 C 
ATOM     24  C   UNL     1       9.658   6.716 -18.103  1.00  0.00     0.012 C 
ATOM     25  C   UNL     1       6.173   6.123 -18.042  1.00  0.00    -0.006 C 
ATOM     26  C   UNL     1       7.508   6.093 -20.269  1.00  0.00     0.033 C 
ATOM     27  C   UNL     1       6.865   5.252 -19.137  1.00  0.00     0.120 C 
ATOM     28  C   UNL     1       5.688   5.175 -16.917  1.00  0.00     0.014 C 
ATOM     29  C   UNL     1       4.902   6.786 -18.656  1.00  0.00     0.014 C 
ENDROOT
BRANCH   1  30
ATOM     30  C   UNL     1       5.714  10.264 -22.257  1.00  0.00     0.048 C 
ATOM     31  O   UNL     1       4.877   9.942 -21.369  1.00  0.00    -0.550 OA
ATOM     32  O   UNL     1       5.851   9.433 -23.371  1.00  0.00    -0.550 OA
ENDBRANCH   1  30
BRANCH  27  33
ATOM     33  O   UNL     1       6.001   4.271 -19.665  1.00  0.00    -0.393 OA
ATOM     34  H   UNL     1       5.379   3.971 -18.960  1.00  0.00     0.210 HD
ENDBRANCH  27  33
TORSDOF 2
ENDMDL
MODEL 8
REMARK VINA RESULT:    -3.109      1.673      6.570
REMARK INTER + INTRA:          -3.746
REMARK INTER:                  -3.377
REMARK INTRA:                  -0.369
REMARK UNBOUND:                -0.365
REMARK SMILES CC1(C)CC[C@]2(C(=O)[O-])CC[C@]3(C)C(=CC[C@@H]4[C@]5(C)CC[C@H](O)C(C)(C)[C@@H]5CC[C@@]43C)[C@@H]2C1
REMARK SMILES IDX 6 1 5 2 10 3 32 4 4 5 11 6 14 7 33 8 2 9 12 10 15 11 1 12
REMARK SMILES IDX 3 13 13 14 30 15 16 16 17 17 29 18 31 19 18 20 28 21 27 22
REMARK SMILES IDX 20 23 19 24 24 25 21 26 22 27 25 28 26 29 7 30 8 31 9 32
REMARK SMILES IDX 23 33
REMARK H PARENT 23 34
REMARK Flexibility Score: inf
ROOT
ATOM      1  C   UNL     1       7.541   8.452 -19.177  1.00  0.00     0.017 C 
ATOM      2  C   UNL     1       8.036   7.183 -18.394  1.00  0.00     0.014 C 
ATOM      3  C   UNL     1       6.322   8.017 -20.042  1.00  0.00     0.014 C 
ATOM      4  C   UNL     1       8.667   9.036 -20.105  1.00  0.00     0.028 C 
ATOM      5  C   UNL     1       9.543   7.202 -18.100  1.00  0.00     0.007 C 
ATOM      6  C   UNL     1       5.779   9.146 -20.919  1.00  0.00     0.013 C 
ATOM      7  C   UNL     1       8.181   9.896 -21.285  1.00  0.00    -0.064 C 
ATOM      8  C   UNL     1       9.624   7.913 -20.581  1.00  0.00     0.015 C 
ATOM      9  C   UNL     1      10.412   7.269 -19.398  1.00  0.00    -0.035 C 
ATOM     10  C   UNL     1       6.801   9.746 -21.942  1.00  0.00    -0.006 C 
ATOM     11  C   UNL     1       9.110  10.663 -21.885  1.00  0.00    -0.027 C 
ATOM     12  C   UNL     1      11.688   8.086 -19.104  1.00  0.00     0.011 C 
ATOM     13  C   UNL     1      10.846   5.845 -19.817  1.00  0.00     0.011 C 
ATOM     14  C   UNL     1       7.013   8.635 -23.029  1.00  0.00     0.017 C 
ATOM     15  C   UNL     1       6.267  11.175 -22.593  1.00  0.00    -0.020 C 
ATOM     16  C   UNL     1       8.767  11.547 -23.038  1.00  0.00     0.032 C 
ATOM     17  C   UNL     1       7.421  12.257 -22.801  1.00  0.00     0.006 C 
ATOM     18  C   UNL     1       5.127  11.855 -21.768  1.00  0.00     0.008 C 
ATOM     19  C   UNL     1       5.625  10.887 -23.994  1.00  0.00     0.012 C 
ATOM     20  C   UNL     1       7.489  13.503 -21.778  1.00  0.00    -0.025 C 
ATOM     21  C   UNL     1       4.905  13.329 -22.134  1.00  0.00     0.005 C 
ATOM     22  C   UNL     1       6.066  14.213 -21.608  1.00  0.00     0.003 C 
ATOM     23  C   UNL     1       8.037  13.087 -20.382  1.00  0.00     0.010 C 
ATOM     24  C   UNL     1       8.487  14.540 -22.407  1.00  0.00     0.012 C 
ATOM     25  C   UNL     1       5.760  14.886 -20.184  1.00  0.00    -0.006 C 
ATOM     26  C   UNL     1       8.118  14.215 -19.331  1.00  0.00     0.033 C 
ATOM     27  C   UNL     1       7.087  15.357 -19.511  1.00  0.00     0.120 C 
ATOM     28  C   UNL     1       4.875  16.136 -20.419  1.00  0.00     0.014 C 
ATOM     29  C   UNL     1       4.990  13.967 -19.187  1.00  0.00     0.014 C 
ENDROOT
BRANCH   1  30
ATOM     30  C   UNL     1       7.155   9.503 -18.135  1.00  0.00     0.048 C 
ATOM     31  O   UNL     1       7.932  10.467 -17.889  1.00  0.00    -0.550 OA
ATOM     32  O   UNL     1       5.965   9.409 -17.410  1.00  0.00    -0.550 OA
ENDBRANCH   1  30
BRANCH  27  33
ATOM     33  O   UNL     1       6.859  16.030 -18.293  1.00  0.00    -0.393 OA
ATOM     34  H   UNL     1       7.477  15.682 -17.608  1.00  0.00     0.210 HD
ENDBRANCH  27  33
TORSDOF 2
ENDMDL
