MODEL 1
REMARK VINA RESULT:    -5.542      0.000      0.000
REMARK INTER + INTRA:         -12.564
REMARK INTER:                 -10.401
REMARK INTRA:                  -2.163
REMARK UNBOUND:                -2.163
REMARK SMILES O=C([O-])CCCCCCCCCCCCCCC(=O)[O-]
REMARK SMILES IDX 10 1 9 2 8 3 7 4 6 5 5 6 4 7 2 8 1 9 3 10 11 11 12 12 13 13
REMARK SMILES IDX 14 14 15 15 16 16 17 17 18 18 19 19 20 20
REMARK H PARENT
REMARK Flexibility Score: inf
ROOT
ATOM      1  C   UNL     1      13.716  -6.746  13.036  1.00  0.00     0.000 C 
ENDROOT
BRANCH   1   2
ATOM      2  C   UNL     1      13.490  -5.553  12.087  1.00  0.00     0.000 C 
BRANCH   2   3
ATOM      3  C   UNL     1      14.190  -5.667  10.717  1.00  0.00     0.000 C 
BRANCH   3   4
ATOM      4  C   UNL     1      15.499  -4.867  10.587  1.00  0.00     0.000 C 
BRANCH   4   5
ATOM      5  C   UNL     1      16.773  -5.722  10.452  1.00  0.00     0.000 C 
BRANCH   5   6
ATOM      6  C   UNL     1      17.445  -6.054  11.802  1.00  0.00     0.006 C 
BRANCH   6   7
ATOM      7  C   UNL     1      17.675  -4.808  12.666  1.00  0.00     0.053 C 
BRANCH   7   8
ATOM      8  C   UNL     1      19.109  -4.385  12.601  1.00  0.00     0.041 C 
ATOM      9  O   UNL     1      20.022  -5.250  12.546  1.00  0.00    -0.550 OA
ATOM     10  O   UNL     1      19.434  -3.036  12.554  1.00  0.00    -0.550 OA
ENDBRANCH   7   8
ENDBRANCH   6   7
ENDBRANCH   5   6
ENDBRANCH   4   5
ENDBRANCH   3   4
ENDBRANCH   2   3
ENDBRANCH   1   2
BRANCH   1  11
ATOM     11  C   UNL     1      14.550  -6.432  14.295  1.00  0.00     0.000 C 
BRANCH  11  12
ATOM     12  C   UNL     1      14.847  -4.939  14.522  1.00  0.00     0.000 C 
BRANCH  12  13
ATOM     13  C   UNL     1      14.511  -4.473  15.947  1.00  0.00     0.000 C 
BRANCH  13  14
ATOM     14  C   UNL     1      13.679  -3.185  15.921  1.00  0.00     0.000 C 
BRANCH  14  15
ATOM     15  C   UNL     1      12.652  -3.217  14.780  1.00  0.00     0.000 C 
BRANCH  15  16
ATOM     16  C   UNL     1      12.625  -1.911  13.970  1.00  0.00     0.006 C 
BRANCH  16  17
ATOM     17  C   UNL     1      13.180  -2.085  12.550  1.00  0.00     0.053 C 
BRANCH  17  18
ATOM     18  C   UNL     1      14.486  -1.370  12.410  1.00  0.00     0.041 C 
ATOM     19  O   UNL     1      14.575  -0.349  11.677  1.00  0.00    -0.550 OA
ATOM     20  O   UNL     1      15.620  -1.860  13.046  1.00  0.00    -0.550 OA
ENDBRANCH  17  18
ENDBRANCH  16  17
ENDBRANCH  15  16
ENDBRANCH  14  15
ENDBRANCH  13  14
ENDBRANCH  12  13
ENDBRANCH  11  12
ENDBRANCH   1  11
TORSDOF 15
ENDMDL
MODEL 2
REMARK VINA RESULT:    -5.519      2.547      4.748
REMARK INTER + INTRA:         -12.521
REMARK INTER:                 -10.108
REMARK INTRA:                  -2.414
REMARK UNBOUND:                -2.163
REMARK SMILES O=C([O-])CCCCCCCCCCCCCCC(=O)[O-]
REMARK SMILES IDX 10 1 9 2 8 3 7 4 6 5 5 6 4 7 2 8 1 9 3 10 11 11 12 12 13 13
REMARK SMILES IDX 14 14 15 15 16 16 17 17 18 18 19 19 20 20
REMARK H PARENT
REMARK Flexibility Score: inf
ROOT
ATOM      1  C   UNL     1      14.460  -3.256  15.863  1.00  0.00     0.000 C 
ENDROOT
BRANCH   1   2
ATOM      2  C   UNL     1      14.974  -3.207  17.315  1.00  0.00     0.000 C 
BRANCH   2   3
ATOM      3  C   UNL     1      16.307  -2.456  17.510  1.00  0.00     0.000 C 
BRANCH   3   4
ATOM      4  C   UNL     1      17.538  -3.357  17.709  1.00  0.00     0.000 C 
BRANCH   4   5
ATOM      5  C   UNL     1      18.637  -3.203  16.640  1.00  0.00     0.000 C 
BRANCH   5   6
ATOM      6  C   UNL     1      18.413  -4.076  15.387  1.00  0.00     0.006 C 
BRANCH   6   7
ATOM      7  C   UNL     1      17.761  -3.297  14.237  1.00  0.00     0.053 C 
BRANCH   7   8
ATOM      8  C   UNL     1      18.803  -2.588  13.430  1.00  0.00     0.041 C 
ATOM      9  O   UNL     1      19.500  -3.225  12.596  1.00  0.00    -0.550 OA
ATOM     10  O   UNL     1      18.972  -1.217  13.563  1.00  0.00    -0.550 OA
ENDBRANCH   7   8
ENDBRANCH   6   7
ENDBRANCH   5   6
ENDBRANCH   4   5
ENDBRANCH   3   4
ENDBRANCH   2   3
ENDBRANCH   1   2
BRANCH   1  11
ATOM     11  C   UNL     1      14.379  -4.668  15.245  1.00  0.00     0.000 C 
BRANCH  11  12
ATOM     12  C   UNL     1      15.176  -5.751  15.993  1.00  0.00     0.000 C 
BRANCH  12  13
ATOM     13  C   UNL     1      15.834  -6.769  15.049  1.00  0.00     0.000 C 
BRANCH  13  14
ATOM     14  C   UNL     1      15.440  -6.500  13.591  1.00  0.00     0.000 C 
BRANCH  14  15
ATOM     15  C   UNL     1      16.641  -6.689  12.654  1.00  0.00     0.000 C 
BRANCH  15  16
ATOM     16  C   UNL     1      16.761  -5.567  11.610  1.00  0.00     0.006 C 
BRANCH  16  17
ATOM     17  C   UNL     1      15.468  -4.753  11.468  1.00  0.00     0.053 C 
BRANCH  17  18
ATOM     18  C   UNL     1      14.696  -5.206  10.270  1.00  0.00     0.041 C 
ATOM     19  O   UNL     1      15.300  -5.555   9.221  1.00  0.00    -0.550 OA
ATOM     20  O   UNL     1      13.307  -5.195  10.292  1.00  0.00    -0.550 OA
ENDBRANCH  17  18
ENDBRANCH  16  17
ENDBRANCH  15  16
ENDBRANCH  14  15
ENDBRANCH  13  14
ENDBRANCH  12  13
ENDBRANCH  11  12
ENDBRANCH   1  11
TORSDOF 15
ENDMDL
MODEL 3
REMARK VINA RESULT:    -5.443      2.113      2.929
REMARK INTER + INTRA:         -12.380
REMARK INTER:                 -10.038
REMARK INTRA:                  -2.341
REMARK UNBOUND:                -2.163
REMARK SMILES O=C([O-])CCCCCCCCCCCCCCC(=O)[O-]
REMARK SMILES IDX 10 1 9 2 8 3 7 4 6 5 5 6 4 7 2 8 1 9 3 10 11 11 12 12 13 13
REMARK SMILES IDX 14 14 15 15 16 16 17 17 18 18 19 19 20 20
REMARK H PARENT
REMARK Flexibility Score: inf
ROOT
ATOM      1  C   UNL     1      16.997  -5.946  15.969  1.00  0.00     0.000 C 
ENDROOT
BRANCH   1   2
ATOM      2  C   UNL     1      15.602  -6.477  15.586  1.00  0.00     0.000 C 
BRANCH   2   3
ATOM      3  C   UNL     1      15.586  -7.488  14.421  1.00  0.00     0.000 C 
BRANCH   3   4
ATOM      4  C   UNL     1      16.192  -6.972  13.104  1.00  0.00     0.000 C 
BRANCH   4   5
ATOM      5  C   UNL     1      15.545  -5.688  12.550  1.00  0.00     0.000 C 
BRANCH   5   6
ATOM      6  C   UNL     1      16.520  -4.498  12.439  1.00  0.00     0.006 C 
BRANCH   6   7
ATOM      7  C   UNL     1      17.988  -4.942  12.400  1.00  0.00     0.053 C 
BRANCH   7   8
ATOM      8  C   UNL     1      18.850  -3.962  13.131  1.00  0.00     0.041 C 
ATOM      9  O   UNL     1      18.796  -2.736  12.847  1.00  0.00    -0.550 OA
ATOM     10  O   UNL     1      19.678  -4.395  14.159  1.00  0.00    -0.550 OA
ENDBRANCH   7   8
ENDBRANCH   6   7
ENDBRANCH   5   6
ENDBRANCH   4   5
ENDBRANCH   3   4
ENDBRANCH   2   3
ENDBRANCH   1   2
BRANCH   1  11
ATOM     11  C   UNL     1      17.017  -4.516  16.547  1.00  0.00     0.000 C 
BRANCH  11  12
ATOM     12  C   UNL     1      15.955  -3.565  15.966  1.00  0.00     0.000 C 
BRANCH  12  13
ATOM     13  C   UNL     1      14.816  -3.267  16.952  1.00  0.00     0.000 C 
BRANCH  13  14
ATOM     14  C   UNL     1      13.451  -3.365  16.260  1.00  0.00     0.000 C 
BRANCH  14  15
ATOM     15  C   UNL     1      13.609  -3.374  14.733  1.00  0.00     0.000 C 
BRANCH  15  16
ATOM     16  C   UNL     1      12.630  -2.420  14.031  1.00  0.00     0.006 C 
BRANCH  16  17
ATOM     17  C   UNL     1      12.779  -2.438  12.504  1.00  0.00     0.053 C 
BRANCH  17  18
ATOM     18  C   UNL     1      12.193  -3.692  11.937  1.00  0.00     0.041 C 
ATOM     19  O   UNL     1      11.179  -4.215  12.470  1.00  0.00    -0.550 OA
ATOM     20  O   UNL     1      12.797  -4.313  10.851  1.00  0.00    -0.550 OA
ENDBRANCH  17  18
ENDBRANCH  16  17
ENDBRANCH  15  16
ENDBRANCH  14  15
ENDBRANCH  13  14
ENDBRANCH  12  13
ENDBRANCH  11  12
ENDBRANCH   1  11
TORSDOF 15
ENDMDL
MODEL 4
REMARK VINA RESULT:    -5.434      2.760      5.368
REMARK INTER + INTRA:         -12.362
REMARK INTER:                 -10.337
REMARK INTRA:                  -2.025
REMARK UNBOUND:                -2.163
REMARK SMILES O=C([O-])CCCCCCCCCCCCCCC(=O)[O-]
REMARK SMILES IDX 10 1 9 2 8 3 7 4 6 5 5 6 4 7 2 8 1 9 3 10 11 11 12 12 13 13
REMARK SMILES IDX 14 14 15 15 16 16 17 17 18 18 19 19 20 20
REMARK H PARENT
REMARK Flexibility Score: inf
ROOT
ATOM      1  C   UNL     1      15.462  -1.646  12.666  1.00  0.00     0.000 C 
ENDROOT
BRANCH   1   2
ATOM      2  C   UNL     1      14.080  -2.295  12.877  1.00  0.00     0.000 C 
BRANCH   2   3
ATOM      3  C   UNL     1      14.035  -3.395  13.957  1.00  0.00     0.000 C 
BRANCH   3   4
ATOM      4  C   UNL     1      13.295  -3.007  15.250  1.00  0.00     0.000 C 
BRANCH   4   5
ATOM      5  C   UNL     1      13.782  -3.731  16.520  1.00  0.00     0.000 C 
BRANCH   5   6
ATOM      6  C   UNL     1      15.318  -3.855  16.614  1.00  0.00     0.006 C 
BRANCH   6   7
ATOM      7  C   UNL     1      15.959  -2.670  17.346  1.00  0.00     0.053 C 
BRANCH   7   8
ATOM      8  C   UNL     1      17.413  -2.929  17.587  1.00  0.00     0.041 C 
ATOM      9  O   UNL     1      18.206  -3.046  16.615  1.00  0.00    -0.550 OA
ATOM     10  O   UNL     1      17.902  -2.995  18.885  1.00  0.00    -0.550 OA
ENDBRANCH   7   8
ENDBRANCH   6   7
ENDBRANCH   5   6
ENDBRANCH   4   5
ENDBRANCH   3   4
ENDBRANCH   2   3
ENDBRANCH   1   2
BRANCH   1  11
ATOM     11  C   UNL     1      16.557  -2.101  13.653  1.00  0.00     0.000 C 
BRANCH  11  12
ATOM     12  C   UNL     1      17.996  -1.751  13.234  1.00  0.00     0.000 C 
BRANCH  12  13
ATOM     13  C   UNL     1      18.865  -2.994  12.988  1.00  0.00     0.000 C 
BRANCH  13  14
ATOM     14  C   UNL     1      18.046  -4.279  13.154  1.00  0.00     0.000 C 
BRANCH  14  15
ATOM     15  C   UNL     1      18.501  -5.353  12.155  1.00  0.00     0.000 C 
BRANCH  15  16
ATOM     16  C   UNL     1      17.379  -5.785  11.198  1.00  0.00     0.006 C 
BRANCH  16  17
ATOM     17  C   UNL     1      15.981  -5.453  11.738  1.00  0.00     0.053 C 
BRANCH  17  18
ATOM     18  C   UNL     1      15.015  -5.279  10.609  1.00  0.00     0.041 C 
ATOM     19  O   UNL     1      15.433  -5.175   9.426  1.00  0.00    -0.550 OA
ATOM     20  O   UNL     1      13.653  -5.179  10.869  1.00  0.00    -0.550 OA
ENDBRANCH  17  18
ENDBRANCH  16  17
ENDBRANCH  15  16
ENDBRANCH  14  15
ENDBRANCH  13  14
ENDBRANCH  12  13
ENDBRANCH  11  12
ENDBRANCH   1  11
TORSDOF 15
ENDMDL
MODEL 5
REMARK VINA RESULT:    -5.401      2.040      4.322
REMARK INTER + INTRA:         -12.300
REMARK INTER:                  -9.893
REMARK INTRA:                  -2.407
REMARK UNBOUND:                -2.163
REMARK SMILES O=C([O-])CCCCCCCCCCCCCCC(=O)[O-]
REMARK SMILES IDX 10 1 9 2 8 3 7 4 6 5 5 6 4 7 2 8 1 9 3 10 11 11 12 12 13 13
REMARK SMILES IDX 14 14 15 15 16 16 17 17 18 18 19 19 20 20
REMARK H PARENT
REMARK Flexibility Score: inf
ROOT
ATOM      1  C   UNL     1      14.317  -4.742  14.810  1.00  0.00     0.000 C 
ENDROOT
BRANCH   1   2
ATOM      2  C   UNL     1      14.933  -5.921  15.588  1.00  0.00     0.000 C 
BRANCH   2   3
ATOM      3  C   UNL     1      16.080  -6.653  14.862  1.00  0.00     0.000 C 
BRANCH   3   4
ATOM      4  C   UNL     1      15.830  -6.936  13.370  1.00  0.00     0.000 C 
BRANCH   4   5
ATOM      5  C   UNL     1      16.901  -6.377  12.414  1.00  0.00     0.000 C 
BRANCH   5   6
ATOM      6  C   UNL     1      16.322  -5.544  11.251  1.00  0.00     0.006 C 
BRANCH   6   7
ATOM      7  C   UNL     1      14.789  -5.576  11.211  1.00  0.00     0.053 C 
BRANCH   7   8
ATOM      8  C   UNL     1      14.234  -4.191  11.319  1.00  0.00     0.041 C 
ATOM      9  O   UNL     1      14.974  -3.238  11.681  1.00  0.00    -0.550 OA
ATOM     10  O   UNL     1      12.912  -3.942  10.973  1.00  0.00    -0.550 OA
ENDBRANCH   7   8
ENDBRANCH   6   7
ENDBRANCH   5   6
ENDBRANCH   4   5
ENDBRANCH   3   4
ENDBRANCH   2   3
ENDBRANCH   1   2
BRANCH   1  11
ATOM     11  C   UNL     1      14.506  -3.357  15.463  1.00  0.00     0.000 C 
BRANCH  11  12
ATOM     12  C   UNL     1      14.443  -3.350  17.000  1.00  0.00     0.000 C 
BRANCH  12  13
ATOM     13  C   UNL     1      15.712  -2.773  17.647  1.00  0.00     0.000 C 
BRANCH  13  14
ATOM     14  C   UNL     1      16.840  -2.636  16.617  1.00  0.00     0.000 C 
BRANCH  14  15
ATOM     15  C   UNL     1      17.793  -3.839  16.684  1.00  0.00     0.000 C 
BRANCH  15  16
ATOM     16  C   UNL     1      18.581  -4.043  15.380  1.00  0.00     0.006 C 
BRANCH  16  17
ATOM     17  C   UNL     1      17.862  -3.457  14.158  1.00  0.00     0.053 C 
BRANCH  17  18
ATOM     18  C   UNL     1      18.822  -2.686  13.308  1.00  0.00     0.041 C 
ATOM     19  O   UNL     1      18.844  -1.428  13.358  1.00  0.00    -0.550 OA
ATOM     20  O   UNL     1      19.658  -3.354  12.422  1.00  0.00    -0.550 OA
ENDBRANCH  17  18
ENDBRANCH  16  17
ENDBRANCH  15  16
ENDBRANCH  14  15
ENDBRANCH  13  14
ENDBRANCH  12  13
ENDBRANCH  11  12
ENDBRANCH   1  11
TORSDOF 15
ENDMDL
MODEL 6
REMARK VINA RESULT:    -5.347      2.236      4.198
REMARK INTER + INTRA:         -12.198
REMARK INTER:                 -10.252
REMARK INTRA:                  -1.946
REMARK UNBOUND:                -2.163
REMARK SMILES O=C([O-])CCCCCCCCCCCCCCC(=O)[O-]
REMARK SMILES IDX 10 1 9 2 8 3 7 4 6 5 5 6 4 7 2 8 1 9 3 10 11 11 12 12 13 13
REMARK SMILES IDX 14 14 15 15 16 16 17 17 18 18 19 19 20 20
REMARK H PARENT
REMARK Flexibility Score: inf
ROOT
ATOM      1  C   UNL     1      16.070  -7.053  13.575  1.00  0.00     0.000 C 
ENDROOT
BRANCH   1   2
ATOM      2  C   UNL     1      14.808  -6.777  14.414  1.00  0.00     0.000 C 
BRANCH   2   3
ATOM      3  C   UNL     1      15.074  -6.251  15.839  1.00  0.00     0.000 C 
BRANCH   3   4
ATOM      4  C   UNL     1      14.580  -4.818  16.106  1.00  0.00     0.000 C 
BRANCH   4   5
ATOM      5  C   UNL     1      15.691  -3.755  16.204  1.00  0.00     0.000 C 
BRANCH   5   6
ATOM      6  C   UNL     1      17.074  -4.334  16.572  1.00  0.00     0.006 C 
BRANCH   6   7
ATOM      7  C   UNL     1      18.037  -3.263  17.098  1.00  0.00     0.053 C 
BRANCH   7   8
ATOM      8  C   UNL     1      19.147  -3.033  16.121  1.00  0.00     0.041 C 
ATOM      9  O   UNL     1      18.914  -3.047  14.883  1.00  0.00    -0.550 OA
ATOM     10  O   UNL     1      20.429  -2.756  16.577  1.00  0.00    -0.550 OA
ENDBRANCH   7   8
ENDBRANCH   6   7
ENDBRANCH   5   6
ENDBRANCH   4   5
ENDBRANCH   3   4
ENDBRANCH   2   3
ENDBRANCH   1   2
BRANCH   1  11
ATOM     11  C   UNL     1      16.729  -5.803  12.955  1.00  0.00     0.000 C 
BRANCH  11  12
ATOM     12  C   UNL     1      17.262  -5.992  11.523  1.00  0.00     0.000 C 
BRANCH  12  13
ATOM     13  C   UNL     1      16.223  -5.636  10.448  1.00  0.00     0.000 C 
BRANCH  13  14
ATOM     14  C   UNL     1      15.229  -4.591  10.969  1.00  0.00     0.000 C 
BRANCH  14  15
ATOM     15  C   UNL     1      13.786  -5.106  10.863  1.00  0.00     0.000 C 
BRANCH  15  16
ATOM     16  C   UNL     1      12.833  -4.403  11.843  1.00  0.00     0.006 C 
BRANCH  16  17
ATOM     17  C   UNL     1      13.577  -3.674  12.970  1.00  0.00     0.053 C 
BRANCH  17  18
ATOM     18  C   UNL     1      12.713  -2.603  13.557  1.00  0.00     0.041 C 
ATOM     19  O   UNL     1      12.746  -1.435  13.089  1.00  0.00    -0.550 OA
ATOM     20  O   UNL     1      11.910  -2.882  14.656  1.00  0.00    -0.550 OA
ENDBRANCH  17  18
ENDBRANCH  16  17
ENDBRANCH  15  16
ENDBRANCH  14  15
ENDBRANCH  13  14
ENDBRANCH  12  13
ENDBRANCH  11  12
ENDBRANCH   1  11
TORSDOF 15
ENDMDL
MODEL 7
REMARK VINA RESULT:    -5.304      1.926      4.657
REMARK INTER + INTRA:         -12.119
REMARK INTER:                  -9.737
REMARK INTRA:                  -2.382
REMARK UNBOUND:                -2.163
REMARK SMILES O=C([O-])CCCCCCCCCCCCCCC(=O)[O-]
REMARK SMILES IDX 10 1 9 2 8 3 7 4 6 5 5 6 4 7 2 8 1 9 3 10 11 11 12 12 13 13
REMARK SMILES IDX 14 14 15 15 16 16 17 17 18 18 19 19 20 20
REMARK H PARENT
REMARK Flexibility Score: inf
ROOT
ATOM      1  C   UNL     1      16.012  -7.298  13.409  1.00  0.00     0.000 C 
ENDROOT
BRANCH   1   2
ATOM      2  C   UNL     1      16.763  -6.278  12.531  1.00  0.00     0.000 C 
BRANCH   2   3
ATOM      3  C   UNL     1      15.934  -5.051  12.102  1.00  0.00     0.000 C 
BRANCH   3   4
ATOM      4  C   UNL     1      15.289  -5.156  10.708  1.00  0.00     0.000 C 
BRANCH   4   5
ATOM      5  C   UNL     1      13.773  -5.431  10.712  1.00  0.00     0.000 C 
BRANCH   5   6
ATOM      6  C   UNL     1      12.922  -4.215  11.135  1.00  0.00     0.006 C 
BRANCH   6   7
ATOM      7  C   UNL     1      12.266  -4.406  12.508  1.00  0.00     0.053 C 
BRANCH   7   8
ATOM      8  C   UNL     1      12.631  -3.279  13.423  1.00  0.00     0.041 C 
ATOM      9  O   UNL     1      13.625  -2.550  13.164  1.00  0.00    -0.550 OA
ATOM     10  O   UNL     1      11.846  -3.005  14.535  1.00  0.00    -0.550 OA
ENDBRANCH   7   8
ENDBRANCH   6   7
ENDBRANCH   5   6
ENDBRANCH   4   5
ENDBRANCH   3   4
ENDBRANCH   2   3
ENDBRANCH   1   2
BRANCH   1  11
ATOM     11  C   UNL     1      14.749  -6.754  14.108  1.00  0.00     0.000 C 
BRANCH  11  12
ATOM     12  C   UNL     1      14.914  -6.461  15.610  1.00  0.00     0.000 C 
BRANCH  12  13
ATOM     13  C   UNL     1      14.630  -4.993  15.967  1.00  0.00     0.000 C 
BRANCH  13  14
ATOM     14  C   UNL     1      15.855  -4.114  15.691  1.00  0.00     0.000 C 
BRANCH  14  15
ATOM     15  C   UNL     1      17.153  -4.854  16.044  1.00  0.00     0.000 C 
BRANCH  15  16
ATOM     16  C   UNL     1      18.373  -3.921  16.092  1.00  0.00     0.006 C 
BRANCH  16  17
ATOM     17  C   UNL     1      19.383  -4.210  14.974  1.00  0.00     0.053 C 
BRANCH  17  18
ATOM     18  C   UNL     1      19.090  -3.364  13.776  1.00  0.00     0.041 C 
ATOM     19  O   UNL     1      18.493  -2.263  13.908  1.00  0.00    -0.550 OA
ATOM     20  O   UNL     1      19.429  -3.814  12.506  1.00  0.00    -0.550 OA
ENDBRANCH  17  18
ENDBRANCH  16  17
ENDBRANCH  15  16
ENDBRANCH  14  15
ENDBRANCH  13  14
ENDBRANCH  12  13
ENDBRANCH  11  12
ENDBRANCH   1  11
TORSDOF 15
ENDMDL
MODEL 8
REMARK VINA RESULT:    -5.288      2.020      4.025
REMARK INTER + INTRA:         -12.089
REMARK INTER:                  -9.885
REMARK INTRA:                  -2.204
REMARK UNBOUND:                -2.163
REMARK SMILES O=C([O-])CCCCCCCCCCCCCCC(=O)[O-]
REMARK SMILES IDX 10 1 9 2 8 3 7 4 6 5 5 6 4 7 2 8 1 9 3 10 11 11 12 12 13 13
REMARK SMILES IDX 14 14 15 15 16 16 17 17 18 18 19 19 20 20
REMARK H PARENT
REMARK Flexibility Score: inf
ROOT
ATOM      1  C   UNL     1      14.867  -5.673  15.855  1.00  0.00     0.000 C 
ENDROOT
BRANCH   1   2
ATOM      2  C   UNL     1      15.003  -4.148  15.678  1.00  0.00     0.000 C 
BRANCH   2   3
ATOM      3  C   UNL     1      14.945  -3.332  16.986  1.00  0.00     0.000 C 
BRANCH   3   4
ATOM      4  C   UNL     1      16.277  -2.684  17.407  1.00  0.00     0.000 C 
BRANCH   4   5
ATOM      5  C   UNL     1      17.496  -3.626  17.376  1.00  0.00     0.000 C 
BRANCH   5   6
ATOM      6  C   UNL     1      18.611  -3.168  16.412  1.00  0.00     0.006 C 
BRANCH   6   7
ATOM      7  C   UNL     1      18.755  -4.094  15.198  1.00  0.00     0.053 C 
BRANCH   7   8
ATOM      8  C   UNL     1      18.526  -3.334  13.930  1.00  0.00     0.041 C 
ATOM      9  O   UNL     1      17.580  -2.505  13.850  1.00  0.00    -0.550 OA
ATOM     10  O   UNL     1      19.385  -3.504  12.852  1.00  0.00    -0.550 OA
ENDBRANCH   7   8
ENDBRANCH   6   7
ENDBRANCH   5   6
ENDBRANCH   4   5
ENDBRANCH   3   4
ENDBRANCH   2   3
ENDBRANCH   1   2
BRANCH   1  11
ATOM     11  C   UNL     1      15.963  -6.512  15.168  1.00  0.00     0.000 C 
BRANCH  11  12
ATOM     12  C   UNL     1      15.651  -6.927  13.719  1.00  0.00     0.000 C 
BRANCH  12  13
ATOM     13  C   UNL     1      16.339  -6.030  12.679  1.00  0.00     0.000 C 
BRANCH  13  14
ATOM     14  C   UNL     1      15.322  -5.115  11.984  1.00  0.00     0.000 C 
BRANCH  14  15
ATOM     15  C   UNL     1      13.901  -5.684  12.104  1.00  0.00     0.000 C 
BRANCH  15  16
ATOM     16  C   UNL     1      12.907  -4.674  12.700  1.00  0.00     0.006 C 
BRANCH  16  17
ATOM     17  C   UNL     1      12.734  -3.428  11.822  1.00  0.00     0.053 C 
BRANCH  17  18
ATOM     18  C   UNL     1      12.942  -2.187  12.632  1.00  0.00     0.041 C 
ATOM     19  O   UNL     1      13.521  -1.189  12.127  1.00  0.00    -0.550 OA
ATOM     20  O   UNL     1      12.543  -2.150  13.963  1.00  0.00    -0.550 OA
ENDBRANCH  17  18
ENDBRANCH  16  17
ENDBRANCH  15  16
ENDBRANCH  14  15
ENDBRANCH  13  14
ENDBRANCH  12  13
ENDBRANCH  11  12
ENDBRANCH   1  11
TORSDOF 15
ENDMDL
MODEL 9
REMARK VINA RESULT:    -5.285      1.805      5.161
REMARK INTER + INTRA:         -12.083
REMARK INTER:                  -9.967
REMARK INTRA:                  -2.116
REMARK UNBOUND:                -2.163
REMARK SMILES O=C([O-])CCCCCCCCCCCCCCC(=O)[O-]
REMARK SMILES IDX 10 1 9 2 8 3 7 4 6 5 5 6 4 7 2 8 1 9 3 10 11 11 12 12 13 13
REMARK SMILES IDX 14 14 15 15 16 16 17 17 18 18 19 19 20 20
REMARK H PARENT
REMARK Flexibility Score: inf
ROOT
ATOM      1  C   UNL     1      13.746  -6.093  12.860  1.00  0.00     0.000 C 
ENDROOT
BRANCH   1   2
ATOM      2  C   UNL     1      14.664  -7.122  13.547  1.00  0.00     0.000 C 
BRANCH   2   3
ATOM      3  C   UNL     1      14.878  -6.900  15.058  1.00  0.00     0.000 C 
BRANCH   3   4
ATOM      4  C   UNL     1      15.871  -5.780  15.417  1.00  0.00     0.000 C 
BRANCH   4   5
ATOM      5  C   UNL     1      15.243  -4.544  16.089  1.00  0.00     0.000 C 
BRANCH   5   6
ATOM      6  C   UNL     1      14.750  -3.475  15.090  1.00  0.00     0.006 C 
BRANCH   6   7
ATOM      7  C   UNL     1      13.301  -3.047  15.355  1.00  0.00     0.053 C 
BRANCH   7   8
ATOM      8  C   UNL     1      12.614  -2.705  14.070  1.00  0.00     0.041 C 
ATOM      9  O   UNL     1      11.735  -3.473  13.598  1.00  0.00    -0.550 OA
ATOM     10  O   UNL     1      12.911  -1.515  13.418  1.00  0.00    -0.550 OA
ENDBRANCH   7   8
ENDBRANCH   6   7
ENDBRANCH   5   6
ENDBRANCH   4   5
ENDBRANCH   3   4
ENDBRANCH   2   3
ENDBRANCH   1   2
BRANCH   1  11
ATOM     11  C   UNL     1      14.221  -5.615  11.473  1.00  0.00     0.000 C 
BRANCH  11  12
ATOM     12  C   UNL     1      15.571  -4.877  11.467  1.00  0.00     0.000 C 
BRANCH  12  13
ATOM     13  C   UNL     1      16.696  -5.695  10.814  1.00  0.00     0.000 C 
BRANCH  13  14
ATOM     14  C   UNL     1      17.945  -5.719  11.704  1.00  0.00     0.000 C 
BRANCH  14  15
ATOM     15  C   UNL     1      17.785  -4.770  12.901  1.00  0.00     0.000 C 
BRANCH  15  16
ATOM     16  C   UNL     1      18.744  -3.571  12.839  1.00  0.00     0.006 C 
BRANCH  16  17
ATOM     17  C   UNL     1      18.424  -2.503  13.893  1.00  0.00     0.053 C 
BRANCH  17  18
ATOM     18  C   UNL     1      17.762  -1.323  13.254  1.00  0.00     0.041 C 
ATOM     19  O   UNL     1      16.656  -1.458  12.666  1.00  0.00    -0.550 OA
ATOM     20  O   UNL     1      18.390  -0.084  13.263  1.00  0.00    -0.550 OA
ENDBRANCH  17  18
ENDBRANCH  16  17
ENDBRANCH  15  16
ENDBRANCH  14  15
ENDBRANCH  13  14
ENDBRANCH  12  13
ENDBRANCH  11  12
ENDBRANCH   1  11
TORSDOF 15
ENDMDL
