MODEL 1
REMARK VINA RESULT:    -5.708      0.000      0.000
REMARK INTER + INTRA:          -9.246
REMARK INTER:                  -8.711
REMARK INTRA:                  -0.534
REMARK UNBOUND:                -0.534
REMARK SMILES CCCCCCCCCCC(=O)[O-]
REMARK SMILES IDX 7 1 8 2 9 3 10 4 11 5 12 6 13 7 6 8 5 9 4 10 3 11 2 12 1 13
REMARK H PARENT
REMARK Flexibility Score: inf
ROOT
ATOM      1  C   UNL     1      -4.451  27.411  55.453  1.00  0.00     0.000 C 
ENDROOT
BRANCH   1   2
ATOM      2  C   UNL     1      -4.614  28.587  56.432  1.00  0.00     0.000 C 
BRANCH   2   3
ATOM      3  C   UNL     1      -3.405  29.535  56.437  1.00  0.00     0.006 C 
BRANCH   3   4
ATOM      4  C   UNL     1      -3.022  29.928  57.866  1.00  0.00     0.053 C 
BRANCH   4   5
ATOM      5  C   UNL     1      -4.080  30.795  58.473  1.00  0.00     0.041 C 
ATOM      6  O   UNL     1      -4.770  30.372  59.437  1.00  0.00    -0.550 OA
ATOM      7  O   UNL     1      -4.270  32.090  58.006  1.00  0.00    -0.550 OA
ENDBRANCH   4   5
ENDBRANCH   3   4
ENDBRANCH   2   3
ENDBRANCH   1   2
BRANCH   1   8
ATOM      8  C   UNL     1      -3.131  26.630  55.589  1.00  0.00     0.000 C 
BRANCH   8   9
ATOM      9  C   UNL     1      -2.467  26.337  54.232  1.00  0.00    -0.000 C 
BRANCH   9  10
ATOM     10  C   UNL     1      -3.484  26.348  53.078  1.00  0.00    -0.000 C 
BRANCH  10  11
ATOM     11  C   UNL     1      -2.819  26.370  51.682  1.00  0.00    -0.000 C 
BRANCH  11  12
ATOM     12  C   UNL     1      -1.358  25.890  51.693  1.00  0.00    -0.003 C 
ATOM     13  C   UNL     1      -0.651  26.109  50.356  1.00  0.00     0.004 C 
ENDBRANCH  11  12
ENDBRANCH  10  11
ENDBRANCH   9  10
ENDBRANCH   8   9
ENDBRANCH   1   8
TORSDOF 9
ENDMDL
MODEL 2
REMARK VINA RESULT:    -5.414      1.176      1.610
REMARK INTER + INTRA:          -8.798
REMARK INTER:                  -8.434
REMARK INTRA:                  -0.364
REMARK UNBOUND:                -0.534
REMARK SMILES CCCCCCCCCCC(=O)[O-]
REMARK SMILES IDX 7 1 8 2 9 3 10 4 11 5 12 6 13 7 6 8 5 9 4 10 3 11 2 12 1 13
REMARK H PARENT
REMARK Flexibility Score: inf
ROOT
ATOM      1  C   UNL     1      -2.048  27.931  56.124  1.00  0.00     0.000 C 
ENDROOT
BRANCH   1   2
ATOM      2  C   UNL     1      -2.298  29.247  56.882  1.00  0.00     0.000 C 
BRANCH   2   3
ATOM      3  C   UNL     1      -3.787  29.504  57.160  1.00  0.00     0.006 C 
BRANCH   3   4
ATOM      4  C   UNL     1      -3.982  30.806  57.942  1.00  0.00     0.053 C 
BRANCH   4   5
ATOM      5  C   UNL     1      -4.650  30.535  59.253  1.00  0.00     0.041 C 
ATOM      6  O   UNL     1      -4.296  31.163  60.286  1.00  0.00    -0.550 OA
ATOM      7  O   UNL     1      -5.697  29.625  59.326  1.00  0.00    -0.550 OA
ENDBRANCH   4   5
ENDBRANCH   3   4
ENDBRANCH   2   3
ENDBRANCH   1   2
BRANCH   1   8
ATOM      8  C   UNL     1      -3.265  26.994  56.030  1.00  0.00     0.000 C 
BRANCH   8   9
ATOM      9  C   UNL     1      -3.733  26.764  54.582  1.00  0.00    -0.000 C 
BRANCH   9  10
ATOM     10  C   UNL     1      -2.566  26.395  53.649  1.00  0.00    -0.000 C 
BRANCH  10  11
ATOM     11  C   UNL     1      -2.954  26.414  52.153  1.00  0.00    -0.000 C 
BRANCH  11  12
ATOM     12  C   UNL     1      -1.766  26.158  51.210  1.00  0.00    -0.003 C 
ATOM     13  C   UNL     1      -1.650  27.205  50.103  1.00  0.00     0.004 C 
ENDBRANCH  11  12
ENDBRANCH  10  11
ENDBRANCH   9  10
ENDBRANCH   8   9
ENDBRANCH   1   8
TORSDOF 9
ENDMDL
MODEL 3
REMARK VINA RESULT:    -5.179      2.004      2.468
REMARK INTER + INTRA:          -8.438
REMARK INTER:                  -8.086
REMARK INTRA:                  -0.352
REMARK UNBOUND:                -0.534
REMARK SMILES CCCCCCCCCCC(=O)[O-]
REMARK SMILES IDX 7 1 8 2 9 3 10 4 11 5 12 6 13 7 6 8 5 9 4 10 3 11 2 12 1 13
REMARK H PARENT
REMARK Flexibility Score: inf
ROOT
ATOM      1  C   UNL     1      -3.921  26.813  54.493  1.00  0.00     0.000 C 
ENDROOT
BRANCH   1   2
ATOM      2  C   UNL     1      -4.706  27.701  55.475  1.00  0.00     0.000 C 
BRANCH   2   3
ATOM      3  C   UNL     1      -3.818  28.724  56.199  1.00  0.00     0.006 C 
BRANCH   3   4
ATOM      4  C   UNL     1      -4.588  29.418  57.326  1.00  0.00     0.053 C 
BRANCH   4   5
ATOM      5  C   UNL     1      -3.770  30.522  57.917  1.00  0.00     0.041 C 
ATOM      6  O   UNL     1      -2.554  30.334  58.187  1.00  0.00    -0.550 OA
ATOM      7  O   UNL     1      -4.335  31.773  58.125  1.00  0.00    -0.550 OA
ENDBRANCH   4   5
ENDBRANCH   3   4
ENDBRANCH   2   3
ENDBRANCH   1   2
BRANCH   1   8
ATOM      8  C   UNL     1      -2.774  26.002  55.124  1.00  0.00     0.000 C 
BRANCH   8   9
ATOM      9  C   UNL     1      -1.396  26.362  54.542  1.00  0.00    -0.000 C 
BRANCH   9  10
ATOM     10  C   UNL     1      -0.250  25.984  55.497  1.00  0.00    -0.000 C 
BRANCH  10  11
ATOM     11  C   UNL     1       1.081  25.698  54.765  1.00  0.00    -0.000 C 
BRANCH  11  12
ATOM     12  C   UNL     1       1.046  24.421  53.908  1.00  0.00    -0.003 C 
ATOM     13  C   UNL     1       0.874  24.711  52.418  1.00  0.00     0.004 C 
ENDBRANCH  11  12
ENDBRANCH  10  11
ENDBRANCH   9  10
ENDBRANCH   8   9
ENDBRANCH   1   8
TORSDOF 9
ENDMDL
MODEL 4
REMARK VINA RESULT:    -5.145      3.887      7.125
REMARK INTER + INTRA:          -8.386
REMARK INTER:                  -8.010
REMARK INTRA:                  -0.376
REMARK UNBOUND:                -0.534
REMARK SMILES CCCCCCCCCCC(=O)[O-]
REMARK SMILES IDX 7 1 8 2 9 3 10 4 11 5 12 6 13 7 6 8 5 9 4 10 3 11 2 12 1 13
REMARK H PARENT
REMARK Flexibility Score: inf
ROOT
ATOM      1  C   UNL     1      -1.930  26.896  55.531  1.00  0.00     0.000 C 
ENDROOT
BRANCH   1   2
ATOM      2  C   UNL     1      -1.500  26.317  54.172  1.00  0.00     0.000 C 
BRANCH   2   3
ATOM      3  C   UNL     1      -2.640  26.291  53.143  1.00  0.00     0.006 C 
BRANCH   3   4
ATOM      4  C   UNL     1      -2.115  25.929  51.751  1.00  0.00     0.053 C 
BRANCH   4   5
ATOM      5  C   UNL     1      -2.831  26.717  50.700  1.00  0.00     0.041 C 
ATOM      6  O   UNL     1      -2.222  27.609  50.053  1.00  0.00    -0.550 OA
ATOM      7  O   UNL     1      -4.157  26.433  50.399  1.00  0.00    -0.550 OA
ENDBRANCH   4   5
ENDBRANCH   3   4
ENDBRANCH   2   3
ENDBRANCH   1   2
BRANCH   1   8
ATOM      8  C   UNL     1      -3.440  26.824  55.820  1.00  0.00     0.000 C 
BRANCH   8   9
ATOM      9  C   UNL     1      -4.092  28.212  55.951  1.00  0.00    -0.000 C 
BRANCH   9  10
ATOM     10  C   UNL     1      -3.249  29.165  56.817  1.00  0.00    -0.000 C 
BRANCH  10  11
ATOM     11  C   UNL     1      -4.046  30.388  57.326  1.00  0.00    -0.000 C 
BRANCH  11  12
ATOM     12  C   UNL     1      -4.473  30.270  58.799  1.00  0.00    -0.003 C 
ATOM     13  C   UNL     1      -4.032  31.465  59.643  1.00  0.00     0.004 C 
ENDBRANCH  11  12
ENDBRANCH  10  11
ENDBRANCH   9  10
ENDBRANCH   8   9
ENDBRANCH   1   8
TORSDOF 9
ENDMDL
MODEL 5
REMARK VINA RESULT:    -4.856      2.696      4.048
REMARK INTER + INTRA:          -7.945
REMARK INTER:                  -7.468
REMARK INTRA:                  -0.477
REMARK UNBOUND:                -0.534
REMARK SMILES CCCCCCCCCCC(=O)[O-]
REMARK SMILES IDX 7 1 8 2 9 3 10 4 11 5 12 6 13 7 6 8 5 9 4 10 3 11 2 12 1 13
REMARK H PARENT
REMARK Flexibility Score: inf
ROOT
ATOM      1  C   UNL     1      -3.085  26.886  56.050  1.00  0.00     0.000 C 
ENDROOT
BRANCH   1   2
ATOM      2  C   UNL     1      -4.256  27.757  55.561  1.00  0.00     0.000 C 
BRANCH   2   3
ATOM      3  C   UNL     1      -4.781  28.716  56.640  1.00  0.00     0.006 C 
BRANCH   3   4
ATOM      4  C   UNL     1      -3.665  29.634  57.147  1.00  0.00     0.053 C 
BRANCH   4   5
ATOM      5  C   UNL     1      -4.181  30.548  58.213  1.00  0.00     0.041 C 
ATOM      6  O   UNL     1      -4.103  31.797  58.068  1.00  0.00    -0.550 OA
ATOM      7  O   UNL     1      -4.794  30.023  59.343  1.00  0.00    -0.550 OA
ENDBRANCH   4   5
ENDBRANCH   3   4
ENDBRANCH   2   3
ENDBRANCH   1   2
BRANCH   1   8
ATOM      8  C   UNL     1      -2.142  26.384  54.942  1.00  0.00     0.000 C 
BRANCH   8   9
ATOM      9  C   UNL     1      -0.673  26.310  55.394  1.00  0.00    -0.000 C 
BRANCH   9  10
ATOM     10  C   UNL     1      -0.432  27.088  56.701  1.00  0.00    -0.000 C 
BRANCH  10  11
ATOM     11  C   UNL     1       1.058  27.142  57.109  1.00  0.00    -0.000 C 
BRANCH  11  12
ATOM     12  C   UNL     1       1.480  28.496  57.705  1.00  0.00    -0.003 C 
ATOM     13  C   UNL     1       2.917  28.878  57.355  1.00  0.00     0.004 C 
ENDBRANCH  11  12
ENDBRANCH  10  11
ENDBRANCH   9  10
ENDBRANCH   8   9
ENDBRANCH   1   8
TORSDOF 9
ENDMDL
MODEL 6
REMARK VINA RESULT:    -4.622      4.564      7.427
REMARK INTER + INTRA:          -7.588
REMARK INTER:                  -7.263
REMARK INTRA:                  -0.326
REMARK UNBOUND:                -0.534
REMARK SMILES CCCCCCCCCCC(=O)[O-]
REMARK SMILES IDX 7 1 8 2 9 3 10 4 11 5 12 6 13 7 6 8 5 9 4 10 3 11 2 12 1 13
REMARK H PARENT
REMARK Flexibility Score: inf
ROOT
ATOM      1  C   UNL     1      -3.326  26.642  54.341  1.00  0.00     0.000 C 
ENDROOT
BRANCH   1   2
ATOM      2  C   UNL     1      -1.974  26.001  54.699  1.00  0.00     0.000 C 
BRANCH   2   3
ATOM      3  C   UNL     1      -0.982  26.001  53.525  1.00  0.00     0.006 C 
BRANCH   3   4
ATOM      4  C   UNL     1       0.174  25.031  53.785  1.00  0.00     0.053 C 
BRANCH   4   5
ATOM      5  C   UNL     1       0.973  24.822  52.537  1.00  0.00     0.041 C 
ATOM      6  O   UNL     1       2.086  24.236  52.589  1.00  0.00    -0.550 OA
ATOM      7  O   UNL     1       0.466  25.229  51.310  1.00  0.00    -0.550 OA
ENDBRANCH   4   5
ENDBRANCH   3   4
ENDBRANCH   2   3
ENDBRANCH   1   2
BRANCH   1   8
ATOM      8  C   UNL     1      -3.985  27.445  55.478  1.00  0.00     0.000 C 
BRANCH   8   9
ATOM      9  C   UNL     1      -2.980  28.305  56.264  1.00  0.00    -0.000 C 
BRANCH   9  10
ATOM     10  C   UNL     1      -3.591  29.646  56.707  1.00  0.00    -0.000 C 
BRANCH  10  11
ATOM     11  C   UNL     1      -4.796  29.479  57.661  1.00  0.00    -0.000 C 
BRANCH  11  12
ATOM     12  C   UNL     1      -4.727  30.389  58.899  1.00  0.00    -0.003 C 
ATOM     13  C   UNL     1      -3.964  31.688  58.641  1.00  0.00     0.004 C 
ENDBRANCH  11  12
ENDBRANCH  10  11
ENDBRANCH   9  10
ENDBRANCH   8   9
ENDBRANCH   1   8
TORSDOF 9
ENDMDL
MODEL 7
REMARK VINA RESULT:    -4.559      3.680      8.025
REMARK INTER + INTRA:          -7.492
REMARK INTER:                  -7.156
REMARK INTRA:                  -0.335
REMARK UNBOUND:                -0.534
REMARK SMILES CCCCCCCCCCC(=O)[O-]
REMARK SMILES IDX 7 1 8 2 9 3 10 4 11 5 12 6 13 7 6 8 5 9 4 10 3 11 2 12 1 13
REMARK H PARENT
REMARK Flexibility Score: inf
ROOT
ATOM      1  C   UNL     1      -3.229  30.160  57.935  1.00  0.00     0.000 C 
ENDROOT
BRANCH   1   2
ATOM      2  C   UNL     1      -4.144  29.460  56.914  1.00  0.00     0.000 C 
BRANCH   2   3
ATOM      3  C   UNL     1      -3.364  28.671  55.852  1.00  0.00     0.006 C 
BRANCH   3   4
ATOM      4  C   UNL     1      -4.141  27.427  55.412  1.00  0.00     0.053 C 
BRANCH   4   5
ATOM      5  C   UNL     1      -3.298  26.570  54.522  1.00  0.00     0.041 C 
ATOM      6  O   UNL     1      -2.352  25.894  55.005  1.00  0.00    -0.550 OA
ATOM      7  O   UNL     1      -3.587  26.478  53.167  1.00  0.00    -0.550 OA
ENDBRANCH   4   5
ENDBRANCH   3   4
ENDBRANCH   2   3
ENDBRANCH   1   2
BRANCH   1   8
ATOM      8  C   UNL     1      -3.827  31.418  58.589  1.00  0.00     0.000 C 
BRANCH   8   9
ATOM      9  C   UNL     1      -4.523  31.122  59.929  1.00  0.00    -0.000 C 
BRANCH   9  10
ATOM     10  C   UNL     1      -3.959  31.982  61.074  1.00  0.00    -0.000 C 
BRANCH  10  11
ATOM     11  C   UNL     1      -2.586  32.611  60.743  1.00  0.00    -0.000 C 
BRANCH  11  12
ATOM     12  C   UNL     1      -1.691  32.813  61.977  1.00  0.00    -0.003 C 
ATOM     13  C   UNL     1      -2.346  32.332  63.271  1.00  0.00     0.004 C 
ENDBRANCH  11  12
ENDBRANCH  10  11
ENDBRANCH   9  10
ENDBRANCH   8   9
ENDBRANCH   1   8
TORSDOF 9
ENDMDL
MODEL 8
REMARK VINA RESULT:    -4.491      1.496      2.294
REMARK INTER + INTRA:          -7.389
REMARK INTER:                  -6.956
REMARK INTRA:                  -0.433
REMARK UNBOUND:                -0.534
REMARK SMILES CCCCCCCCCCC(=O)[O-]
REMARK SMILES IDX 7 1 8 2 9 3 10 4 11 5 12 6 13 7 6 8 5 9 4 10 3 11 2 12 1 13
REMARK H PARENT
REMARK Flexibility Score: inf
ROOT
ATOM      1  C   UNL     1      -3.362  26.435  53.672  1.00  0.00     0.000 C 
ENDROOT
BRANCH   1   2
ATOM      2  C   UNL     1      -4.227  27.069  54.776  1.00  0.00     0.000 C 
BRANCH   2   3
ATOM      3  C   UNL     1      -3.432  27.386  56.051  1.00  0.00     0.006 C 
BRANCH   3   4
ATOM      4  C   UNL     1      -3.129  28.884  56.150  1.00  0.00     0.053 C 
BRANCH   4   5
ATOM      5  C   UNL     1      -4.142  29.568  57.013  1.00  0.00     0.041 C 
ATOM      6  O   UNL     1      -5.300  29.086  57.133  1.00  0.00    -0.550 OA
ATOM      7  O   UNL     1      -3.794  30.709  57.724  1.00  0.00    -0.550 OA
ENDBRANCH   4   5
ENDBRANCH   3   4
ENDBRANCH   2   3
ENDBRANCH   1   2
BRANCH   1   8
ATOM      8  C   UNL     1      -2.048  25.799  54.160  1.00  0.00     0.000 C 
BRANCH   8   9
ATOM      9  C   UNL     1      -0.877  26.023  53.187  1.00  0.00    -0.000 C 
BRANCH   9  10
ATOM     10  C   UNL     1      -1.357  26.179  51.733  1.00  0.00    -0.000 C 
BRANCH  10  11
ATOM     11  C   UNL     1      -0.370  25.588  50.701  1.00  0.00    -0.000 C 
BRANCH  11  12
ATOM     12  C   UNL     1       0.968  25.144  51.317  1.00  0.00    -0.003 C 
ATOM     13  C   UNL     1       2.175  25.555  50.477  1.00  0.00     0.004 C 
ENDBRANCH  11  12
ENDBRANCH  10  11
ENDBRANCH   9  10
ENDBRANCH   8   9
ENDBRANCH   1   8
TORSDOF 9
ENDMDL
MODEL 9
REMARK VINA RESULT:    -4.439      3.029      3.757
REMARK INTER + INTRA:          -7.310
REMARK INTER:                  -6.842
REMARK INTRA:                  -0.468
REMARK UNBOUND:                -0.534
REMARK SMILES CCCCCCCCCCC(=O)[O-]
REMARK SMILES IDX 7 1 8 2 9 3 10 4 11 5 12 6 13 7 6 8 5 9 4 10 3 11 2 12 1 13
REMARK H PARENT
REMARK Flexibility Score: inf
ROOT
ATOM      1  C   UNL     1      -1.427  26.679  55.750  1.00  0.00     0.000 C 
ENDROOT
BRANCH   1   2
ATOM      2  C   UNL     1      -2.800  26.322  55.154  1.00  0.00     0.000 C 
BRANCH   2   3
ATOM      3  C   UNL     1      -3.826  27.458  55.291  1.00  0.00     0.006 C 
BRANCH   3   4
ATOM      4  C   UNL     1      -3.193  28.693  55.937  1.00  0.00     0.053 C 
BRANCH   4   5
ATOM      5  C   UNL     1      -4.151  29.333  56.892  1.00  0.00     0.041 C 
ATOM      6  O   UNL     1      -5.320  28.882  57.014  1.00  0.00    -0.550 OA
ATOM      7  O   UNL     1      -3.738  30.396  57.685  1.00  0.00    -0.550 OA
ENDBRANCH   4   5
ENDBRANCH   3   4
ENDBRANCH   2   3
ENDBRANCH   1   2
BRANCH   1   8
ATOM      8  C   UNL     1      -0.227  25.990  55.076  1.00  0.00     0.000 C 
BRANCH   8   9
ATOM      9  C   UNL     1      -0.477  25.668  53.592  1.00  0.00    -0.000 C 
BRANCH   9  10
ATOM     10  C   UNL     1       0.641  24.797  52.994  1.00  0.00    -0.000 C 
BRANCH  10  11
ATOM     11  C   UNL     1       1.627  24.259  54.056  1.00  0.00    -0.000 C 
BRANCH  11  12
ATOM     12  C   UNL     1       1.950  22.764  53.890  1.00  0.00    -0.003 C 
ATOM     13  C   UNL     1       3.195  22.336  54.665  1.00  0.00     0.004 C 
ENDBRANCH  11  12
ENDBRANCH  10  11
ENDBRANCH   9  10
ENDBRANCH   8   9
ENDBRANCH   1   8
TORSDOF 9
ENDMDL
