MODEL 1
REMARK VINA RESULT:    -5.344      0.000      0.000
REMARK INTER + INTRA:         -11.145
REMARK INTER:                  -9.405
REMARK INTRA:                  -1.740
REMARK UNBOUND:                -1.740
REMARK SMILES CCCCCCCCCCCCCCC(=O)[O-]
REMARK SMILES IDX 9 1 10 2 11 3 12 4 13 5 14 6 15 7 16 8 17 9 8 10 7 11 6 12
REMARK SMILES IDX 5 13 4 14 3 15 2 16 1 17
REMARK H PARENT
REMARK Flexibility Score: inf
ROOT
ATOM      1  C   UNL     1     -97.469 -61.069 -64.404  1.00  0.00     0.000 C 
ENDROOT
BRANCH   1   2
ATOM      2  C   UNL     1     -96.260 -61.854 -64.940  1.00  0.00     0.000 C 
BRANCH   2   3
ATOM      3  C   UNL     1     -95.439 -61.054 -65.965  1.00  0.00     0.000 C 
BRANCH   3   4
ATOM      4  C   UNL     1     -94.214 -61.822 -66.510  1.00  0.00     0.000 C 
BRANCH   4   5
ATOM      5  C   UNL     1     -94.376 -62.190 -67.993  1.00  0.00     0.006 C 
BRANCH   5   6
ATOM      6  C   UNL     1     -95.485 -61.359 -68.648  1.00  0.00     0.053 C 
BRANCH   6   7
ATOM      7  C   UNL     1     -95.998 -62.043 -69.875  1.00  0.00     0.041 C 
ATOM      8  O   UNL     1     -97.217 -61.967 -70.179  1.00  0.00    -0.550 OA
ATOM      9  O   UNL     1     -95.138 -62.801 -70.660  1.00  0.00    -0.550 OA
ENDBRANCH   6   7
ENDBRANCH   5   6
ENDBRANCH   4   5
ENDBRANCH   3   4
ENDBRANCH   2   3
ENDBRANCH   1   2
BRANCH   1  10
ATOM     10  C   UNL     1     -98.526 -61.979 -63.757  1.00  0.00     0.000 C 
BRANCH  10  11
ATOM     11  C   UNL     1     -99.722 -62.253 -64.682  1.00  0.00    -0.000 C 
BRANCH  11  12
ATOM     12  C   UNL     1    -100.655 -61.035 -64.747  1.00  0.00    -0.000 C 
BRANCH  12  13
ATOM     13  C   UNL     1    -100.869 -60.517 -66.182  1.00  0.00    -0.000 C 
BRANCH  13  14
ATOM     14  C   UNL     1     -99.872 -61.053 -67.226  1.00  0.00    -0.000 C 
BRANCH  14  15
ATOM     15  C   UNL     1     -98.728 -60.068 -67.520  1.00  0.00    -0.000 C 
BRANCH  15  16
ATOM     16  C   UNL     1     -99.011 -58.658 -66.976  1.00  0.00    -0.003 C 
ATOM     17  C   UNL     1     -97.744 -57.932 -66.524  1.00  0.00     0.004 C 
ENDBRANCH  15  16
ENDBRANCH  14  15
ENDBRANCH  13  14
ENDBRANCH  12  13
ENDBRANCH  11  12
ENDBRANCH  10  11
ENDBRANCH   1  10
TORSDOF 13
ENDMDL
MODEL 2
REMARK VINA RESULT:    -5.241      1.170      1.667
REMARK INTER + INTRA:         -10.965
REMARK INTER:                  -9.646
REMARK INTRA:                  -1.319
REMARK UNBOUND:                -1.740
REMARK SMILES CCCCCCCCCCCCCCC(=O)[O-]
REMARK SMILES IDX 9 1 10 2 11 3 12 4 13 5 14 6 15 7 16 8 17 9 8 10 7 11 6 12
REMARK SMILES IDX 5 13 4 14 3 15 2 16 1 17
REMARK H PARENT
REMARK Flexibility Score: inf
ROOT
ATOM      1  C   UNL     1     -96.141 -61.722 -65.038  1.00  0.00     0.000 C 
ENDROOT
BRANCH   1   2
ATOM      2  C   UNL     1     -95.828 -61.328 -66.491  1.00  0.00     0.000 C 
BRANCH   2   3
ATOM      3  C   UNL     1     -94.323 -61.352 -66.804  1.00  0.00     0.000 C 
BRANCH   3   4
ATOM      4  C   UNL     1     -93.684 -62.750 -66.664  1.00  0.00     0.000 C 
BRANCH   4   5
ATOM      5  C   UNL     1     -93.272 -63.337 -68.023  1.00  0.00     0.006 C 
BRANCH   5   6
ATOM      6  C   UNL     1     -93.922 -62.563 -69.175  1.00  0.00     0.053 C 
BRANCH   6   7
ATOM      7  C   UNL     1     -94.183 -63.470 -70.335  1.00  0.00     0.041 C 
ATOM      8  O   UNL     1     -95.224 -63.327 -71.027  1.00  0.00    -0.550 OA
ATOM      9  O   UNL     1     -93.299 -64.501 -70.624  1.00  0.00    -0.550 OA
ENDBRANCH   6   7
ENDBRANCH   5   6
ENDBRANCH   4   5
ENDBRANCH   3   4
ENDBRANCH   2   3
ENDBRANCH   1   2
BRANCH   1  10
ATOM     10  C   UNL     1     -97.296 -60.904 -64.438  1.00  0.00     0.000 C 
BRANCH  10  11
ATOM     11  C   UNL     1     -98.442 -61.785 -63.918  1.00  0.00    -0.000 C 
BRANCH  11  12
ATOM     12  C   UNL     1     -99.372 -62.206 -65.065  1.00  0.00    -0.000 C 
BRANCH  12  13
ATOM     13  C   UNL     1    -100.389 -61.115 -65.448  1.00  0.00    -0.000 C 
BRANCH  13  14
ATOM     14  C   UNL     1    -100.257 -60.574 -66.884  1.00  0.00    -0.000 C 
BRANCH  14  15
ATOM     15  C   UNL     1     -99.887 -59.082 -66.929  1.00  0.00    -0.000 C 
BRANCH  15  16
ATOM     16  C   UNL     1     -98.423 -58.851 -67.336  1.00  0.00    -0.003 C 
ATOM     17  C   UNL     1     -97.705 -57.853 -66.426  1.00  0.00     0.004 C 
ENDBRANCH  15  16
ENDBRANCH  14  15
ENDBRANCH  13  14
ENDBRANCH  12  13
ENDBRANCH  11  12
ENDBRANCH  10  11
ENDBRANCH   1  10
TORSDOF 13
ENDMDL
MODEL 3
REMARK VINA RESULT:    -5.056      1.178      2.872
REMARK INTER + INTRA:         -10.638
REMARK INTER:                  -9.101
REMARK INTRA:                  -1.537
REMARK UNBOUND:                -1.740
REMARK SMILES CCCCCCCCCCCCCCC(=O)[O-]
REMARK SMILES IDX 9 1 10 2 11 3 12 4 13 5 14 6 15 7 16 8 17 9 8 10 7 11 6 12
REMARK SMILES IDX 5 13 4 14 3 15 2 16 1 17
REMARK H PARENT
REMARK Flexibility Score: inf
ROOT
ATOM      1  C   UNL     1     -96.268 -61.297 -65.627  1.00  0.00     0.000 C 
ENDROOT
BRANCH   1   2
ATOM      2  C   UNL     1     -94.940 -60.994 -66.340  1.00  0.00     0.000 C 
BRANCH   2   3
ATOM      3  C   UNL     1     -94.512 -62.115 -67.302  1.00  0.00     0.000 C 
BRANCH   3   4
ATOM      4  C   UNL     1     -94.613 -61.724 -68.793  1.00  0.00     0.000 C 
BRANCH   4   5
ATOM      5  C   UNL     1     -96.068 -61.690 -69.284  1.00  0.00     0.006 C 
BRANCH   5   6
ATOM      6  C   UNL     1     -96.139 -61.299 -70.764  1.00  0.00     0.053 C 
BRANCH   6   7
ATOM      7  C   UNL     1     -95.263 -62.191 -71.585  1.00  0.00     0.041 C 
ATOM      8  O   UNL     1     -95.473 -63.432 -71.612  1.00  0.00    -0.550 OA
ATOM      9  O   UNL     1     -94.189 -61.657 -72.285  1.00  0.00    -0.550 OA
ENDBRANCH   6   7
ENDBRANCH   5   6
ENDBRANCH   4   5
ENDBRANCH   3   4
ENDBRANCH   2   3
ENDBRANCH   1   2
BRANCH   1  10
ATOM     10  C   UNL     1     -96.968 -60.027 -65.116  1.00  0.00     0.000 C 
BRANCH  10  11
ATOM     11  C   UNL     1     -97.094 -58.941 -66.195  1.00  0.00    -0.000 C 
BRANCH  11  12
ATOM     12  C   UNL     1     -98.027 -59.397 -67.326  1.00  0.00    -0.000 C 
BRANCH  12  13
ATOM     13  C   UNL     1     -99.471 -58.890 -67.156  1.00  0.00    -0.000 C 
BRANCH  13  14
ATOM     14  C   UNL     1    -100.401 -59.821 -66.356  1.00  0.00    -0.000 C 
BRANCH  14  15
ATOM     15  C   UNL     1    -100.583 -61.197 -67.019  1.00  0.00    -0.000 C 
BRANCH  15  16
ATOM     16  C   UNL     1     -99.786 -62.303 -66.307  1.00  0.00    -0.003 C 
ATOM     17  C   UNL     1     -99.929 -62.250 -64.785  1.00  0.00     0.004 C 
ENDBRANCH  15  16
ENDBRANCH  14  15
ENDBRANCH  13  14
ENDBRANCH  12  13
ENDBRANCH  11  12
ENDBRANCH  10  11
ENDBRANCH   1  10
TORSDOF 13
ENDMDL
MODEL 4
REMARK VINA RESULT:    -5.017      2.513      5.586
REMARK INTER + INTRA:         -10.569
REMARK INTER:                  -8.762
REMARK INTRA:                  -1.807
REMARK UNBOUND:                -1.740
REMARK SMILES CCCCCCCCCCCCCCC(=O)[O-]
REMARK SMILES IDX 9 1 10 2 11 3 12 4 13 5 14 6 15 7 16 8 17 9 8 10 7 11 6 12
REMARK SMILES IDX 5 13 4 14 3 15 2 16 1 17
REMARK H PARENT
REMARK Flexibility Score: inf
ROOT
ATOM      1  C   UNL     1     -96.431 -60.993 -66.247  1.00  0.00     0.000 C 
ENDROOT
BRANCH   1   2
ATOM      2  C   UNL     1     -96.838 -59.872 -65.276  1.00  0.00     0.000 C 
BRANCH   2   3
ATOM      3  C   UNL     1     -97.479 -58.670 -65.990  1.00  0.00     0.000 C 
BRANCH   3   4
ATOM      4  C   UNL     1     -98.237 -59.049 -67.281  1.00  0.00     0.000 C 
BRANCH   4   5
ATOM      5  C   UNL     1     -99.726 -59.322 -67.018  1.00  0.00     0.006 C 
BRANCH   5   6
ATOM      6  C   UNL     1    -100.030 -60.822 -67.086  1.00  0.00     0.053 C 
BRANCH   6   7
ATOM      7  C   UNL     1    -100.326 -61.359 -65.721  1.00  0.00     0.041 C 
ATOM      8  O   UNL     1     -99.899 -62.494 -65.382  1.00  0.00    -0.550 OA
ATOM      9  O   UNL     1    -101.108 -60.626 -64.839  1.00  0.00    -0.550 OA
ENDBRANCH   6   7
ENDBRANCH   5   6
ENDBRANCH   4   5
ENDBRANCH   3   4
ENDBRANCH   2   3
ENDBRANCH   1   2
BRANCH   1  10
ATOM     10  C   UNL     1     -94.916 -61.029 -66.508  1.00  0.00     0.000 C 
BRANCH  10  11
ATOM     11  C   UNL     1     -94.284 -62.385 -66.160  1.00  0.00    -0.000 C 
BRANCH  11  12
ATOM     12  C   UNL     1     -93.617 -63.011 -67.393  1.00  0.00    -0.000 C 
BRANCH  12  13
ATOM     13  C   UNL     1     -93.700 -62.115 -68.643  1.00  0.00    -0.000 C 
BRANCH  13  14
ATOM     14  C   UNL     1     -94.486 -62.712 -69.825  1.00  0.00    -0.000 C 
BRANCH  14  15
ATOM     15  C   UNL     1     -95.158 -61.640 -70.698  1.00  0.00    -0.000 C 
BRANCH  15  16
ATOM     16  C   UNL     1     -96.351 -60.971 -69.995  1.00  0.00    -0.003 C 
ATOM     17  C   UNL     1     -97.429 -61.971 -69.576  1.00  0.00     0.004 C 
ENDBRANCH  15  16
ENDBRANCH  14  15
ENDBRANCH  13  14
ENDBRANCH  12  13
ENDBRANCH  11  12
ENDBRANCH  10  11
ENDBRANCH   1  10
TORSDOF 13
ENDMDL
MODEL 5
REMARK VINA RESULT:    -5.012      2.431      5.661
REMARK INTER + INTRA:         -10.562
REMARK INTER:                  -9.049
REMARK INTRA:                  -1.513
REMARK UNBOUND:                -1.740
REMARK SMILES CCCCCCCCCCCCCCC(=O)[O-]
REMARK SMILES IDX 9 1 10 2 11 3 12 4 13 5 14 6 15 7 16 8 17 9 8 10 7 11 6 12
REMARK SMILES IDX 5 13 4 14 3 15 2 16 1 17
REMARK H PARENT
REMARK Flexibility Score: inf
ROOT
ATOM      1  C   UNL     1     -95.583 -61.160 -66.157  1.00  0.00     0.000 C 
ENDROOT
BRANCH   1   2
ATOM      2  C   UNL     1     -95.766 -62.136 -64.983  1.00  0.00     0.000 C 
BRANCH   2   3
ATOM      3  C   UNL     1     -97.102 -61.939 -64.248  1.00  0.00     0.000 C 
BRANCH   3   4
ATOM      4  C   UNL     1     -98.099 -61.036 -65.007  1.00  0.00     0.000 C 
BRANCH   4   5
ATOM      5  C   UNL     1     -99.214 -61.848 -65.685  1.00  0.00     0.006 C 
BRANCH   5   6
ATOM      6  C   UNL     1     -99.665 -61.181 -66.988  1.00  0.00     0.053 C 
BRANCH   6   7
ATOM      7  C   UNL     1    -100.140 -59.787 -66.726  1.00  0.00     0.041 C 
ATOM      8  O   UNL     1    -101.139 -59.587 -65.987  1.00  0.00    -0.550 OA
ATOM      9  O   UNL     1     -99.505 -58.711 -67.333  1.00  0.00    -0.550 OA
ENDBRANCH   6   7
ENDBRANCH   5   6
ENDBRANCH   4   5
ENDBRANCH   3   4
ENDBRANCH   2   3
ENDBRANCH   1   2
BRANCH   1  10
ATOM     10  C   UNL     1     -94.290 -61.420 -66.947  1.00  0.00     0.000 C 
BRANCH  10  11
ATOM     11  C   UNL     1     -93.657 -62.781 -66.621  1.00  0.00    -0.000 C 
BRANCH  11  12
ATOM     12  C   UNL     1     -93.270 -63.528 -67.906  1.00  0.00    -0.000 C 
BRANCH  12  13
ATOM     13  C   UNL     1     -93.424 -62.666 -69.173  1.00  0.00    -0.000 C 
BRANCH  13  14
ATOM     14  C   UNL     1     -93.906 -63.422 -70.424  1.00  0.00    -0.000 C 
BRANCH  14  15
ATOM     15  C   UNL     1     -95.279 -62.939 -70.923  1.00  0.00    -0.000 C 
BRANCH  15  16
ATOM     16  C   UNL     1     -95.673 -61.576 -70.330  1.00  0.00    -0.003 C 
ATOM     17  C   UNL     1     -97.003 -61.620 -69.577  1.00  0.00     0.004 C 
ENDBRANCH  15  16
ENDBRANCH  14  15
ENDBRANCH  13  14
ENDBRANCH  12  13
ENDBRANCH  11  12
ENDBRANCH  10  11
ENDBRANCH   1  10
TORSDOF 13
ENDMDL
MODEL 6
REMARK VINA RESULT:    -5.009      1.545      3.674
REMARK INTER + INTRA:         -10.556
REMARK INTER:                  -8.613
REMARK INTRA:                  -1.943
REMARK UNBOUND:                -1.740
REMARK SMILES CCCCCCCCCCCCCCC(=O)[O-]
REMARK SMILES IDX 9 1 10 2 11 3 12 4 13 5 14 6 15 7 16 8 17 9 8 10 7 11 6 12
REMARK SMILES IDX 5 13 4 14 3 15 2 16 1 17
REMARK H PARENT
REMARK Flexibility Score: inf
ROOT
ATOM      1  C   UNL     1    -100.266 -61.918 -66.871  1.00  0.00     0.000 C 
ENDROOT
BRANCH   1   2
ATOM      2  C   UNL     1    -100.548 -62.544 -68.247  1.00  0.00     0.000 C 
BRANCH   2   3
ATOM      3  C   UNL     1     -99.264 -62.921 -69.004  1.00  0.00     0.000 C 
BRANCH   3   4
ATOM      4  C   UNL     1     -98.132 -61.880 -68.859  1.00  0.00     0.000 C 
BRANCH   4   5
ATOM      5  C   UNL     1     -97.069 -62.024 -69.959  1.00  0.00     0.006 C 
BRANCH   5   6
ATOM      6  C   UNL     1     -95.673 -61.690 -69.423  1.00  0.00     0.053 C 
BRANCH   6   7
ATOM      7  C   UNL     1     -94.623 -62.093 -70.408  1.00  0.00     0.041 C 
ATOM      8  O   UNL     1     -93.873 -63.075 -70.167  1.00  0.00    -0.550 OA
ATOM      9  O   UNL     1     -94.443 -61.358 -71.573  1.00  0.00    -0.550 OA
ENDBRANCH   6   7
ENDBRANCH   5   6
ENDBRANCH   4   5
ENDBRANCH   3   4
ENDBRANCH   2   3
ENDBRANCH   1   2
BRANCH   1  10
ATOM     10  C   UNL     1    -101.117 -60.666 -66.605  1.00  0.00     0.000 C 
BRANCH  10  11
ATOM     11  C   UNL     1    -100.283 -59.472 -66.117  1.00  0.00    -0.000 C 
BRANCH  11  12
ATOM     12  C   UNL     1     -99.559 -58.793 -67.288  1.00  0.00    -0.000 C 
BRANCH  12  13
ATOM     13  C   UNL     1     -98.038 -58.677 -67.070  1.00  0.00    -0.000 C 
BRANCH  13  14
ATOM     14  C   UNL     1     -97.509 -59.349 -65.790  1.00  0.00    -0.000 C 
BRANCH  14  15
ATOM     15  C   UNL     1     -96.374 -60.349 -66.066  1.00  0.00    -0.000 C 
BRANCH  15  16
ATOM     16  C   UNL     1     -96.431 -61.574 -65.138  1.00  0.00    -0.003 C 
ATOM     17  C   UNL     1     -97.671 -61.583 -64.243  1.00  0.00     0.004 C 
ENDBRANCH  15  16
ENDBRANCH  14  15
ENDBRANCH  13  14
ENDBRANCH  12  13
ENDBRANCH  11  12
ENDBRANCH  10  11
ENDBRANCH   1  10
TORSDOF 13
ENDMDL
MODEL 7
REMARK VINA RESULT:    -4.999      2.566      4.871
REMARK INTER + INTRA:         -10.539
REMARK INTER:                  -8.707
REMARK INTRA:                  -1.832
REMARK UNBOUND:                -1.740
REMARK SMILES CCCCCCCCCCCCCCC(=O)[O-]
REMARK SMILES IDX 9 1 10 2 11 3 12 4 13 5 14 6 15 7 16 8 17 9 8 10 7 11 6 12
REMARK SMILES IDX 5 13 4 14 3 15 2 16 1 17
REMARK H PARENT
REMARK Flexibility Score: inf
ROOT
ATOM      1  C   UNL     1     -93.446 -62.375 -69.240  1.00  0.00     0.000 C 
ENDROOT
BRANCH   1   2
ATOM      2  C   UNL     1     -93.160 -63.462 -68.191  1.00  0.00     0.000 C 
BRANCH   2   3
ATOM      3  C   UNL     1     -93.707 -63.106 -66.798  1.00  0.00     0.000 C 
BRANCH   3   4
ATOM      4  C   UNL     1     -93.680 -61.592 -66.492  1.00  0.00     0.000 C 
BRANCH   4   5
ATOM      5  C   UNL     1     -95.069 -61.054 -66.116  1.00  0.00     0.006 C 
BRANCH   5   6
ATOM      6  C   UNL     1     -95.801 -62.025 -65.184  1.00  0.00     0.053 C 
BRANCH   6   7
ATOM      7  C   UNL     1     -97.021 -61.379 -64.607  1.00  0.00     0.041 C 
ATOM      8  O   UNL     1     -98.095 -62.029 -64.512  1.00  0.00    -0.550 OA
ATOM      9  O   UNL     1     -96.984 -60.048 -64.214  1.00  0.00    -0.550 OA
ENDBRANCH   6   7
ENDBRANCH   5   6
ENDBRANCH   4   5
ENDBRANCH   3   4
ENDBRANCH   2   3
ENDBRANCH   1   2
BRANCH   1  10
ATOM     10  C   UNL     1     -94.687 -62.687 -70.092  1.00  0.00     0.000 C 
BRANCH  10  11
ATOM     11  C   UNL     1     -95.235 -61.450 -70.820  1.00  0.00    -0.000 C 
BRANCH  11  12
ATOM     12  C   UNL     1     -96.357 -60.788 -70.008  1.00  0.00    -0.000 C 
BRANCH  12  13
ATOM     13  C   UNL     1     -97.223 -61.803 -69.239  1.00  0.00    -0.000 C 
BRANCH  13  14
ATOM     14  C   UNL     1     -98.118 -61.200 -68.141  1.00  0.00    -0.000 C 
BRANCH  14  15
ATOM     15  C   UNL     1     -97.739 -59.751 -67.791  1.00  0.00    -0.000 C 
BRANCH  15  16
ATOM     16  C   UNL     1     -98.891 -58.988 -67.116  1.00  0.00    -0.003 C 
ATOM     17  C   UNL     1    -100.007 -59.912 -66.627  1.00  0.00     0.004 C 
ENDBRANCH  15  16
ENDBRANCH  14  15
ENDBRANCH  13  14
ENDBRANCH  12  13
ENDBRANCH  11  12
ENDBRANCH  10  11
ENDBRANCH   1  10
TORSDOF 13
ENDMDL
MODEL 8
REMARK VINA RESULT:    -4.920      2.417      5.634
REMARK INTER + INTRA:         -10.400
REMARK INTER:                  -8.718
REMARK INTRA:                  -1.682
REMARK UNBOUND:                -1.740
REMARK SMILES CCCCCCCCCCCCCCC(=O)[O-]
REMARK SMILES IDX 9 1 10 2 11 3 12 4 13 5 14 6 15 7 16 8 17 9 8 10 7 11 6 12
REMARK SMILES IDX 5 13 4 14 3 15 2 16 1 17
REMARK H PARENT
REMARK Flexibility Score: inf
ROOT
ATOM      1  C   UNL     1     -96.637 -61.029 -67.140  1.00  0.00     0.000 C 
ENDROOT
BRANCH   1   2
ATOM      2  C   UNL     1     -96.520 -59.857 -66.151  1.00  0.00     0.000 C 
BRANCH   2   3
ATOM      3  C   UNL     1     -96.988 -60.225 -64.733  1.00  0.00     0.000 C 
BRANCH   3   4
ATOM      4  C   UNL     1     -97.437 -61.697 -64.592  1.00  0.00     0.000 C 
BRANCH   4   5
ATOM      5  C   UNL     1     -98.942 -61.818 -64.312  1.00  0.00     0.006 C 
BRANCH   5   6
ATOM      6  C   UNL     1     -99.672 -62.457 -65.498  1.00  0.00     0.053 C 
BRANCH   6   7
ATOM      7  C   UNL     1    -100.307 -61.406 -66.352  1.00  0.00     0.041 C 
ATOM      8  O   UNL     1    -100.349 -60.211 -65.958  1.00  0.00    -0.550 OA
ATOM      9  O   UNL     1    -100.892 -61.753 -67.563  1.00  0.00    -0.550 OA
ENDBRANCH   6   7
ENDBRANCH   5   6
ENDBRANCH   4   5
ENDBRANCH   3   4
ENDBRANCH   2   3
ENDBRANCH   1   2
BRANCH   1  10
ATOM     10  C   UNL     1     -97.338 -60.633 -68.448  1.00  0.00     0.000 C 
BRANCH  10  11
ATOM     11  C   UNL     1     -97.418 -61.790 -69.456  1.00  0.00    -0.000 C 
BRANCH  11  12
ATOM     12  C   UNL     1     -96.434 -61.577 -70.615  1.00  0.00    -0.000 C 
BRANCH  12  13
ATOM     13  C   UNL     1     -95.470 -62.762 -70.811  1.00  0.00    -0.000 C 
BRANCH  13  14
ATOM     14  C   UNL     1     -93.989 -62.453 -70.525  1.00  0.00    -0.000 C 
BRANCH  14  15
ATOM     15  C   UNL     1     -93.459 -63.176 -69.275  1.00  0.00    -0.000 C 
BRANCH  15  16
ATOM     16  C   UNL     1     -93.371 -62.248 -68.052  1.00  0.00    -0.003 C 
ATOM     17  C   UNL     1     -93.612 -62.982 -66.732  1.00  0.00     0.004 C 
ENDBRANCH  15  16
ENDBRANCH  14  15
ENDBRANCH  13  14
ENDBRANCH  12  13
ENDBRANCH  11  12
ENDBRANCH  10  11
ENDBRANCH   1  10
TORSDOF 13
ENDMDL
MODEL 9
REMARK VINA RESULT:    -4.891      1.657      2.726
REMARK INTER + INTRA:         -10.349
REMARK INTER:                  -9.036
REMARK INTRA:                  -1.312
REMARK UNBOUND:                -1.740
REMARK SMILES CCCCCCCCCCCCCCC(=O)[O-]
REMARK SMILES IDX 9 1 10 2 11 3 12 4 13 5 14 6 15 7 16 8 17 9 8 10 7 11 6 12
REMARK SMILES IDX 5 13 4 14 3 15 2 16 1 17
REMARK H PARENT
REMARK Flexibility Score: inf
ROOT
ATOM      1  C   UNL     1     -97.568 -60.909 -64.435  1.00  0.00     0.000 C 
ENDROOT
BRANCH   1   2
ATOM      2  C   UNL     1     -96.415 -61.659 -65.122  1.00  0.00     0.000 C 
BRANCH   2   3
ATOM      3  C   UNL     1     -95.746 -60.833 -66.233  1.00  0.00     0.000 C 
BRANCH   3   4
ATOM      4  C   UNL     1     -94.496 -61.508 -66.839  1.00  0.00     0.000 C 
BRANCH   4   5
ATOM      5  C   UNL     1     -94.712 -61.916 -68.304  1.00  0.00     0.006 C 
BRANCH   5   6
ATOM      6  C   UNL     1     -96.059 -61.405 -68.824  1.00  0.00     0.053 C 
BRANCH   6   7
ATOM      7  C   UNL     1     -96.212 -61.716 -70.279  1.00  0.00     0.041 C 
ATOM      8  O   UNL     1     -95.840 -62.831 -70.730  1.00  0.00    -0.550 OA
ATOM      9  O   UNL     1     -96.725 -60.759 -71.145  1.00  0.00    -0.550 OA
ENDBRANCH   6   7
ENDBRANCH   5   6
ENDBRANCH   4   5
ENDBRANCH   3   4
ENDBRANCH   2   3
ENDBRANCH   1   2
BRANCH   1  10
ATOM     10  C   UNL     1     -98.618 -61.858 -63.835  1.00  0.00     0.000 C 
BRANCH  10  11
ATOM     11  C   UNL     1     -99.565 -62.443 -64.894  1.00  0.00    -0.000 C 
BRANCH  11  12
ATOM     12  C   UNL     1    -100.399 -61.336 -65.556  1.00  0.00    -0.000 C 
BRANCH  12  13
ATOM     13  C   UNL     1    -100.466 -61.467 -67.089  1.00  0.00    -0.000 C 
BRANCH  13  14
ATOM     14  C   UNL     1     -99.232 -62.114 -67.744  1.00  0.00    -0.000 C 
BRANCH  14  15
ATOM     15  C   UNL     1     -99.585 -62.957 -68.982  1.00  0.00    -0.000 C 
BRANCH  15  16
ATOM     16  C   UNL     1    -101.058 -63.397 -68.993  1.00  0.00    -0.003 C 
ATOM     17  C   UNL     1    -101.335 -64.516 -69.998  1.00  0.00     0.004 C 
ENDBRANCH  15  16
ENDBRANCH  14  15
ENDBRANCH  13  14
ENDBRANCH  12  13
ENDBRANCH  11  12
ENDBRANCH  10  11
ENDBRANCH   1  10
TORSDOF 13
ENDMDL
