MODEL 1
REMARK VINA RESULT:    -5.946      0.000      0.000
REMARK INTER + INTRA:         -10.071
REMARK INTER:                  -7.858
REMARK INTRA:                  -2.213
REMARK UNBOUND:                -2.213
REMARK SMILES C=C(CC[C@@H](C)[C@@H]1CC[C@@]2(C)[C@H]3CC[C@H]4C(C)(C)[C@@H](O)CC[C@]45C[C@]35CC[C@@]12C)C(C)C
REMARK SMILES IDX 4 1 3 2 2 3 1 4 30 5 31 6 32 7 5 8 6 9 7 10 8 11 28 12 9 13
REMARK SMILES IDX 10 14 27 15 29 16 11 17 12 18 26 19 25 20 13 21 23 22 24 23
REMARK SMILES IDX 14 24 15 25 22 26 16 27 21 28 19 29 17 30 18 31 20 32
REMARK H PARENT 20 33
REMARK Flexibility Score: inf
ROOT
ATOM      1  C   UNL     1      18.651 -10.303  19.365  1.00  0.00     0.008 C 
ENDROOT
BRANCH   1   2
ATOM      2  C   UNL     1      17.371  -9.691  19.958  1.00  0.00     0.031 C 
BRANCH   2   3
ATOM      3  C   UNL     1      17.384  -8.186  19.827  1.00  0.00    -0.075 C 
ATOM      4  C   UNL     1      17.402  -7.631  18.603  1.00  0.00     0.008 C 
BRANCH   3   5
ATOM      5  C   UNL     1      17.447  -7.350  21.096  1.00  0.00     0.008 C 
ATOM      6  C   UNL     1      18.882  -6.971  21.496  1.00  0.00     0.012 C 
ATOM      7  C   UNL     1      16.712  -8.063  22.244  1.00  0.00     0.012 C 
ENDBRANCH   3   5
ENDBRANCH   2   3
ENDBRANCH   1   2
BRANCH   1   8
ATOM      8  C   UNL     1      19.550 -10.962  20.445  1.00  0.00    -0.010 C 
ATOM      9  C   UNL     1      20.749 -10.020  20.719  1.00  0.00     0.008 C 
BRANCH   8  10
ATOM     10  C   UNL     1      18.788 -11.267  21.791  1.00  0.00    -0.002 C 
ATOM     11  C   UNL     1      19.443 -10.529  22.974  1.00  0.00     0.005 C 
ATOM     12  C   UNL     1      18.634 -12.756  22.285  1.00  0.00    -0.024 C 
ATOM     13  C   UNL     1      19.132 -11.289  24.251  1.00  0.00     0.008 C 
ATOM     14  C   UNL     1      18.414 -12.605  23.858  1.00  0.00    -0.024 C 
ATOM     15  C   UNL     1      17.430 -13.486  21.579  1.00  0.00     0.008 C 
ATOM     16  C   UNL     1      19.931 -13.552  21.962  1.00  0.00     0.012 C 
ATOM     17  C   UNL     1      19.064 -13.749  24.706  1.00  0.00     0.012 C 
ATOM     18  C   UNL     1      16.885 -12.552  24.266  1.00  0.00     0.002 C 
ATOM     19  C   UNL     1      16.680 -14.481  22.468  1.00  0.00     0.008 C 
ATOM     20  C   UNL     1      16.134 -13.805  23.749  1.00  0.00    -0.020 C 
ATOM     21  C   UNL     1      16.069 -11.314  23.787  1.00  0.00     0.005 C 
ATOM     22  C   UNL     1      14.622 -13.818  24.103  1.00  0.00    -0.020 C 
ATOM     23  C   UNL     1      15.585 -14.804  24.774  1.00  0.00     0.015 C 
ATOM     24  C   UNL     1      14.639 -11.268  24.376  1.00  0.00     0.005 C 
ATOM     25  C   UNL     1      14.156 -12.615  24.984  1.00  0.00     0.004 C 
ATOM     26  C   UNL     1      13.677 -14.355  22.999  1.00  0.00     0.010 C 
ATOM     27  C   UNL     1      12.624 -12.685  25.337  1.00  0.00    -0.006 C 
ATOM     28  C   UNL     1      12.202 -14.359  23.406  1.00  0.00     0.033 C 
ATOM     29  C   UNL     1      11.746 -13.054  24.094  1.00  0.00     0.120 C 
ATOM     30  C   UNL     1      12.119 -11.352  25.947  1.00  0.00     0.014 C 
ATOM     31  C   UNL     1      12.425 -13.771  26.436  1.00  0.00     0.014 C 
BRANCH  29  32
ATOM     32  O   UNL     1      11.630 -11.982  23.183  1.00  0.00    -0.393 OA
ATOM     33  H   UNL     1      11.408 -12.338  22.284  1.00  0.00     0.210 HD
ENDBRANCH  29  32
ENDBRANCH   8  10
ENDBRANCH   1   8
TORSDOF 6
ENDMDL
MODEL 2
REMARK VINA RESULT:    -5.866      1.845      6.925
REMARK INTER + INTRA:          -9.966
REMARK INTER:                  -8.308
REMARK INTRA:                  -1.658
REMARK UNBOUND:                -2.213
REMARK SMILES C=C(CC[C@@H](C)[C@@H]1CC[C@@]2(C)[C@H]3CC[C@H]4C(C)(C)[C@@H](O)CC[C@]45C[C@]35CC[C@@]12C)C(C)C
REMARK SMILES IDX 4 1 3 2 2 3 1 4 30 5 31 6 32 7 5 8 6 9 7 10 8 11 28 12 9 13
REMARK SMILES IDX 10 14 27 15 29 16 11 17 12 18 26 19 25 20 13 21 23 22 24 23
REMARK SMILES IDX 14 24 15 25 22 26 16 27 21 28 19 29 17 30 18 31 20 32
REMARK H PARENT 20 33
REMARK Flexibility Score: inf
ROOT
ATOM      1  C   UNL     1      12.832 -14.498  23.894  1.00  0.00     0.008 C 
ENDROOT
BRANCH   1   2
ATOM      2  C   UNL     1      11.654 -13.673  24.439  1.00  0.00     0.031 C 
BRANCH   2   3
ATOM      3  C   UNL     1      11.666 -12.275  23.864  1.00  0.00    -0.075 C 
ATOM      4  C   UNL     1      11.207 -12.071  22.618  1.00  0.00     0.008 C 
BRANCH   3   5
ATOM      5  C   UNL     1      12.267 -11.155  24.700  1.00  0.00     0.008 C 
ATOM      6  C   UNL     1      12.344 -11.496  26.197  1.00  0.00     0.012 C 
ATOM      7  C   UNL     1      11.505  -9.840  24.459  1.00  0.00     0.012 C 
ENDBRANCH   3   5
ENDBRANCH   2   3
ENDBRANCH   1   2
BRANCH   1   8
ATOM      8  C   UNL     1      14.024 -14.558  24.886  1.00  0.00    -0.010 C 
ATOM      9  C   UNL     1      14.056 -15.971  25.522  1.00  0.00     0.008 C 
BRANCH   8  10
ATOM     10  C   UNL     1      15.414 -14.241  24.214  1.00  0.00    -0.002 C 
ATOM     11  C   UNL     1      16.333 -15.476  24.239  1.00  0.00     0.005 C 
ATOM     12  C   UNL     1      16.306 -13.066  24.772  1.00  0.00    -0.024 C 
ATOM     13  C   UNL     1      17.777 -15.006  24.191  1.00  0.00     0.008 C 
ATOM     14  C   UNL     1      17.778 -13.460  24.299  1.00  0.00    -0.024 C 
ATOM     15  C   UNL     1      15.850 -11.666  24.211  1.00  0.00     0.008 C 
ATOM     16  C   UNL     1      16.196 -13.018  26.324  1.00  0.00     0.012 C 
ATOM     17  C   UNL     1      18.900 -13.076  25.320  1.00  0.00     0.012 C 
ATOM     18  C   UNL     1      18.179 -12.802  22.917  1.00  0.00     0.002 C 
ATOM     19  C   UNL     1      16.993 -10.680  23.959  1.00  0.00     0.008 C 
ATOM     20  C   UNL     1      18.044 -11.260  22.981  1.00  0.00    -0.020 C 
ATOM     21  C   UNL     1      17.388 -13.266  21.657  1.00  0.00     0.005 C 
ATOM     22  C   UNL     1      18.412 -10.544  21.654  1.00  0.00    -0.020 C 
ATOM     23  C   UNL     1      19.316 -10.409  22.884  1.00  0.00     0.015 C 
ATOM     24  C   UNL     1      17.964 -12.699  20.338  1.00  0.00     0.005 C 
ATOM     25  C   UNL     1      18.930 -11.497  20.529  1.00  0.00     0.004 C 
ATOM     26  C   UNL     1      17.516  -9.340  21.268  1.00  0.00     0.010 C 
ATOM     27  C   UNL     1      19.314 -10.723  19.213  1.00  0.00    -0.006 C 
ATOM     28  C   UNL     1      17.933  -8.663  19.960  1.00  0.00     0.033 C 
ATOM     29  C   UNL     1      18.237  -9.657  18.818  1.00  0.00     0.120 C 
ATOM     30  C   UNL     1      19.536 -11.694  18.026  1.00  0.00     0.014 C 
ATOM     31  C   UNL     1      20.675 -10.003  19.449  1.00  0.00     0.014 C 
BRANCH  29  32
ATOM     32  O   UNL     1      17.065 -10.246  18.296  1.00  0.00    -0.393 OA
ATOM     33  H   UNL     1      16.864  -9.849  17.410  1.00  0.00     0.210 HD
ENDBRANCH  29  32
ENDBRANCH   8  10
ENDBRANCH   1   8
TORSDOF 6
ENDMDL
MODEL 3
REMARK VINA RESULT:    -5.734      1.140      1.364
REMARK INTER + INTRA:          -9.791
REMARK INTER:                  -7.830
REMARK INTRA:                  -1.960
REMARK UNBOUND:                -2.213
REMARK SMILES C=C(CC[C@@H](C)[C@@H]1CC[C@@]2(C)[C@H]3CC[C@H]4C(C)(C)[C@@H](O)CC[C@]45C[C@]35CC[C@@]12C)C(C)C
REMARK SMILES IDX 4 1 3 2 2 3 1 4 30 5 31 6 32 7 5 8 6 9 7 10 8 11 28 12 9 13
REMARK SMILES IDX 10 14 27 15 29 16 11 17 12 18 26 19 25 20 13 21 23 22 24 23
REMARK SMILES IDX 14 24 15 25 22 26 16 27 21 28 19 29 17 30 18 31 20 32
REMARK H PARENT 20 33
REMARK Flexibility Score: inf
ROOT
ATOM      1  C   UNL     1      18.138 -11.650  18.501  1.00  0.00     0.008 C 
ENDROOT
BRANCH   1   2
ATOM      2  C   UNL     1      17.089 -10.756  19.183  1.00  0.00     0.031 C 
BRANCH   2   3
ATOM      3  C   UNL     1      17.419  -9.294  18.988  1.00  0.00    -0.075 C 
ATOM      4  C   UNL     1      17.392  -8.773  17.750  1.00  0.00     0.008 C 
BRANCH   3   5
ATOM      5  C   UNL     1      17.841  -8.480  20.201  1.00  0.00     0.008 C 
ATOM      6  C   UNL     1      17.341  -9.073  21.528  1.00  0.00     0.012 C 
ATOM      7  C   UNL     1      17.404  -7.013  20.039  1.00  0.00     0.012 C 
ENDBRANCH   3   5
ENDBRANCH   2   3
ENDBRANCH   1   2
BRANCH   1   8
ATOM      8  C   UNL     1      19.157 -12.244  19.510  1.00  0.00    -0.010 C 
ATOM      9  C   UNL     1      20.366 -11.279  19.604  1.00  0.00     0.008 C 
BRANCH   8  10
ATOM     10  C   UNL     1      18.550 -12.485  20.945  1.00  0.00    -0.002 C 
ATOM     11  C   UNL     1      19.501 -11.967  22.040  1.00  0.00     0.005 C 
ATOM     12  C   UNL     1      18.170 -13.945  21.402  1.00  0.00    -0.024 C 
ATOM     13  C   UNL     1      19.229 -12.736  23.321  1.00  0.00     0.008 C 
ATOM     14  C   UNL     1      18.212 -13.859  22.994  1.00  0.00    -0.024 C 
ATOM     15  C   UNL     1      16.756 -14.380  20.861  1.00  0.00     0.008 C 
ATOM     16  C   UNL     1      19.221 -14.954  20.855  1.00  0.00     0.012 C 
ATOM     17  C   UNL     1      18.732 -15.160  23.690  1.00  0.00     0.012 C 
ATOM     18  C   UNL     1      16.799 -13.538  23.632  1.00  0.00     0.002 C 
ATOM     19  C   UNL     1      15.955 -15.267  21.818  1.00  0.00     0.008 C 
ATOM     20  C   UNL     1      15.746 -14.584  23.191  1.00  0.00    -0.020 C 
ATOM     21  C   UNL     1      16.189 -12.136  23.330  1.00  0.00     0.005 C 
ATOM     22  C   UNL     1      14.328 -14.328  23.771  1.00  0.00    -0.020 C 
ATOM     23  C   UNL     1      15.158 -15.524  24.251  1.00  0.00     0.015 C 
ATOM     24  C   UNL     1      14.897 -11.854  24.132  1.00  0.00     0.005 C 
ATOM     25  C   UNL     1      14.244 -13.118  24.757  1.00  0.00     0.004 C 
ATOM     26  C   UNL     1      13.147 -14.597  22.806  1.00  0.00     0.010 C 
ATOM     27  C   UNL     1      12.796 -12.914  25.337  1.00  0.00    -0.006 C 
ATOM     28  C   UNL     1      11.774 -14.342  23.434  1.00  0.00     0.033 C 
ATOM     29  C   UNL     1      11.694 -13.022  24.231  1.00  0.00     0.120 C 
ATOM     30  C   UNL     1      12.661 -11.552  26.065  1.00  0.00     0.014 C 
ATOM     31  C   UNL     1      12.541 -14.011  26.413  1.00  0.00     0.014 C 
BRANCH  29  32
ATOM     32  O   UNL     1      11.667 -11.890  23.387  1.00  0.00    -0.393 OA
ATOM     33  H   UNL     1      12.031 -11.108  23.876  1.00  0.00     0.210 HD
ENDBRANCH  29  32
ENDBRANCH   8  10
ENDBRANCH   1   8
TORSDOF 6
ENDMDL
MODEL 4
REMARK VINA RESULT:    -5.728      3.122      7.336
REMARK INTER + INTRA:          -9.783
REMARK INTER:                  -8.930
REMARK INTRA:                  -0.853
REMARK UNBOUND:                -2.213
REMARK SMILES C=C(CC[C@@H](C)[C@@H]1CC[C@@]2(C)[C@H]3CC[C@H]4C(C)(C)[C@@H](O)CC[C@]45C[C@]35CC[C@@]12C)C(C)C
REMARK SMILES IDX 4 1 3 2 2 3 1 4 30 5 31 6 32 7 5 8 6 9 7 10 8 11 28 12 9 13
REMARK SMILES IDX 10 14 27 15 29 16 11 17 12 18 26 19 25 20 13 21 23 22 24 23
REMARK SMILES IDX 14 24 15 25 22 26 16 27 21 28 19 29 17 30 18 31 20 32
REMARK H PARENT 20 33
REMARK Flexibility Score: inf
ROOT
ATOM      1  C   UNL     1      11.728 -10.156  24.471  1.00  0.00     0.008 C 
ENDROOT
BRANCH   1   2
ATOM      2  C   UNL     1      11.415  -9.970  25.965  1.00  0.00     0.031 C 
BRANCH   2   3
ATOM      3  C   UNL     1      10.637  -8.696  26.197  1.00  0.00    -0.075 C 
ATOM      4  C   UNL     1      10.457  -7.838  25.178  1.00  0.00     0.008 C 
BRANCH   3   5
ATOM      5  C   UNL     1      10.143  -8.396  27.605  1.00  0.00     0.008 C 
ATOM      6  C   UNL     1      10.195  -9.620  28.534  1.00  0.00     0.012 C 
ATOM      7  C   UNL     1       8.732  -7.783  27.557  1.00  0.00     0.012 C 
ENDBRANCH   3   5
ENDBRANCH   2   3
ENDBRANCH   1   2
BRANCH   1   8
ATOM      8  C   UNL     1      11.315 -11.557  23.948  1.00  0.00    -0.010 C 
ATOM      9  C   UNL     1      10.550 -11.372  22.613  1.00  0.00     0.008 C 
BRANCH   8  10
ATOM     10  C   UNL     1      12.536 -12.531  23.736  1.00  0.00    -0.002 C 
ATOM     11  C   UNL     1      12.102 -13.805  22.987  1.00  0.00     0.005 C 
ATOM     12  C   UNL     1      13.349 -13.055  24.981  1.00  0.00    -0.024 C 
ATOM     13  C   UNL     1      13.061 -14.927  23.344  1.00  0.00     0.008 C 
ATOM     14  C   UNL     1      14.013 -14.405  24.450  1.00  0.00    -0.024 C 
ATOM     15  C   UNL     1      14.421 -12.008  25.465  1.00  0.00     0.008 C 
ATOM     16  C   UNL     1      12.375 -13.323  26.166  1.00  0.00     0.012 C 
ATOM     17  C   UNL     1      14.118 -15.533  25.530  1.00  0.00     0.012 C 
ATOM     18  C   UNL     1      15.473 -14.190  23.877  1.00  0.00     0.002 C 
ATOM     19  C   UNL     1      15.718 -12.626  25.995  1.00  0.00     0.008 C 
ATOM     20  C   UNL     1      16.391 -13.536  24.940  1.00  0.00    -0.020 C 
ATOM     21  C   UNL     1      15.605 -13.330  22.584  1.00  0.00     0.005 C 
ATOM     22  C   UNL     1      17.841 -13.285  24.445  1.00  0.00    -0.020 C 
ATOM     23  C   UNL     1      17.558 -14.356  25.504  1.00  0.00     0.015 C 
ATOM     24  C   UNL     1      17.041 -13.321  22.009  1.00  0.00     0.005 C 
ATOM     25  C   UNL     1      18.130 -13.812  23.002  1.00  0.00     0.004 C 
ATOM     26  C   UNL     1      18.488 -11.954  24.905  1.00  0.00     0.010 C 
ATOM     27  C   UNL     1      19.617 -13.557  22.555  1.00  0.00    -0.006 C 
ATOM     28  C   UNL     1      19.921 -11.765  24.400  1.00  0.00     0.033 C 
ATOM     29  C   UNL     1      20.101 -12.110  22.906  1.00  0.00     0.120 C 
ATOM     30  C   UNL     1      19.806 -13.809  21.037  1.00  0.00     0.014 C 
ATOM     31  C   UNL     1      20.531 -14.586  23.285  1.00  0.00     0.014 C 
BRANCH  29  32
ATOM     32  O   UNL     1      19.531 -11.134  22.060  1.00  0.00    -0.393 OA
ATOM     33  H   UNL     1      19.735 -10.231  22.416  1.00  0.00     0.210 HD
ENDBRANCH  29  32
ENDBRANCH   8  10
ENDBRANCH   1   8
TORSDOF 6
ENDMDL
MODEL 5
REMARK VINA RESULT:    -5.683      2.608      4.509
REMARK INTER + INTRA:          -9.723
REMARK INTER:                  -7.845
REMARK INTRA:                  -1.879
REMARK UNBOUND:                -2.213
REMARK SMILES C=C(CC[C@@H](C)[C@@H]1CC[C@@]2(C)[C@H]3CC[C@H]4C(C)(C)[C@@H](O)CC[C@]45C[C@]35CC[C@@]12C)C(C)C
REMARK SMILES IDX 4 1 3 2 2 3 1 4 30 5 31 6 32 7 5 8 6 9 7 10 8 11 28 12 9 13
REMARK SMILES IDX 10 14 27 15 29 16 11 17 12 18 26 19 25 20 13 21 23 22 24 23
REMARK SMILES IDX 14 24 15 25 22 26 16 27 21 28 19 29 17 30 18 31 20 32
REMARK H PARENT 20 33
REMARK Flexibility Score: inf
ROOT
ATOM      1  C   UNL     1      17.487 -17.112  19.549  1.00  0.00     0.008 C 
ENDROOT
BRANCH   1   2
ATOM      2  C   UNL     1      16.901 -16.544  18.246  1.00  0.00     0.031 C 
BRANCH   2   3
ATOM      3  C   UNL     1      15.593 -15.834  18.510  1.00  0.00    -0.075 C 
ATOM      4  C   UNL     1      14.735 -16.347  19.407  1.00  0.00     0.008 C 
BRANCH   3   5
ATOM      5  C   UNL     1      15.266 -14.594  17.692  1.00  0.00     0.008 C 
ATOM      6  C   UNL     1      15.025 -13.347  18.558  1.00  0.00     0.012 C 
ATOM      7  C   UNL     1      14.075 -14.869  16.757  1.00  0.00     0.012 C 
ENDBRANCH   3   5
ENDBRANCH   2   3
ENDBRANCH   1   2
BRANCH   1   8
ATOM      8  C   UNL     1      18.552 -16.175  20.179  1.00  0.00    -0.010 C 
ATOM      9  C   UNL     1      19.485 -15.670  19.049  1.00  0.00     0.008 C 
BRANCH   8  10
ATOM     10  C   UNL     1      17.929 -14.949  20.949  1.00  0.00    -0.002 C 
ATOM     11  C   UNL     1      18.295 -13.622  20.259  1.00  0.00     0.005 C 
ATOM     12  C   UNL     1      18.275 -14.718  22.470  1.00  0.00    -0.024 C 
ATOM     13  C   UNL     1      18.249 -12.509  21.292  1.00  0.00     0.008 C 
ATOM     14  C   UNL     1      18.010 -13.159  22.679  1.00  0.00    -0.024 C 
ATOM     15  C   UNL     1      17.386 -15.610  23.415  1.00  0.00     0.008 C 
ATOM     16  C   UNL     1      19.765 -15.086  22.729  1.00  0.00     0.012 C 
ATOM     17  C   UNL     1      18.999 -12.472  23.679  1.00  0.00     0.012 C 
ATOM     18  C   UNL     1      16.549 -12.845  23.200  1.00  0.00     0.002 C 
ATOM     19  C   UNL     1      17.004 -14.946  24.741  1.00  0.00     0.008 C 
ATOM     20  C   UNL     1      16.259 -13.608  24.517  1.00  0.00    -0.020 C 
ATOM     21  C   UNL     1      15.370 -13.163  22.232  1.00  0.00     0.005 C 
ATOM     22  C   UNL     1      14.836 -13.357  25.084  1.00  0.00    -0.020 C 
ATOM     23  C   UNL     1      16.068 -12.798  25.805  1.00  0.00     0.015 C 
ATOM     24  C   UNL     1      14.004 -12.666  22.759  1.00  0.00     0.005 C 
ATOM     25  C   UNL     1      13.992 -12.320  24.275  1.00  0.00     0.004 C 
ATOM     26  C   UNL     1      14.127 -14.592  25.696  1.00  0.00     0.010 C 
ATOM     27  C   UNL     1      12.568 -12.081  24.902  1.00  0.00    -0.006 C 
ATOM     28  C   UNL     1      12.735 -14.284  26.253  1.00  0.00     0.033 C 
ATOM     29  C   UNL     1      11.869 -13.420  25.311  1.00  0.00     0.120 C 
ATOM     30  C   UNL     1      11.646 -11.292  23.936  1.00  0.00     0.014 C 
ATOM     31  C   UNL     1      12.737 -11.191  26.169  1.00  0.00     0.014 C 
BRANCH  29  32
ATOM     32  O   UNL     1      11.407 -14.148  24.192  1.00  0.00    -0.393 OA
ATOM     33  H   UNL     1      10.429 -14.289  24.273  1.00  0.00     0.210 HD
ENDBRANCH  29  32
ENDBRANCH   8  10
ENDBRANCH   1   8
TORSDOF 6
ENDMDL
MODEL 6
REMARK VINA RESULT:    -5.647      8.571     12.125
REMARK INTER + INTRA:          -9.676
REMARK INTER:                  -7.519
REMARK INTRA:                  -2.157
REMARK UNBOUND:                -2.213
REMARK SMILES C=C(CC[C@@H](C)[C@@H]1CC[C@@]2(C)[C@H]3CC[C@H]4C(C)(C)[C@@H](O)CC[C@]45C[C@]35CC[C@@]12C)C(C)C
REMARK SMILES IDX 4 1 3 2 2 3 1 4 30 5 31 6 32 7 5 8 6 9 7 10 8 11 28 12 9 13
REMARK SMILES IDX 10 14 27 15 29 16 11 17 12 18 26 19 25 20 13 21 23 22 24 23
REMARK SMILES IDX 14 24 15 25 22 26 16 27 21 28 19 29 17 30 18 31 20 32
REMARK H PARENT 20 33
REMARK Flexibility Score: inf
ROOT
ATOM      1  C   UNL     1      20.001  -3.544  29.961  1.00  0.00     0.008 C 
ENDROOT
BRANCH   1   2
ATOM      2  C   UNL     1      20.690  -2.179  29.796  1.00  0.00     0.031 C 
BRANCH   2   3
ATOM      3  C   UNL     1      19.803  -1.065  30.304  1.00  0.00    -0.075 C 
ATOM      4  C   UNL     1      20.355  -0.030  30.959  1.00  0.00     0.008 C 
BRANCH   3   5
ATOM      5  C   UNL     1      18.300  -1.194  30.113  1.00  0.00     0.008 C 
ATOM      6  C   UNL     1      17.741  -0.221  29.061  1.00  0.00     0.012 C 
ATOM      7  C   UNL     1      17.574  -1.043  31.461  1.00  0.00     0.012 C 
ENDBRANCH   3   5
ENDBRANCH   2   3
ENDBRANCH   1   2
BRANCH   1   8
ATOM      8  C   UNL     1      20.101  -4.417  28.682  1.00  0.00    -0.010 C 
ATOM      9  C   UNL     1      19.975  -5.905  29.098  1.00  0.00     0.008 C 
BRANCH   8  10
ATOM     10  C   UNL     1      19.010  -4.069  27.599  1.00  0.00    -0.002 C 
ATOM     11  C   UNL     1      18.263  -5.336  27.141  1.00  0.00     0.005 C 
ATOM     12  C   UNL     1      19.433  -3.348  26.262  1.00  0.00    -0.024 C 
ATOM     13  C   UNL     1      17.722  -5.100  25.742  1.00  0.00     0.008 C 
ATOM     14  C   UNL     1      18.266  -3.736  25.245  1.00  0.00    -0.024 C 
ATOM     15  C   UNL     1      19.568  -1.791  26.452  1.00  0.00     0.008 C 
ATOM     16  C   UNL     1      20.811  -3.893  25.787  1.00  0.00     0.012 C 
ATOM     17  C   UNL     1      18.748  -3.949  23.772  1.00  0.00     0.012 C 
ATOM     18  C   UNL     1      17.109  -2.658  25.192  1.00  0.00     0.002 C 
ATOM     19  C   UNL     1      19.138  -0.962  25.239  1.00  0.00     0.008 C 
ATOM     20  C   UNL     1      17.675  -1.261  24.833  1.00  0.00    -0.020 C 
ATOM     21  C   UNL     1      16.255  -2.474  26.483  1.00  0.00     0.005 C 
ATOM     22  C   UNL     1      16.596  -0.146  24.772  1.00  0.00    -0.020 C 
ATOM     23  C   UNL     1      17.280  -0.635  23.490  1.00  0.00     0.015 C 
ATOM     24  C   UNL     1      15.048  -1.528  26.279  1.00  0.00     0.005 C 
ATOM     25  C   UNL     1      15.134  -0.650  24.999  1.00  0.00     0.004 C 
ATOM     26  C   UNL     1      17.017   1.230  25.347  1.00  0.00     0.010 C 
ATOM     27  C   UNL     1      14.076   0.511  24.904  1.00  0.00    -0.006 C 
ATOM     28  C   UNL     1      15.922   2.295  25.249  1.00  0.00     0.033 C 
ATOM     29  C   UNL     1      14.529   1.791  25.683  1.00  0.00     0.120 C 
ATOM     30  C   UNL     1      12.686   0.058  25.421  1.00  0.00     0.014 C 
ATOM     31  C   UNL     1      13.885   0.876  23.401  1.00  0.00     0.014 C 
BRANCH  29  32
ATOM     32  O   UNL     1      14.432   1.629  27.083  1.00  0.00    -0.393 OA
ATOM     33  H   UNL     1      13.483   1.481  27.331  1.00  0.00     0.210 HD
ENDBRANCH  29  32
ENDBRANCH   8  10
ENDBRANCH   1   8
TORSDOF 6
ENDMDL
MODEL 7
REMARK VINA RESULT:    -5.567      3.498      6.992
REMARK INTER + INTRA:          -9.570
REMARK INTER:                  -8.241
REMARK INTRA:                  -1.329
REMARK UNBOUND:                -2.213
REMARK SMILES C=C(CC[C@@H](C)[C@@H]1CC[C@@]2(C)[C@H]3CC[C@H]4C(C)(C)[C@@H](O)CC[C@]45C[C@]35CC[C@@]12C)C(C)C
REMARK SMILES IDX 4 1 3 2 2 3 1 4 30 5 31 6 32 7 5 8 6 9 7 10 8 11 28 12 9 13
REMARK SMILES IDX 10 14 27 15 29 16 11 17 12 18 26 19 25 20 13 21 23 22 24 23
REMARK SMILES IDX 14 24 15 25 22 26 16 27 21 28 19 29 17 30 18 31 20 32
REMARK H PARENT 20 33
REMARK Flexibility Score: inf
ROOT
ATOM      1  C   UNL     1      13.761 -12.424  25.500  1.00  0.00     0.008 C 
ENDROOT
BRANCH   1   2
ATOM      2  C   UNL     1      12.256 -12.110  25.538  1.00  0.00     0.031 C 
BRANCH   2   3
ATOM      3  C   UNL     1      11.824 -11.397  24.278  1.00  0.00    -0.075 C 
ATOM      4  C   UNL     1      11.462 -10.105  24.343  1.00  0.00     0.008 C 
BRANCH   3   5
ATOM      5  C   UNL     1      11.747 -12.196  22.986  1.00  0.00     0.008 C 
ATOM      6  C   UNL     1      10.707 -11.644  21.998  1.00  0.00     0.012 C 
ATOM      7  C   UNL     1      11.502 -13.684  23.290  1.00  0.00     0.012 C 
ENDBRANCH   3   5
ENDBRANCH   2   3
ENDBRANCH   1   2
BRANCH   1   8
ATOM      8  C   UNL     1      14.082 -13.856  26.007  1.00  0.00    -0.010 C 
ATOM      9  C   UNL     1      12.788 -14.458  26.611  1.00  0.00     0.008 C 
BRANCH   8  10
ATOM     10  C   UNL     1      14.642 -14.807  24.881  1.00  0.00    -0.002 C 
ATOM     11  C   UNL     1      14.437 -16.286  25.258  1.00  0.00     0.005 C 
ATOM     12  C   UNL     1      16.156 -14.708  24.453  1.00  0.00    -0.024 C 
ATOM     13  C   UNL     1      15.484 -17.118  24.538  1.00  0.00     0.008 C 
ATOM     14  C   UNL     1      16.460 -16.145  23.828  1.00  0.00    -0.024 C 
ATOM     15  C   UNL     1      16.399 -13.543  23.422  1.00  0.00     0.008 C 
ATOM     16  C   UNL     1      17.037 -14.430  25.705  1.00  0.00     0.012 C 
ATOM     17  C   UNL     1      17.907 -16.669  24.107  1.00  0.00     0.012 C 
ATOM     18  C   UNL     1      16.256 -16.192  22.260  1.00  0.00     0.002 C 
ATOM     19  C   UNL     1      17.464 -13.842  22.364  1.00  0.00     0.008 C 
ATOM     20  C   UNL     1      17.128 -15.120  21.559  1.00  0.00    -0.020 C 
ATOM     21  C   UNL     1      14.803 -16.000  21.730  1.00  0.00     0.005 C 
ATOM     22  C   UNL     1      16.972 -15.099  20.014  1.00  0.00    -0.020 C 
ATOM     23  C   UNL     1      18.276 -15.587  20.656  1.00  0.00     0.015 C 
ATOM     24  C   UNL     1      14.679 -16.232  20.206  1.00  0.00     0.005 C 
ATOM     25  C   UNL     1      16.035 -16.213  19.445  1.00  0.00     0.004 C 
ATOM     26  C   UNL     1      16.960 -13.696  19.358  1.00  0.00     0.010 C 
ATOM     27  C   UNL     1      15.929 -16.167  17.876  1.00  0.00    -0.006 C 
ATOM     28  C   UNL     1      16.819 -13.735  17.834  1.00  0.00     0.033 C 
ATOM     29  C   UNL     1      15.729 -14.710  17.338  1.00  0.00     0.120 C 
ATOM     30  C   UNL     1      14.780 -17.069  17.356  1.00  0.00     0.014 C 
ATOM     31  C   UNL     1      17.245 -16.749  17.280  1.00  0.00     0.014 C 
BRANCH  29  32
ATOM     32  O   UNL     1      14.426 -14.223  17.580  1.00  0.00    -0.393 OA
ATOM     33  H   UNL     1      13.845 -14.440  16.806  1.00  0.00     0.210 HD
ENDBRANCH  29  32
ENDBRANCH   8  10
ENDBRANCH   1   8
TORSDOF 6
ENDMDL
MODEL 8
REMARK VINA RESULT:    -5.530     10.542     14.374
REMARK INTER + INTRA:          -9.521
REMARK INTER:                  -8.557
REMARK INTRA:                  -0.964
REMARK UNBOUND:                -2.213
REMARK SMILES C=C(CC[C@@H](C)[C@@H]1CC[C@@]2(C)[C@H]3CC[C@H]4C(C)(C)[C@@H](O)CC[C@]45C[C@]35CC[C@@]12C)C(C)C
REMARK SMILES IDX 4 1 3 2 2 3 1 4 30 5 31 6 32 7 5 8 6 9 7 10 8 11 28 12 9 13
REMARK SMILES IDX 10 14 27 15 29 16 11 17 12 18 26 19 25 20 13 21 23 22 24 23
REMARK SMILES IDX 14 24 15 25 22 26 16 27 21 28 19 29 17 30 18 31 20 32
REMARK H PARENT 20 33
REMARK Flexibility Score: inf
ROOT
ATOM      1  C   UNL     1      12.911  -2.459  26.565  1.00  0.00     0.008 C 
ENDROOT
BRANCH   1   2
ATOM      2  C   UNL     1      12.862  -3.627  25.566  1.00  0.00     0.031 C 
BRANCH   2   3
ATOM      3  C   UNL     1      11.930  -4.712  26.054  1.00  0.00    -0.075 C 
ATOM      4  C   UNL     1      12.295  -5.471  27.101  1.00  0.00     0.008 C 
BRANCH   3   5
ATOM      5  C   UNL     1      10.637  -4.953  25.290  1.00  0.00     0.008 C 
ATOM      6  C   UNL     1       9.918  -3.651  24.900  1.00  0.00     0.012 C 
ATOM      7  C   UNL     1       9.712  -5.891  26.085  1.00  0.00     0.012 C 
ENDBRANCH   3   5
ENDBRANCH   2   3
ENDBRANCH   1   2
BRANCH   1   8
ATOM      8  C   UNL     1      12.781  -1.077  25.869  1.00  0.00    -0.010 C 
ATOM      9  C   UNL     1      11.315  -0.596  26.013  1.00  0.00     0.008 C 
BRANCH   8  10
ATOM     10  C   UNL     1      13.762   0.011  26.451  1.00  0.00    -0.002 C 
ATOM     11  C   UNL     1      13.233   1.431  26.179  1.00  0.00     0.005 C 
ATOM     12  C   UNL     1      15.266   0.046  25.977  1.00  0.00    -0.024 C 
ATOM     13  C   UNL     1      14.410   2.391  26.161  1.00  0.00     0.008 C 
ATOM     14  C   UNL     1      15.710   1.552  26.260  1.00  0.00    -0.024 C 
ATOM     15  C   UNL     1      16.151  -0.997  26.758  1.00  0.00     0.008 C 
ATOM     16  C   UNL     1      15.345  -0.300  24.462  1.00  0.00     0.012 C 
ATOM     17  C   UNL     1      16.708   2.132  25.204  1.00  0.00     0.012 C 
ATOM     18  C   UNL     1      16.390   1.740  27.677  1.00  0.00     0.002 C 
ATOM     19  C   UNL     1      17.583  -0.532  27.037  1.00  0.00     0.008 C 
ATOM     20  C   UNL     1      17.609   0.796  27.831  1.00  0.00    -0.020 C 
ATOM     21  C   UNL     1      15.490   1.513  28.929  1.00  0.00     0.005 C 
ATOM     22  C   UNL     1      18.323   0.916  29.204  1.00  0.00    -0.020 C 
ATOM     23  C   UNL     1      19.008   1.416  27.927  1.00  0.00     0.015 C 
ATOM     24  C   UNL     1      16.194   1.885  30.255  1.00  0.00     0.005 C 
ATOM     25  C   UNL     1      17.738   2.022  30.141  1.00  0.00     0.004 C 
ATOM     26  C   UNL     1      18.817  -0.415  29.826  1.00  0.00     0.010 C 
ATOM     27  C   UNL     1      18.510   2.123  31.509  1.00  0.00    -0.006 C 
ATOM     28  C   UNL     1      19.526  -0.236  31.171  1.00  0.00     0.033 C 
ATOM     29  C   UNL     1      18.788   0.716  32.137  1.00  0.00     0.120 C 
ATOM     30  C   UNL     1      17.744   3.001  32.531  1.00  0.00     0.014 C 
ATOM     31  C   UNL     1      19.869   2.839  31.251  1.00  0.00     0.014 C 
BRANCH  29  32
ATOM     32  O   UNL     1      17.623   0.130  32.678  1.00  0.00    -0.393 OA
ATOM     33  H   UNL     1      17.869  -0.434  33.455  1.00  0.00     0.210 HD
ENDBRANCH  29  32
ENDBRANCH   8  10
ENDBRANCH   1   8
TORSDOF 6
ENDMDL
MODEL 9
REMARK VINA RESULT:    -5.463      2.085      3.390
REMARK INTER + INTRA:          -9.432
REMARK INTER:                  -7.544
REMARK INTRA:                  -1.888
REMARK UNBOUND:                -2.213
REMARK SMILES C=C(CC[C@@H](C)[C@@H]1CC[C@@]2(C)[C@H]3CC[C@H]4C(C)(C)[C@@H](O)CC[C@]45C[C@]35CC[C@@]12C)C(C)C
REMARK SMILES IDX 4 1 3 2 2 3 1 4 30 5 31 6 32 7 5 8 6 9 7 10 8 11 28 12 9 13
REMARK SMILES IDX 10 14 27 15 29 16 11 17 12 18 26 19 25 20 13 21 23 22 24 23
REMARK SMILES IDX 14 24 15 25 22 26 16 27 21 28 19 29 17 30 18 31 20 32
REMARK H PARENT 20 33
REMARK Flexibility Score: inf
ROOT
ATOM      1  C   UNL     1      19.499 -10.069  18.687  1.00  0.00     0.008 C 
ENDROOT
BRANCH   1   2
ATOM      2  C   UNL     1      18.141  -9.367  18.519  1.00  0.00     0.031 C 
BRANCH   2   3
ATOM      3  C   UNL     1      17.859  -8.454  19.689  1.00  0.00    -0.075 C 
ATOM      4  C   UNL     1      17.303  -7.251  19.468  1.00  0.00     0.008 C 
BRANCH   3   5
ATOM      5  C   UNL     1      18.282  -8.907  21.078  1.00  0.00     0.008 C 
ATOM      6  C   UNL     1      17.339  -9.961  21.681  1.00  0.00     0.012 C 
ATOM      7  C   UNL     1      18.443  -7.694  22.011  1.00  0.00     0.012 C 
ENDBRANCH   3   5
ENDBRANCH   2   3
ENDBRANCH   1   2
BRANCH   1   8
ATOM      8  C   UNL     1      19.493 -11.515  18.123  1.00  0.00    -0.010 C 
ATOM      9  C   UNL     1      20.922 -11.846  17.622  1.00  0.00     0.008 C 
BRANCH   8  10
ATOM     10  C   UNL     1      19.029 -12.594  19.174  1.00  0.00    -0.002 C 
ATOM     11  C   UNL     1      20.120 -13.660  19.387  1.00  0.00     0.005 C 
ATOM     12  C   UNL     1      17.708 -13.418  18.922  1.00  0.00    -0.024 C 
ATOM     13  C   UNL     1      19.458 -14.943  19.859  1.00  0.00     0.008 C 
ATOM     14  C   UNL     1      17.923 -14.739  19.790  1.00  0.00    -0.024 C 
ATOM     15  C   UNL     1      16.425 -12.615  19.359  1.00  0.00     0.008 C 
ATOM     16  C   UNL     1      17.575 -13.743  17.406  1.00  0.00     0.012 C 
ATOM     17  C   UNL     1      17.321 -16.031  19.144  1.00  0.00     0.012 C 
ATOM     18  C   UNL     1      17.306 -14.630  21.243  1.00  0.00     0.002 C 
ATOM     19  C   UNL     1      15.307 -13.478  19.951  1.00  0.00     0.008 C 
ATOM     20  C   UNL     1      15.797 -14.286  21.177  1.00  0.00    -0.020 C 
ATOM     21  C   UNL     1      17.957 -13.597  22.211  1.00  0.00     0.005 C 
ATOM     22  C   UNL     1      15.124 -14.152  22.570  1.00  0.00    -0.020 C 
ATOM     23  C   UNL     1      14.785 -15.334  21.655  1.00  0.00     0.015 C 
ATOM     24  C   UNL     1      17.401 -13.685  23.652  1.00  0.00     0.005 C 
ATOM     25  C   UNL     1      16.067 -14.472  23.775  1.00  0.00     0.004 C 
ATOM     26  C   UNL     1      14.084 -13.012  22.708  1.00  0.00     0.010 C 
ATOM     27  C   UNL     1      15.333 -14.347  25.162  1.00  0.00    -0.006 C 
ATOM     28  C   UNL     1      13.442 -12.935  24.096  1.00  0.00     0.033 C 
ATOM     29  C   UNL     1      14.456 -13.054  25.254  1.00  0.00     0.120 C 
ATOM     30  C   UNL     1      16.340 -14.372  26.341  1.00  0.00     0.014 C 
ATOM     31  C   UNL     1      14.417 -15.594  25.344  1.00  0.00     0.014 C 
BRANCH  29  32
ATOM     32  O   UNL     1      15.236 -11.886  25.403  1.00  0.00    -0.393 OA
ATOM     33  H   UNL     1      15.386 -11.476  24.513  1.00  0.00     0.210 HD
ENDBRANCH  29  32
ENDBRANCH   8  10
ENDBRANCH   1   8
TORSDOF 6
ENDMDL
