MODEL 1
REMARK VINA RESULT:    -5.264      0.000      0.000
REMARK INTER + INTRA:          -5.851
REMARK INTER:                  -5.726
REMARK INTRA:                  -0.125
REMARK UNBOUND:                -0.125
REMARK SMILES Cc1ccc(C(C)C)cc1O
REMARK SMILES IDX 1 1 2 2 10 3 9 4 5 5 4 6 3 7 11 8 6 10 7 11 8 12
REMARK H PARENT 11 9
REMARK Flexibility Score: inf
ROOT
ATOM      1  C   UNL     1     177.453 179.770 174.009  1.00  0.00     0.048 C 
ATOM      2  C   UNL     1     178.296 180.010 175.231  1.00  0.00    -0.009 A 
ATOM      3  C   UNL     1     178.068 181.123 176.070  1.00  0.00     0.118 A 
ATOM      4  C   UNL     1     178.869 181.318 177.200  1.00  0.00     0.050 A 
ATOM      5  C   UNL     1     179.904 180.419 177.516  1.00  0.00    -0.042 A 
ATOM      6  C   UNL     1     180.125 179.316 176.677  1.00  0.00     0.004 A 
ATOM      7  C   UNL     1     179.329 179.113 175.547  1.00  0.00     0.007 A 
ENDROOT
BRANCH   3   8
ATOM      8  O   UNL     1     177.056 182.049 175.809  1.00  0.00    -0.508 OA
ATOM      9  H   UNL     1     176.922 182.891 176.357  1.00  0.00     0.293 HD
ENDBRANCH   3   8
BRANCH   5  10
ATOM     10  C   UNL     1     180.776 180.627 178.741  1.00  0.00     0.013 C 
ATOM     11  C   UNL     1     181.185 179.286 179.361  1.00  0.00     0.012 C 
ATOM     12  C   UNL     1     180.079 181.522 179.771  1.00  0.00     0.012 C 
ENDBRANCH   5  10
TORSDOF 2
ENDMDL
MODEL 2
REMARK VINA RESULT:    -5.234      3.161      4.021
REMARK INTER + INTRA:          -5.819
REMARK INTER:                  -5.693
REMARK INTRA:                  -0.125
REMARK UNBOUND:                -0.125
REMARK SMILES Cc1ccc(C(C)C)cc1O
REMARK SMILES IDX 1 1 2 2 10 3 9 4 5 5 4 6 3 7 11 8 6 10 7 11 8 12
REMARK H PARENT 11 9
REMARK Flexibility Score: inf
ROOT
ATOM      1  C   UNL     1     183.383 180.774 173.988  1.00  0.00     0.048 C 
ATOM      2  C   UNL     1     182.515 180.585 175.202  1.00  0.00    -0.009 A 
ATOM      3  C   UNL     1     182.722 179.505 176.089  1.00  0.00     0.118 A 
ATOM      4  C   UNL     1     181.898 179.356 177.209  1.00  0.00     0.050 A 
ATOM      5  C   UNL     1     180.860 180.270 177.468  1.00  0.00    -0.042 A 
ATOM      6  C   UNL     1     180.660 181.340 176.582  1.00  0.00     0.004 A 
ATOM      7  C   UNL     1     181.479 181.496 175.462  1.00  0.00     0.007 A 
ENDROOT
BRANCH   3   8
ATOM      8  O   UNL     1     183.736 178.566 175.885  1.00  0.00    -0.508 OA
ATOM      9  H   UNL     1     184.225 178.107 176.643  1.00  0.00     0.293 HD
ENDBRANCH   3   8
BRANCH   5  10
ATOM     10  C   UNL     1     179.962 180.112 178.682  1.00  0.00     0.013 C 
ATOM     11  C   UNL     1     179.496 181.476 179.205  1.00  0.00     0.012 C 
ATOM     12  C   UNL     1     180.660 179.308 179.785  1.00  0.00     0.012 C 
ENDBRANCH   5  10
TORSDOF 2
ENDMDL
MODEL 3
REMARK VINA RESULT:    -5.092      2.695      3.444
REMARK INTER + INTRA:          -5.664
REMARK INTER:                  -5.537
REMARK INTRA:                  -0.128
REMARK UNBOUND:                -0.125
REMARK SMILES Cc1ccc(C(C)C)cc1O
REMARK SMILES IDX 1 1 2 2 10 3 9 4 5 5 4 6 3 7 11 8 6 10 7 11 8 12
REMARK H PARENT 11 9
REMARK Flexibility Score: inf
ROOT
ATOM      1  C   UNL     1     183.661 180.059 174.141  1.00  0.00     0.048 C 
ATOM      2  C   UNL     1     182.719 180.159 175.310  1.00  0.00    -0.009 A 
ATOM      3  C   UNL     1     181.770 181.201 175.398  1.00  0.00     0.118 A 
ATOM      4  C   UNL     1     180.908 181.266 176.498  1.00  0.00     0.050 A 
ATOM      5  C   UNL     1     180.971 180.305 177.524  1.00  0.00    -0.042 A 
ATOM      6  C   UNL     1     181.917 179.273 177.429  1.00  0.00     0.004 A 
ATOM      7  C   UNL     1     182.781 179.200 176.334  1.00  0.00     0.007 A 
ENDROOT
BRANCH   3   8
ATOM      8  O   UNL     1     181.660 182.184 174.412  1.00  0.00    -0.508 OA
ATOM      9  H   UNL     1     182.366 182.893 174.256  1.00  0.00     0.293 HD
ENDBRANCH   3   8
BRANCH   5  10
ATOM     10  C   UNL     1     180.038 180.372 178.719  1.00  0.00     0.013 C 
ATOM     11  C   UNL     1     180.328 181.609 179.577  1.00  0.00     0.012 C 
ATOM     12  C   UNL     1     180.118 179.090 179.555  1.00  0.00     0.012 C 
ENDBRANCH   5  10
TORSDOF 2
ENDMDL
MODEL 4
REMARK VINA RESULT:    -5.023      3.027      3.853
REMARK INTER + INTRA:          -5.589
REMARK INTER:                  -5.485
REMARK INTRA:                  -0.103
REMARK UNBOUND:                -0.125
REMARK SMILES Cc1ccc(C(C)C)cc1O
REMARK SMILES IDX 1 1 2 2 10 3 9 4 5 5 4 6 3 7 11 8 6 10 7 11 8 12
REMARK H PARENT 11 9
REMARK Flexibility Score: inf
ROOT
ATOM      1  C   UNL     1     182.623 178.025 173.541  1.00  0.00     0.048 C 
ATOM      2  C   UNL     1     181.989 178.479 174.827  1.00  0.00    -0.009 A 
ATOM      3  C   UNL     1     182.763 179.042 175.865  1.00  0.00     0.118 A 
ATOM      4  C   UNL     1     182.144 179.455 177.050  1.00  0.00     0.050 A 
ATOM      5  C   UNL     1     180.754 179.317 177.225  1.00  0.00    -0.042 A 
ATOM      6  C   UNL     1     179.992 178.756 176.188  1.00  0.00     0.004 A 
ATOM      7  C   UNL     1     180.602 178.342 175.002  1.00  0.00     0.007 A 
ENDROOT
BRANCH   3   8
ATOM      8  O   UNL     1     184.145 179.205 175.751  1.00  0.00    -0.508 OA
ATOM      9  H   UNL     1     184.636 179.156 174.866  1.00  0.00     0.293 HD
ENDBRANCH   3   8
BRANCH   5  10
ATOM     10  C   UNL     1     180.077 179.764 178.508  1.00  0.00     0.013 C 
ATOM     11  C   UNL     1     179.616 181.222 178.410  1.00  0.00     0.012 C 
ATOM     12  C   UNL     1     180.995 179.555 179.718  1.00  0.00     0.012 C 
ENDBRANCH   5  10
TORSDOF 2
ENDMDL
MODEL 5
REMARK VINA RESULT:    -5.020      1.596      1.860
REMARK INTER + INTRA:          -5.586
REMARK INTER:                  -5.482
REMARK INTRA:                  -0.104
REMARK UNBOUND:                -0.125
REMARK SMILES Cc1ccc(C(C)C)cc1O
REMARK SMILES IDX 1 1 2 2 10 3 9 4 5 5 4 6 3 7 11 8 6 10 7 11 8 12
REMARK H PARENT 11 9
REMARK Flexibility Score: inf
ROOT
ATOM      1  C   UNL     1     178.029 182.711 173.511  1.00  0.00     0.048 C 
ATOM      2  C   UNL     1     178.680 182.258 174.789  1.00  0.00    -0.009 A 
ATOM      3  C   UNL     1     177.922 181.676 175.829  1.00  0.00     0.118 A 
ATOM      4  C   UNL     1     178.556 181.265 177.006  1.00  0.00     0.050 A 
ATOM      5  C   UNL     1     179.945 181.422 177.172  1.00  0.00    -0.042 A 
ATOM      6  C   UNL     1     180.690 182.002 176.134  1.00  0.00     0.004 A 
ATOM      7  C   UNL     1     180.065 182.414 174.955  1.00  0.00     0.007 A 
ENDROOT
BRANCH   3   8
ATOM      8  O   UNL     1     176.541 181.493 175.724  1.00  0.00    -0.508 OA
ATOM      9  H   UNL     1     176.113 180.587 175.577  1.00  0.00     0.293 HD
ENDBRANCH   3   8
BRANCH   5  10
ATOM     10  C   UNL     1     180.638 180.978 178.448  1.00  0.00     0.013 C 
ATOM     11  C   UNL     1     181.114 179.525 178.339  1.00  0.00     0.012 C 
ATOM     12  C   UNL     1     179.729 181.172 179.667  1.00  0.00     0.012 C 
ENDBRANCH   5  10
TORSDOF 2
ENDMDL
MODEL 6
REMARK VINA RESULT:    -5.017      1.820      4.213
REMARK INTER + INTRA:          -5.582
REMARK INTER:                  -5.454
REMARK INTRA:                  -0.128
REMARK UNBOUND:                -0.125
REMARK SMILES Cc1ccc(C(C)C)cc1O
REMARK SMILES IDX 1 1 2 2 10 3 9 4 5 5 4 6 3 7 11 8 6 10 7 11 8 12
REMARK H PARENT 11 9
REMARK Flexibility Score: inf
ROOT
ATOM      1  C   UNL     1     181.485 179.234 179.336  1.00  0.00     0.048 C 
ATOM      2  C   UNL     1     180.495 179.847 178.384  1.00  0.00    -0.009 A 
ATOM      3  C   UNL     1     179.775 181.013 178.728  1.00  0.00     0.118 A 
ATOM      4  C   UNL     1     178.862 181.560 177.821  1.00  0.00     0.050 A 
ATOM      5  C   UNL     1     178.647 180.965 176.564  1.00  0.00    -0.042 A 
ATOM      6  C   UNL     1     179.366 179.807 176.230  1.00  0.00     0.004 A 
ATOM      7  C   UNL     1     180.281 179.255 177.129  1.00  0.00     0.007 A 
ENDROOT
BRANCH   3   8
ATOM      8  O   UNL     1     179.944 181.649 179.960  1.00  0.00    -0.508 OA
ATOM      9  H   UNL     1     180.832 182.024 180.271  1.00  0.00     0.293 HD
ENDBRANCH   3   8
BRANCH   5  10
ATOM     10  C   UNL     1     177.657 181.554 175.576  1.00  0.00     0.013 C 
ATOM     11  C   UNL     1     176.815 180.456 174.917  1.00  0.00     0.012 C 
ATOM     12  C   UNL     1     178.369 182.410 174.523  1.00  0.00     0.012 C 
ENDBRANCH   5  10
TORSDOF 2
ENDMDL
MODEL 7
REMARK VINA RESULT:    -4.999      1.396      2.019
REMARK INTER + INTRA:          -5.563
REMARK INTER:                  -5.436
REMARK INTRA:                  -0.127
REMARK UNBOUND:                -0.125
REMARK SMILES Cc1ccc(C(C)C)cc1O
REMARK SMILES IDX 1 1 2 2 10 3 9 4 5 5 4 6 3 7 11 8 6 10 7 11 8 12
REMARK H PARENT 11 9
REMARK Flexibility Score: inf
ROOT
ATOM      1  C   UNL     1     177.213 180.262 174.134  1.00  0.00     0.048 C 
ATOM      2  C   UNL     1     178.144 180.327 175.314  1.00  0.00    -0.009 A 
ATOM      3  C   UNL     1     179.129 179.337 175.524  1.00  0.00     0.118 A 
ATOM      4  C   UNL     1     179.979 179.425 176.631  1.00  0.00     0.050 A 
ATOM      5  C   UNL     1     179.869 180.490 177.544  1.00  0.00    -0.042 A 
ATOM      6  C   UNL     1     178.887 181.470 177.328  1.00  0.00     0.004 A 
ATOM      7  C   UNL     1     178.034 181.390 176.225  1.00  0.00     0.007 A 
ENDROOT
BRANCH   3   8
ATOM      8  O   UNL     1     179.287 178.256 174.653  1.00  0.00    -0.508 OA
ATOM      9  H   UNL     1     179.839 178.306 173.806  1.00  0.00     0.293 HD
ENDBRANCH   3   8
BRANCH   5  10
ATOM     10  C   UNL     1     180.789 180.590 178.747  1.00  0.00     0.013 C 
ATOM     11  C   UNL     1     181.154 179.200 179.280  1.00  0.00     0.012 C 
ATOM     12  C   UNL     1     180.168 181.458 179.847  1.00  0.00     0.012 C 
ENDBRANCH   5  10
TORSDOF 2
ENDMDL
MODEL 8
REMARK VINA RESULT:    -4.938      2.118      4.652
REMARK INTER + INTRA:          -5.496
REMARK INTER:                  -5.371
REMARK INTRA:                  -0.125
REMARK UNBOUND:                -0.125
REMARK SMILES Cc1ccc(C(C)C)cc1O
REMARK SMILES IDX 1 1 2 2 10 3 9 4 5 5 4 6 3 7 11 8 6 10 7 11 8 12
REMARK H PARENT 11 9
REMARK Flexibility Score: inf
ROOT
ATOM      1  C   UNL     1     180.456 181.681 179.802  1.00  0.00     0.048 C 
ATOM      2  C   UNL     1     180.106 180.931 178.546  1.00  0.00    -0.009 A 
ATOM      3  C   UNL     1     180.701 179.685 178.248  1.00  0.00     0.118 A 
ATOM      4  C   UNL     1     180.354 179.012 177.072  1.00  0.00     0.050 A 
ATOM      5  C   UNL     1     179.417 179.559 176.175  1.00  0.00    -0.042 A 
ATOM      6  C   UNL     1     178.831 180.798 176.479  1.00  0.00     0.004 A 
ATOM      7  C   UNL     1     179.171 181.476 177.651  1.00  0.00     0.007 A 
ENDROOT
BRANCH   3   8
ATOM      8  O   UNL     1     181.637 179.091 179.098  1.00  0.00    -0.508 OA
ATOM      9  H   UNL     1     181.981 179.538 179.939  1.00  0.00     0.293 HD
ENDBRANCH   3   8
BRANCH   5  10
ATOM     10  C   UNL     1     179.038 178.833 174.897  1.00  0.00     0.013 C 
ATOM     11  C   UNL     1     177.559 179.049 174.558  1.00  0.00     0.012 C 
ATOM     12  C   UNL     1     179.370 177.339 174.991  1.00  0.00     0.012 C 
ENDBRANCH   5  10
TORSDOF 2
ENDMDL
MODEL 9
REMARK VINA RESULT:    -4.924      2.645      4.048
REMARK INTER + INTRA:          -5.481
REMARK INTER:                  -5.356
REMARK INTRA:                  -0.125
REMARK UNBOUND:                -0.125
REMARK SMILES Cc1ccc(C(C)C)cc1O
REMARK SMILES IDX 1 1 2 2 10 3 9 4 5 5 4 6 3 7 11 8 6 10 7 11 8 12
REMARK H PARENT 11 9
REMARK Flexibility Score: inf
ROOT
ATOM      1  C   UNL     1     180.284 179.072 179.846  1.00  0.00     0.048 C 
ATOM      2  C   UNL     1     180.621 179.811 178.580  1.00  0.00    -0.009 A 
ATOM      3  C   UNL     1     180.020 181.052 178.276  1.00  0.00     0.118 A 
ATOM      4  C   UNL     1     180.354 181.715 177.091  1.00  0.00     0.050 A 
ATOM      5  C   UNL     1     181.284 181.163 176.191  1.00  0.00    -0.042 A 
ATOM      6  C   UNL     1     181.877 179.929 176.501  1.00  0.00     0.004 A 
ATOM      7  C   UNL     1     181.549 179.260 177.683  1.00  0.00     0.007 A 
ENDROOT
BRANCH   3   8
ATOM      8  O   UNL     1     179.089 181.651 179.129  1.00  0.00    -0.508 OA
ATOM      9  H   UNL     1     178.243 181.187 179.436  1.00  0.00     0.293 HD
ENDBRANCH   3   8
BRANCH   5  10
ATOM     10  C   UNL     1     181.650 181.878 174.903  1.00  0.00     0.013 C 
ATOM     11  C   UNL     1     183.121 181.645 174.541  1.00  0.00     0.012 C 
ATOM     12  C   UNL     1     181.335 183.375 174.994  1.00  0.00     0.012 C 
ENDBRANCH   5  10
TORSDOF 2
ENDMDL
