MODEL 1
REMARK VINA RESULT:    -3.491      0.000      0.000
REMARK INTER + INTRA:          -8.778
REMARK INTER:                  -6.348
REMARK INTRA:                  -2.431
REMARK UNBOUND:                -2.431
REMARK SMILES CCCCCC=CCC=CCCCCCCCC(=O)[O-]
REMARK SMILES IDX 11 1 12 2 13 3 14 4 15 5 16 6 17 7 18 8 19 9 20 10 10 11
REMARK SMILES IDX 9 12 8 13 7 14 6 15 5 16 4 17 3 18 2 19 1 20
REMARK H PARENT
REMARK Flexibility Score: inf
ROOT
ATOM      1  C   UNL     1      59.798  33.332  58.617  1.00  0.00     0.027 C 
ENDROOT
BRANCH   1   2
ATOM      2  C   UNL     1      60.666  32.260  59.295  1.00  0.00     0.004 C 
BRANCH   2   3
ATOM      3  C   UNL     1      60.983  32.554  60.774  1.00  0.00     0.000 C 
BRANCH   3   4
ATOM      4  C   UNL     1      60.661  31.366  61.698  1.00  0.00     0.000 C 
BRANCH   4   5
ATOM      5  C   UNL     1      61.743  30.274  61.656  1.00  0.00     0.000 C 
BRANCH   5   6
ATOM      6  C   UNL     1      63.168  30.855  61.646  1.00  0.00     0.006 C 
BRANCH   6   7
ATOM      7  C   UNL     1      64.006  30.307  60.483  1.00  0.00     0.053 C 
BRANCH   7   8
ATOM      8  C   UNL     1      64.820  29.118  60.895  1.00  0.00     0.041 C 
ATOM      9  O   UNL     1      66.055  29.238  61.109  1.00  0.00    -0.550 OA
ATOM     10  O   UNL     1      64.219  27.870  61.014  1.00  0.00    -0.550 OA
ENDBRANCH   7   8
ENDBRANCH   6   7
ENDBRANCH   5   6
ENDBRANCH   4   5
ENDBRANCH   3   4
ENDBRANCH   2   3
ENDBRANCH   1   2
BRANCH   1  11
ATOM     11  C   UNL     1      60.623  34.362  57.884  1.00  0.00    -0.031 C 
ATOM     12  C   UNL     1      60.698  35.653  58.258  1.00  0.00    -0.027 C 
BRANCH  12  13
ATOM     13  C   UNL     1      59.974  36.232  59.448  1.00  0.00     0.054 C 
BRANCH  13  14
ATOM     14  C   UNL     1      60.893  36.394  60.626  1.00  0.00    -0.027 C 
ATOM     15  C   UNL     1      62.215  36.558  60.469  1.00  0.00    -0.031 C 
BRANCH  15  16
ATOM     16  C   UNL     1      63.130  36.752  61.647  1.00  0.00     0.027 C 
BRANCH  16  17
ATOM     17  C   UNL     1      64.247  35.701  61.665  1.00  0.00     0.004 C 
BRANCH  17  18
ATOM     18  C   UNL     1      63.778  34.391  61.015  1.00  0.00     0.000 C 
BRANCH  18  19
ATOM     19  C   UNL     1      64.700  33.935  59.874  1.00  0.00    -0.003 C 
ATOM     20  C   UNL     1      63.947  33.694  58.565  1.00  0.00     0.004 C 
ENDBRANCH  18  19
ENDBRANCH  17  18
ENDBRANCH  16  17
ENDBRANCH  15  16
ENDBRANCH  13  14
ENDBRANCH  12  13
ENDBRANCH   1  11
TORSDOF 14
ENDMDL
MODEL 2
REMARK VINA RESULT:    -3.462     12.338     14.135
REMARK INTER + INTRA:          -8.726
REMARK INTER:                  -7.118
REMARK INTRA:                  -1.607
REMARK UNBOUND:                -2.431
REMARK SMILES CCCCCC=CCC=CCCCCCCCC(=O)[O-]
REMARK SMILES IDX 11 1 12 2 13 3 14 4 15 5 16 6 17 7 18 8 19 9 20 10 10 11
REMARK SMILES IDX 9 12 8 13 7 14 6 15 5 16 4 17 3 18 2 19 1 20
REMARK H PARENT
REMARK Flexibility Score: inf
ROOT
ATOM      1  C   UNL     1      60.009  27.423  49.969  1.00  0.00     0.027 C 
ENDROOT
BRANCH   1   2
ATOM      2  C   UNL     1      59.487  26.074  49.448  1.00  0.00     0.004 C 
BRANCH   2   3
ATOM      3  C   UNL     1      58.885  25.170  50.542  1.00  0.00     0.000 C 
BRANCH   3   4
ATOM      4  C   UNL     1      59.775  23.957  50.865  1.00  0.00     0.000 C 
BRANCH   4   5
ATOM      5  C   UNL     1      60.713  23.585  49.704  1.00  0.00     0.000 C 
BRANCH   5   6
ATOM      6  C   UNL     1      60.518  22.134  49.231  1.00  0.00     0.006 C 
BRANCH   6   7
ATOM      7  C   UNL     1      60.531  21.139  50.399  1.00  0.00     0.053 C 
BRANCH   7   8
ATOM      8  C   UNL     1      59.885  19.837  50.030  1.00  0.00     0.041 C 
ATOM      9  O   UNL     1      60.371  18.750  50.438  1.00  0.00    -0.550 OA
ATOM     10  O   UNL     1      58.763  19.825  49.210  1.00  0.00    -0.550 OA
ENDBRANCH   7   8
ENDBRANCH   6   7
ENDBRANCH   5   6
ENDBRANCH   4   5
ENDBRANCH   3   4
ENDBRANCH   2   3
ENDBRANCH   1   2
BRANCH   1  11
ATOM     11  C   UNL     1      59.548  28.585  49.120  1.00  0.00    -0.031 C 
ATOM     12  C   UNL     1      58.466  29.330  49.410  1.00  0.00    -0.027 C 
BRANCH  12  13
ATOM     13  C   UNL     1      57.580  29.103  50.610  1.00  0.00     0.054 C 
BRANCH  13  14
ATOM     14  C   UNL     1      56.435  28.185  50.283  1.00  0.00    -0.027 C 
ATOM     15  C   UNL     1      55.169  28.625  50.241  1.00  0.00    -0.031 C 
BRANCH  15  16
ATOM     16  C   UNL     1      54.029  27.712  49.883  1.00  0.00     0.027 C 
BRANCH  16  17
ATOM     17  C   UNL     1      54.389  26.243  50.137  1.00  0.00     0.004 C 
BRANCH  17  18
ATOM     18  C   UNL     1      53.618  25.692  51.346  1.00  0.00     0.000 C 
BRANCH  18  19
ATOM     19  C   UNL     1      54.393  25.848  52.663  1.00  0.00    -0.003 C 
ATOM     20  C   UNL     1      55.832  25.342  52.567  1.00  0.00     0.004 C 
ENDBRANCH  18  19
ENDBRANCH  17  18
ENDBRANCH  16  17
ENDBRANCH  15  16
ENDBRANCH  13  14
ENDBRANCH  12  13
ENDBRANCH   1  11
TORSDOF 14
ENDMDL
MODEL 3
REMARK VINA RESULT:    -3.423     10.962     13.116
REMARK INTER + INTRA:          -8.655
REMARK INTER:                  -6.436
REMARK INTRA:                  -2.219
REMARK UNBOUND:                -2.431
REMARK SMILES CCCCCC=CCC=CCCCCCCCC(=O)[O-]
REMARK SMILES IDX 11 1 12 2 13 3 14 4 15 5 16 6 17 7 18 8 19 9 20 10 10 11
REMARK SMILES IDX 9 12 8 13 7 14 6 15 5 16 4 17 3 18 2 19 1 20
REMARK H PARENT
REMARK Flexibility Score: inf
ROOT
ATOM      1  C   UNL     1      61.559  28.235  50.715  1.00  0.00     0.027 C 
ENDROOT
BRANCH   1   2
ATOM      2  C   UNL     1      60.862  27.947  52.056  1.00  0.00     0.004 C 
BRANCH   2   3
ATOM      3  C   UNL     1      61.474  26.770  52.839  1.00  0.00     0.000 C 
BRANCH   3   4
ATOM      4  C   UNL     1      60.426  25.719  53.245  1.00  0.00     0.000 C 
BRANCH   4   5
ATOM      5  C   UNL     1      59.065  25.947  52.566  1.00  0.00     0.000 C 
BRANCH   5   6
ATOM      6  C   UNL     1      58.589  24.718  51.772  1.00  0.00     0.006 C 
BRANCH   6   7
ATOM      7  C   UNL     1      59.373  24.535  50.466  1.00  0.00     0.053 C 
BRANCH   7   8
ATOM      8  C   UNL     1      60.131  23.242  50.446  1.00  0.00     0.041 C 
ATOM      9  O   UNL     1      60.251  22.562  51.499  1.00  0.00    -0.550 OA
ATOM     10  O   UNL     1      60.729  22.803  49.271  1.00  0.00    -0.550 OA
ENDBRANCH   7   8
ENDBRANCH   6   7
ENDBRANCH   5   6
ENDBRANCH   4   5
ENDBRANCH   3   4
ENDBRANCH   2   3
ENDBRANCH   1   2
BRANCH   1  11
ATOM     11  C   UNL     1      60.833  27.615  49.545  1.00  0.00    -0.031 C 
ATOM     12  C   UNL     1      59.715  28.137  49.007  1.00  0.00    -0.027 C 
BRANCH  12  13
ATOM     13  C   UNL     1      59.049  29.398  49.499  1.00  0.00     0.054 C 
BRANCH  13  14
ATOM     14  C   UNL     1      57.679  29.115  50.050  1.00  0.00    -0.027 C 
ATOM     15  C   UNL     1      57.220  27.863  50.187  1.00  0.00    -0.031 C 
BRANCH  15  16
ATOM     16  C   UNL     1      55.862  27.581  50.768  1.00  0.00     0.027 C 
BRANCH  16  17
ATOM     17  C   UNL     1      54.792  28.494  50.156  1.00  0.00     0.004 C 
BRANCH  17  18
ATOM     18  C   UNL     1      53.586  27.677  49.671  1.00  0.00     0.000 C 
BRANCH  18  19
ATOM     19  C   UNL     1      53.981  26.279  49.171  1.00  0.00    -0.003 C 
ATOM     20  C   UNL     1      53.176  25.163  49.836  1.00  0.00     0.004 C 
ENDBRANCH  18  19
ENDBRANCH  17  18
ENDBRANCH  16  17
ENDBRANCH  15  16
ENDBRANCH  13  14
ENDBRANCH  12  13
ENDBRANCH   1  11
TORSDOF 14
ENDMDL
MODEL 4
REMARK VINA RESULT:    -3.422      4.511      7.963
REMARK INTER + INTRA:          -8.654
REMARK INTER:                  -7.260
REMARK INTRA:                  -1.394
REMARK UNBOUND:                -2.431
REMARK SMILES CCCCCC=CCC=CCCCCCCCC(=O)[O-]
REMARK SMILES IDX 11 1 12 2 13 3 14 4 15 5 16 6 17 7 18 8 19 9 20 10 10 11
REMARK SMILES IDX 9 12 8 13 7 14 6 15 5 16 4 17 3 18 2 19 1 20
REMARK H PARENT
REMARK Flexibility Score: inf
ROOT
ATOM      1  C   UNL     1      67.860  28.709  61.798  1.00  0.00     0.027 C 
ENDROOT
BRANCH   1   2
ATOM      2  C   UNL     1      69.064  29.604  61.461  1.00  0.00     0.004 C 
BRANCH   2   3
ATOM      3  C   UNL     1      69.972  29.039  60.351  1.00  0.00     0.000 C 
BRANCH   3   4
ATOM      4  C   UNL     1      71.469  29.230  60.654  1.00  0.00     0.000 C 
BRANCH   4   5
ATOM      5  C   UNL     1      71.743  30.464  61.530  1.00  0.00     0.000 C 
BRANCH   5   6
ATOM      6  C   UNL     1      72.441  31.595  60.754  1.00  0.00     0.006 C 
BRANCH   6   7
ATOM      7  C   UNL     1      71.544  32.830  60.601  1.00  0.00     0.053 C 
BRANCH   7   8
ATOM      8  C   UNL     1      70.987  32.947  59.214  1.00  0.00     0.041 C 
ATOM      9  O   UNL     1      70.153  32.103  58.792  1.00  0.00    -0.550 OA
ATOM     10  O   UNL     1      71.415  33.970  58.377  1.00  0.00    -0.550 OA
ENDBRANCH   7   8
ENDBRANCH   6   7
ENDBRANCH   5   6
ENDBRANCH   4   5
ENDBRANCH   3   4
ENDBRANCH   2   3
ENDBRANCH   1   2
BRANCH   1  11
ATOM     11  C   UNL     1      67.158  28.199  60.562  1.00  0.00    -0.031 C 
ATOM     12  C   UNL     1      66.062  28.779  60.041  1.00  0.00    -0.027 C 
BRANCH  12  13
ATOM     13  C   UNL     1      65.397  30.004  60.618  1.00  0.00     0.054 C 
BRANCH  13  14
ATOM     14  C   UNL     1      63.899  29.912  60.526  1.00  0.00    -0.027 C 
ATOM     15  C   UNL     1      63.117  30.073  61.603  1.00  0.00    -0.031 C 
BRANCH  15  16
ATOM     16  C   UNL     1      61.618  30.011  61.503  1.00  0.00     0.027 C 
BRANCH  16  17
ATOM     17  C   UNL     1      60.985  31.388  61.739  1.00  0.00     0.004 C 
BRANCH  17  18
ATOM     18  C   UNL     1      60.769  32.127  60.410  1.00  0.00     0.000 C 
BRANCH  18  19
ATOM     19  C   UNL     1      61.295  33.570  60.443  1.00  0.00    -0.003 C 
ATOM     20  C   UNL     1      62.802  33.644  60.687  1.00  0.00     0.004 C 
ENDBRANCH  18  19
ENDBRANCH  17  18
ENDBRANCH  16  17
ENDBRANCH  15  16
ENDBRANCH  13  14
ENDBRANCH  12  13
ENDBRANCH   1  11
TORSDOF 14
ENDMDL
MODEL 5
REMARK VINA RESULT:    -3.415      2.949      5.962
REMARK INTER + INTRA:          -8.640
REMARK INTER:                  -6.727
REMARK INTRA:                  -1.913
REMARK UNBOUND:                -2.431
REMARK SMILES CCCCCC=CCC=CCCCCCCCC(=O)[O-]
REMARK SMILES IDX 11 1 12 2 13 3 14 4 15 5 16 6 17 7 18 8 19 9 20 10 10 11
REMARK SMILES IDX 9 12 8 13 7 14 6 15 5 16 4 17 3 18 2 19 1 20
REMARK H PARENT
REMARK Flexibility Score: inf
ROOT
ATOM      1  C   UNL     1      62.166  33.901  60.649  1.00  0.00     0.027 C 
ENDROOT
BRANCH   1   2
ATOM      2  C   UNL     1      61.761  35.384  60.661  1.00  0.00     0.004 C 
BRANCH   2   3
ATOM      3  C   UNL     1      62.754  36.298  61.405  1.00  0.00     0.000 C 
BRANCH   3   4
ATOM      4  C   UNL     1      64.084  35.593  61.726  1.00  0.00     0.000 C 
BRANCH   4   5
ATOM      5  C   UNL     1      65.309  36.436  61.338  1.00  0.00     0.000 C 
BRANCH   5   6
ATOM      6  C   UNL     1      65.216  36.988  59.904  1.00  0.00     0.006 C 
BRANCH   6   7
ATOM      7  C   UNL     1      65.332  35.878  58.850  1.00  0.00     0.053 C 
BRANCH   7   8
ATOM      8  C   UNL     1      66.556  36.041  58.002  1.00  0.00     0.041 C 
ATOM      9  O   UNL     1      66.789  35.235  57.062  1.00  0.00    -0.550 OA
ATOM     10  O   UNL     1      67.457  37.065  58.268  1.00  0.00    -0.550 OA
ENDBRANCH   7   8
ENDBRANCH   6   7
ENDBRANCH   5   6
ENDBRANCH   4   5
ENDBRANCH   3   4
ENDBRANCH   2   3
ENDBRANCH   1   2
BRANCH   1  11
ATOM     11  C   UNL     1      61.229  33.055  59.819  1.00  0.00    -0.031 C 
ATOM     12  C   UNL     1      60.577  31.981  60.303  1.00  0.00    -0.027 C 
BRANCH  12  13
ATOM     13  C   UNL     1      60.697  31.488  61.723  1.00  0.00     0.054 C 
BRANCH  13  14
ATOM     14  C   UNL     1      61.840  30.524  61.875  1.00  0.00    -0.027 C 
ATOM     15  C   UNL     1      61.970  29.454  61.076  1.00  0.00    -0.031 C 
BRANCH  15  16
ATOM     16  C   UNL     1      63.131  28.508  61.210  1.00  0.00     0.027 C 
BRANCH  16  17
ATOM     17  C   UNL     1      64.201  28.784  60.146  1.00  0.00     0.004 C 
BRANCH  17  18
ATOM     18  C   UNL     1      65.261  29.761  60.675  1.00  0.00     0.000 C 
BRANCH  18  19
ATOM     19  C   UNL     1      64.965  31.219  60.291  1.00  0.00    -0.003 C 
ATOM     20  C   UNL     1      64.452  31.361  58.858  1.00  0.00     0.004 C 
ENDBRANCH  18  19
ENDBRANCH  17  18
ENDBRANCH  16  17
ENDBRANCH  15  16
ENDBRANCH  13  14
ENDBRANCH  12  13
ENDBRANCH   1  11
TORSDOF 14
ENDMDL
MODEL 6
REMARK VINA RESULT:    -3.383      1.565      4.003
REMARK INTER + INTRA:          -8.582
REMARK INTER:                  -5.424
REMARK INTRA:                  -3.158
REMARK UNBOUND:                -2.431
REMARK SMILES CCCCCC=CCC=CCCCCCCCC(=O)[O-]
REMARK SMILES IDX 11 1 12 2 13 3 14 4 15 5 16 6 17 7 18 8 19 9 20 10 10 11
REMARK SMILES IDX 9 12 8 13 7 14 6 15 5 16 4 17 3 18 2 19 1 20
REMARK H PARENT
REMARK Flexibility Score: inf
ROOT
ATOM      1  C   UNL     1      64.321  34.567  58.910  1.00  0.00     0.027 C 
ENDROOT
BRANCH   1   2
ATOM      2  C   UNL     1      63.548  33.635  57.963  1.00  0.00     0.004 C 
BRANCH   2   3
ATOM      3  C   UNL     1      62.711  32.561  58.685  1.00  0.00     0.000 C 
BRANCH   3   4
ATOM      4  C   UNL     1      61.220  32.621  58.310  1.00  0.00     0.000 C 
BRANCH   4   5
ATOM      5  C   UNL     1      60.299  32.255  59.486  1.00  0.00     0.000 C 
BRANCH   5   6
ATOM      6  C   UNL     1      60.961  32.504  60.853  1.00  0.00     0.006 C 
BRANCH   6   7
ATOM      7  C   UNL     1      60.796  31.308  61.801  1.00  0.00     0.053 C 
BRANCH   7   8
ATOM      8  C   UNL     1      61.908  30.316  61.645  1.00  0.00     0.041 C 
ATOM      9  O   UNL     1      61.649  29.106  61.407  1.00  0.00    -0.550 OA
ATOM     10  O   UNL     1      63.229  30.721  61.793  1.00  0.00    -0.550 OA
ENDBRANCH   7   8
ENDBRANCH   6   7
ENDBRANCH   5   6
ENDBRANCH   4   5
ENDBRANCH   3   4
ENDBRANCH   2   3
ENDBRANCH   1   2
BRANCH   1  11
ATOM     11  C   UNL     1      64.304  34.078  60.339  1.00  0.00    -0.031 C 
ATOM     12  C   UNL     1      63.807  34.798  61.362  1.00  0.00    -0.027 C 
BRANCH  12  13
ATOM     13  C   UNL     1      63.208  36.175  61.215  1.00  0.00     0.054 C 
BRANCH  13  14
ATOM     14  C   UNL     1      61.735  36.104  60.922  1.00  0.00    -0.027 C 
ATOM     15  C   UNL     1      61.249  36.351  59.696  1.00  0.00    -0.031 C 
BRANCH  15  16
ATOM     16  C   UNL     1      59.779  36.250  59.397  1.00  0.00     0.027 C 
BRANCH  16  17
ATOM     17  C   UNL     1      59.525  36.067  57.896  1.00  0.00     0.004 C 
BRANCH  17  18
ATOM     18  C   UNL     1      60.845  36.097  57.110  1.00  0.00     0.000 C 
BRANCH  18  19
ATOM     19  C   UNL     1      60.641  35.865  55.605  1.00  0.00    -0.003 C 
ATOM     20  C   UNL     1      61.223  34.535  55.127  1.00  0.00     0.004 C 
ENDBRANCH  18  19
ENDBRANCH  17  18
ENDBRANCH  16  17
ENDBRANCH  15  16
ENDBRANCH  13  14
ENDBRANCH  12  13
ENDBRANCH   1  11
TORSDOF 14
ENDMDL
MODEL 7
REMARK VINA RESULT:    -3.375      2.085      4.425
REMARK INTER + INTRA:          -8.569
REMARK INTER:                  -6.103
REMARK INTRA:                  -2.465
REMARK UNBOUND:                -2.431
REMARK SMILES CCCCCC=CCC=CCCCCCCCC(=O)[O-]
REMARK SMILES IDX 11 1 12 2 13 3 14 4 15 5 16 6 17 7 18 8 19 9 20 10 10 11
REMARK SMILES IDX 9 12 8 13 7 14 6 15 5 16 4 17 3 18 2 19 1 20
REMARK H PARENT
REMARK Flexibility Score: inf
ROOT
ATOM      1  C   UNL     1      61.545  27.548  60.111  1.00  0.00     0.027 C 
ENDROOT
BRANCH   1   2
ATOM      2  C   UNL     1      62.772  27.477  61.034  1.00  0.00     0.004 C 
BRANCH   2   3
ATOM      3  C   UNL     1      64.113  27.343  60.286  1.00  0.00     0.000 C 
BRANCH   3   4
ATOM      4  C   UNL     1      65.073  28.510  60.576  1.00  0.00     0.000 C 
BRANCH   4   5
ATOM      5  C   UNL     1      64.394  29.661  61.336  1.00  0.00     0.000 C 
BRANCH   5   6
ATOM      6  C   UNL     1      64.654  31.031  60.686  1.00  0.00     0.006 C 
BRANCH   6   7
ATOM      7  C   UNL     1      64.696  30.946  59.155  1.00  0.00     0.053 C 
BRANCH   7   8
ATOM      8  C   UNL     1      65.965  31.516  58.599  1.00  0.00     0.041 C 
ATOM      9  O   UNL     1      65.947  32.600  57.958  1.00  0.00    -0.550 OA
ATOM     10  O   UNL     1      67.165  30.834  58.763  1.00  0.00    -0.550 OA
ENDBRANCH   7   8
ENDBRANCH   6   7
ENDBRANCH   5   6
ENDBRANCH   4   5
ENDBRANCH   3   4
ENDBRANCH   2   3
ENDBRANCH   1   2
BRANCH   1  11
ATOM     11  C   UNL     1      61.590  28.741  59.185  1.00  0.00    -0.031 C 
ATOM     12  C   UNL     1      61.202  29.977  59.552  1.00  0.00    -0.027 C 
BRANCH  12  13
ATOM     13  C   UNL     1      60.677  30.327  60.921  1.00  0.00     0.054 C 
BRANCH  13  14
ATOM     14  C   UNL     1      60.924  31.773  61.251  1.00  0.00    -0.027 C 
ATOM     15  C   UNL     1      61.193  32.676  60.297  1.00  0.00    -0.031 C 
BRANCH  15  16
ATOM     16  C   UNL     1      61.410  34.128  60.625  1.00  0.00     0.027 C 
BRANCH  16  17
ATOM     17  C   UNL     1      62.799  34.600  60.179  1.00  0.00     0.004 C 
BRANCH  17  18
ATOM     18  C   UNL     1      63.835  34.382  61.292  1.00  0.00     0.000 C 
BRANCH  18  19
ATOM     19  C   UNL     1      64.529  35.685  61.716  1.00  0.00    -0.003 C 
ATOM     20  C   UNL     1      63.580  36.884  61.730  1.00  0.00     0.004 C 
ENDBRANCH  18  19
ENDBRANCH  17  18
ENDBRANCH  16  17
ENDBRANCH  15  16
ENDBRANCH  13  14
ENDBRANCH  12  13
ENDBRANCH   1  11
TORSDOF 14
ENDMDL
MODEL 8
REMARK VINA RESULT:    -3.300     10.607     13.024
REMARK INTER + INTRA:          -8.431
REMARK INTER:                  -5.882
REMARK INTRA:                  -2.549
REMARK UNBOUND:                -2.431
REMARK SMILES CCCCCC=CCC=CCCCCCCCC(=O)[O-]
REMARK SMILES IDX 11 1 12 2 13 3 14 4 15 5 16 6 17 7 18 8 19 9 20 10 10 11
REMARK SMILES IDX 9 12 8 13 7 14 6 15 5 16 4 17 3 18 2 19 1 20
REMARK H PARENT
REMARK Flexibility Score: inf
ROOT
ATOM      1  C   UNL     1      59.752  29.983  52.321  1.00  0.00     0.027 C 
ENDROOT
BRANCH   1   2
ATOM      2  C   UNL     1      60.510  29.323  51.157  1.00  0.00     0.004 C 
BRANCH   2   3
ATOM      3  C   UNL     1      59.815  29.476  49.790  1.00  0.00     0.000 C 
BRANCH   3   4
ATOM      4  C   UNL     1      59.482  28.122  49.139  1.00  0.00     0.000 C 
BRANCH   4   5
ATOM      5  C   UNL     1      60.129  26.937  49.874  1.00  0.00     0.000 C 
BRANCH   5   6
ATOM      6  C   UNL     1      59.374  25.616  49.642  1.00  0.00     0.006 C 
BRANCH   6   7
ATOM      7  C   UNL     1      59.459  24.681  50.855  1.00  0.00     0.053 C 
BRANCH   7   8
ATOM      8  C   UNL     1      60.441  23.570  50.636  1.00  0.00     0.041 C 
ATOM      9  O   UNL     1      60.980  22.996  51.618  1.00  0.00    -0.550 OA
ATOM     10  O   UNL     1      60.782  23.189  49.344  1.00  0.00    -0.550 OA
ENDBRANCH   7   8
ENDBRANCH   6   7
ENDBRANCH   5   6
ENDBRANCH   4   5
ENDBRANCH   3   4
ENDBRANCH   2   3
ENDBRANCH   1   2
BRANCH   1  11
ATOM     11  C   UNL     1      58.343  30.372  51.943  1.00  0.00    -0.031 C 
ATOM     12  C   UNL     1      57.269  29.603  52.198  1.00  0.00    -0.027 C 
BRANCH  12  13
ATOM     13  C   UNL     1      57.333  28.263  52.888  1.00  0.00     0.054 C 
BRANCH  13  14
ATOM     14  C   UNL     1      56.921  27.149  51.966  1.00  0.00    -0.027 C 
ATOM     15  C   UNL     1      56.244  27.389  50.833  1.00  0.00    -0.031 C 
BRANCH  15  16
ATOM     16  C   UNL     1      55.859  26.277  49.896  1.00  0.00     0.027 C 
BRANCH  16  17
ATOM     17  C   UNL     1      54.399  26.407  49.445  1.00  0.00     0.004 C 
BRANCH  17  18
ATOM     18  C   UNL     1      53.602  27.288  50.417  1.00  0.00     0.000 C 
BRANCH  18  19
ATOM     19  C   UNL     1      53.026  28.542  49.741  1.00  0.00    -0.003 C 
ATOM     20  C   UNL     1      53.538  29.839  50.367  1.00  0.00     0.004 C 
ENDBRANCH  18  19
ENDBRANCH  17  18
ENDBRANCH  16  17
ENDBRANCH  15  16
ENDBRANCH  13  14
ENDBRANCH  12  13
ENDBRANCH   1  11
TORSDOF 14
ENDMDL
MODEL 9
REMARK VINA RESULT:    -3.182      1.405      3.211
REMARK INTER + INTRA:          -8.216
REMARK INTER:                  -5.819
REMARK INTRA:                  -2.397
REMARK UNBOUND:                -2.431
REMARK SMILES CCCCCC=CCC=CCCCCCCCC(=O)[O-]
REMARK SMILES IDX 11 1 12 2 13 3 14 4 15 5 16 6 17 7 18 8 19 9 20 10 10 11
REMARK SMILES IDX 9 12 8 13 7 14 6 15 5 16 4 17 3 18 2 19 1 20
REMARK H PARENT
REMARK Flexibility Score: inf
ROOT
ATOM      1  C   UNL     1      61.170  32.234  60.593  1.00  0.00     0.027 C 
ENDROOT
BRANCH   1   2
ATOM      2  C   UNL     1      61.010  30.812  61.158  1.00  0.00     0.004 C 
BRANCH   2   3
ATOM      3  C   UNL     1      62.234  30.311  61.948  1.00  0.00     0.000 C 
BRANCH   3   4
ATOM      4  C   UNL     1      62.832  29.021  61.360  1.00  0.00     0.000 C 
BRANCH   4   5
ATOM      5  C   UNL     1      64.317  29.171  60.992  1.00  0.00     0.000 C 
BRANCH   5   6
ATOM      6  C   UNL     1      64.551  29.168  59.471  1.00  0.00     0.006 C 
BRANCH   6   7
ATOM      7  C   UNL     1      65.892  29.810  59.092  1.00  0.00     0.053 C 
BRANCH   7   8
ATOM      8  C   UNL     1      67.056  28.984  59.551  1.00  0.00     0.041 C 
ATOM      9  O   UNL     1      67.458  28.014  58.856  1.00  0.00    -0.550 OA
ATOM     10  O   UNL     1      67.676  29.268  60.762  1.00  0.00    -0.550 OA
ENDBRANCH   7   8
ENDBRANCH   6   7
ENDBRANCH   5   6
ENDBRANCH   4   5
ENDBRANCH   3   4
ENDBRANCH   2   3
ENDBRANCH   1   2
BRANCH   1  11
ATOM     11  C   UNL     1      61.740  32.236  59.195  1.00  0.00    -0.031 C 
ATOM     12  C   UNL     1      63.030  32.508  58.922  1.00  0.00    -0.027 C 
BRANCH  12  13
ATOM     13  C   UNL     1      64.063  32.843  59.968  1.00  0.00     0.054 C 
BRANCH  13  14
ATOM     14  C   UNL     1      64.126  34.323  60.225  1.00  0.00    -0.027 C 
ATOM     15  C   UNL     1      63.724  34.852  61.390  1.00  0.00    -0.031 C 
BRANCH  15  16
ATOM     16  C   UNL     1      63.817  36.329  61.657  1.00  0.00     0.027 C 
BRANCH  16  17
ATOM     17  C   UNL     1      62.903  37.125  60.717  1.00  0.00     0.004 C 
BRANCH  17  18
ATOM     18  C   UNL     1      61.424  36.844  61.023  1.00  0.00     0.000 C 
BRANCH  18  19
ATOM     19  C   UNL     1      60.781  35.891  60.005  1.00  0.00    -0.003 C 
ATOM     20  C   UNL     1      61.227  36.169  58.569  1.00  0.00     0.004 C 
ENDBRANCH  18  19
ENDBRANCH  17  18
ENDBRANCH  16  17
ENDBRANCH  15  16
ENDBRANCH  13  14
ENDBRANCH  12  13
ENDBRANCH   1  11
TORSDOF 14
ENDMDL
