MODEL 1
REMARK VINA RESULT:    -4.376      0.000      0.000
REMARK INTER + INTRA:         -17.370
REMARK INTER:                 -11.539
REMARK INTRA:                  -5.831
REMARK UNBOUND:                -5.831
REMARK SMILES CCCCCCCCCCCCCCCCCCCCCCCCCCCCCC(=O)[O-]
REMARK SMILES IDX 16 1 17 2 18 3 19 4 20 5 21 6 22 7 23 8 24 9 25 10 26 11
REMARK SMILES IDX 27 12 28 13 29 14 30 15 31 16 32 17 15 18 14 19 13 20 12 21
REMARK SMILES IDX 11 22 10 23 9 24 8 25 7 26 6 27 5 28 4 29 3 30 2 31 1 32
REMARK H PARENT
REMARK Flexibility Score: inf
ROOT
ATOM      1  C   UNL     1      40.822  64.823   8.977  1.00  0.00     0.000 C 
ENDROOT
BRANCH   1   2
ATOM      2  C   UNL     1      41.354  66.045   8.214  1.00  0.00     0.000 C 
BRANCH   2   3
ATOM      3  C   UNL     1      42.886  66.153   8.266  1.00  0.00     0.000 C 
BRANCH   3   4
ATOM      4  C   UNL     1      43.514  66.308   6.868  1.00  0.00     0.000 C 
BRANCH   4   5
ATOM      5  C   UNL     1      43.354  65.036   6.009  1.00  0.00     0.000 C 
BRANCH   5   6
ATOM      6  C   UNL     1      43.505  65.276   4.495  1.00  0.00     0.000 C 
BRANCH   6   7
ATOM      7  C   UNL     1      42.631  64.350   3.618  1.00  0.00     0.000 C 
BRANCH   7   8
ATOM      8  C   UNL     1      41.255  64.017   4.227  1.00  0.00     0.000 C 
BRANCH   8   9
ATOM      9  C   UNL     1      40.116  64.980   3.834  1.00  0.00     0.000 C 
BRANCH   9  10
ATOM     10  C   UNL     1      39.445  65.690   5.030  1.00  0.00     0.000 C 
BRANCH  10  11
ATOM     11  C   UNL     1      39.805  67.184   5.130  1.00  0.00     0.000 C 
BRANCH  11  12
ATOM     12  C   UNL     1      40.756  67.658   4.007  1.00  0.00     0.000 C 
BRANCH  12  13
ATOM     13  C   UNL     1      41.759  68.707   4.514  1.00  0.00     0.006 C 
BRANCH  13  14
ATOM     14  C   UNL     1      41.409  69.208   5.924  1.00  0.00     0.053 C 
BRANCH  14  15
ATOM     15  C   UNL     1      41.079  70.671   5.926  1.00  0.00     0.041 C 
ATOM     16  O   UNL     1      39.954  71.065   5.515  1.00  0.00    -0.550 OA
ATOM     17  O   UNL     1      42.014  71.600   6.371  1.00  0.00    -0.550 OA
ENDBRANCH  14  15
ENDBRANCH  13  14
ENDBRANCH  12  13
ENDBRANCH  11  12
ENDBRANCH  10  11
ENDBRANCH   9  10
ENDBRANCH   8   9
ENDBRANCH   7   8
ENDBRANCH   6   7
ENDBRANCH   5   6
ENDBRANCH   4   5
ENDBRANCH   3   4
ENDBRANCH   2   3
ENDBRANCH   1   2
BRANCH   1  18
ATOM     18  C   UNL     1      40.154  63.834   8.011  1.00  0.00     0.000 C 
BRANCH  18  19
ATOM     19  C   UNL     1      40.897  62.488   7.911  1.00  0.00     0.000 C 
BRANCH  19  20
ATOM     20  C   UNL     1      42.253  62.435   8.638  1.00  0.00     0.000 C 
BRANCH  20  21
ATOM     21  C   UNL     1      43.418  61.845   7.821  1.00  0.00     0.000 C 
BRANCH  21  22
ATOM     22  C   UNL     1      44.426  61.024   8.657  1.00  0.00     0.000 C 
BRANCH  22  23
ATOM     23  C   UNL     1      43.800  60.049   9.678  1.00  0.00     0.000 C 
BRANCH  23  24
ATOM     24  C   UNL     1      44.119  60.333  11.161  1.00  0.00    -0.000 C 
BRANCH  24  25
ATOM     25  C   UNL     1      45.077  61.523  11.357  1.00  0.00    -0.000 C 
BRANCH  25  26
ATOM     26  C   UNL     1      44.724  62.368  12.592  1.00  0.00    -0.000 C 
BRANCH  26  27
ATOM     27  C   UNL     1      44.198  63.766  12.231  1.00  0.00    -0.000 C 
BRANCH  27  28
ATOM     28  C   UNL     1      42.667  63.799  12.063  1.00  0.00    -0.000 C 
BRANCH  28  29
ATOM     29  C   UNL     1      41.932  62.692  12.847  1.00  0.00    -0.000 C 
BRANCH  29  30
ATOM     30  C   UNL     1      40.734  62.120  12.066  1.00  0.00    -0.000 C 
BRANCH  30  31
ATOM     31  C   UNL     1      39.563  63.112  11.964  1.00  0.00    -0.003 C 
ATOM     32  C   UNL     1      38.290  62.603  12.643  1.00  0.00     0.004 C 
ENDBRANCH  30  31
ENDBRANCH  29  30
ENDBRANCH  28  29
ENDBRANCH  27  28
ENDBRANCH  26  27
ENDBRANCH  25  26
ENDBRANCH  24  25
ENDBRANCH  23  24
ENDBRANCH  22  23
ENDBRANCH  21  22
ENDBRANCH  20  21
ENDBRANCH  19  20
ENDBRANCH  18  19
ENDBRANCH   1  18
TORSDOF 28
ENDMDL
MODEL 2
REMARK VINA RESULT:    -4.346      3.044      8.164
REMARK INTER + INTRA:         -17.291
REMARK INTER:                 -11.859
REMARK INTRA:                  -5.432
REMARK UNBOUND:                -5.831
REMARK SMILES CCCCCCCCCCCCCCCCCCCCCCCCCCCCCC(=O)[O-]
REMARK SMILES IDX 16 1 17 2 18 3 19 4 20 5 21 6 22 7 23 8 24 9 25 10 26 11
REMARK SMILES IDX 27 12 28 13 29 14 30 15 31 16 32 17 15 18 14 19 13 20 12 21
REMARK SMILES IDX 11 22 10 23 9 24 8 25 7 26 6 27 5 28 4 29 3 30 2 31 1 32
REMARK H PARENT
REMARK Flexibility Score: inf
ROOT
ATOM      1  C   UNL     1      43.520  66.433   7.414  1.00  0.00     0.000 C 
ENDROOT
BRANCH   1   2
ATOM      2  C   UNL     1      42.664  65.765   8.500  1.00  0.00     0.000 C 
BRANCH   2   3
ATOM      3  C   UNL     1      41.654  64.761   7.921  1.00  0.00     0.000 C 
BRANCH   3   4
ATOM      4  C   UNL     1      41.521  63.492   8.785  1.00  0.00     0.000 C 
BRANCH   4   5
ATOM      5  C   UNL     1      41.897  62.213   8.009  1.00  0.00     0.000 C 
BRANCH   5   6
ATOM      6  C   UNL     1      43.379  62.139   7.596  1.00  0.00     0.000 C 
BRANCH   6   7
ATOM      7  C   UNL     1      44.207  61.107   8.395  1.00  0.00     0.000 C 
BRANCH   7   8
ATOM      8  C   UNL     1      43.358  60.085   9.178  1.00  0.00     0.000 C 
BRANCH   8   9
ATOM      9  C   UNL     1      43.747  59.911  10.661  1.00  0.00     0.000 C 
BRANCH   9  10
ATOM     10  C   UNL     1      44.988  60.725  11.089  1.00  0.00     0.000 C 
BRANCH  10  11
ATOM     11  C   UNL     1      44.999  61.073  12.589  1.00  0.00     0.000 C 
BRANCH  11  12
ATOM     12  C   UNL     1      44.652  62.553  12.873  1.00  0.00     0.000 C 
BRANCH  12  13
ATOM     13  C   UNL     1      43.817  63.170  11.739  1.00  0.00     0.006 C 
BRANCH  13  14
ATOM     14  C   UNL     1      42.528  63.822  12.258  1.00  0.00     0.053 C 
BRANCH  14  15
ATOM     15  C   UNL     1      41.544  62.798  12.740  1.00  0.00     0.041 C 
ATOM     16  O   UNL     1      41.248  61.813  12.010  1.00  0.00    -0.550 OA
ATOM     17  O   UNL     1      40.947  62.934  13.989  1.00  0.00    -0.550 OA
ENDBRANCH  14  15
ENDBRANCH  13  14
ENDBRANCH  12  13
ENDBRANCH  11  12
ENDBRANCH  10  11
ENDBRANCH   9  10
ENDBRANCH   8   9
ENDBRANCH   7   8
ENDBRANCH   6   7
ENDBRANCH   5   6
ENDBRANCH   4   5
ENDBRANCH   3   4
ENDBRANCH   2   3
ENDBRANCH   1   2
BRANCH   1  18
ATOM     18  C   UNL     1      43.344  65.711   6.070  1.00  0.00     0.000 C 
BRANCH  18  19
ATOM     19  C   UNL     1      43.501  66.644   4.855  1.00  0.00     0.000 C 
BRANCH  19  20
ATOM     20  C   UNL     1      42.986  66.072   3.522  1.00  0.00     0.000 C 
BRANCH  20  21
ATOM     21  C   UNL     1      43.295  64.583   3.278  1.00  0.00     0.000 C 
BRANCH  21  22
ATOM     22  C   UNL     1      42.041  63.689   3.142  1.00  0.00     0.000 C 
BRANCH  22  23
ATOM     23  C   UNL     1      41.489  63.118   4.467  1.00  0.00     0.000 C 
BRANCH  23  24
ATOM     24  C   UNL     1      40.051  63.542   4.834  1.00  0.00    -0.000 C 
BRANCH  24  25
ATOM     25  C   UNL     1      39.708  64.973   4.381  1.00  0.00    -0.000 C 
BRANCH  25  26
ATOM     26  C   UNL     1      39.388  65.905   5.561  1.00  0.00    -0.000 C 
BRANCH  26  27
ATOM     27  C   UNL     1      39.862  67.349   5.330  1.00  0.00    -0.000 C 
BRANCH  27  28
ATOM     28  C   UNL     1      40.291  68.049   6.632  1.00  0.00    -0.000 C 
BRANCH  28  29
ATOM     29  C   UNL     1      41.264  69.227   6.412  1.00  0.00    -0.000 C 
BRANCH  29  30
ATOM     30  C   UNL     1      41.414  69.591   4.923  1.00  0.00    -0.000 C 
BRANCH  30  31
ATOM     31  C   UNL     1      41.003  71.042   4.621  1.00  0.00    -0.003 C 
ATOM     32  C   UNL     1      41.297  71.997   5.780  1.00  0.00     0.004 C 
ENDBRANCH  30  31
ENDBRANCH  29  30
ENDBRANCH  28  29
ENDBRANCH  27  28
ENDBRANCH  26  27
ENDBRANCH  25  26
ENDBRANCH  24  25
ENDBRANCH  23  24
ENDBRANCH  22  23
ENDBRANCH  21  22
ENDBRANCH  20  21
ENDBRANCH  19  20
ENDBRANCH  18  19
ENDBRANCH   1  18
TORSDOF 28
ENDMDL
MODEL 3
REMARK VINA RESULT:    -4.246      1.820      5.117
REMARK INTER + INTRA:         -17.027
REMARK INTER:                 -10.938
REMARK INTRA:                  -6.088
REMARK UNBOUND:                -5.831
REMARK SMILES CCCCCCCCCCCCCCCCCCCCCCCCCCCCCC(=O)[O-]
REMARK SMILES IDX 16 1 17 2 18 3 19 4 20 5 21 6 22 7 23 8 24 9 25 10 26 11
REMARK SMILES IDX 27 12 28 13 29 14 30 15 31 16 32 17 15 18 14 19 13 20 12 21
REMARK SMILES IDX 11 22 10 23 9 24 8 25 7 26 6 27 5 28 4 29 3 30 2 31 1 32
REMARK H PARENT
REMARK Flexibility Score: inf
ROOT
ATOM      1  C   UNL     1      41.583  63.764  12.999  1.00  0.00     0.000 C 
ENDROOT
BRANCH   1   2
ATOM      2  C   UNL     1      40.595  62.617  13.260  1.00  0.00     0.000 C 
BRANCH   2   3
ATOM      3  C   UNL     1      39.362  62.681  12.344  1.00  0.00     0.000 C 
BRANCH   3   4
ATOM      4  C   UNL     1      39.237  61.445  11.434  1.00  0.00     0.000 C 
BRANCH   4   5
ATOM      5  C   UNL     1      39.337  61.806   9.937  1.00  0.00     0.000 C 
BRANCH   5   6
ATOM      6  C   UNL     1      38.541  63.063   9.538  1.00  0.00     0.000 C 
BRANCH   6   7
ATOM      7  C   UNL     1      39.149  63.847   8.353  1.00  0.00     0.000 C 
BRANCH   7   8
ATOM      8  C   UNL     1      40.055  65.022   8.771  1.00  0.00     0.000 C 
BRANCH   8   9
ATOM      9  C   UNL     1      41.168  65.379   7.764  1.00  0.00     0.000 C 
BRANCH   9  10
ATOM     10  C   UNL     1      42.388  66.086   8.393  1.00  0.00     0.000 C 
BRANCH  10  11
ATOM     11  C   UNL     1      43.488  66.425   7.371  1.00  0.00     0.000 C 
BRANCH  11  12
ATOM     12  C   UNL     1      43.415  65.563   6.089  1.00  0.00     0.000 C 
BRANCH  12  13
ATOM     13  C   UNL     1      43.385  66.431   4.821  1.00  0.00     0.006 C 
BRANCH  13  14
ATOM     14  C   UNL     1      42.241  67.455   4.847  1.00  0.00     0.053 C 
BRANCH  14  15
ATOM     15  C   UNL     1      41.081  67.012   4.005  1.00  0.00     0.041 C 
ATOM     16  O   UNL     1      40.676  67.736   3.056  1.00  0.00    -0.550 OA
ATOM     17  O   UNL     1      40.441  65.806   4.273  1.00  0.00    -0.550 OA
ENDBRANCH  14  15
ENDBRANCH  13  14
ENDBRANCH  12  13
ENDBRANCH  11  12
ENDBRANCH  10  11
ENDBRANCH   9  10
ENDBRANCH   8   9
ENDBRANCH   7   8
ENDBRANCH   6   7
ENDBRANCH   5   6
ENDBRANCH   4   5
ENDBRANCH   3   4
ENDBRANCH   2   3
ENDBRANCH   1   2
BRANCH   1  18
ATOM     18  C   UNL     1      42.070  63.734  11.543  1.00  0.00     0.000 C 
BRANCH  18  19
ATOM     19  C   UNL     1      43.555  64.115  11.392  1.00  0.00     0.000 C 
BRANCH  19  20
ATOM     20  C   UNL     1      44.443  63.770  12.601  1.00  0.00     0.000 C 
BRANCH  20  21
ATOM     21  C   UNL     1      45.016  62.341  12.614  1.00  0.00     0.000 C 
BRANCH  21  22
ATOM     22  C   UNL     1      44.233  61.352  13.506  1.00  0.00     0.000 C 
BRANCH  22  23
ATOM     23  C   UNL     1      43.977  59.960  12.886  1.00  0.00     0.000 C 
BRANCH  23  24
ATOM     24  C   UNL     1      42.613  59.776  12.190  1.00  0.00    -0.000 C 
BRANCH  24  25
ATOM     25  C   UNL     1      42.640  60.146  10.695  1.00  0.00    -0.000 C 
BRANCH  25  26
ATOM     26  C   UNL     1      43.950  59.729  10.007  1.00  0.00    -0.000 C 
BRANCH  26  27
ATOM     27  C   UNL     1      44.291  60.603   8.790  1.00  0.00    -0.000 C 
BRANCH  27  28
ATOM     28  C   UNL     1      43.446  61.888   8.725  1.00  0.00    -0.000 C 
BRANCH  28  29
ATOM     29  C   UNL     1      42.987  62.259   7.299  1.00  0.00    -0.000 C 
BRANCH  29  30
ATOM     30  C   UNL     1      41.702  61.516   6.887  1.00  0.00    -0.000 C 
BRANCH  30  31
ATOM     31  C   UNL     1      40.971  62.196   5.718  1.00  0.00    -0.003 C 
ATOM     32  C   UNL     1      41.906  62.571   4.566  1.00  0.00     0.004 C 
ENDBRANCH  30  31
ENDBRANCH  29  30
ENDBRANCH  28  29
ENDBRANCH  27  28
ENDBRANCH  26  27
ENDBRANCH  25  26
ENDBRANCH  24  25
ENDBRANCH  23  24
ENDBRANCH  22  23
ENDBRANCH  21  22
ENDBRANCH  20  21
ENDBRANCH  19  20
ENDBRANCH  18  19
ENDBRANCH   1  18
TORSDOF 28
ENDMDL
MODEL 4
REMARK VINA RESULT:    -4.196      1.395      2.622
REMARK INTER + INTRA:         -16.894
REMARK INTER:                 -11.449
REMARK INTRA:                  -5.446
REMARK UNBOUND:                -5.831
REMARK SMILES CCCCCCCCCCCCCCCCCCCCCCCCCCCCCC(=O)[O-]
REMARK SMILES IDX 16 1 17 2 18 3 19 4 20 5 21 6 22 7 23 8 24 9 25 10 26 11
REMARK SMILES IDX 27 12 28 13 29 14 30 15 31 16 32 17 15 18 14 19 13 20 12 21
REMARK SMILES IDX 11 22 10 23 9 24 8 25 7 26 6 27 5 28 4 29 3 30 2 31 1 32
REMARK H PARENT
REMARK Flexibility Score: inf
ROOT
ATOM      1  C   UNL     1      43.236  66.099   8.307  1.00  0.00     0.000 C 
ENDROOT
BRANCH   1   2
ATOM      2  C   UNL     1      42.585  66.408   6.951  1.00  0.00     0.000 C 
BRANCH   2   3
ATOM      3  C   UNL     1      43.372  65.816   5.770  1.00  0.00     0.000 C 
BRANCH   3   4
ATOM      4  C   UNL     1      43.439  66.774   4.566  1.00  0.00     0.000 C 
BRANCH   4   5
ATOM      5  C   UNL     1      42.986  66.099   3.255  1.00  0.00     0.000 C 
BRANCH   5   6
ATOM      6  C   UNL     1      43.209  64.575   3.221  1.00  0.00     0.000 C 
BRANCH   6   7
ATOM      7  C   UNL     1      41.936  63.756   2.908  1.00  0.00     0.000 C 
BRANCH   7   8
ATOM      8  C   UNL     1      40.619  64.476   3.260  1.00  0.00     0.000 C 
BRANCH   8   9
ATOM      9  C   UNL     1      40.099  64.227   4.691  1.00  0.00     0.000 C 
BRANCH   9  10
ATOM     10  C   UNL     1      39.400  65.445   5.331  1.00  0.00     0.000 C 
BRANCH  10  11
ATOM     11  C   UNL     1      39.675  66.765   4.588  1.00  0.00     0.000 C 
BRANCH  11  12
ATOM     12  C   UNL     1      39.633  68.004   5.512  1.00  0.00     0.000 C 
BRANCH  12  13
ATOM     13  C   UNL     1      39.879  69.305   4.731  1.00  0.00     0.006 C 
BRANCH  13  14
ATOM     14  C   UNL     1      41.348  69.749   4.793  1.00  0.00     0.053 C 
BRANCH  14  15
ATOM     15  C   UNL     1      41.590  70.712   5.917  1.00  0.00     0.041 C 
ATOM     16  O   UNL     1      41.856  70.281   7.072  1.00  0.00    -0.550 OA
ATOM     17  O   UNL     1      41.512  72.083   5.694  1.00  0.00    -0.550 OA
ENDBRANCH  14  15
ENDBRANCH  13  14
ENDBRANCH  12  13
ENDBRANCH  11  12
ENDBRANCH  10  11
ENDBRANCH   9  10
ENDBRANCH   8   9
ENDBRANCH   7   8
ENDBRANCH   6   7
ENDBRANCH   5   6
ENDBRANCH   4   5
ENDBRANCH   3   4
ENDBRANCH   2   3
ENDBRANCH   1   2
BRANCH   1  18
ATOM     18  C   UNL     1      42.242  65.377   9.229  1.00  0.00     0.000 C 
BRANCH  18  19
ATOM     19  C   UNL     1      40.809  65.341   8.666  1.00  0.00     0.000 C 
BRANCH  19  20
ATOM     20  C   UNL     1      40.077  63.996   8.829  1.00  0.00     0.000 C 
BRANCH  20  21
ATOM     21  C   UNL     1      40.986  62.755   8.908  1.00  0.00     0.000 C 
BRANCH  21  22
ATOM     22  C   UNL     1      41.493  62.252   7.538  1.00  0.00     0.000 C 
BRANCH  22  23
ATOM     23  C   UNL     1      43.018  62.022   7.440  1.00  0.00     0.000 C 
BRANCH  23  24
ATOM     24  C   UNL     1      43.780  61.993   8.780  1.00  0.00    -0.000 C 
BRANCH  24  25
ATOM     25  C   UNL     1      44.668  60.745   8.945  1.00  0.00    -0.000 C 
BRANCH  25  26
ATOM     26  C   UNL     1      45.030  60.468  10.414  1.00  0.00    -0.000 C 
BRANCH  26  27
ATOM     27  C   UNL     1      43.801  60.177  11.289  1.00  0.00    -0.000 C 
BRANCH  27  28
ATOM     28  C   UNL     1      44.134  60.157  12.792  1.00  0.00    -0.000 C 
BRANCH  28  29
ATOM     29  C   UNL     1      43.848  61.493  13.510  1.00  0.00    -0.000 C 
BRANCH  29  30
ATOM     30  C   UNL     1      42.535  62.143  13.033  1.00  0.00    -0.000 C 
BRANCH  30  31
ATOM     31  C   UNL     1      42.768  63.445  12.248  1.00  0.00    -0.003 C 
ATOM     32  C   UNL     1      44.239  63.865  12.214  1.00  0.00     0.004 C 
ENDBRANCH  30  31
ENDBRANCH  29  30
ENDBRANCH  28  29
ENDBRANCH  27  28
ENDBRANCH  26  27
ENDBRANCH  25  26
ENDBRANCH  24  25
ENDBRANCH  23  24
ENDBRANCH  22  23
ENDBRANCH  21  22
ENDBRANCH  20  21
ENDBRANCH  19  20
ENDBRANCH  18  19
ENDBRANCH   1  18
TORSDOF 28
ENDMDL
MODEL 5
REMARK VINA RESULT:    -4.192      2.433      7.238
REMARK INTER + INTRA:         -16.885
REMARK INTER:                 -11.111
REMARK INTRA:                  -5.773
REMARK UNBOUND:                -5.831
REMARK SMILES CCCCCCCCCCCCCCCCCCCCCCCCCCCCCC(=O)[O-]
REMARK SMILES IDX 16 1 17 2 18 3 19 4 20 5 21 6 22 7 23 8 24 9 25 10 26 11
REMARK SMILES IDX 27 12 28 13 29 14 30 15 31 16 32 17 15 18 14 19 13 20 12 21
REMARK SMILES IDX 11 22 10 23 9 24 8 25 7 26 6 27 5 28 4 29 3 30 2 31 1 32
REMARK H PARENT
REMARK Flexibility Score: inf
ROOT
ATOM      1  C   UNL     1      40.422  62.663  12.554  1.00  0.00     0.000 C 
ENDROOT
BRANCH   1   2
ATOM      2  C   UNL     1      41.803  62.961  13.155  1.00  0.00     0.000 C 
BRANCH   2   3
ATOM      3  C   UNL     1      42.692  63.787  12.210  1.00  0.00     0.000 C 
BRANCH   3   4
ATOM      4  C   UNL     1      44.113  63.208  12.081  1.00  0.00     0.000 C 
BRANCH   4   5
ATOM      5  C   UNL     1      44.453  62.227  13.223  1.00  0.00     0.000 C 
BRANCH   5   6
ATOM      6  C   UNL     1      44.700  60.779  12.758  1.00  0.00     0.000 C 
BRANCH   6   7
ATOM      7  C   UNL     1      44.080  60.443  11.382  1.00  0.00     0.000 C 
BRANCH   7   8
ATOM      8  C   UNL     1      45.114  60.206  10.263  1.00  0.00     0.000 C 
BRANCH   8   9
ATOM      9  C   UNL     1      44.749  60.821   8.896  1.00  0.00     0.000 C 
BRANCH   9  10
ATOM     10  C   UNL     1      43.394  61.559   8.875  1.00  0.00     0.000 C 
BRANCH  10  11
ATOM     11  C   UNL     1      43.045  62.153   7.497  1.00  0.00     0.000 C 
BRANCH  11  12
ATOM     12  C   UNL     1      41.787  61.517   6.862  1.00  0.00     0.000 C 
BRANCH  12  13
ATOM     13  C   UNL     1      41.450  62.155   5.504  1.00  0.00     0.006 C 
BRANCH  13  14
ATOM     14  C   UNL     1      40.532  63.377   5.651  1.00  0.00     0.053 C 
BRANCH  14  15
ATOM     15  C   UNL     1      39.083  62.992   5.601  1.00  0.00     0.041 C 
ATOM     16  O   UNL     1      38.360  63.376   4.643  1.00  0.00    -0.550 OA
ATOM     17  O   UNL     1      38.529  62.217   6.616  1.00  0.00    -0.550 OA
ENDBRANCH  14  15
ENDBRANCH  13  14
ENDBRANCH  12  13
ENDBRANCH  11  12
ENDBRANCH  10  11
ENDBRANCH   9  10
ENDBRANCH   8   9
ENDBRANCH   7   8
ENDBRANCH   6   7
ENDBRANCH   5   6
ENDBRANCH   4   5
ENDBRANCH   3   4
ENDBRANCH   2   3
ENDBRANCH   1   2
BRANCH   1  18
ATOM     18  C   UNL     1      40.540  61.639  11.415  1.00  0.00     0.000 C 
BRANCH  18  19
ATOM     19  C   UNL     1      39.938  62.137  10.087  1.00  0.00     0.000 C 
BRANCH  19  20
ATOM     20  C   UNL     1      39.229  63.501  10.162  1.00  0.00     0.000 C 
BRANCH  20  21
ATOM     21  C   UNL     1      39.646  64.522   9.087  1.00  0.00     0.000 C 
BRANCH  21  22
ATOM     22  C   UNL     1      41.160  64.834   9.062  1.00  0.00     0.000 C 
BRANCH  22  23
ATOM     23  C   UNL     1      41.590  65.952   8.086  1.00  0.00     0.000 C 
BRANCH  23  24
ATOM     24  C   UNL     1      43.061  66.404   8.190  1.00  0.00    -0.000 C 
BRANCH  24  25
ATOM     25  C   UNL     1      43.758  66.518   6.821  1.00  0.00    -0.000 C 
BRANCH  25  26
ATOM     26  C   UNL     1      43.662  65.222   6.000  1.00  0.00    -0.000 C 
BRANCH  26  27
ATOM     27  C   UNL     1      43.451  65.478   4.500  1.00  0.00    -0.000 C 
BRANCH  27  28
ATOM     28  C   UNL     1      42.996  66.918   4.201  1.00  0.00    -0.000 C 
BRANCH  28  29
ATOM     29  C   UNL     1      41.497  67.036   3.849  1.00  0.00    -0.000 C 
BRANCH  29  30
ATOM     30  C   UNL     1      40.696  67.766   4.944  1.00  0.00    -0.000 C 
BRANCH  30  31
ATOM     31  C   UNL     1      41.222  69.184   5.220  1.00  0.00    -0.003 C 
ATOM     32  C   UNL     1      41.399  69.474   6.712  1.00  0.00     0.004 C 
ENDBRANCH  30  31
ENDBRANCH  29  30
ENDBRANCH  28  29
ENDBRANCH  27  28
ENDBRANCH  26  27
ENDBRANCH  25  26
ENDBRANCH  24  25
ENDBRANCH  23  24
ENDBRANCH  22  23
ENDBRANCH  21  22
ENDBRANCH  20  21
ENDBRANCH  19  20
ENDBRANCH  18  19
ENDBRANCH   1  18
TORSDOF 28
ENDMDL
MODEL 6
REMARK VINA RESULT:    -4.140      2.060      4.112
REMARK INTER + INTRA:         -16.749
REMARK INTER:                 -10.172
REMARK INTRA:                  -6.576
REMARK UNBOUND:                -5.831
REMARK SMILES CCCCCCCCCCCCCCCCCCCCCCCCCCCCCC(=O)[O-]
REMARK SMILES IDX 16 1 17 2 18 3 19 4 20 5 21 6 22 7 23 8 24 9 25 10 26 11
REMARK SMILES IDX 27 12 28 13 29 14 30 15 31 16 32 17 15 18 14 19 13 20 12 21
REMARK SMILES IDX 11 22 10 23 9 24 8 25 7 26 6 27 5 28 4 29 3 30 2 31 1 32
REMARK H PARENT
REMARK Flexibility Score: inf
ROOT
ATOM      1  C   UNL     1      42.894  64.171  10.994  1.00  0.00     0.000 C 
ENDROOT
BRANCH   1   2
ATOM      2  C   UNL     1      42.380  64.864   9.723  1.00  0.00     0.000 C 
BRANCH   2   3
ATOM      3  C   UNL     1      41.029  64.302   9.251  1.00  0.00     0.000 C 
BRANCH   3   4
ATOM      4  C   UNL     1      40.150  65.371   8.575  1.00  0.00     0.000 C 
BRANCH   4   5
ATOM      5  C   UNL     1      39.760  64.982   7.133  1.00  0.00     0.000 C 
BRANCH   5   6
ATOM      6  C   UNL     1      38.588  63.985   7.045  1.00  0.00     0.000 C 
BRANCH   6   7
ATOM      7  C   UNL     1      38.896  62.721   6.209  1.00  0.00     0.000 C 
BRANCH   7   8
ATOM      8  C   UNL     1      39.857  61.729   6.894  1.00  0.00     0.000 C 
BRANCH   8   9
ATOM      9  C   UNL     1      41.203  61.519   6.170  1.00  0.00     0.000 C 
BRANCH   9  10
ATOM     10  C   UNL     1      42.443  61.799   7.047  1.00  0.00     0.000 C 
BRANCH  10  11
ATOM     11  C   UNL     1      43.183  63.093   6.660  1.00  0.00     0.000 C 
BRANCH  11  12
ATOM     12  C   UNL     1      42.675  63.711   5.336  1.00  0.00     0.000 C 
BRANCH  12  13
ATOM     13  C   UNL     1      43.311  65.084   5.068  1.00  0.00     0.006 C 
BRANCH  13  14
ATOM     14  C   UNL     1      43.484  65.903   6.356  1.00  0.00     0.053 C 
BRANCH  14  15
ATOM     15  C   UNL     1      42.595  67.111   6.368  1.00  0.00     0.041 C 
ATOM     16  O   UNL     1      42.412  67.750   7.440  1.00  0.00    -0.550 OA
ATOM     17  O   UNL     1      41.961  67.527   5.201  1.00  0.00    -0.550 OA
ENDBRANCH  14  15
ENDBRANCH  13  14
ENDBRANCH  12  13
ENDBRANCH  11  12
ENDBRANCH  10  11
ENDBRANCH   9  10
ENDBRANCH   8   9
ENDBRANCH   7   8
ENDBRANCH   6   7
ENDBRANCH   5   6
ENDBRANCH   4   5
ENDBRANCH   3   4
ENDBRANCH   2   3
ENDBRANCH   1   2
BRANCH   1  18
ATOM     18  C   UNL     1      41.871  63.143  11.499  1.00  0.00     0.000 C 
BRANCH  18  19
ATOM     19  C   UNL     1      41.959  62.895  13.016  1.00  0.00     0.000 C 
BRANCH  19  20
ATOM     20  C   UNL     1      42.619  61.565  13.423  1.00  0.00     0.000 C 
BRANCH  20  21
ATOM     21  C   UNL     1      44.159  61.570  13.439  1.00  0.00     0.000 C 
BRANCH  21  22
ATOM     22  C   UNL     1      44.805  60.424  12.628  1.00  0.00     0.000 C 
BRANCH  22  23
ATOM     23  C   UNL     1      45.383  60.830  11.254  1.00  0.00     0.000 C 
BRANCH  23  24
ATOM     24  C   UNL     1      44.372  60.887  10.090  1.00  0.00    -0.000 C 
BRANCH  24  25
ATOM     25  C   UNL     1      44.327  59.591   9.261  1.00  0.00    -0.000 C 
BRANCH  25  26
ATOM     26  C   UNL     1      42.949  58.910   9.302  1.00  0.00    -0.000 C 
BRANCH  26  27
ATOM     27  C   UNL     1      42.071  59.406  10.461  1.00  0.00    -0.000 C 
BRANCH  27  28
ATOM     28  C   UNL     1      40.722  59.975   9.984  1.00  0.00    -0.000 C 
BRANCH  28  29
ATOM     29  C   UNL     1      39.707  60.207  11.123  1.00  0.00    -0.000 C 
BRANCH  29  30
ATOM     30  C   UNL     1      38.340  60.687  10.599  1.00  0.00    -0.000 C 
BRANCH  30  31
ATOM     31  C   UNL     1      38.324  62.189  10.270  1.00  0.00    -0.003 C 
ATOM     32  C   UNL     1      38.209  63.070  11.515  1.00  0.00     0.004 C 
ENDBRANCH  30  31
ENDBRANCH  29  30
ENDBRANCH  28  29
ENDBRANCH  27  28
ENDBRANCH  26  27
ENDBRANCH  25  26
ENDBRANCH  24  25
ENDBRANCH  23  24
ENDBRANCH  22  23
ENDBRANCH  21  22
ENDBRANCH  20  21
ENDBRANCH  19  20
ENDBRANCH  18  19
ENDBRANCH   1  18
TORSDOF 28
ENDMDL
MODEL 7
REMARK VINA RESULT:    -4.110      3.072      7.435
REMARK INTER + INTRA:         -16.668
REMARK INTER:                 -11.214
REMARK INTRA:                  -5.454
REMARK UNBOUND:                -5.831
REMARK SMILES CCCCCCCCCCCCCCCCCCCCCCCCCCCCCC(=O)[O-]
REMARK SMILES IDX 16 1 17 2 18 3 19 4 20 5 21 6 22 7 23 8 24 9 25 10 26 11
REMARK SMILES IDX 27 12 28 13 29 14 30 15 31 16 32 17 15 18 14 19 13 20 12 21
REMARK SMILES IDX 11 22 10 23 9 24 8 25 7 26 6 27 5 28 4 29 3 30 2 31 1 32
REMARK H PARENT
REMARK Flexibility Score: inf
ROOT
ATOM      1  C   UNL     1      43.919  63.955  11.868  1.00  0.00     0.000 C 
ENDROOT
BRANCH   1   2
ATOM      2  C   UNL     1      44.663  62.613  11.935  1.00  0.00     0.000 C 
BRANCH   2   3
ATOM      3  C   UNL     1      44.953  62.172  13.379  1.00  0.00     0.000 C 
BRANCH   3   4
ATOM      4  C   UNL     1      44.225  60.867  13.756  1.00  0.00     0.000 C 
BRANCH   4   5
ATOM      5  C   UNL     1      43.915  59.993  12.523  1.00  0.00     0.000 C 
BRANCH   5   6
ATOM      6  C   UNL     1      42.469  59.464  12.474  1.00  0.00     0.000 C 
BRANCH   6   7
ATOM      7  C   UNL     1      41.930  59.226  11.045  1.00  0.00     0.000 C 
BRANCH   7   8
ATOM      8  C   UNL     1      41.816  60.504  10.191  1.00  0.00     0.000 C 
BRANCH   8   9
ATOM      9  C   UNL     1      42.431  60.405   8.780  1.00  0.00     0.000 C 
BRANCH   9  10
ATOM     10  C   UNL     1      43.547  61.435   8.502  1.00  0.00     0.000 C 
BRANCH  10  11
ATOM     11  C   UNL     1      43.211  62.401   7.351  1.00  0.00     0.000 C 
BRANCH  11  12
ATOM     12  C   UNL     1      41.730  62.332   6.912  1.00  0.00     0.000 C 
BRANCH  12  13
ATOM     13  C   UNL     1      41.446  63.260   5.720  1.00  0.00     0.006 C 
BRANCH  13  14
ATOM     14  C   UNL     1      40.331  62.716   4.815  1.00  0.00     0.053 C 
BRANCH  14  15
ATOM     15  C   UNL     1      40.705  61.398   4.205  1.00  0.00     0.041 C 
ATOM     16  O   UNL     1      41.610  61.341   3.329  1.00  0.00    -0.550 OA
ATOM     17  O   UNL     1      40.051  60.234   4.596  1.00  0.00    -0.550 OA
ENDBRANCH  14  15
ENDBRANCH  13  14
ENDBRANCH  12  13
ENDBRANCH  11  12
ENDBRANCH  10  11
ENDBRANCH   9  10
ENDBRANCH   8   9
ENDBRANCH   7   8
ENDBRANCH   6   7
ENDBRANCH   5   6
ENDBRANCH   4   5
ENDBRANCH   3   4
ENDBRANCH   2   3
ENDBRANCH   1   2
BRANCH   1  18
ATOM     18  C   UNL     1      42.424  63.729  11.600  1.00  0.00     0.000 C 
BRANCH  18  19
ATOM     19  C   UNL     1      41.574  63.703  12.885  1.00  0.00     0.000 C 
BRANCH  19  20
ATOM     20  C   UNL     1      40.570  62.539  12.981  1.00  0.00     0.000 C 
BRANCH  20  21
ATOM     21  C   UNL     1      39.127  62.876  12.561  1.00  0.00     0.000 C 
BRANCH  21  22
ATOM     22  C   UNL     1      38.838  62.663  11.058  1.00  0.00     0.000 C 
BRANCH  22  23
ATOM     23  C   UNL     1      38.681  63.954  10.225  1.00  0.00     0.000 C 
BRANCH  23  24
ATOM     24  C   UNL     1      39.844  64.279   9.264  1.00  0.00    -0.000 C 
BRANCH  24  25
ATOM     25  C   UNL     1      39.521  65.426   8.289  1.00  0.00    -0.000 C 
BRANCH  25  26
ATOM     26  C   UNL     1      40.697  66.401   8.115  1.00  0.00    -0.000 C 
BRANCH  26  27
ATOM     27  C   UNL     1      42.055  65.769   8.457  1.00  0.00    -0.000 C 
BRANCH  27  28
ATOM     28  C   UNL     1      43.231  66.471   7.755  1.00  0.00    -0.000 C 
BRANCH  28  29
ATOM     29  C   UNL     1      43.421  66.045   6.283  1.00  0.00    -0.000 C 
BRANCH  29  30
ATOM     30  C   UNL     1      42.777  67.041   5.300  1.00  0.00    -0.000 C 
BRANCH  30  31
ATOM     31  C   UNL     1      42.639  66.467   3.879  1.00  0.00    -0.003 C 
ATOM     32  C   UNL     1      43.476  65.205   3.662  1.00  0.00     0.004 C 
ENDBRANCH  30  31
ENDBRANCH  29  30
ENDBRANCH  28  29
ENDBRANCH  27  28
ENDBRANCH  26  27
ENDBRANCH  25  26
ENDBRANCH  24  25
ENDBRANCH  23  24
ENDBRANCH  22  23
ENDBRANCH  21  22
ENDBRANCH  20  21
ENDBRANCH  19  20
ENDBRANCH  18  19
ENDBRANCH   1  18
TORSDOF 28
ENDMDL
MODEL 8
REMARK VINA RESULT:    -4.091      1.827      4.866
REMARK INTER + INTRA:         -16.618
REMARK INTER:                 -10.007
REMARK INTRA:                  -6.612
REMARK UNBOUND:                -5.831
REMARK SMILES CCCCCCCCCCCCCCCCCCCCCCCCCCCCCC(=O)[O-]
REMARK SMILES IDX 16 1 17 2 18 3 19 4 20 5 21 6 22 7 23 8 24 9 25 10 26 11
REMARK SMILES IDX 27 12 28 13 29 14 30 15 31 16 32 17 15 18 14 19 13 20 12 21
REMARK SMILES IDX 11 22 10 23 9 24 8 25 7 26 6 27 5 28 4 29 3 30 2 31 1 32
REMARK H PARENT
REMARK Flexibility Score: inf
ROOT
ATOM      1  C   UNL     1      44.284  59.689  10.156  1.00  0.00     0.000 C 
ENDROOT
BRANCH   1   2
ATOM      2  C   UNL     1      43.016  59.029   9.595  1.00  0.00     0.000 C 
BRANCH   2   3
ATOM      3  C   UNL     1      41.788  59.253  10.493  1.00  0.00     0.000 C 
BRANCH   3   4
ATOM      4  C   UNL     1      40.469  59.264   9.698  1.00  0.00     0.000 C 
BRANCH   4   5
ATOM      5  C   UNL     1      40.695  59.058   8.186  1.00  0.00     0.000 C 
BRANCH   5   6
ATOM      6  C   UNL     1      39.769  59.902   7.290  1.00  0.00     0.000 C 
BRANCH   6   7
ATOM      7  C   UNL     1      40.506  60.689   6.182  1.00  0.00     0.000 C 
BRANCH   7   8
ATOM      8  C   UNL     1      39.896  62.072   5.876  1.00  0.00     0.000 C 
BRANCH   8   9
ATOM      9  C   UNL     1      40.629  62.883   4.787  1.00  0.00     0.000 C 
BRANCH   9  10
ATOM     10  C   UNL     1      41.287  64.182   5.302  1.00  0.00     0.000 C 
BRANCH  10  11
ATOM     11  C   UNL     1      42.809  64.226   5.070  1.00  0.00     0.000 C 
BRANCH  11  12
ATOM     12  C   UNL     1      43.531  65.258   5.967  1.00  0.00     0.000 C 
BRANCH  12  13
ATOM     13  C   UNL     1      42.847  66.634   5.917  1.00  0.00     0.006 C 
BRANCH  13  14
ATOM     14  C   UNL     1      42.445  67.132   7.313  1.00  0.00     0.053 C 
BRANCH  14  15
ATOM     15  C   UNL     1      41.145  67.879   7.281  1.00  0.00     0.041 C 
ATOM     16  O   UNL     1      40.129  67.403   7.856  1.00  0.00    -0.550 OA
ATOM     17  O   UNL     1      41.051  69.095   6.611  1.00  0.00    -0.550 OA
ENDBRANCH  14  15
ENDBRANCH  13  14
ENDBRANCH  12  13
ENDBRANCH  11  12
ENDBRANCH  10  11
ENDBRANCH   9  10
ENDBRANCH   8   9
ENDBRANCH   7   8
ENDBRANCH   6   7
ENDBRANCH   5   6
ENDBRANCH   4   5
ENDBRANCH   3   4
ENDBRANCH   2   3
ENDBRANCH   1   2
BRANCH   1  18
ATOM     18  C   UNL     1      44.784  60.789   9.209  1.00  0.00     0.000 C 
BRANCH  18  19
ATOM     19  C   UNL     1      43.753  61.175   8.131  1.00  0.00     0.000 C 
BRANCH  19  20
ATOM     20  C   UNL     1      43.161  62.590   8.270  1.00  0.00     0.000 C 
BRANCH  20  21
ATOM     21  C   UNL     1      41.776  62.664   8.939  1.00  0.00     0.000 C 
BRANCH  21  22
ATOM     22  C   UNL     1      41.204  64.095   9.054  1.00  0.00     0.000 C 
BRANCH  22  23
ATOM     23  C   UNL     1      39.682  64.181   9.308  1.00  0.00     0.000 C 
BRANCH  23  24
ATOM     24  C   UNL     1      38.935  62.833   9.371  1.00  0.00    -0.000 C 
BRANCH  24  25
ATOM     25  C   UNL     1      38.380  62.513  10.771  1.00  0.00    -0.000 C 
BRANCH  25  26
ATOM     26  C   UNL     1      39.473  62.050  11.748  1.00  0.00    -0.000 C 
BRANCH  26  27
ATOM     27  C   UNL     1      39.626  62.983  12.960  1.00  0.00    -0.000 C 
BRANCH  27  28
ATOM     28  C   UNL     1      41.082  63.083  13.453  1.00  0.00    -0.000 C 
BRANCH  28  29
ATOM     29  C   UNL     1      42.106  62.428  12.502  1.00  0.00    -0.000 C 
BRANCH  29  30
ATOM     30  C   UNL     1      43.275  63.372  12.163  1.00  0.00    -0.000 C 
BRANCH  30  31
ATOM     31  C   UNL     1      44.649  62.738  12.434  1.00  0.00    -0.003 C 
ATOM     32  C   UNL     1      44.577  61.547  13.392  1.00  0.00     0.004 C 
ENDBRANCH  30  31
ENDBRANCH  29  30
ENDBRANCH  28  29
ENDBRANCH  27  28
ENDBRANCH  26  27
ENDBRANCH  25  26
ENDBRANCH  24  25
ENDBRANCH  23  24
ENDBRANCH  22  23
ENDBRANCH  21  22
ENDBRANCH  20  21
ENDBRANCH  19  20
ENDBRANCH  18  19
ENDBRANCH   1  18
TORSDOF 28
ENDMDL
MODEL 9
REMARK VINA RESULT:    -4.062      1.328      2.780
REMARK INTER + INTRA:         -16.541
REMARK INTER:                 -10.738
REMARK INTRA:                  -5.803
REMARK UNBOUND:                -5.831
REMARK SMILES CCCCCCCCCCCCCCCCCCCCCCCCCCCCCC(=O)[O-]
REMARK SMILES IDX 16 1 17 2 18 3 19 4 20 5 21 6 22 7 23 8 24 9 25 10 26 11
REMARK SMILES IDX 27 12 28 13 29 14 30 15 31 16 32 17 15 18 14 19 13 20 12 21
REMARK SMILES IDX 11 22 10 23 9 24 8 25 7 26 6 27 5 28 4 29 3 30 2 31 1 32
REMARK H PARENT
REMARK Flexibility Score: inf
ROOT
ATOM      1  C   UNL     1      41.925  65.879   8.641  1.00  0.00     0.000 C 
ENDROOT
BRANCH   1   2
ATOM      2  C   UNL     1      43.121  66.689   8.120  1.00  0.00     0.000 C 
BRANCH   2   3
ATOM      3  C   UNL     1      43.863  65.977   6.978  1.00  0.00     0.000 C 
BRANCH   3   4
ATOM      4  C   UNL     1      43.305  66.344   5.590  1.00  0.00     0.000 C 
BRANCH   4   5
ATOM      5  C   UNL     1      42.901  65.099   4.773  1.00  0.00     0.000 C 
BRANCH   5   6
ATOM      6  C   UNL     1      42.726  63.822   5.615  1.00  0.00     0.000 C 
BRANCH   6   7
ATOM      7  C   UNL     1      41.253  63.458   5.913  1.00  0.00     0.000 C 
BRANCH   7   8
ATOM      8  C   UNL     1      40.284  63.741   4.747  1.00  0.00     0.000 C 
BRANCH   8   9
ATOM      9  C   UNL     1      39.276  64.882   4.998  1.00  0.00     0.000 C 
BRANCH   9  10
ATOM     10  C   UNL     1      39.290  65.434   6.440  1.00  0.00     0.000 C 
BRANCH  10  11
ATOM     11  C   UNL     1      38.829  66.900   6.534  1.00  0.00     0.000 C 
BRANCH  11  12
ATOM     12  C   UNL     1      40.000  67.909   6.512  1.00  0.00     0.000 C 
BRANCH  12  13
ATOM     13  C   UNL     1      40.203  68.516   5.115  1.00  0.00     0.006 C 
BRANCH  13  14
ATOM     14  C   UNL     1      41.431  69.437   5.056  1.00  0.00     0.053 C 
BRANCH  14  15
ATOM     15  C   UNL     1      41.181  70.741   5.754  1.00  0.00     0.041 C 
ATOM     16  O   UNL     1      42.045  71.212   6.541  1.00  0.00    -0.550 OA
ATOM     17  O   UNL     1      39.991  71.431   5.543  1.00  0.00    -0.550 OA
ENDBRANCH  14  15
ENDBRANCH  13  14
ENDBRANCH  12  13
ENDBRANCH  11  12
ENDBRANCH  10  11
ENDBRANCH   9  10
ENDBRANCH   8   9
ENDBRANCH   7   8
ENDBRANCH   6   7
ENDBRANCH   5   6
ENDBRANCH   4   5
ENDBRANCH   3   4
ENDBRANCH   2   3
ENDBRANCH   1   2
BRANCH   1  18
ATOM     18  C   UNL     1      42.406  64.604   9.348  1.00  0.00     0.000 C 
BRANCH  18  19
ATOM     19  C   UNL     1      43.115  64.883  10.687  1.00  0.00     0.000 C 
BRANCH  19  20
ATOM     20  C   UNL     1      43.435  63.635  11.529  1.00  0.00     0.000 C 
BRANCH  20  21
ATOM     21  C   UNL     1      42.335  63.205  12.518  1.00  0.00     0.000 C 
BRANCH  21  22
ATOM     22  C   UNL     1      42.632  61.883  13.261  1.00  0.00     0.000 C 
BRANCH  22  23
ATOM     23  C   UNL     1      44.125  61.499  13.359  1.00  0.00     0.000 C 
BRANCH  23  24
ATOM     24  C   UNL     1      44.567  60.295  12.502  1.00  0.00    -0.000 C 
BRANCH  24  25
ATOM     25  C   UNL     1      45.300  60.706  11.212  1.00  0.00    -0.000 C 
BRANCH  25  26
ATOM     26  C   UNL     1      44.685  60.069   9.955  1.00  0.00    -0.000 C 
BRANCH  26  27
ATOM     27  C   UNL     1      44.165  61.109   8.950  1.00  0.00    -0.000 C 
BRANCH  27  28
ATOM     28  C   UNL     1      42.638  61.044   8.765  1.00  0.00    -0.000 C 
BRANCH  28  29
ATOM     29  C   UNL     1      41.900  60.343   9.926  1.00  0.00    -0.000 C 
BRANCH  29  30
ATOM     30  C   UNL     1      40.508  60.950  10.185  1.00  0.00    -0.000 C 
BRANCH  30  31
ATOM     31  C   UNL     1      40.048  61.884   9.054  1.00  0.00    -0.003 C 
ATOM     32  C   UNL     1      39.184  63.045   9.554  1.00  0.00     0.004 C 
ENDBRANCH  30  31
ENDBRANCH  29  30
ENDBRANCH  28  29
ENDBRANCH  27  28
ENDBRANCH  26  27
ENDBRANCH  25  26
ENDBRANCH  24  25
ENDBRANCH  23  24
ENDBRANCH  22  23
ENDBRANCH  21  22
ENDBRANCH  20  21
ENDBRANCH  19  20
ENDBRANCH  18  19
ENDBRANCH   1  18
TORSDOF 28
ENDMDL
