MODEL 1
REMARK VINA RESULT:    -2.241      0.000      0.000
REMARK INTER + INTRA:          -3.637
REMARK INTER:                  -3.420
REMARK INTRA:                  -0.217
REMARK UNBOUND:                -0.217
REMARK SMILES CC1=CCC[C@H](C)C(=O)C[C@@H](C(C)C)C(=O)C1
REMARK SMILES IDX 8 1 9 2 6 3 7 4 5 5 4 6 3 7 2 8 1 9 10 11 11 12 15 13 16 14
REMARK SMILES IDX 17 15 12 17 13 18 14 19
REMARK H PARENT
REMARK Flexibility Score: 70.00
ROOT
ATOM      1  C   UNL     1      52.986  -0.598  21.486  1.00  0.00     0.136 C 
ATOM      2  O   UNL     1      53.033  -1.592  22.193  1.00  0.00    -0.299 OA
ENDROOT
BRANCH   1   3
ATOM      3  C   UNL     1      51.628  -0.040  21.096  1.00  0.00     0.053 C 
ATOM      4  C   UNL     1      50.894  -1.026  20.178  1.00  0.00     0.016 C 
BRANCH   3   5
ATOM      5  C   UNL     1      50.770   0.315  22.330  1.00  0.00     0.015 C 
BRANCH   5   6
ATOM      6  C   UNL     1      50.657   1.836  22.547  1.00  0.00     0.028 C 
BRANCH   6   7
ATOM      7  C   UNL     1      51.405   2.269  23.783  1.00  0.00    -0.028 C 
ATOM      8  C   UNL     1      52.676   2.730  23.795  1.00  0.00    -0.070 CG0
ATOM      9  C   UNL     1      53.270   3.123  25.124  1.00  0.00     0.039 C 
ATOM     10  G   UNL     1      53.513   2.920  22.539  1.00  0.00     0.000 G0
ENDBRANCH   6   7
ENDBRANCH   5   6
ENDBRANCH   3   5
ENDBRANCH   1   3
BRANCH   1  11
ATOM     11  C   UNL     1      54.264   0.143  21.164  1.00  0.00     0.087 C 
BRANCH  11  12
ATOM     12  C   UNL     1      55.072   0.725  22.354  1.00  0.00     0.066 C 
BRANCH  12  13
ATOM     13  C   UNL     1      54.865   2.220  22.607  1.00  0.00     0.140 C 
ATOM     14  O   UNL     1      55.853   2.906  22.827  1.00  0.00    -0.299 OA
BRANCH  13  15
ATOM     15  C   UNL     1      53.520   2.909  22.514  1.00  0.00     0.106 CG0
ATOM     16  G   UNL     1      52.678   2.727  23.768  1.00  0.00     0.000 G0
ENDBRANCH  13  15
ENDBRANCH  12  13
BRANCH  12  17
ATOM     17  C   UNL     1      56.552   0.204  22.460  1.00  0.00    -0.006 C 
ATOM     18  C   UNL     1      56.745  -1.114  23.228  1.00  0.00     0.008 C 
ATOM     19  C   UNL     1      57.183   0.056  21.065  1.00  0.00     0.008 C 
ENDBRANCH  12  17
ENDBRANCH  11  12
ENDBRANCH   1  11
TORSDOF 1
ENDMDL
MODEL 2
REMARK VINA RESULT:    -1.989      1.863      4.140
REMARK INTER + INTRA:          -3.253
REMARK INTER:                  -3.123
REMARK INTRA:                  -0.129
REMARK UNBOUND:                -0.217
REMARK SMILES CC1=CCC[C@H](C)C(=O)C[C@@H](C(C)C)C(=O)C1
REMARK SMILES IDX 8 1 9 2 6 3 7 4 5 5 4 6 3 7 2 8 1 9 10 11 11 12 15 13 16 14
REMARK SMILES IDX 17 15 12 17 13 18 14 19
REMARK H PARENT
REMARK Flexibility Score: 70.00
ROOT
ATOM      1  C   UNL     1      57.307   0.928  24.716  1.00  0.00     0.136 C 
ATOM      2  O   UNL     1      58.440   0.726  25.123  1.00  0.00    -0.299 OA
ENDROOT
BRANCH   1   3
ATOM      3  C   UNL     1      56.763   2.346  24.735  1.00  0.00     0.053 C 
ATOM      4  C   UNL     1      57.005   3.025  23.381  1.00  0.00     0.016 C 
BRANCH   3   5
ATOM      5  C   UNL     1      55.267   2.388  25.118  1.00  0.00     0.015 C 
BRANCH   5   6
ATOM      6  C   UNL     1      54.395   3.002  24.007  1.00  0.00     0.028 C 
BRANCH   6   7
ATOM      7  C   UNL     1      53.106   2.239  23.840  1.00  0.00    -0.028 C 
ATOM      8  C   UNL     1      52.854   1.353  22.850  1.00  0.00    -0.070 CG0
ATOM      9  C   UNL     1      51.508   0.675  22.835  1.00  0.00     0.039 C 
ATOM     10  G   UNL     1      53.874   0.970  21.787  1.00  0.00     0.000 G0
ENDBRANCH   6   7
ENDBRANCH   5   6
ENDBRANCH   3   5
ENDBRANCH   1   3
BRANCH   1  11
ATOM     11  C   UNL     1      56.547  -0.198  24.051  1.00  0.00     0.087 C 
BRANCH  11  12
ATOM     12  C   UNL     1      56.223  -0.048  22.541  1.00  0.00     0.066 C 
BRANCH  12  13
ATOM     13  C   UNL     1      54.745  -0.201  22.179  1.00  0.00     0.140 C 
ATOM     14  O   UNL     1      54.237  -1.307  22.298  1.00  0.00    -0.299 OA
BRANCH  13  15
ATOM     15  C   UNL     1      53.858   0.955  21.767  1.00  0.00     0.106 CG0
ATOM     16  G   UNL     1      52.861   1.346  22.848  1.00  0.00     0.000 G0
ENDBRANCH  13  15
ENDBRANCH  12  13
BRANCH  12  17
ATOM     17  C   UNL     1      57.249  -0.750  21.578  1.00  0.00    -0.006 C 
ATOM     18  C   UNL     1      58.025   0.180  20.632  1.00  0.00     0.008 C 
ATOM     19  C   UNL     1      58.258  -1.596  22.373  1.00  0.00     0.008 C 
ENDBRANCH  12  17
ENDBRANCH  11  12
ENDBRANCH   1  11
TORSDOF 1
ENDMDL
MODEL 3
REMARK VINA RESULT:    -1.601      2.385      5.470
REMARK INTER + INTRA:          -2.660
REMARK INTER:                  -2.653
REMARK INTRA:                  -0.007
REMARK UNBOUND:                -0.217
REMARK SMILES CC1=CCC[C@H](C)C(=O)C[C@@H](C(C)C)C(=O)C1
REMARK SMILES IDX 8 1 9 2 6 3 7 4 5 5 4 6 3 7 2 8 1 9 10 11 11 12 15 13 16 14
REMARK SMILES IDX 17 15 12 17 13 18 14 19
REMARK H PARENT
REMARK Flexibility Score: 70.00
ROOT
ATOM      1  C   UNL     1      56.134   2.781  22.964  1.00  0.00     0.136 C 
ATOM      2  O   UNL     1      57.116   3.090  22.309  1.00  0.00    -0.299 OA
ENDROOT
BRANCH   1   3
ATOM      3  C   UNL     1      56.183   2.933  24.475  1.00  0.00     0.053 C 
ATOM      4  C   UNL     1      54.786   2.722  25.074  1.00  0.00     0.016 C 
BRANCH   3   5
ATOM      5  C   UNL     1      57.213   1.981  25.121  1.00  0.00     0.015 C 
BRANCH   5   6
ATOM      6  C   UNL     1      56.736   0.516  25.125  1.00  0.00     0.028 C 
BRANCH   6   7
ATOM      7  C   UNL     1      57.665  -0.363  24.327  1.00  0.00    -0.028 C 
ATOM      8  C   UNL     1      57.284  -1.166  23.308  1.00  0.00    -0.070 CG0
ATOM      9  C   UNL     1      58.348  -1.978  22.614  1.00  0.00     0.039 C 
ATOM     10  G   UNL     1      55.853  -1.252  22.796  1.00  0.00     0.000 G0
ENDBRANCH   6   7
ENDBRANCH   5   6
ENDBRANCH   3   5
ENDBRANCH   1   3
BRANCH   1  11
ATOM     11  C   UNL     1      54.850   2.422  22.250  1.00  0.00     0.087 C 
BRANCH  11  12
ATOM     12  C   UNL     1      54.391   0.940  22.307  1.00  0.00     0.066 C 
BRANCH  12  13
ATOM     13  C   UNL     1      55.460  -0.082  21.916  1.00  0.00     0.140 C 
ATOM     14  O   UNL     1      56.080   0.105  20.878  1.00  0.00    -0.299 OA
BRANCH  13  15
ATOM     15  C   UNL     1      55.852  -1.260  22.783  1.00  0.00     0.106 CG0
ATOM     16  G   UNL     1      57.274  -1.152  23.313  1.00  0.00     0.000 G0
ENDBRANCH  13  15
ENDBRANCH  12  13
BRANCH  12  17
ATOM     17  C   UNL     1      52.945   0.679  21.747  1.00  0.00    -0.006 C 
ATOM     18  C   UNL     1      52.464  -0.781  21.785  1.00  0.00     0.008 C 
ATOM     19  C   UNL     1      51.909   1.556  22.472  1.00  0.00     0.008 C 
ENDBRANCH  12  17
ENDBRANCH  11  12
ENDBRANCH   1  11
TORSDOF 1
ENDMDL
MODEL 4
REMARK VINA RESULT:    -1.474      1.641      4.373
REMARK INTER + INTRA:          -2.466
REMARK INTER:                  -2.262
REMARK INTRA:                  -0.204
REMARK UNBOUND:                -0.217
REMARK SMILES CC1=CCC[C@H](C)C(=O)C[C@@H](C(C)C)C(=O)C1
REMARK SMILES IDX 8 1 9 2 6 3 7 4 5 5 4 6 3 7 2 8 1 9 10 11 11 12 15 13 16 14
REMARK SMILES IDX 17 15 12 17 13 18 14 19
REMARK H PARENT
REMARK Flexibility Score: 70.00
ROOT
ATOM      1  C   UNL     1      53.899  -0.024  21.384  1.00  0.00     0.136 C 
ATOM      2  O   UNL     1      54.035   0.177  20.188  1.00  0.00    -0.299 OA
ENDROOT
BRANCH   1   3
ATOM      3  C   UNL     1      54.847   0.659  22.355  1.00  0.00     0.053 C 
ATOM      4  C   UNL     1      56.302   0.436  21.920  1.00  0.00     0.016 C 
BRANCH   3   5
ATOM      5  C   UNL     1      54.537   2.164  22.506  1.00  0.00     0.015 C 
BRANCH   5   6
ATOM      6  C   UNL     1      54.163   2.543  23.952  1.00  0.00     0.028 C 
BRANCH   6   7
ATOM      7  C   UNL     1      52.769   3.112  24.025  1.00  0.00    -0.028 C 
ATOM      8  C   UNL     1      51.653   2.393  24.283  1.00  0.00    -0.070 CG0
ATOM      9  C   UNL     1      50.336   3.125  24.323  1.00  0.00     0.039 C 
ATOM     10  G   UNL     1      51.667   0.902  24.586  1.00  0.00     0.000 G0
ENDBRANCH   6   7
ENDBRANCH   5   6
ENDBRANCH   3   5
ENDBRANCH   1   3
BRANCH   1  11
ATOM     11  C   UNL     1      52.697  -0.802  21.873  1.00  0.00     0.087 C 
BRANCH  11  12
ATOM     12  C   UNL     1      51.376  -0.016  22.087  1.00  0.00     0.066 C 
BRANCH  12  13
ATOM     13  C   UNL     1      50.923   0.102  23.543  1.00  0.00     0.140 C 
ATOM     14  O   UNL     1      49.952  -0.554  23.896  1.00  0.00    -0.299 OA
BRANCH  13  15
ATOM     15  C   UNL     1      51.659   0.913  24.589  1.00  0.00     0.106 CG0
ATOM     16  G   UNL     1      51.657   2.404  24.285  1.00  0.00     0.000 G0
ENDBRANCH  13  15
ENDBRANCH  12  13
BRANCH  12  17
ATOM     17  C   UNL     1      50.250  -0.326  21.034  1.00  0.00    -0.006 C 
ATOM     18  C   UNL     1      50.136   0.664  19.863  1.00  0.00     0.008 C 
ATOM     19  C   UNL     1      50.409  -1.745  20.462  1.00  0.00     0.008 C 
ENDBRANCH  12  17
ENDBRANCH  11  12
ENDBRANCH   1  11
TORSDOF 1
ENDMDL
MODEL 5
REMARK VINA RESULT:    -1.403      2.461      5.069
REMARK INTER + INTRA:          -2.358
REMARK INTER:                  -3.516
REMARK INTRA:                   1.158
REMARK UNBOUND:                -0.217
REMARK SMILES CC1=CCC[C@H](C)C(=O)C[C@@H](C(C)C)C(=O)C1
REMARK SMILES IDX 8 1 9 2 6 3 7 4 5 5 4 6 3 7 2 8 1 9 10 11 11 12 15 13 16 14
REMARK SMILES IDX 17 15 12 17 13 18 14 19
REMARK H PARENT
REMARK Flexibility Score: 70.00
ROOT
ATOM      1  C   UNL     1      56.455  -0.399  22.023  1.00  0.00     0.136 C 
ATOM      2  O   UNL     1      57.022   0.385  21.279  1.00  0.00    -0.299 OA
ENDROOT
BRANCH   1   3
ATOM      3  C   UNL     1      57.276  -1.467  22.726  1.00  0.00     0.053 C 
ATOM      4  C   UNL     1      58.750  -1.360  22.312  1.00  0.00     0.016 C 
BRANCH   3   5
ATOM      5  C   UNL     1      57.123  -1.399  24.261  1.00  0.00     0.015 C 
BRANCH   5   6
ATOM      6  C   UNL     1      58.390  -0.859  24.952  1.00  0.00     0.028 C 
BRANCH   6   7
ATOM      7  C   UNL     1      58.376   0.647  25.018  1.00  0.00    -0.028 C 
ATOM      8  C   UNL     1      57.260   1.410  25.051  1.00  0.00    -0.070 CG0
ATOM      9  C   UNL     1      57.430   2.906  25.121  1.00  0.00     0.039 C 
ATOM     10  G   UNL     1      55.851   0.835  25.075  1.00  0.00     0.000 G0
ENDBRANCH   6   7
ENDBRANCH   5   6
ENDBRANCH   3   5
ENDBRANCH   1   3
BRANCH   1  11
ATOM     11  C   UNL     1      54.996  -0.183  22.355  1.00  0.00     0.087 C 
BRANCH  11  12
ATOM     12  C   UNL     1      54.561   1.249  22.766  1.00  0.00     0.066 C 
BRANCH  12  13
ATOM     13  C   UNL     1      54.872   1.628  24.215  1.00  0.00     0.140 C 
ATOM     14  O   UNL     1      54.260   2.566  24.706  1.00  0.00    -0.299 OA
BRANCH  13  15
ATOM     15  C   UNL     1      55.828   0.855  25.099  1.00  0.00     0.106 CG0
ATOM     16  G   UNL     1      57.252   1.387  25.032  1.00  0.00     0.000 G0
ENDBRANCH  13  15
ENDBRANCH  12  13
BRANCH  12  17
ATOM     17  C   UNL     1      53.153   1.689  22.222  1.00  0.00    -0.006 C 
ATOM     18  C   UNL     1      53.119   3.014  21.442  1.00  0.00     0.008 C 
ATOM     19  C   UNL     1      52.535   0.587  21.345  1.00  0.00     0.008 C 
ENDBRANCH  12  17
ENDBRANCH  11  12
ENDBRANCH   1  11
TORSDOF 1
ENDMDL
MODEL 6
REMARK VINA RESULT:    -1.227      1.917      4.857
REMARK INTER + INTRA:          -2.090
REMARK INTER:                  -2.764
REMARK INTRA:                   0.674
REMARK UNBOUND:                -0.217
REMARK SMILES CC1=CCC[C@H](C)C(=O)C[C@@H](C(C)C)C(=O)C1
REMARK SMILES IDX 8 1 9 2 6 3 7 4 5 5 4 6 3 7 2 8 1 9 10 11 11 12 15 13 16 14
REMARK SMILES IDX 17 15 12 17 13 18 14 19
REMARK H PARENT
REMARK Flexibility Score: 70.00
ROOT
ATOM      1  C   UNL     1      52.318   2.288  23.072  1.00  0.00     0.136 C 
ATOM      2  O   UNL     1      51.717   3.067  22.350  1.00  0.00    -0.299 OA
ENDROOT
BRANCH   1   3
ATOM      3  C   UNL     1      53.437   2.819  23.952  1.00  0.00     0.053 C 
ATOM      4  C   UNL     1      53.706   1.848  25.110  1.00  0.00     0.016 C 
BRANCH   3   5
ATOM      5  C   UNL     1      54.726   3.096  23.148  1.00  0.00     0.015 C 
BRANCH   5   6
ATOM      6  C   UNL     1      55.949   2.363  23.732  1.00  0.00     0.028 C 
BRANCH   6   7
ATOM      7  C   UNL     1      56.676   1.581  22.668  1.00  0.00    -0.028 C 
ATOM      8  C   UNL     1      56.260   0.399  22.157  1.00  0.00    -0.070 CG0
ATOM      9  C   UNL     1      57.111  -0.247  21.093  1.00  0.00     0.039 C 
ATOM     10  G   UNL     1      54.960  -0.280  22.562  1.00  0.00     0.000 G0
ENDBRANCH   6   7
ENDBRANCH   5   6
ENDBRANCH   3   5
ENDBRANCH   1   3
BRANCH   1  11
ATOM     11  C   UNL     1      51.826   0.863  23.198  1.00  0.00     0.087 C 
BRANCH  11  12
ATOM     12  C   UNL     1      52.326  -0.161  22.146  1.00  0.00     0.066 C 
BRANCH  12  13
ATOM     13  C   UNL     1      53.779   0.023  21.705  1.00  0.00     0.140 C 
ATOM     14  O   UNL     1      53.986   0.521  20.606  1.00  0.00    -0.299 OA
BRANCH  13  15
ATOM     15  C   UNL     1      54.971  -0.295  22.583  1.00  0.00     0.106 CG0
ATOM     16  G   UNL     1      56.239   0.416  22.133  1.00  0.00     0.000 G0
ENDBRANCH  13  15
ENDBRANCH  12  13
BRANCH  12  17
ATOM     17  C   UNL     1      51.293  -0.491  21.007  1.00  0.00    -0.006 C 
ATOM     18  C   UNL     1      50.396  -1.715  21.249  1.00  0.00     0.008 C 
ATOM     19  C   UNL     1      50.396   0.724  20.713  1.00  0.00     0.008 C 
ENDBRANCH  12  17
ENDBRANCH  11  12
ENDBRANCH   1  11
TORSDOF 1
ENDMDL
MODEL 7
REMARK VINA RESULT:    -0.890     21.106     22.950
REMARK INTER + INTRA:          -1.576
REMARK INTER:                  -3.283
REMARK INTRA:                   1.707
REMARK UNBOUND:                -0.217
REMARK SMILES CC1=CCC[C@H](C)C(=O)C[C@@H](C(C)C)C(=O)C1
REMARK SMILES IDX 8 1 9 2 6 3 7 4 5 5 4 6 3 7 2 8 1 9 10 11 11 12 15 13 16 14
REMARK SMILES IDX 17 15 12 17 13 18 14 19
REMARK H PARENT
REMARK Flexibility Score: 70.00
ROOT
ATOM      1  C   UNL     1      57.733 -14.168   8.392  1.00  0.00     0.136 C 
ATOM      2  O   UNL     1      58.390 -13.199   8.735  1.00  0.00    -0.299 OA
ENDROOT
BRANCH   1   3
ATOM      3  C   UNL     1      58.162 -14.944   7.158  1.00  0.00     0.053 C 
ATOM      4  C   UNL     1      58.520 -16.387   7.537  1.00  0.00     0.016 C 
BRANCH   3   5
ATOM      5  C   UNL     1      57.086 -14.912   6.050  1.00  0.00     0.015 C 
BRANCH   5   6
ATOM      6  C   UNL     1      56.770 -16.316   5.499  1.00  0.00     0.028 C 
BRANCH   6   7
ATOM      7  C   UNL     1      55.322 -16.431   5.095  1.00  0.00    -0.028 C 
ATOM      8  C   UNL     1      54.276 -16.001   5.836  1.00  0.00    -0.070 CG0
ATOM      9  C   UNL     1      52.889 -16.193   5.277  1.00  0.00     0.039 C 
ATOM     10  G   UNL     1      54.429 -15.292   7.174  1.00  0.00     0.000 G0
ENDBRANCH   6   7
ENDBRANCH   5   6
ENDBRANCH   3   5
ENDBRANCH   1   3
BRANCH   1  11
ATOM     11  C   UNL     1      56.625 -14.669   9.291  1.00  0.00     0.087 C 
BRANCH  11  12
ATOM     12  C   UNL     1      56.131 -16.124   9.073  1.00  0.00     0.066 C 
BRANCH  12  13
ATOM     13  C   UNL     1      54.819 -16.251   8.296  1.00  0.00     0.140 C 
ATOM     14  O   UNL     1      54.033 -17.124   8.637  1.00  0.00    -0.299 OA
BRANCH  13  15
ATOM     15  C   UNL     1      54.403 -15.305   7.189  1.00  0.00     0.106 CG0
ATOM     16  G   UNL     1      54.281 -15.998   5.839  1.00  0.00     0.000 G0
ENDBRANCH  13  15
ENDBRANCH  12  13
BRANCH  12  17
ATOM     17  C   UNL     1      56.289 -17.065  10.323  1.00  0.00    -0.006 C 
ATOM     18  C   UNL     1      57.673 -17.063  10.992  1.00  0.00     0.008 C 
ATOM     19  C   UNL     1      55.228 -16.744  11.389  1.00  0.00     0.008 C 
ENDBRANCH  12  17
ENDBRANCH  11  12
ENDBRANCH   1  11
TORSDOF 1
ENDMDL
MODEL 8
REMARK VINA RESULT:    -0.859      2.148      4.056
REMARK INTER + INTRA:          -1.528
REMARK INTER:                  -2.479
REMARK INTRA:                   0.951
REMARK UNBOUND:                -0.217
REMARK SMILES CC1=CCC[C@H](C)C(=O)C[C@@H](C(C)C)C(=O)C1
REMARK SMILES IDX 8 1 9 2 6 3 7 4 5 5 4 6 3 7 2 8 1 9 10 11 11 12 15 13 16 14
REMARK SMILES IDX 17 15 12 17 13 18 14 19
REMARK H PARENT
REMARK Flexibility Score: 70.00
ROOT
ATOM      1  C   UNL     1      51.993   1.926  23.895  1.00  0.00     0.136 C 
ATOM      2  O   UNL     1      51.995   3.053  23.428  1.00  0.00    -0.299 OA
ENDROOT
BRANCH   1   3
ATOM      3  C   UNL     1      50.789   1.469  24.702  1.00  0.00     0.053 C 
ATOM      4  C   UNL     1      49.944   2.679  25.125  1.00  0.00     0.016 C 
BRANCH   3   5
ATOM      5  C   UNL     1      49.935   0.437  23.935  1.00  0.00     0.015 C 
BRANCH   5   6
ATOM      6  C   UNL     1      50.707  -0.865  23.647  1.00  0.00     0.028 C 
BRANCH   6   7
ATOM      7  C   UNL     1      50.362  -1.415  22.287  1.00  0.00    -0.028 C 
ATOM      8  C   UNL     1      50.577  -0.774  21.115  1.00  0.00    -0.070 CG0
ATOM      9  C   UNL     1      50.173  -1.475  19.843  1.00  0.00     0.039 C 
ATOM     10  G   UNL     1      51.249   0.588  21.015  1.00  0.00     0.000 G0
ENDBRANCH   6   7
ENDBRANCH   5   6
ENDBRANCH   3   5
ENDBRANCH   1   3
BRANCH   1  11
ATOM     11  C   UNL     1      53.098   0.965  23.519  1.00  0.00     0.087 C 
BRANCH  11  12
ATOM     12  C   UNL     1      53.680   1.071  22.085  1.00  0.00     0.066 C 
BRANCH  12  13
ATOM     13  C   UNL     1      52.781   0.512  20.980  1.00  0.00     0.140 C 
ATOM     14  O   UNL     1      53.311  -0.106  20.067  1.00  0.00    -0.299 OA
BRANCH  13  15
ATOM     15  C   UNL     1      51.269   0.604  21.000  1.00  0.00     0.106 CG0
ATOM     16  G   UNL     1      50.599  -0.757  21.120  1.00  0.00     0.000 G0
ENDBRANCH  13  15
ENDBRANCH  12  13
BRANCH  12  17
ATOM     17  C   UNL     1      55.211   0.731  21.970  1.00  0.00    -0.006 C 
ATOM     18  C   UNL     1      56.176   1.784  22.537  1.00  0.00     0.008 C 
ATOM     19  C   UNL     1      55.522  -0.625  22.628  1.00  0.00     0.008 C 
ENDBRANCH  12  17
ENDBRANCH  11  12
ENDBRANCH   1  11
TORSDOF 1
ENDMDL
MODEL 9
REMARK VINA RESULT:    -0.632      1.552      2.158
REMARK INTER + INTRA:          -1.182
REMARK INTER:                  -2.580
REMARK INTRA:                   1.398
REMARK UNBOUND:                -0.217
REMARK SMILES CC1=CCC[C@H](C)C(=O)C[C@@H](C(C)C)C(=O)C1
REMARK SMILES IDX 8 1 9 2 6 3 7 4 5 5 4 6 3 7 2 8 1 9 10 11 11 12 15 13 16 14
REMARK SMILES IDX 17 15 12 17 13 18 14 19
REMARK H PARENT
REMARK Flexibility Score: 70.00
ROOT
ATOM      1  C   UNL     1      53.455  -0.871  21.813  1.00  0.00     0.136 C 
ATOM      2  O   UNL     1      54.060  -1.840  22.242  1.00  0.00    -0.299 OA
ENDROOT
BRANCH   1   3
ATOM      3  C   UNL     1      52.005  -1.039  21.391  1.00  0.00     0.053 C 
ATOM      4  C   UNL     1      51.076  -0.835  22.595  1.00  0.00     0.016 C 
BRANCH   3   5
ATOM      5  C   UNL     1      51.626  -0.094  20.230  1.00  0.00     0.015 C 
BRANCH   5   6
ATOM      6  C   UNL     1      51.873   1.387  20.576  1.00  0.00     0.028 C 
BRANCH   6   7
ATOM      7  C   UNL     1      50.822   1.910  21.522  1.00  0.00    -0.028 C 
ATOM      8  C   UNL     1      51.078   2.602  22.655  1.00  0.00    -0.070 CG0
ATOM      9  C   UNL     1      49.904   3.054  23.486  1.00  0.00     0.039 C 
ATOM     10  G   UNL     1      52.479   2.990  23.104  1.00  0.00     0.000 G0
ENDBRANCH   6   7
ENDBRANCH   5   6
ENDBRANCH   3   5
ENDBRANCH   1   3
BRANCH   1  11
ATOM     11  C   UNL     1      54.105   0.494  21.872  1.00  0.00     0.087 C 
BRANCH  11  12
ATOM     12  C   UNL     1      54.360   1.104  23.276  1.00  0.00     0.066 C 
BRANCH  12  13
ATOM     13  C   UNL     1      53.185   1.888  23.863  1.00  0.00     0.140 C 
ATOM     14  O   UNL     1      52.855   1.648  25.016  1.00  0.00    -0.299 OA
BRANCH  13  15
ATOM     15  C   UNL     1      52.467   3.001  23.129  1.00  0.00     0.106 CG0
ATOM     16  G   UNL     1      51.077   2.596  22.660  1.00  0.00     0.000 G0
ENDBRANCH  13  15
ENDBRANCH  12  13
BRANCH  12  17
ATOM     17  C   UNL     1      55.783   1.744  23.465  1.00  0.00    -0.006 C 
ATOM     18  C   UNL     1      56.459   1.489  24.822  1.00  0.00     0.008 C 
ATOM     19  C   UNL     1      56.740   1.293  22.348  1.00  0.00     0.008 C 
ENDBRANCH  12  17
ENDBRANCH  11  12
ENDBRANCH   1  11
TORSDOF 1
ENDMDL
