MODEL 1
REMARK VINA RESULT:    -4.195      0.000      0.000
REMARK INTER + INTRA:          -6.415
REMARK INTER:                  -6.402
REMARK INTRA:                  -0.014
REMARK UNBOUND:                -0.014
REMARK SMILES CC1=CCC[C@@H](C)C(=O)C[C@H](C(C)C)C(=O)C1
REMARK SMILES IDX 8 1 9 2 6 3 7 4 5 5 4 6 3 7 2 8 1 9 10 11 11 12 15 13 16 14
REMARK SMILES IDX 17 15 12 17 13 18 14 19
REMARK H PARENT
REMARK Flexibility Score: 70.00
ROOT
ATOM      1  C   UNL     1       4.536 -21.051  -5.878  1.00  0.00     0.136 C 
ATOM      2  O   UNL     1       5.123 -22.121  -5.959  1.00  0.00    -0.299 OA
ENDROOT
BRANCH   1   3
ATOM      3  C   UNL     1       4.988 -20.017  -4.867  1.00  0.00     0.053 C 
ATOM      4  C   UNL     1       6.373 -19.495  -5.263  1.00  0.00     0.016 C 
BRANCH   3   5
ATOM      5  C   UNL     1       5.023 -20.593  -3.432  1.00  0.00     0.015 C 
BRANCH   5   6
ATOM      6  C   UNL     1       3.699 -20.411  -2.674  1.00  0.00     0.028 C 
BRANCH   6   7
ATOM      7  C   UNL     1       3.252 -18.969  -2.692  1.00  0.00    -0.028 C 
ATOM      8  C   UNL     1       2.135 -18.497  -3.291  1.00  0.00    -0.070 CG0
ATOM      9  C   UNL     1       1.854 -17.018  -3.199  1.00  0.00     0.039 C 
ATOM     10  G   UNL     1       1.178 -19.374  -4.074  1.00  0.00     0.000 G0
ENDBRANCH   6   7
ENDBRANCH   5   6
ENDBRANCH   3   5
ENDBRANCH   1   3
BRANCH   1  11
ATOM     11  C   UNL     1       3.378 -20.779  -6.804  1.00  0.00     0.087 C 
BRANCH  11  12
ATOM     12  C   UNL     1       2.016 -20.875  -6.073  1.00  0.00     0.066 C 
BRANCH  12  13
ATOM     13  C   UNL     1       1.600 -19.525  -5.512  1.00  0.00     0.140 C 
ATOM     14  O   UNL     1       1.577 -18.544  -6.242  1.00  0.00    -0.299 OA
BRANCH  13  15
ATOM     15  C   UNL     1       1.170 -19.373  -4.076  1.00  0.00     0.106 CG0
ATOM     16  G   UNL     1       2.148 -18.506  -3.307  1.00  0.00     0.000 G0
ENDBRANCH  13  15
ENDBRANCH  12  13
BRANCH  12  17
ATOM     17  C   UNL     1       0.914 -21.502  -6.981  1.00  0.00    -0.006 C 
ATOM     18  C   UNL     1       0.461 -22.904  -6.537  1.00  0.00     0.008 C 
ATOM     19  C   UNL     1       1.348 -21.529  -8.455  1.00  0.00     0.008 C 
ENDBRANCH  12  17
ENDBRANCH  11  12
ENDBRANCH   1  11
TORSDOF 1
ENDMDL
MODEL 2
REMARK VINA RESULT:    -4.009      1.568      4.203
REMARK INTER + INTRA:          -6.132
REMARK INTER:                  -6.205
REMARK INTRA:                   0.073
REMARK UNBOUND:                -0.014
REMARK SMILES CC1=CCC[C@@H](C)C(=O)C[C@H](C(C)C)C(=O)C1
REMARK SMILES IDX 8 1 9 2 6 3 7 4 5 5 4 6 3 7 2 8 1 9 10 11 11 12 15 13 16 14
REMARK SMILES IDX 17 15 12 17 13 18 14 19
REMARK H PARENT
REMARK Flexibility Score: 70.00
ROOT
ATOM      1  C   UNL     1       3.498 -20.899  -7.257  1.00  0.00     0.136 C 
ATOM      2  O   UNL     1       3.839 -19.874  -7.830  1.00  0.00    -0.299 OA
ENDROOT
BRANCH   1   3
ATOM      3  C   UNL     1       2.157 -21.530  -7.573  1.00  0.00     0.053 C 
ATOM      4  C   UNL     1       1.606 -20.925  -8.868  1.00  0.00     0.016 C 
BRANCH   3   5
ATOM      5  C   UNL     1       1.146 -21.339  -6.419  1.00  0.00     0.015 C 
BRANCH   5   6
ATOM      6  C   UNL     1       1.353 -20.029  -5.643  1.00  0.00     0.028 C 
BRANCH   6   7
ATOM      7  C   UNL     1       1.331 -20.266  -4.152  1.00  0.00    -0.028 C 
ATOM      8  C   UNL     1       2.307 -19.917  -3.284  1.00  0.00    -0.070 CG0
ATOM      9  C   UNL     1       2.103 -20.238  -1.824  1.00  0.00     0.039 C 
ATOM     10  G   UNL     1       3.602 -19.255  -3.711  1.00  0.00     0.000 G0
ENDBRANCH   6   7
ENDBRANCH   5   6
ENDBRANCH   3   5
ENDBRANCH   1   3
BRANCH   1  11
ATOM     11  C   UNL     1       4.434 -21.523  -6.254  1.00  0.00     0.087 C 
BRANCH  11  12
ATOM     12  C   UNL     1       5.223 -20.456  -5.455  1.00  0.00     0.066 C 
BRANCH  12  13
ATOM     13  C   UNL     1       4.666 -20.301  -4.049  1.00  0.00     0.140 C 
ATOM     14  O   UNL     1       5.093 -21.004  -3.145  1.00  0.00    -0.299 OA
BRANCH  13  15
ATOM     15  C   UNL     1       3.619 -19.264  -3.732  1.00  0.00     0.106 CG0
ATOM     16  G   UNL     1       2.335 -19.918  -3.261  1.00  0.00     0.000 G0
ENDBRANCH  13  15
ENDBRANCH  12  13
BRANCH  12  17
ATOM     17  C   UNL     1       6.755 -20.748  -5.453  1.00  0.00    -0.006 C 
ATOM     18  C   UNL     1       7.620 -19.545  -5.039  1.00  0.00     0.008 C 
ATOM     19  C   UNL     1       7.225 -21.294  -6.811  1.00  0.00     0.008 C 
ENDBRANCH  12  17
ENDBRANCH  11  12
ENDBRANCH   1  11
TORSDOF 1
ENDMDL
MODEL 3
REMARK VINA RESULT:    -4.006      2.042      3.860
REMARK INTER + INTRA:          -6.128
REMARK INTER:                  -5.921
REMARK INTRA:                  -0.207
REMARK UNBOUND:                -0.014
REMARK SMILES CC1=CCC[C@@H](C)C(=O)C[C@H](C(C)C)C(=O)C1
REMARK SMILES IDX 8 1 9 2 6 3 7 4 5 5 4 6 3 7 2 8 1 9 10 11 11 12 15 13 16 14
REMARK SMILES IDX 17 15 12 17 13 18 14 19
REMARK H PARENT
REMARK Flexibility Score: 70.00
ROOT
ATOM      1  C   UNL     1       1.688 -19.783  -4.311  1.00  0.00     0.136 C 
ATOM      2  O   UNL     1       0.514 -19.856  -3.978  1.00  0.00    -0.299 OA
ENDROOT
BRANCH   1   3
ATOM      3  C   UNL     1       2.512 -18.575  -3.915  1.00  0.00     0.053 C 
ATOM      4  C   UNL     1       2.369 -18.336  -2.408  1.00  0.00     0.016 C 
BRANCH   3   5
ATOM      5  C   UNL     1       2.090 -17.311  -4.700  1.00  0.00     0.015 C 
BRANCH   5   6
ATOM      6  C   UNL     1       3.175 -16.806  -5.664  1.00  0.00     0.028 C 
BRANCH   6   7
ATOM      7  C   UNL     1       4.517 -17.426  -5.351  1.00  0.00    -0.028 C 
ATOM      8  C   UNL     1       5.116 -18.408  -6.062  1.00  0.00    -0.070 CG0
ATOM      9  C   UNL     1       6.463 -18.899  -5.592  1.00  0.00     0.039 C 
ATOM     10  G   UNL     1       4.487 -19.057  -7.279  1.00  0.00     0.000 G0
ENDBRANCH   6   7
ENDBRANCH   5   6
ENDBRANCH   3   5
ENDBRANCH   1   3
BRANCH   1  11
ATOM     11  C   UNL     1       2.297 -20.915  -5.099  1.00  0.00     0.087 C 
BRANCH  11  12
ATOM     12  C   UNL     1       2.438 -20.565  -6.602  1.00  0.00     0.066 C 
BRANCH  12  13
ATOM     13  C   UNL     1       3.900 -20.411  -6.992  1.00  0.00     0.140 C 
ATOM     14  O   UNL     1       4.610 -21.401  -7.093  1.00  0.00    -0.299 OA
BRANCH  13  15
ATOM     15  C   UNL     1       4.489 -19.058  -7.300  1.00  0.00     0.106 CG0
ATOM     16  G   UNL     1       5.098 -18.437  -6.059  1.00  0.00     0.000 G0
ENDBRANCH  13  15
ENDBRANCH  12  13
BRANCH  12  17
ATOM     17  C   UNL     1       1.691 -21.590  -7.509  1.00  0.00    -0.006 C 
ATOM     18  C   UNL     1       1.295 -21.031  -8.887  1.00  0.00     0.008 C 
ATOM     19  C   UNL     1       0.458 -22.172  -6.801  1.00  0.00     0.008 C 
ENDBRANCH  12  17
ENDBRANCH  11  12
ENDBRANCH   1  11
TORSDOF 1
ENDMDL
MODEL 4
REMARK VINA RESULT:    -3.876      2.184      4.531
REMARK INTER + INTRA:          -5.929
REMARK INTER:                  -6.160
REMARK INTRA:                   0.230
REMARK UNBOUND:                -0.014
REMARK SMILES CC1=CCC[C@@H](C)C(=O)C[C@H](C(C)C)C(=O)C1
REMARK SMILES IDX 8 1 9 2 6 3 7 4 5 5 4 6 3 7 2 8 1 9 10 11 11 12 15 13 16 14
REMARK SMILES IDX 17 15 12 17 13 18 14 19
REMARK H PARENT
REMARK Flexibility Score: 70.00
ROOT
ATOM      1  C   UNL     1       1.912 -20.521  -6.168  1.00  0.00     0.136 C 
ATOM      2  O   UNL     1       1.252 -21.485  -5.811  1.00  0.00    -0.299 OA
ENDROOT
BRANCH   1   3
ATOM      3  C   UNL     1       2.192 -20.300  -7.641  1.00  0.00     0.053 C 
ATOM      4  C   UNL     1       1.450 -21.361  -8.461  1.00  0.00     0.016 C 
BRANCH   3   5
ATOM      5  C   UNL     1       3.706 -20.345  -7.951  1.00  0.00     0.015 C 
BRANCH   5   6
ATOM      6  C   UNL     1       4.508 -21.172  -6.934  1.00  0.00     0.028 C 
BRANCH   6   7
ATOM      7  C   UNL     1       5.695 -20.397  -6.412  1.00  0.00    -0.028 C 
ATOM      8  C   UNL     1       6.068 -20.306  -5.116  1.00  0.00    -0.070 CG0
ATOM      9  C   UNL     1       7.288 -19.482  -4.788  1.00  0.00     0.039 C 
ATOM     10  G   UNL     1       5.302 -20.959  -3.982  1.00  0.00     0.000 G0
ENDBRANCH   6   7
ENDBRANCH   5   6
ENDBRANCH   3   5
ENDBRANCH   1   3
BRANCH   1  11
ATOM     11  C   UNL     1       2.423 -19.557  -5.127  1.00  0.00     0.087 C 
BRANCH  11  12
ATOM     12  C   UNL     1       2.781 -20.273  -3.801  1.00  0.00     0.066 C 
BRANCH  12  13
ATOM     13  C   UNL     1       4.238 -20.047  -3.434  1.00  0.00     0.140 C 
ATOM     14  O   UNL     1       4.540 -19.140  -2.670  1.00  0.00    -0.299 OA
BRANCH  13  15
ATOM     15  C   UNL     1       5.327 -20.948  -3.959  1.00  0.00     0.106 CG0
ATOM     16  G   UNL     1       6.063 -20.293  -5.111  1.00  0.00     0.000 G0
ENDBRANCH  13  15
ENDBRANCH  12  13
BRANCH  12  17
ATOM     17  C   UNL     1       1.813 -19.873  -2.646  1.00  0.00    -0.006 C 
ATOM     18  C   UNL     1       1.546 -21.001  -1.635  1.00  0.00     0.008 C 
ATOM     19  C   UNL     1       0.484 -19.327  -3.190  1.00  0.00     0.008 C 
ENDBRANCH  12  17
ENDBRANCH  11  12
ENDBRANCH   1  11
TORSDOF 1
ENDMDL
MODEL 5
REMARK VINA RESULT:    -3.776      2.309      4.525
REMARK INTER + INTRA:          -5.777
REMARK INTER:                  -5.597
REMARK INTRA:                  -0.180
REMARK UNBOUND:                -0.014
REMARK SMILES CC1=CCC[C@@H](C)C(=O)C[C@H](C(C)C)C(=O)C1
REMARK SMILES IDX 8 1 9 2 6 3 7 4 5 5 4 6 3 7 2 8 1 9 10 11 11 12 15 13 16 14
REMARK SMILES IDX 17 15 12 17 13 18 14 19
REMARK H PARENT
REMARK Flexibility Score: 70.00
ROOT
ATOM      1  C   UNL     1       3.753 -20.770  -7.140  1.00  0.00     0.136 C 
ATOM      2  O   UNL     1       3.905 -19.824  -7.900  1.00  0.00    -0.299 OA
ENDROOT
BRANCH   1   3
ATOM      3  C   UNL     1       2.367 -21.121  -6.639  1.00  0.00     0.053 C 
ATOM      4  C   UNL     1       1.383 -21.092  -7.812  1.00  0.00     0.016 C 
BRANCH   3   5
ATOM      5  C   UNL     1       1.899 -20.158  -5.523  1.00  0.00     0.015 C 
BRANCH   5   6
ATOM      6  C   UNL     1       2.576 -20.425  -4.169  1.00  0.00     0.028 C 
BRANCH   6   7
ATOM      7  C   UNL     1       3.560 -19.332  -3.824  1.00  0.00    -0.028 C 
ATOM      8  C   UNL     1       4.899 -19.483  -3.715  1.00  0.00    -0.070 CG0
ATOM      9  C   UNL     1       5.721 -18.268  -3.361  1.00  0.00     0.039 C 
ATOM     10  G   UNL     1       5.604 -20.813  -3.897  1.00  0.00     0.000 G0
ENDBRANCH   6   7
ENDBRANCH   5   6
ENDBRANCH   3   5
ENDBRANCH   1   3
BRANCH   1  11
ATOM     11  C   UNL     1       4.957 -21.580  -6.730  1.00  0.00     0.087 C 
BRANCH  11  12
ATOM     12  C   UNL     1       6.195 -20.686  -6.468  1.00  0.00     0.066 C 
BRANCH  12  13
ATOM     13  C   UNL     1       6.624 -20.760  -5.012  1.00  0.00     0.140 C 
ATOM     14  O   UNL     1       7.813 -20.740  -4.726  1.00  0.00    -0.299 OA
BRANCH  13  15
ATOM     15  C   UNL     1       5.609 -20.814  -3.898  1.00  0.00     0.106 CG0
ATOM     16  G   UNL     1       4.924 -19.474  -3.724  1.00  0.00     0.000 G0
ENDBRANCH  13  15
ENDBRANCH  12  13
BRANCH  12  17
ATOM     17  C   UNL     1       7.365 -21.016  -7.445  1.00  0.00    -0.006 C 
ATOM     18  C   UNL     1       7.509 -20.018  -8.607  1.00  0.00     0.008 C 
ATOM     19  C   UNL     1       7.256 -22.449  -7.989  1.00  0.00     0.008 C 
ENDBRANCH  12  17
ENDBRANCH  11  12
ENDBRANCH   1  11
TORSDOF 1
ENDMDL
MODEL 6
REMARK VINA RESULT:    -3.776     11.920     14.308
REMARK INTER + INTRA:          -5.776
REMARK INTER:                  -6.124
REMARK INTRA:                   0.348
REMARK UNBOUND:                -0.014
REMARK SMILES CC1=CCC[C@@H](C)C(=O)C[C@H](C(C)C)C(=O)C1
REMARK SMILES IDX 8 1 9 2 6 3 7 4 5 5 4 6 3 7 2 8 1 9 10 11 11 12 15 13 16 14
REMARK SMILES IDX 17 15 12 17 13 18 14 19
REMARK H PARENT
REMARK Flexibility Score: 70.00
ROOT
ATOM      1  C   UNL     1      -6.467 -27.446  -1.253  1.00  0.00     0.136 C 
ATOM      2  O   UNL     1      -6.463 -28.115  -0.230  1.00  0.00    -0.299 OA
ENDROOT
BRANCH   1   3
ATOM      3  C   UNL     1      -5.449 -27.724  -2.340  1.00  0.00     0.053 C 
ATOM      4  C   UNL     1      -5.506 -26.604  -3.385  1.00  0.00     0.016 C 
BRANCH   3   5
ATOM      5  C   UNL     1      -5.688 -29.096  -3.012  1.00  0.00     0.015 C 
BRANCH   5   6
ATOM      6  C   UNL     1      -7.108 -29.256  -3.576  1.00  0.00     0.028 C 
BRANCH   6   7
ATOM      7  C   UNL     1      -7.882 -30.309  -2.820  1.00  0.00    -0.028 C 
ATOM      8  C   UNL     1      -9.171 -30.207  -2.421  1.00  0.00    -0.070 CG0
ATOM      9  C   UNL     1      -9.774 -31.370  -1.674  1.00  0.00     0.039 C 
ATOM     10  G   UNL     1     -10.019 -28.973  -2.659  1.00  0.00     0.000 G0
ENDBRANCH   6   7
ENDBRANCH   5   6
ENDBRANCH   3   5
ENDBRANCH   1   3
BRANCH   1  11
ATOM     11  C   UNL     1      -7.503 -26.364  -1.415  1.00  0.00     0.087 C 
BRANCH  11  12
ATOM     12  C   UNL     1      -8.602 -26.762  -2.432  1.00  0.00     0.066 C 
BRANCH  12  13
ATOM     13  C   UNL     1      -9.548 -27.794  -1.839  1.00  0.00     0.140 C 
ATOM     14  O   UNL     1      -9.952 -27.661  -0.692  1.00  0.00    -0.299 OA
BRANCH  13  15
ATOM     15  C   UNL     1     -10.037 -28.966  -2.650  1.00  0.00     0.106 CG0
ATOM     16  G   UNL     1      -9.173 -30.188  -2.413  1.00  0.00     0.000 G0
ENDBRANCH  13  15
ENDBRANCH  12  13
BRANCH  12  17
ATOM     17  C   UNL     1      -9.360 -25.516  -2.984  1.00  0.00    -0.006 C 
ATOM     18  C   UNL     1      -9.657 -25.583  -4.492  1.00  0.00     0.008 C 
ATOM     19  C   UNL     1      -8.618 -24.213  -2.649  1.00  0.00     0.008 C 
ENDBRANCH  12  17
ENDBRANCH  11  12
ENDBRANCH   1  11
TORSDOF 1
ENDMDL
MODEL 7
REMARK VINA RESULT:    -3.672     10.303     12.298
REMARK INTER + INTRA:          -5.617
REMARK INTER:                  -5.770
REMARK INTRA:                   0.152
REMARK UNBOUND:                -0.014
REMARK SMILES CC1=CCC[C@@H](C)C(=O)C[C@H](C(C)C)C(=O)C1
REMARK SMILES IDX 8 1 9 2 6 3 7 4 5 5 4 6 3 7 2 8 1 9 10 11 11 12 15 13 16 14
REMARK SMILES IDX 17 15 12 17 13 18 14 19
REMARK H PARENT
REMARK Flexibility Score: 70.00
ROOT
ATOM      1  C   UNL     1       4.826 -25.655   7.041  1.00  0.00     0.136 C 
ATOM      2  O   UNL     1       3.604 -25.602   7.048  1.00  0.00    -0.299 OA
ENDROOT
BRANCH   1   3
ATOM      3  C   UNL     1       5.616 -25.007   8.160  1.00  0.00     0.053 C 
ATOM      4  C   UNL     1       4.974 -25.363   9.504  1.00  0.00     0.016 C 
BRANCH   3   5
ATOM      5  C   UNL     1       5.695 -23.472   7.992  1.00  0.00     0.015 C 
BRANCH   5   6
ATOM      6  C   UNL     1       5.438 -23.005   6.551  1.00  0.00     0.028 C 
BRANCH   6   7
ATOM      7  C   UNL     1       6.726 -22.912   5.768  1.00  0.00    -0.028 C 
ATOM      8  C   UNL     1       6.886 -23.260   4.471  1.00  0.00    -0.070 CG0
ATOM      9  C   UNL     1       8.255 -23.094   3.858  1.00  0.00     0.039 C 
ATOM     10  G   UNL     1       5.772 -23.838   3.621  1.00  0.00     0.000 G0
ENDBRANCH   6   7
ENDBRANCH   5   6
ENDBRANCH   3   5
ENDBRANCH   1   3
BRANCH   1  11
ATOM     11  C   UNL     1       5.520 -26.383   5.918  1.00  0.00     0.087 C 
BRANCH  11  12
ATOM     12  C   UNL     1       4.839 -26.124   4.551  1.00  0.00     0.066 C 
BRANCH  12  13
ATOM     13  C   UNL     1       5.755 -25.341   3.624  1.00  0.00     0.140 C 
ATOM     14  O   UNL     1       6.480 -25.937   2.839  1.00  0.00    -0.299 OA
BRANCH  13  15
ATOM     15  C   UNL     1       5.761 -23.834   3.618  1.00  0.00     0.106 CG0
ATOM     16  G   UNL     1       6.881 -23.293   4.485  1.00  0.00     0.000 G0
ENDBRANCH  13  15
ENDBRANCH  12  13
BRANCH  12  17
ATOM     17  C   UNL     1       4.328 -27.444   3.898  1.00  0.00    -0.006 C 
ATOM     18  C   UNL     1       2.854 -27.762   4.203  1.00  0.00     0.008 C 
ATOM     19  C   UNL     1       5.215 -28.640   4.278  1.00  0.00     0.008 C 
ENDBRANCH  12  17
ENDBRANCH  11  12
ENDBRANCH   1  11
TORSDOF 1
ENDMDL
MODEL 8
REMARK VINA RESULT:    -3.611     10.934     12.928
REMARK INTER + INTRA:          -5.524
REMARK INTER:                  -5.347
REMARK INTRA:                  -0.177
REMARK UNBOUND:                -0.014
REMARK SMILES CC1=CCC[C@@H](C)C(=O)C[C@H](C(C)C)C(=O)C1
REMARK SMILES IDX 8 1 9 2 6 3 7 4 5 5 4 6 3 7 2 8 1 9 10 11 11 12 15 13 16 14
REMARK SMILES IDX 17 15 12 17 13 18 14 19
REMARK H PARENT
REMARK Flexibility Score: 70.00
ROOT
ATOM      1  C   UNL     1       5.622 -26.770   4.033  1.00  0.00     0.136 C 
ATOM      2  O   UNL     1       5.838 -26.534   2.853  1.00  0.00    -0.299 OA
ENDROOT
BRANCH   1   3
ATOM      3  C   UNL     1       5.319 -28.187   4.475  1.00  0.00     0.053 C 
ATOM      4  C   UNL     1       6.534 -29.076   4.194  1.00  0.00     0.016 C 
BRANCH   3   5
ATOM      5  C   UNL     1       4.065 -28.754   3.768  1.00  0.00     0.015 C 
BRANCH   5   6
ATOM      6  C   UNL     1       2.749 -28.180   4.316  1.00  0.00     0.028 C 
BRANCH   6   7
ATOM      7  C   UNL     1       2.545 -28.561   5.763  1.00  0.00    -0.028 C 
ATOM      8  C   UNL     1       2.330 -27.700   6.782  1.00  0.00    -0.070 CG0
ATOM      9  C   UNL     1       2.147 -28.273   8.166  1.00  0.00     0.039 C 
ATOM     10  G   UNL     1       2.298 -26.194   6.606  1.00  0.00     0.000 G0
ENDBRANCH   6   7
ENDBRANCH   5   6
ENDBRANCH   3   5
ENDBRANCH   1   3
BRANCH   1  11
ATOM     11  C   UNL     1       5.679 -25.640   5.028  1.00  0.00     0.087 C 
BRANCH  11  12
ATOM     12  C   UNL     1       4.278 -25.039   5.305  1.00  0.00     0.066 C 
BRANCH  12  13
ATOM     13  C   UNL     1       3.690 -25.594   6.592  1.00  0.00     0.140 C 
ATOM     14  O   UNL     1       4.338 -25.543   7.628  1.00  0.00    -0.299 OA
BRANCH  13  15
ATOM     15  C   UNL     1       2.299 -26.172   6.632  1.00  0.00     0.106 CG0
ATOM     16  G   UNL     1       2.342 -27.680   6.778  1.00  0.00     0.000 G0
ENDBRANCH  13  15
ENDBRANCH  12  13
BRANCH  12  17
ATOM     17  C   UNL     1       4.303 -23.480   5.291  1.00  0.00    -0.006 C 
ATOM     18  C   UNL     1       3.816 -22.859   3.970  1.00  0.00     0.008 C 
ATOM     19  C   UNL     1       5.695 -22.937   5.648  1.00  0.00     0.008 C 
ENDBRANCH  12  17
ENDBRANCH  11  12
ENDBRANCH   1  11
TORSDOF 1
ENDMDL
MODEL 9
REMARK VINA RESULT:    -3.559     10.627     12.052
REMARK INTER + INTRA:          -5.446
REMARK INTER:                  -5.235
REMARK INTRA:                  -0.210
REMARK UNBOUND:                -0.014
REMARK SMILES CC1=CCC[C@@H](C)C(=O)C[C@H](C(C)C)C(=O)C1
REMARK SMILES IDX 8 1 9 2 6 3 7 4 5 5 4 6 3 7 2 8 1 9 10 11 11 12 15 13 16 14
REMARK SMILES IDX 17 15 12 17 13 18 14 19
REMARK H PARENT
REMARK Flexibility Score: 70.00
ROOT
ATOM      1  C   UNL     1       5.969 -23.971   4.031  1.00  0.00     0.136 C 
ATOM      2  O   UNL     1       6.889 -23.387   3.477  1.00  0.00    -0.299 OA
ENDROOT
BRANCH   1   3
ATOM      3  C   UNL     1       5.619 -23.637   5.466  1.00  0.00     0.053 C 
ATOM      4  C   UNL     1       5.614 -22.115   5.645  1.00  0.00     0.016 C 
BRANCH   3   5
ATOM      5  C   UNL     1       6.603 -24.290   6.464  1.00  0.00     0.015 C 
BRANCH   5   6
ATOM      6  C   UNL     1       5.972 -25.431   7.279  1.00  0.00     0.028 C 
BRANCH   6   7
ATOM      7  C   UNL     1       4.464 -25.386   7.206  1.00  0.00    -0.028 C 
ATOM      8  C   UNL     1       3.679 -26.279   6.562  1.00  0.00    -0.070 CG0
ATOM      9  C   UNL     1       2.186 -26.067   6.603  1.00  0.00     0.039 C 
ATOM     10  G   UNL     1       4.227 -27.455   5.778  1.00  0.00     0.000 G0
ENDBRANCH   6   7
ENDBRANCH   5   6
ENDBRANCH   3   5
ENDBRANCH   1   3
BRANCH   1  11
ATOM     11  C   UNL     1       5.189 -25.005   3.260  1.00  0.00     0.087 C 
BRANCH  11  12
ATOM     12  C   UNL     1       5.521 -26.445   3.722  1.00  0.00     0.066 C 
BRANCH  12  13
ATOM     13  C   UNL     1       4.294 -27.130   4.303  1.00  0.00     0.140 C 
ATOM     14  O   UNL     1       3.370 -27.449   3.569  1.00  0.00    -0.299 OA
BRANCH  13  15
ATOM     15  C   UNL     1       4.207 -27.465   5.770  1.00  0.00     0.106 CG0
ATOM     16  G   UNL     1       3.690 -26.283   6.566  1.00  0.00     0.000 G0
ENDBRANCH  13  15
ENDBRANCH  12  13
BRANCH  12  17
ATOM     17  C   UNL     1       6.179 -27.282   2.582  1.00  0.00    -0.006 C 
ATOM     18  C   UNL     1       6.730 -28.642   3.045  1.00  0.00     0.008 C 
ATOM     19  C   UNL     1       7.277 -26.485   1.861  1.00  0.00     0.008 C 
ENDBRANCH  12  17
ENDBRANCH  11  12
ENDBRANCH   1  11
TORSDOF 1
ENDMDL
