MODEL 1
REMARK VINA RESULT:    -5.652      0.000      0.000
REMARK INTER + INTRA:         -13.072
REMARK INTER:                 -10.277
REMARK INTRA:                  -2.795
REMARK UNBOUND:                -2.795
REMARK SMILES CCCCCC=CCC=CCCCCCCCC(=O)[O-]
REMARK SMILES IDX 11 1 12 2 13 3 14 4 15 5 16 6 17 7 18 8 19 9 20 10 10 11
REMARK SMILES IDX 9 12 8 13 7 14 6 15 5 16 4 17 3 18 2 19 1 20
REMARK H PARENT
REMARK Flexibility Score: inf
ROOT
ATOM      1  C   UNL     1      20.856  22.557   6.700  1.00  0.00     0.027 C 
ENDROOT
BRANCH   1   2
ATOM      2  C   UNL     1      19.892  21.793   5.785  1.00  0.00     0.004 C 
BRANCH   2   3
ATOM      3  C   UNL     1      18.527  22.495   5.713  1.00  0.00     0.000 C 
BRANCH   3   4
ATOM      4  C   UNL     1      18.399  23.638   6.740  1.00  0.00     0.000 C 
BRANCH   4   5
ATOM      5  C   UNL     1      17.045  23.669   7.474  1.00  0.00     0.000 C 
BRANCH   5   6
ATOM      6  C   UNL     1      16.885  24.810   8.491  1.00  0.00     0.006 C 
BRANCH   6   7
ATOM      7  C   UNL     1      18.229  25.383   8.958  1.00  0.00     0.053 C 
BRANCH   7   8
ATOM      8  C   UNL     1      18.135  26.867   9.118  1.00  0.00     0.041 C 
ATOM      9  O   UNL     1      17.015  27.418   9.286  1.00  0.00    -0.550 OA
ATOM     10  O   UNL     1      19.289  27.641   9.117  1.00  0.00    -0.550 OA
ENDBRANCH   7   8
ENDBRANCH   6   7
ENDBRANCH   5   6
ENDBRANCH   4   5
ENDBRANCH   3   4
ENDBRANCH   2   3
ENDBRANCH   1   2
BRANCH   1  11
ATOM     11  C   UNL     1      21.574  21.618   7.639  1.00  0.00    -0.031 C 
ATOM     12  C   UNL     1      21.830  21.912   8.926  1.00  0.00    -0.027 C 
BRANCH  12  13
ATOM     13  C   UNL     1      21.424  23.203   9.591  1.00  0.00     0.054 C 
BRANCH  13  14
ATOM     14  C   UNL     1      20.277  22.991  10.539  1.00  0.00    -0.027 C 
ATOM     15  C   UNL     1      19.332  22.077  10.277  1.00  0.00    -0.031 C 
BRANCH  15  16
ATOM     16  C   UNL     1      18.193  21.826  11.226  1.00  0.00     0.027 C 
BRANCH  16  17
ATOM     17  C   UNL     1      16.900  21.502  10.469  1.00  0.00     0.004 C 
BRANCH  17  18
ATOM     18  C   UNL     1      16.973  20.107   9.830  1.00  0.00     0.000 C 
BRANCH  18  19
ATOM     19  C   UNL     1      16.920  20.155   8.296  1.00  0.00    -0.003 C 
ATOM     20  C   UNL     1      17.924  19.208   7.639  1.00  0.00     0.004 C 
ENDBRANCH  18  19
ENDBRANCH  17  18
ENDBRANCH  16  17
ENDBRANCH  15  16
ENDBRANCH  13  14
ENDBRANCH  12  13
ENDBRANCH   1  11
TORSDOF 14
ENDMDL
MODEL 2
REMARK VINA RESULT:    -5.095      3.241      5.866
REMARK INTER + INTRA:         -12.059
REMARK INTER:                  -9.350
REMARK INTRA:                  -2.709
REMARK UNBOUND:                -2.795
REMARK SMILES CCCCCC=CCC=CCCCCCCCC(=O)[O-]
REMARK SMILES IDX 11 1 12 2 13 3 14 4 15 5 16 6 17 7 18 8 19 9 20 10 10 11
REMARK SMILES IDX 9 12 8 13 7 14 6 15 5 16 4 17 3 18 2 19 1 20
REMARK H PARENT
REMARK Flexibility Score: inf
ROOT
ATOM      1  C   UNL     1      19.035  24.912  10.269  1.00  0.00     0.027 C 
ENDROOT
BRANCH   1   2
ATOM      2  C   UNL     1      19.935  23.716   9.936  1.00  0.00     0.004 C 
BRANCH   2   3
ATOM      3  C   UNL     1      19.418  22.433  10.606  1.00  0.00     0.000 C 
BRANCH   3   4
ATOM      4  C   UNL     1      18.002  22.050  10.128  1.00  0.00     0.000 C 
BRANCH   4   5
ATOM      5  C   UNL     1      17.658  20.561  10.326  1.00  0.00     0.000 C 
BRANCH   5   6
ATOM      6  C   UNL     1      17.059  19.866   9.093  1.00  0.00     0.006 C 
BRANCH   6   7
ATOM      7  C   UNL     1      18.012  19.864   7.890  1.00  0.00     0.053 C 
BRANCH   7   8
ATOM      8  C   UNL     1      18.138  18.483   7.329  1.00  0.00     0.041 C 
ATOM      9  O   UNL     1      17.287  17.600   7.618  1.00  0.00    -0.550 OA
ATOM     10  O   UNL     1      19.175  18.180   6.457  1.00  0.00    -0.550 OA
ENDBRANCH   7   8
ENDBRANCH   6   7
ENDBRANCH   5   6
ENDBRANCH   4   5
ENDBRANCH   3   4
ENDBRANCH   2   3
ENDBRANCH   1   2
BRANCH   1  11
ATOM     11  C   UNL     1      18.998  25.899   9.129  1.00  0.00    -0.031 C 
ATOM     12  C   UNL     1      18.105  25.834   8.125  1.00  0.00    -0.027 C 
BRANCH  12  13
ATOM     13  C   UNL     1      17.029  24.782   8.021  1.00  0.00     0.054 C 
BRANCH  13  14
ATOM     14  C   UNL     1      17.270  23.870   6.849  1.00  0.00    -0.027 C 
ATOM     15  C   UNL     1      18.489  23.370   6.611  1.00  0.00    -0.031 C 
BRANCH  15  16
ATOM     16  C   UNL     1      18.745  22.431   5.463  1.00  0.00     0.027 C 
BRANCH  16  17
ATOM     17  C   UNL     1      20.169  21.863   5.518  1.00  0.00     0.004 C 
BRANCH  17  18
ATOM     18  C   UNL     1      20.922  22.389   6.749  1.00  0.00     0.000 C 
BRANCH  18  19
ATOM     19  C   UNL     1      21.574  21.264   7.568  1.00  0.00    -0.003 C 
ATOM     20  C   UNL     1      22.112  20.131   6.694  1.00  0.00     0.004 C 
ENDBRANCH  18  19
ENDBRANCH  17  18
ENDBRANCH  16  17
ENDBRANCH  15  16
ENDBRANCH  13  14
ENDBRANCH  12  13
ENDBRANCH   1  11
TORSDOF 14
ENDMDL
MODEL 3
REMARK VINA RESULT:    -5.056      1.784      4.401
REMARK INTER + INTRA:         -11.989
REMARK INTER:                 -10.604
REMARK INTRA:                  -1.385
REMARK UNBOUND:                -2.795
REMARK SMILES CCCCCC=CCC=CCCCCCCCC(=O)[O-]
REMARK SMILES IDX 11 1 12 2 13 3 14 4 15 5 16 6 17 7 18 8 19 9 20 10 10 11
REMARK SMILES IDX 9 12 8 13 7 14 6 15 5 16 4 17 3 18 2 19 1 20
REMARK H PARENT
REMARK Flexibility Score: inf
ROOT
ATOM      1  C   UNL     1      20.427  23.128  10.181  1.00  0.00     0.027 C 
ENDROOT
BRANCH   1   2
ATOM      2  C   UNL     1      19.375  22.012  10.181  1.00  0.00     0.004 C 
BRANCH   2   3
ATOM      3  C   UNL     1      18.521  22.058  11.458  1.00  0.00     0.000 C 
BRANCH   3   4
ATOM      4  C   UNL     1      17.116  22.641  11.205  1.00  0.00     0.000 C 
BRANCH   4   5
ATOM      5  C   UNL     1      16.980  23.379   9.860  1.00  0.00     0.000 C 
BRANCH   5   6
ATOM      6  C   UNL     1      16.928  24.912   9.964  1.00  0.00     0.006 C 
BRANCH   6   7
ATOM      7  C   UNL     1      17.516  25.612   8.732  1.00  0.00     0.053 C 
BRANCH   7   8
ATOM      8  C   UNL     1      17.819  27.044   9.042  1.00  0.00     0.041 C 
ATOM      9  O   UNL     1      16.891  27.894   9.085  1.00  0.00    -0.550 OA
ATOM     10  O   UNL     1      19.123  27.433   9.321  1.00  0.00    -0.550 OA
ENDBRANCH   7   8
ENDBRANCH   6   7
ENDBRANCH   5   6
ENDBRANCH   4   5
ENDBRANCH   3   4
ENDBRANCH   2   3
ENDBRANCH   1   2
BRANCH   1  11
ATOM     11  C   UNL     1      21.527  22.838   9.191  1.00  0.00    -0.031 C 
ATOM     12  C   UNL     1      21.343  22.845   7.858  1.00  0.00    -0.027 C 
BRANCH  12  13
ATOM     13  C   UNL     1      20.026  23.155   7.192  1.00  0.00     0.054 C 
BRANCH  13  14
ATOM     14  C   UNL     1      19.860  22.368   5.921  1.00  0.00    -0.027 C 
ATOM     15  C   UNL     1      20.883  21.672   5.408  1.00  0.00    -0.031 C 
BRANCH  15  16
ATOM     16  C   UNL     1      20.730  20.853   4.156  1.00  0.00     0.027 C 
BRANCH  16  17
ATOM     17  C   UNL     1      21.525  19.545   4.247  1.00  0.00     0.004 C 
BRANCH  17  18
ATOM     18  C   UNL     1      21.153  18.764   5.517  1.00  0.00     0.000 C 
BRANCH  18  19
ATOM     19  C   UNL     1      22.381  18.192   6.241  1.00  0.00    -0.003 C 
ATOM     20  C   UNL     1      23.408  19.265   6.602  1.00  0.00     0.004 C 
ENDBRANCH  18  19
ENDBRANCH  17  18
ENDBRANCH  16  17
ENDBRANCH  15  16
ENDBRANCH  13  14
ENDBRANCH  12  13
ENDBRANCH   1  11
TORSDOF 14
ENDMDL
MODEL 4
REMARK VINA RESULT:    -4.873      1.306      4.225
REMARK INTER + INTRA:         -11.655
REMARK INTER:                  -8.994
REMARK INTRA:                  -2.661
REMARK UNBOUND:                -2.795
REMARK SMILES CCCCCC=CCC=CCCCCCCCC(=O)[O-]
REMARK SMILES IDX 11 1 12 2 13 3 14 4 15 5 16 6 17 7 18 8 19 9 20 10 10 11
REMARK SMILES IDX 9 12 8 13 7 14 6 15 5 16 4 17 3 18 2 19 1 20
REMARK H PARENT
REMARK Flexibility Score: inf
ROOT
ATOM      1  C   UNL     1      19.104  22.038  10.899  1.00  0.00     0.027 C 
ENDROOT
BRANCH   1   2
ATOM      2  C   UNL     1      19.819  23.321  10.459  1.00  0.00     0.004 C 
BRANCH   2   3
ATOM      3  C   UNL     1      20.352  23.192   9.024  1.00  0.00     0.000 C 
BRANCH   3   4
ATOM      4  C   UNL     1      19.691  24.198   8.059  1.00  0.00     0.000 C 
BRANCH   4   5
ATOM      5  C   UNL     1      18.204  23.907   7.777  1.00  0.00     0.000 C 
BRANCH   5   6
ATOM      6  C   UNL     1      17.274  25.125   7.888  1.00  0.00     0.006 C 
BRANCH   6   7
ATOM      7  C   UNL     1      17.280  25.753   9.288  1.00  0.00     0.053 C 
BRANCH   7   8
ATOM      8  C   UNL     1      17.766  27.166   9.222  1.00  0.00     0.041 C 
ATOM      9  O   UNL     1      18.986  27.427   9.390  1.00  0.00    -0.550 OA
ATOM     10  O   UNL     1      16.875  28.194   8.938  1.00  0.00    -0.550 OA
ENDBRANCH   7   8
ENDBRANCH   6   7
ENDBRANCH   5   6
ENDBRANCH   4   5
ENDBRANCH   3   4
ENDBRANCH   2   3
ENDBRANCH   1   2
BRANCH   1  11
ATOM     11  C   UNL     1      17.613  22.148  10.694  1.00  0.00    -0.031 C 
ATOM     12  C   UNL     1      16.910  21.303   9.919  1.00  0.00    -0.027 C 
BRANCH  12  13
ATOM     13  C   UNL     1      17.516  20.141   9.174  1.00  0.00     0.054 C 
BRANCH  13  14
ATOM     14  C   UNL     1      17.515  20.384   7.690  1.00  0.00    -0.027 C 
ATOM     15  C   UNL     1      18.664  20.408   7.000  1.00  0.00    -0.031 C 
BRANCH  15  16
ATOM     16  C   UNL     1      18.684  20.618   5.511  1.00  0.00     0.027 C 
BRANCH  16  17
ATOM     17  C   UNL     1      19.596  21.789   5.128  1.00  0.00     0.004 C 
BRANCH  17  18
ATOM     18  C   UNL     1      21.007  21.597   5.704  1.00  0.00     0.000 C 
BRANCH  18  19
ATOM     19  C   UNL     1      21.833  20.569   4.916  1.00  0.00    -0.003 C 
ATOM     20  C   UNL     1      22.679  19.672   5.819  1.00  0.00     0.004 C 
ENDBRANCH  18  19
ENDBRANCH  17  18
ENDBRANCH  16  17
ENDBRANCH  15  16
ENDBRANCH  13  14
ENDBRANCH  12  13
ENDBRANCH   1  11
TORSDOF 14
ENDMDL
MODEL 5
REMARK VINA RESULT:    -4.863      2.901      5.042
REMARK INTER + INTRA:         -11.637
REMARK INTER:                  -9.984
REMARK INTRA:                  -1.653
REMARK UNBOUND:                -2.795
REMARK SMILES CCCCCC=CCC=CCCCCCCCC(=O)[O-]
REMARK SMILES IDX 11 1 12 2 13 3 14 4 15 5 16 6 17 7 18 8 19 9 20 10 10 11
REMARK SMILES IDX 9 12 8 13 7 14 6 15 5 16 4 17 3 18 2 19 1 20
REMARK H PARENT
REMARK Flexibility Score: inf
ROOT
ATOM      1  C   UNL     1      21.433  22.841   9.323  1.00  0.00     0.027 C 
ENDROOT
BRANCH   1   2
ATOM      2  C   UNL     1      20.372  23.343  10.310  1.00  0.00     0.004 C 
BRANCH   2   3
ATOM      3  C   UNL     1      19.319  22.259  10.587  1.00  0.00     0.000 C 
BRANCH   3   4
ATOM      4  C   UNL     1      17.910  22.674  10.113  1.00  0.00     0.000 C 
BRANCH   4   5
ATOM      5  C   UNL     1      17.607  24.174  10.296  1.00  0.00     0.000 C 
BRANCH   5   6
ATOM      6  C   UNL     1      17.015  24.870   9.060  1.00  0.00     0.006 C 
BRANCH   6   7
ATOM      7  C   UNL     1      18.038  25.743   8.322  1.00  0.00     0.053 C 
BRANCH   7   8
ATOM      8  C   UNL     1      18.124  27.094   8.957  1.00  0.00     0.041 C 
ATOM      9  O   UNL     1      19.214  27.503   9.437  1.00  0.00    -0.550 OA
ATOM     10  O   UNL     1      17.007  27.920   8.986  1.00  0.00    -0.550 OA
ENDBRANCH   7   8
ENDBRANCH   6   7
ENDBRANCH   5   6
ENDBRANCH   4   5
ENDBRANCH   3   4
ENDBRANCH   2   3
ENDBRANCH   1   2
BRANCH   1  11
ATOM     11  C   UNL     1      21.140  23.317   7.921  1.00  0.00    -0.031 C 
ATOM     12  C   UNL     1      20.817  22.488   6.912  1.00  0.00    -0.027 C 
BRANCH  12  13
ATOM     13  C   UNL     1      20.696  20.993   7.056  1.00  0.00     0.054 C 
BRANCH  13  14
ATOM     14  C   UNL     1      21.736  20.279   6.237  1.00  0.00    -0.027 C 
ATOM     15  C   UNL     1      22.818  19.745   6.820  1.00  0.00    -0.031 C 
BRANCH  15  16
ATOM     16  C   UNL     1      23.854  19.000   6.025  1.00  0.00     0.027 C 
BRANCH  16  17
ATOM     17  C   UNL     1      23.527  19.024   4.527  1.00  0.00     0.004 C 
BRANCH  17  18
ATOM     18  C   UNL     1      23.176  17.617   4.020  1.00  0.00     0.000 C 
BRANCH  18  19
ATOM     19  C   UNL     1      23.560  16.515   5.019  1.00  0.00    -0.003 C 
ATOM     20  C   UNL     1      22.621  15.310   4.961  1.00  0.00     0.004 C 
ENDBRANCH  18  19
ENDBRANCH  17  18
ENDBRANCH  16  17
ENDBRANCH  15  16
ENDBRANCH  13  14
ENDBRANCH  12  13
ENDBRANCH   1  11
TORSDOF 14
ENDMDL
MODEL 6
REMARK VINA RESULT:    -4.856      1.238      4.563
REMARK INTER + INTRA:         -11.626
REMARK INTER:                  -9.263
REMARK INTRA:                  -2.363
REMARK UNBOUND:                -2.795
REMARK SMILES CCCCCC=CCC=CCCCCCCCC(=O)[O-]
REMARK SMILES IDX 11 1 12 2 13 3 14 4 15 5 16 6 17 7 18 8 19 9 20 10 10 11
REMARK SMILES IDX 9 12 8 13 7 14 6 15 5 16 4 17 3 18 2 19 1 20
REMARK H PARENT
REMARK Flexibility Score: inf
ROOT
ATOM      1  C   UNL     1      18.630  21.166   9.450  1.00  0.00     0.027 C 
ENDROOT
BRANCH   1   2
ATOM      2  C   UNL     1      18.225  21.157  10.929  1.00  0.00     0.004 C 
BRANCH   2   3
ATOM      3  C   UNL     1      18.196  22.583  11.502  1.00  0.00     0.000 C 
BRANCH   3   4
ATOM      4  C   UNL     1      16.880  23.320  11.177  1.00  0.00     0.000 C 
BRANCH   4   5
ATOM      5  C   UNL     1      17.083  24.686  10.493  1.00  0.00     0.000 C 
BRANCH   5   6
ATOM      6  C   UNL     1      18.232  24.735   9.473  1.00  0.00     0.006 C 
BRANCH   6   7
ATOM      7  C   UNL     1      18.023  25.804   8.393  1.00  0.00     0.053 C 
BRANCH   7   8
ATOM      8  C   UNL     1      18.087  27.172   8.995  1.00  0.00     0.041 C 
ATOM      9  O   UNL     1      19.167  27.603   9.479  1.00  0.00    -0.550 OA
ATOM     10  O   UNL     1      16.962  27.986   8.990  1.00  0.00    -0.550 OA
ENDBRANCH   7   8
ENDBRANCH   6   7
ENDBRANCH   5   6
ENDBRANCH   4   5
ENDBRANCH   3   4
ENDBRANCH   2   3
ENDBRANCH   1   2
BRANCH   1  11
ATOM     11  C   UNL     1      17.658  20.367   8.616  1.00  0.00    -0.031 C 
ATOM     12  C   UNL     1      16.944  20.895   7.607  1.00  0.00    -0.027 C 
BRANCH  12  13
ATOM     13  C   UNL     1      17.032  22.337   7.177  1.00  0.00     0.054 C 
BRANCH  13  14
ATOM     14  C   UNL     1      18.176  22.554   6.225  1.00  0.00    -0.027 C 
ATOM     15  C   UNL     1      18.721  21.524   5.565  1.00  0.00    -0.031 C 
BRANCH  15  16
ATOM     16  C   UNL     1      19.845  21.722   4.585  1.00  0.00     0.027 C 
BRANCH  16  17
ATOM     17  C   UNL     1      21.192  21.311   5.194  1.00  0.00     0.004 C 
BRANCH  17  18
ATOM     18  C   UNL     1      21.038  20.970   6.684  1.00  0.00     0.000 C 
BRANCH  18  19
ATOM     19  C   UNL     1      21.967  21.804   7.580  1.00  0.00    -0.003 C 
ATOM     20  C   UNL     1      21.341  23.131   8.008  1.00  0.00     0.004 C 
ENDBRANCH  18  19
ENDBRANCH  17  18
ENDBRANCH  16  17
ENDBRANCH  15  16
ENDBRANCH  13  14
ENDBRANCH  12  13
ENDBRANCH   1  11
TORSDOF 14
ENDMDL
MODEL 7
REMARK VINA RESULT:    -4.849      3.740      6.153
REMARK INTER + INTRA:         -11.613
REMARK INTER:                  -9.038
REMARK INTRA:                  -2.575
REMARK UNBOUND:                -2.795
REMARK SMILES CCCCCC=CCC=CCCCCCCCC(=O)[O-]
REMARK SMILES IDX 11 1 12 2 13 3 14 4 15 5 16 6 17 7 18 8 19 9 20 10 10 11
REMARK SMILES IDX 9 12 8 13 7 14 6 15 5 16 4 17 3 18 2 19 1 20
REMARK H PARENT
REMARK Flexibility Score: inf
ROOT
ATOM      1  C   UNL     1      19.408  24.294  10.058  1.00  0.00     0.027 C 
ENDROOT
BRANCH   1   2
ATOM      2  C   UNL     1      20.218  22.994  10.117  1.00  0.00     0.004 C 
BRANCH   2   3
ATOM      3  C   UNL     1      21.601  23.175   9.472  1.00  0.00     0.000 C 
BRANCH   3   4
ATOM      4  C   UNL     1      21.631  22.701   8.004  1.00  0.00     0.000 C 
BRANCH   4   5
ATOM      5  C   UNL     1      21.409  21.186   7.833  1.00  0.00     0.000 C 
BRANCH   5   6
ATOM      6  C   UNL     1      21.947  20.596   6.519  1.00  0.00     0.006 C 
BRANCH   6   7
ATOM      7  C   UNL     1      22.966  19.471   6.746  1.00  0.00     0.053 C 
BRANCH   7   8
ATOM      8  C   UNL     1      23.407  18.898   5.437  1.00  0.00     0.041 C 
ATOM      9  O   UNL     1      22.586  18.770   4.490  1.00  0.00    -0.550 OA
ATOM     10  O   UNL     1      24.736  18.538   5.249  1.00  0.00    -0.550 OA
ENDBRANCH   7   8
ENDBRANCH   6   7
ENDBRANCH   5   6
ENDBRANCH   4   5
ENDBRANCH   3   4
ENDBRANCH   2   3
ENDBRANCH   1   2
BRANCH   1  11
ATOM     11  C   UNL     1      17.940  24.031  10.289  1.00  0.00    -0.031 C 
ATOM     12  C   UNL     1      16.988  24.304   9.379  1.00  0.00    -0.027 C 
BRANCH  12  13
ATOM     13  C   UNL     1      17.268  24.891   8.019  1.00  0.00     0.054 C 
BRANCH  13  14
ATOM     14  C   UNL     1      17.377  23.816   6.973  1.00  0.00    -0.027 C 
ATOM     15  C   UNL     1      18.576  23.390   6.552  1.00  0.00    -0.031 C 
BRANCH  15  16
ATOM     16  C   UNL     1      18.708  22.294   5.530  1.00  0.00     0.027 C 
BRANCH  16  17
ATOM     17  C   UNL     1      17.635  21.217   5.729  1.00  0.00     0.004 C 
BRANCH  17  18
ATOM     18  C   UNL     1      18.116  20.137   6.709  1.00  0.00     0.000 C 
BRANCH  18  19
ATOM     19  C   UNL     1      17.191  19.988   7.927  1.00  0.00    -0.003 C 
ATOM     20  C   UNL     1      17.824  20.507   9.218  1.00  0.00     0.004 C 
ENDBRANCH  18  19
ENDBRANCH  17  18
ENDBRANCH  16  17
ENDBRANCH  15  16
ENDBRANCH  13  14
ENDBRANCH  12  13
ENDBRANCH   1  11
TORSDOF 14
ENDMDL
MODEL 8
REMARK VINA RESULT:    -4.744      3.468      5.304
REMARK INTER + INTRA:         -11.421
REMARK INTER:                  -8.739
REMARK INTRA:                  -2.682
REMARK UNBOUND:                -2.795
REMARK SMILES CCCCCC=CCC=CCCCCCCCC(=O)[O-]
REMARK SMILES IDX 11 1 12 2 13 3 14 4 15 5 16 6 17 7 18 8 19 9 20 10 10 11
REMARK SMILES IDX 9 12 8 13 7 14 6 15 5 16 4 17 3 18 2 19 1 20
REMARK H PARENT
REMARK Flexibility Score: inf
ROOT
ATOM      1  C   UNL     1      21.153  22.014   6.130  1.00  0.00     0.027 C 
ENDROOT
BRANCH   1   2
ATOM      2  C   UNL     1      19.816  21.749   5.427  1.00  0.00     0.004 C 
BRANCH   2   3
ATOM      3  C   UNL     1      18.745  22.753   5.881  1.00  0.00     0.000 C 
BRANCH   3   4
ATOM      4  C   UNL     1      17.420  22.065   6.267  1.00  0.00     0.000 C 
BRANCH   4   5
ATOM      5  C   UNL     1      17.580  20.944   7.312  1.00  0.00     0.000 C 
BRANCH   5   6
ATOM      6  C   UNL     1      16.893  19.618   6.950  1.00  0.00     0.006 C 
BRANCH   6   7
ATOM      7  C   UNL     1      17.610  18.865   5.821  1.00  0.00     0.053 C 
BRANCH   7   8
ATOM      8  C   UNL     1      18.667  17.969   6.384  1.00  0.00     0.041 C 
ATOM      9  O   UNL     1      19.883  18.187   6.135  1.00  0.00    -0.550 OA
ATOM     10  O   UNL     1      18.313  16.913   7.214  1.00  0.00    -0.550 OA
ENDBRANCH   7   8
ENDBRANCH   6   7
ENDBRANCH   5   6
ENDBRANCH   4   5
ENDBRANCH   3   4
ENDBRANCH   2   3
ENDBRANCH   1   2
BRANCH   1  11
ATOM     11  C   UNL     1      21.307  21.145   7.353  1.00  0.00    -0.031 C 
ATOM     12  C   UNL     1      21.513  21.637   8.588  1.00  0.00    -0.027 C 
BRANCH  12  13
ATOM     13  C   UNL     1      21.602  23.108   8.904  1.00  0.00     0.054 C 
BRANCH  13  14
ATOM     14  C   UNL     1      20.463  23.548   9.783  1.00  0.00    -0.027 C 
ATOM     15  C   UNL     1      19.193  23.312   9.426  1.00  0.00    -0.031 C 
BRANCH  15  16
ATOM     16  C   UNL     1      18.041  23.715  10.304  1.00  0.00     0.027 C 
BRANCH  16  17
ATOM     17  C   UNL     1      16.907  24.339   9.480  1.00  0.00     0.004 C 
BRANCH  17  18
ATOM     18  C   UNL     1      17.465  25.298   8.418  1.00  0.00     0.000 C 
BRANCH  18  19
ATOM     19  C   UNL     1      17.643  26.729   8.948  1.00  0.00    -0.003 C 
ATOM     20  C   UNL     1      19.077  27.238   8.807  1.00  0.00     0.004 C 
ENDBRANCH  18  19
ENDBRANCH  17  18
ENDBRANCH  16  17
ENDBRANCH  15  16
ENDBRANCH  13  14
ENDBRANCH  12  13
ENDBRANCH   1  11
TORSDOF 14
ENDMDL
MODEL 9
REMARK VINA RESULT:    -4.601      3.322      6.008
REMARK INTER + INTRA:         -11.160
REMARK INTER:                  -8.544
REMARK INTRA:                  -2.616
REMARK UNBOUND:                -2.795
REMARK SMILES CCCCCC=CCC=CCCCCCCCC(=O)[O-]
REMARK SMILES IDX 11 1 12 2 13 3 14 4 15 5 16 6 17 7 18 8 19 9 20 10 10 11
REMARK SMILES IDX 9 12 8 13 7 14 6 15 5 16 4 17 3 18 2 19 1 20
REMARK H PARENT
REMARK Flexibility Score: inf
ROOT
ATOM      1  C   UNL     1      19.430  22.147  10.860  1.00  0.00     0.027 C 
ENDROOT
BRANCH   1   2
ATOM      2  C   UNL     1      20.055  23.422  10.281  1.00  0.00     0.004 C 
BRANCH   2   3
ATOM      3  C   UNL     1      21.423  23.127   9.647  1.00  0.00     0.000 C 
BRANCH   3   4
ATOM      4  C   UNL     1      21.370  23.131   8.105  1.00  0.00     0.000 C 
BRANCH   4   5
ATOM      5  C   UNL     1      21.639  21.755   7.468  1.00  0.00     0.000 C 
BRANCH   5   6
ATOM      6  C   UNL     1      21.272  21.647   5.979  1.00  0.00     0.006 C 
BRANCH   6   7
ATOM      7  C   UNL     1      21.907  20.428   5.297  1.00  0.00     0.053 C 
BRANCH   7   8
ATOM      8  C   UNL     1      21.150  19.186   5.645  1.00  0.00     0.041 C 
ATOM      9  O   UNL     1      19.893  19.168   5.578  1.00  0.00    -0.550 OA
ATOM     10  O   UNL     1      21.836  18.034   6.008  1.00  0.00    -0.550 OA
ENDBRANCH   7   8
ENDBRANCH   6   7
ENDBRANCH   5   6
ENDBRANCH   4   5
ENDBRANCH   3   4
ENDBRANCH   2   3
ENDBRANCH   1   2
BRANCH   1  11
ATOM     11  C   UNL     1      17.992  22.377  11.254  1.00  0.00    -0.031 C 
ATOM     12  C   UNL     1      16.969  21.647  10.775  1.00  0.00    -0.027 C 
BRANCH  12  13
ATOM     13  C   UNL     1      17.131  20.508   9.800  1.00  0.00     0.054 C 
BRANCH  13  14
ATOM     14  C   UNL     1      16.875  20.958   8.388  1.00  0.00    -0.027 C 
ATOM     15  C   UNL     1      17.860  21.487   7.649  1.00  0.00    -0.031 C 
BRANCH  15  16
ATOM     16  C   UNL     1      17.634  21.915   6.225  1.00  0.00     0.027 C 
BRANCH  16  17
ATOM     17  C   UNL     1      17.439  23.433   6.125  1.00  0.00     0.004 C 
BRANCH  17  18
ATOM     18  C   UNL     1      18.153  24.154   7.278  1.00  0.00     0.000 C 
BRANCH  18  19
ATOM     19  C   UNL     1      17.194  24.999   8.131  1.00  0.00    -0.003 C 
ATOM     20  C   UNL     1      17.920  26.046   8.976  1.00  0.00     0.004 C 
ENDBRANCH  18  19
ENDBRANCH  17  18
ENDBRANCH  16  17
ENDBRANCH  15  16
ENDBRANCH  13  14
ENDBRANCH  12  13
ENDBRANCH   1  11
TORSDOF 14
ENDMDL
