MODEL 1
REMARK VINA RESULT:    -5.221      0.000      0.000
REMARK INTER + INTRA:          -5.622
REMARK INTER:                  -5.526
REMARK INTRA:                  -0.096
REMARK UNBOUND:                -0.096
REMARK SMILES C=C(C)[C@@H]1CC=C(C)C(=O)C1
REMARK SMILES IDX 8 1 7 2 6 3 5 4 4 5 11 6 9 7 10 8 2 9 1 10 3 11
REMARK H PARENT
REMARK Flexibility Score: inf
ROOT
ATOM      1  C   UNL     1      19.498 -26.125 -24.126  1.00  0.00     0.048 C 
ATOM      2  C   UNL     1      18.551 -25.024 -23.734  1.00  0.00    -0.012 C 
ATOM      3  C   UNL     1      17.702 -25.206 -22.709  1.00  0.00    -0.019 C 
ATOM      4  C   UNL     1      16.746 -24.131 -22.264  1.00  0.00     0.036 C 
ATOM      5  C   UNL     1      16.283 -23.273 -23.456  1.00  0.00     0.025 C 
ATOM      6  C   UNL     1      17.500 -22.698 -24.204  1.00  0.00     0.089 C 
ATOM      7  C   UNL     1      18.469 -23.793 -24.558  1.00  0.00     0.158 C 
ATOM      8  O   UNL     1      19.240 -23.635 -25.543  1.00  0.00    -0.295 OA
ENDROOT
BRANCH   5   9
ATOM      9  C   UNL     1      15.322 -22.175 -23.020  1.00  0.00    -0.077 C 
ATOM     10  C   UNL     1      15.141 -21.880 -21.720  1.00  0.00     0.008 C 
ATOM     11  C   UNL     1      14.549 -21.393 -24.050  1.00  0.00     0.039 C 
ENDBRANCH   5   9
TORSDOF 1
ENDMDL
MODEL 2
REMARK VINA RESULT:    -4.796      8.373      9.870
REMARK INTER + INTRA:          -5.172
REMARK INTER:                  -5.078
REMARK INTRA:                  -0.094
REMARK UNBOUND:                -0.096
REMARK SMILES C=C(C)[C@@H]1CC=C(C)C(=O)C1
REMARK SMILES IDX 8 1 7 2 6 3 5 4 4 5 11 6 9 7 10 8 2 9 1 10 3 11
REMARK H PARENT
REMARK Flexibility Score: inf
ROOT
ATOM      1  C   UNL     1       7.363 -18.976 -23.056  1.00  0.00     0.048 C 
ATOM      2  C   UNL     1       8.661 -18.444 -22.512  1.00  0.00    -0.012 C 
ATOM      3  C   UNL     1       9.516 -17.807 -23.329  1.00  0.00    -0.019 C 
ATOM      4  C   UNL     1      10.821 -17.239 -22.833  1.00  0.00     0.036 C 
ATOM      5  C   UNL     1      11.397 -18.092 -21.687  1.00  0.00     0.025 C 
ATOM      6  C   UNL     1      10.358 -18.241 -20.559  1.00  0.00     0.089 C 
ATOM      7  C   UNL     1       9.047 -18.733 -21.109  1.00  0.00     0.158 C 
ATOM      8  O   UNL     1       8.261 -19.361 -20.350  1.00  0.00    -0.295 OA
ENDROOT
BRANCH   5   9
ATOM      9  C   UNL     1      12.711 -17.523 -21.168  1.00  0.00    -0.077 C 
ATOM     10  C   UNL     1      13.657 -17.071 -22.010  1.00  0.00     0.008 C 
ATOM     11  C   UNL     1      12.975 -17.460 -19.686  1.00  0.00     0.039 C 
ENDBRANCH   5   9
TORSDOF 1
ENDMDL
MODEL 3
REMARK VINA RESULT:    -4.679      2.262      3.839
REMARK INTER + INTRA:          -5.049
REMARK INTER:                  -4.957
REMARK INTRA:                  -0.092
REMARK UNBOUND:                -0.096
REMARK SMILES C=C(C)[C@@H]1CC=C(C)C(=O)C1
REMARK SMILES IDX 8 1 7 2 6 3 5 4 4 5 11 6 9 7 10 8 2 9 1 10 3 11
REMARK H PARENT
REMARK Flexibility Score: inf
ROOT
ATOM      1  C   UNL     1      17.250 -25.329 -22.070  1.00  0.00     0.048 C 
ATOM      2  C   UNL     1      17.621 -24.547 -23.300  1.00  0.00    -0.012 C 
ATOM      3  C   UNL     1      18.756 -24.836 -23.958  1.00  0.00    -0.019 C 
ATOM      4  C   UNL     1      19.167 -24.096 -25.204  1.00  0.00     0.036 C 
ATOM      5  C   UNL     1      18.697 -22.629 -25.159  1.00  0.00     0.025 C 
ATOM      6  C   UNL     1      17.178 -22.563 -24.914  1.00  0.00     0.089 C 
ATOM      7  C   UNL     1      16.800 -23.381 -23.709  1.00  0.00     0.158 C 
ATOM      8  O   UNL     1      15.753 -23.086 -23.071  1.00  0.00    -0.295 OA
ENDROOT
BRANCH   5   9
ATOM      9  C   UNL     1      19.096 -21.872 -26.418  1.00  0.00    -0.077 C 
ATOM     10  C   UNL     1      20.388 -21.678 -26.738  1.00  0.00     0.008 C 
ATOM     11  C   UNL     1      18.037 -21.318 -27.335  1.00  0.00     0.039 C 
ENDBRANCH   5   9
TORSDOF 1
ENDMDL
MODEL 4
REMARK VINA RESULT:    -4.675      7.192      9.019
REMARK INTER + INTRA:          -5.044
REMARK INTER:                  -4.950
REMARK INTRA:                  -0.094
REMARK UNBOUND:                -0.096
REMARK SMILES C=C(C)[C@@H]1CC=C(C)C(=O)C1
REMARK SMILES IDX 8 1 7 2 6 3 5 4 4 5 11 6 9 7 10 8 2 9 1 10 3 11
REMARK H PARENT
REMARK Flexibility Score: inf
ROOT
ATOM      1  C   UNL     1       9.760 -17.437 -23.376  1.00  0.00     0.048 C 
ATOM      2  C   UNL     1      10.803 -17.584 -22.302  1.00  0.00    -0.012 C 
ATOM      3  C   UNL     1      12.081 -17.263 -22.563  1.00  0.00    -0.019 C 
ATOM      4  C   UNL     1      13.161 -17.375 -21.519  1.00  0.00     0.036 C 
ATOM      5  C   UNL     1      12.880 -18.541 -20.552  1.00  0.00     0.025 C 
ATOM      6  C   UNL     1      11.479 -18.391 -19.929  1.00  0.00     0.089 C 
ATOM      7  C   UNL     1      10.441 -18.201 -21.001  1.00  0.00     0.158 C 
ATOM      8  O   UNL     1       9.248 -18.536 -20.768  1.00  0.00    -0.295 OA
ENDROOT
BRANCH   5   9
ATOM      9  C   UNL     1      13.959 -18.660 -19.485  1.00  0.00    -0.077 C 
ATOM     10  C   UNL     1      14.438 -17.575 -18.851  1.00  0.00     0.008 C 
ATOM     11  C   UNL     1      14.515 -20.012 -19.119  1.00  0.00     0.039 C 
ENDBRANCH   5   9
TORSDOF 1
ENDMDL
MODEL 5
REMARK VINA RESULT:    -4.623      7.644      8.175
REMARK INTER + INTRA:          -4.989
REMARK INTER:                  -4.893
REMARK INTRA:                  -0.096
REMARK UNBOUND:                -0.096
REMARK SMILES C=C(C)[C@@H]1CC=C(C)C(=O)C1
REMARK SMILES IDX 8 1 7 2 6 3 5 4 4 5 11 6 9 7 10 8 2 9 1 10 3 11
REMARK H PARENT
REMARK Flexibility Score: inf
ROOT
ATOM      1  C   UNL     1      17.383 -17.529 -18.806  1.00  0.00     0.048 C 
ATOM      2  C   UNL     1      15.950 -17.790 -19.182  1.00  0.00    -0.012 C 
ATOM      3  C   UNL     1      15.501 -17.428 -20.395  1.00  0.00    -0.019 C 
ATOM      4  C   UNL     1      14.081 -17.682 -20.829  1.00  0.00     0.036 C 
ATOM      5  C   UNL     1      13.113 -17.601 -19.634  1.00  0.00     0.025 C 
ATOM      6  C   UNL     1      13.563 -18.562 -18.518  1.00  0.00     0.089 C 
ATOM      7  C   UNL     1      15.008 -18.330 -18.171  1.00  0.00     0.158 C 
ATOM      8  O   UNL     1      15.420 -18.638 -17.020  1.00  0.00    -0.295 OA
ENDROOT
BRANCH   5   9
ATOM      9  C   UNL     1      11.674 -17.866 -20.057  1.00  0.00    -0.077 C 
ATOM     10  C   UNL     1      10.666 -17.832 -19.167  1.00  0.00     0.008 C 
ATOM     11  C   UNL     1      11.354 -18.175 -21.496  1.00  0.00     0.039 C 
ENDBRANCH   5   9
TORSDOF 1
ENDMDL
MODEL 6
REMARK VINA RESULT:    -4.612      2.034      3.542
REMARK INTER + INTRA:          -4.978
REMARK INTER:                  -4.882
REMARK INTRA:                  -0.096
REMARK UNBOUND:                -0.096
REMARK SMILES C=C(C)[C@@H]1CC=C(C)C(=O)C1
REMARK SMILES IDX 8 1 7 2 6 3 5 4 4 5 11 6 9 7 10 8 2 9 1 10 3 11
REMARK H PARENT
REMARK Flexibility Score: inf
ROOT
ATOM      1  C   UNL     1      17.266 -25.379 -22.126  1.00  0.00     0.048 C 
ATOM      2  C   UNL     1      17.697 -24.413 -23.194  1.00  0.00    -0.012 C 
ATOM      3  C   UNL     1      17.044 -23.248 -23.345  1.00  0.00    -0.019 C 
ATOM      4  C   UNL     1      17.446 -22.237 -24.387  1.00  0.00     0.036 C 
ATOM      5  C   UNL     1      18.013 -22.929 -25.641  1.00  0.00     0.025 C 
ATOM      6  C   UNL     1      19.175 -23.862 -25.256  1.00  0.00     0.089 C 
ATOM      7  C   UNL     1      18.758 -24.801 -24.157  1.00  0.00     0.158 C 
ATOM      8  O   UNL     1      19.348 -25.909 -24.039  1.00  0.00    -0.295 OA
ENDROOT
BRANCH   5   9
ATOM      9  C   UNL     1      18.432 -21.917 -26.700  1.00  0.00    -0.077 C 
ATOM     10  C   UNL     1      19.724 -21.750 -27.034  1.00  0.00     0.008 C 
ATOM     11  C   UNL     1      17.393 -21.078 -27.397  1.00  0.00     0.039 C 
ENDBRANCH   5   9
TORSDOF 1
ENDMDL
MODEL 7
REMARK VINA RESULT:    -4.569      1.647      4.046
REMARK INTER + INTRA:          -4.932
REMARK INTER:                  -4.837
REMARK INTRA:                  -0.095
REMARK UNBOUND:                -0.096
REMARK SMILES C=C(C)[C@@H]1CC=C(C)C(=O)C1
REMARK SMILES IDX 8 1 7 2 6 3 5 4 4 5 11 6 9 7 10 8 2 9 1 10 3 11
REMARK H PARENT
REMARK Flexibility Score: inf
ROOT
ATOM      1  C   UNL     1      17.615 -20.258 -26.572  1.00  0.00     0.048 C 
ATOM      2  C   UNL     1      17.688 -21.581 -25.859  1.00  0.00    -0.012 C 
ATOM      3  C   UNL     1      16.817 -21.859 -24.876  1.00  0.00    -0.019 C 
ATOM      4  C   UNL     1      16.834 -23.174 -24.142  1.00  0.00     0.036 C 
ATOM      5  C   UNL     1      18.267 -23.729 -24.032  1.00  0.00     0.025 C 
ATOM      6  C   UNL     1      18.908 -23.831 -25.428  1.00  0.00     0.089 C 
ATOM      7  C   UNL     1      18.797 -22.521 -26.159  1.00  0.00     0.158 C 
ATOM      8  O   UNL     1      19.637 -22.246 -27.057  1.00  0.00    -0.295 OA
ENDROOT
BRANCH   5   9
ATOM      9  C   UNL     1      18.299 -25.065 -23.300  1.00  0.00    -0.077 C 
ATOM     10  C   UNL     1      17.437 -25.338 -22.305  1.00  0.00     0.008 C 
ATOM     11  C   UNL     1      19.310 -26.113 -23.685  1.00  0.00     0.039 C 
ENDBRANCH   5   9
TORSDOF 1
ENDMDL
MODEL 8
REMARK VINA RESULT:    -4.538      7.139      7.733
REMARK INTER + INTRA:          -4.899
REMARK INTER:                  -4.801
REMARK INTRA:                  -0.098
REMARK UNBOUND:                -0.096
REMARK SMILES C=C(C)[C@@H]1CC=C(C)C(=O)C1
REMARK SMILES IDX 8 1 7 2 6 3 5 4 4 5 11 6 9 7 10 8 2 9 1 10 3 11
REMARK H PARENT
REMARK Flexibility Score: inf
ROOT
ATOM      1  C   UNL     1      17.738 -17.532 -18.625  1.00  0.00     0.048 C 
ATOM      2  C   UNL     1      16.310 -17.486 -19.093  1.00  0.00    -0.012 C 
ATOM      3  C   UNL     1      15.311 -17.534 -18.197  1.00  0.00    -0.019 C 
ATOM      4  C   UNL     1      13.863 -17.473 -18.610  1.00  0.00     0.036 C 
ATOM      5  C   UNL     1      13.650 -18.138 -19.983  1.00  0.00     0.025 C 
ATOM      6  C   UNL     1      14.584 -17.506 -21.032  1.00  0.00     0.089 C 
ATOM      7  C   UNL     1      16.007 -17.513 -20.546  1.00  0.00     0.158 C 
ATOM      8  O   UNL     1      16.944 -17.503 -21.390  1.00  0.00    -0.295 OA
ENDROOT
BRANCH   5   9
ATOM      9  C   UNL     1      12.192 -18.075 -20.418  1.00  0.00    -0.077 C 
ATOM     10  C   UNL     1      11.841 -18.215 -21.709  1.00  0.00     0.008 C 
ATOM     11  C   UNL     1      11.107 -17.850 -19.397  1.00  0.00     0.039 C 
ENDBRANCH   5   9
TORSDOF 1
ENDMDL
MODEL 9
REMARK VINA RESULT:    -4.517      1.463      2.330
REMARK INTER + INTRA:          -4.877
REMARK INTER:                  -4.781
REMARK INTRA:                  -0.096
REMARK UNBOUND:                -0.096
REMARK SMILES C=C(C)[C@@H]1CC=C(C)C(=O)C1
REMARK SMILES IDX 8 1 7 2 6 3 5 4 4 5 11 6 9 7 10 8 2 9 1 10 3 11
REMARK H PARENT
REMARK Flexibility Score: inf
ROOT
ATOM      1  C   UNL     1      19.478 -25.364 -24.460  1.00  0.00     0.048 C 
ATOM      2  C   UNL     1      18.292 -24.543 -24.033  1.00  0.00    -0.012 C 
ATOM      3  C   UNL     1      17.915 -23.482 -24.765  1.00  0.00    -0.019 C 
ATOM      4  C   UNL     1      16.725 -22.636 -24.393  1.00  0.00     0.036 C 
ATOM      5  C   UNL     1      16.545 -22.574 -22.864  1.00  0.00     0.025 C 
ATOM      6  C   UNL     1      16.458 -23.996 -22.279  1.00  0.00     0.089 C 
ATOM      7  C   UNL     1      17.621 -24.831 -22.741  1.00  0.00     0.158 C 
ATOM      8  O   UNL     1      17.996 -25.805 -22.034  1.00  0.00    -0.295 OA
ENDROOT
BRANCH   5   9
ATOM      9  C   UNL     1      15.339 -21.730 -22.474  1.00  0.00    -0.077 C 
ATOM     10  C   UNL     1      14.491 -21.251 -23.400  1.00  0.00     0.008 C 
ATOM     11  C   UNL     1      15.075 -21.415 -21.024  1.00  0.00     0.039 C 
ENDBRANCH   5   9
TORSDOF 1
ENDMDL
