MODEL 1
REMARK VINA RESULT:    -6.026      0.000      0.000
REMARK INTER + INTRA:          -9.378
REMARK INTER:                  -8.140
REMARK INTRA:                  -1.238
REMARK UNBOUND:                -1.238
REMARK SMILES CC(=O)CCC=C(C)CCC=C(C)C
REMARK SMILES IDX 7 1 6 2 8 3 9 4 10 5 11 6 13 7 12 8 14 9 5 10 4 11 2 12 3 13
REMARK SMILES IDX 1 14
REMARK H PARENT
REMARK Flexibility Score: inf
ROOT
ATOM      1  C   UNL     1     -28.708  21.136  15.538  1.00  0.00    -0.077 C 
ATOM      2  C   UNL     1     -29.807  20.503  15.064  1.00  0.00    -0.028 C 
ATOM      3  C   UNL     1     -28.618  21.388  17.021  1.00  0.00     0.039 C 
ENDROOT
BRANCH   1   4
ATOM      4  C   UNL     1     -27.574  21.610  14.647  1.00  0.00     0.034 C 
BRANCH   4   5
ATOM      5  C   UNL     1     -27.262  23.098  14.862  1.00  0.00     0.032 C 
BRANCH   5   6
ATOM      6  C   UNL     1     -27.218  23.854  13.556  1.00  0.00    -0.028 C 
ATOM      7  C   UNL     1     -29.589  24.642  13.737  1.00  0.00     0.039 C 
ATOM      8  C   UNL     1     -28.263  24.526  13.023  1.00  0.00    -0.080 C 
ATOM      9  C   UNL     1     -28.081  25.189  11.683  1.00  0.00     0.039 C 
ENDBRANCH   5   6
ENDBRANCH   4   5
ENDBRANCH   1   4
BRANCH   2  10
ATOM     10  C   UNL     1     -30.035  20.099  13.626  1.00  0.00     0.035 C 
BRANCH  10  11
ATOM     11  C   UNL     1     -31.206  20.877  13.016  1.00  0.00     0.079 C 
BRANCH  11  12
ATOM     12  C   UNL     1     -30.743  21.812  11.929  1.00  0.00     0.130 C 
ATOM     13  O   UNL     1     -31.515  22.649  11.486  1.00  0.00    -0.300 OA
ATOM     14  C   UNL     1     -29.349  21.741  11.382  1.00  0.00     0.087 C 
ENDBRANCH  11  12
ENDBRANCH  10  11
ENDBRANCH   2  10
TORSDOF 6
ENDMDL
MODEL 2
REMARK VINA RESULT:    -5.976      2.032      4.588
REMARK INTER + INTRA:          -9.310
REMARK INTER:                  -7.891
REMARK INTRA:                  -1.419
REMARK UNBOUND:                -1.238
REMARK SMILES CC(=O)CCC=C(C)CCC=C(C)C
REMARK SMILES IDX 7 1 6 2 8 3 9 4 10 5 11 6 13 7 12 8 14 9 5 10 4 11 2 12 3 13
REMARK SMILES IDX 1 14
REMARK H PARENT
REMARK Flexibility Score: inf
ROOT
ATOM      1  C   UNL     1     -28.035  24.098  12.937  1.00  0.00    -0.077 C 
ATOM      2  C   UNL     1     -27.828  23.776  14.235  1.00  0.00    -0.028 C 
ATOM      3  C   UNL     1     -28.775  25.374  12.631  1.00  0.00     0.039 C 
ENDROOT
BRANCH   1   4
ATOM      4  C   UNL     1     -27.570  23.229  11.782  1.00  0.00     0.034 C 
BRANCH   4   5
ATOM      5  C   UNL     1     -28.751  22.651  10.988  1.00  0.00     0.032 C 
BRANCH   5   6
ATOM      6  C   UNL     1     -29.364  21.462  11.688  1.00  0.00    -0.028 C 
ATOM      7  C   UNL     1     -31.443  22.701  12.335  1.00  0.00     0.039 C 
ATOM      8  C   UNL     1     -30.557  21.478  12.323  1.00  0.00    -0.080 C 
ATOM      9  C   UNL     1     -31.014  20.224  13.023  1.00  0.00     0.039 C 
ENDBRANCH   5   6
ENDBRANCH   4   5
ENDBRANCH   1   4
BRANCH   2  10
ATOM     10  C   UNL     1     -27.044  22.582  14.729  1.00  0.00     0.035 C 
BRANCH  10  11
ATOM     11  C   UNL     1     -27.957  21.366  14.919  1.00  0.00     0.079 C 
BRANCH  11  12
ATOM     12  C   UNL     1     -28.621  21.378  16.271  1.00  0.00     0.130 C 
ATOM     13  O   UNL     1     -28.083  21.959  17.201  1.00  0.00    -0.300 OA
ATOM     14  C   UNL     1     -29.937  20.694  16.498  1.00  0.00     0.087 C 
ENDBRANCH  11  12
ENDBRANCH  10  11
ENDBRANCH   2  10
TORSDOF 6
ENDMDL
MODEL 3
REMARK VINA RESULT:    -5.943     16.718     19.230
REMARK INTER + INTRA:          -9.265
REMARK INTER:                  -8.022
REMARK INTRA:                  -1.243
REMARK UNBOUND:                -1.238
REMARK SMILES CC(=O)CCC=C(C)CCC=C(C)C
REMARK SMILES IDX 7 1 6 2 8 3 9 4 10 5 11 6 13 7 12 8 14 9 5 10 4 11 2 12 3 13
REMARK SMILES IDX 1 14
REMARK H PARENT
REMARK Flexibility Score: inf
ROOT
ATOM      1  C   UNL     1     -17.989  38.314  15.619  1.00  0.00    -0.077 C 
ATOM      2  C   UNL     1     -16.873  38.955  15.199  1.00  0.00    -0.028 C 
ATOM      3  C   UNL     1     -18.138  38.038  17.093  1.00  0.00     0.039 C 
ENDROOT
BRANCH   1   4
ATOM      4  C   UNL     1     -19.086  37.852  14.676  1.00  0.00     0.034 C 
BRANCH   4   5
ATOM      5  C   UNL     1     -19.386  36.355  14.837  1.00  0.00     0.032 C 
BRANCH   5   6
ATOM      6  C   UNL     1     -19.407  35.643  13.505  1.00  0.00    -0.028 C 
ATOM      7  C   UNL     1     -17.043  34.836  13.708  1.00  0.00     0.039 C 
ATOM      8  C   UNL     1     -18.354  34.984  12.971  1.00  0.00    -0.080 C 
ATOM      9  C   UNL     1     -18.512  34.368  11.606  1.00  0.00     0.039 C 
ENDBRANCH   5   6
ENDBRANCH   4   5
ENDBRANCH   1   4
BRANCH   2  10
ATOM     10  C   UNL     1     -16.588  39.381  13.777  1.00  0.00     0.035 C 
BRANCH  10  11
ATOM     11  C   UNL     1     -15.470  38.533  13.163  1.00  0.00     0.079 C 
BRANCH  11  12
ATOM     12  C   UNL     1     -15.972  37.704  12.010  1.00  0.00     0.130 C 
ATOM     13  O   UNL     1     -15.244  36.857  11.514  1.00  0.00    -0.300 OA
ATOM     14  C   UNL     1     -17.355  37.893  11.460  1.00  0.00     0.087 C 
ENDBRANCH  11  12
ENDBRANCH  10  11
ENDBRANCH   2  10
TORSDOF 6
ENDMDL
MODEL 4
REMARK VINA RESULT:    -5.901     16.761     19.020
REMARK INTER + INTRA:          -9.209
REMARK INTER:                  -7.884
REMARK INTRA:                  -1.325
REMARK UNBOUND:                -1.238
REMARK SMILES CC(=O)CCC=C(C)CCC=C(C)C
REMARK SMILES IDX 7 1 6 2 8 3 9 4 10 5 11 6 13 7 12 8 14 9 5 10 4 11 2 12 3 13
REMARK SMILES IDX 1 14
REMARK H PARENT
REMARK Flexibility Score: inf
ROOT
ATOM      1  C   UNL     1     -18.577  35.315  12.943  1.00  0.00    -0.077 C 
ATOM      2  C   UNL     1     -18.748  35.658  14.242  1.00  0.00    -0.028 C 
ATOM      3  C   UNL     1     -17.790  34.067  12.636  1.00  0.00     0.039 C 
ENDROOT
BRANCH   1   4
ATOM      4  C   UNL     1     -19.128  36.134  11.789  1.00  0.00     0.034 C 
BRANCH   4   5
ATOM      5  C   UNL     1     -18.010  36.800  10.975  1.00  0.00     0.032 C 
BRANCH   5   6
ATOM      6  C   UNL     1     -17.358  37.928  11.741  1.00  0.00    -0.028 C 
ATOM      7  C   UNL     1     -15.177  36.721  11.993  1.00  0.00     0.039 C 
ATOM      8  C   UNL     1     -16.099  37.894  12.231  1.00  0.00    -0.080 C 
ATOM      9  C   UNL     1     -15.606  39.078  13.022  1.00  0.00     0.039 C 
ENDBRANCH   5   6
ENDBRANCH   4   5
ENDBRANCH   1   4
BRANCH   2  10
ATOM     10  C   UNL     1     -19.567  36.826  14.741  1.00  0.00     0.035 C 
BRANCH  10  11
ATOM     11  C   UNL     1     -18.697  38.076  14.908  1.00  0.00     0.079 C 
BRANCH  11  12
ATOM     12  C   UNL     1     -18.041  38.117  16.264  1.00  0.00     0.130 C 
ATOM     13  O   UNL     1     -18.528  37.482  17.187  1.00  0.00    -0.300 OA
ATOM     14  C   UNL     1     -16.796  38.918  16.503  1.00  0.00     0.087 C 
ENDBRANCH  11  12
ENDBRANCH  10  11
ENDBRANCH   2  10
TORSDOF 6
ENDMDL
MODEL 5
REMARK VINA RESULT:    -5.676      2.026      3.821
REMARK INTER + INTRA:          -8.905
REMARK INTER:                  -7.472
REMARK INTRA:                  -1.433
REMARK UNBOUND:                -1.238
REMARK SMILES CC(=O)CCC=C(C)CCC=C(C)C
REMARK SMILES IDX 7 1 6 2 8 3 9 4 10 5 11 6 13 7 12 8 14 9 5 10 4 11 2 12 3 13
REMARK SMILES IDX 1 14
REMARK H PARENT
REMARK Flexibility Score: inf
ROOT
ATOM      1  C   UNL     1     -30.776  22.191  12.661  1.00  0.00    -0.077 C 
ATOM      2  C   UNL     1     -30.194  20.969  12.681  1.00  0.00    -0.028 C 
ATOM      3  C   UNL     1     -31.618  22.557  11.466  1.00  0.00     0.039 C 
ENDROOT
BRANCH   1   4
ATOM      4  C   UNL     1     -30.611  23.209  13.776  1.00  0.00     0.034 C 
BRANCH   4   5
ATOM      5  C   UNL     1     -29.489  24.213  13.472  1.00  0.00     0.032 C 
BRANCH   5   6
ATOM      6  C   UNL     1     -28.175  23.783  14.080  1.00  0.00    -0.028 C 
ATOM      7  C   UNL     1     -27.123  23.270  11.865  1.00  0.00     0.039 C 
ATOM      8  C   UNL     1     -27.115  23.328  13.375  1.00  0.00    -0.080 C 
ATOM      9  C   UNL     1     -25.889  22.885  14.129  1.00  0.00     0.039 C 
ENDBRANCH   5   6
ENDBRANCH   4   5
ENDBRANCH   1   4
BRANCH   2  10
ATOM     10  C   UNL     1     -29.382  20.403  13.824  1.00  0.00     0.035 C 
BRANCH  10  11
ATOM     11  C   UNL     1     -30.293  19.875  14.937  1.00  0.00     0.079 C 
BRANCH  11  12
ATOM     12  C   UNL     1     -29.984  20.525  16.260  1.00  0.00     0.130 C 
ATOM     13  O   UNL     1     -30.847  20.573  17.124  1.00  0.00    -0.300 OA
ATOM     14  C   UNL     1     -28.632  21.110  16.544  1.00  0.00     0.087 C 
ENDBRANCH  11  12
ENDBRANCH  10  11
ENDBRANCH   2  10
TORSDOF 6
ENDMDL
MODEL 6
REMARK VINA RESULT:    -5.670     17.211     19.700
REMARK INTER + INTRA:          -8.896
REMARK INTER:                  -7.424
REMARK INTRA:                  -1.473
REMARK UNBOUND:                -1.238
REMARK SMILES CC(=O)CCC=C(C)CCC=C(C)C
REMARK SMILES IDX 7 1 6 2 8 3 9 4 10 5 11 6 13 7 12 8 14 9 5 10 4 11 2 12 3 13
REMARK SMILES IDX 1 14
REMARK H PARENT
REMARK Flexibility Score: inf
ROOT
ATOM      1  C   UNL     1     -15.963  37.213  12.689  1.00  0.00    -0.077 C 
ATOM      2  C   UNL     1     -16.497  38.457  12.678  1.00  0.00    -0.028 C 
ATOM      3  C   UNL     1     -15.143  36.782  11.500  1.00  0.00     0.039 C 
ENDROOT
BRANCH   1   4
ATOM      4  C   UNL     1     -16.162  36.235  13.833  1.00  0.00     0.034 C 
BRANCH   4   5
ATOM      5  C   UNL     1     -17.293  35.238  13.542  1.00  0.00     0.032 C 
BRANCH   5   6
ATOM      6  C   UNL     1     -18.605  35.695  14.134  1.00  0.00    -0.028 C 
ATOM      7  C   UNL     1     -19.621  36.222  11.906  1.00  0.00     0.039 C 
ATOM      8  C   UNL     1     -19.647  36.168  13.415  1.00  0.00    -0.080 C 
ATOM      9  C   UNL     1     -20.874  36.638  14.154  1.00  0.00     0.039 C 
ENDBRANCH   5   6
ENDBRANCH   4   5
ENDBRANCH   1   4
BRANCH   2  10
ATOM     10  C   UNL     1     -17.280  39.086  13.808  1.00  0.00     0.035 C 
BRANCH  10  11
ATOM     11  C   UNL     1     -16.341  39.672  14.868  1.00  0.00     0.079 C 
BRANCH  11  12
ATOM     12  C   UNL     1     -16.618  39.096  16.232  1.00  0.00     0.130 C 
ATOM     13  O   UNL     1     -15.766  39.177  17.104  1.00  0.00    -0.300 OA
ATOM     14  C   UNL     1     -17.924  38.429  16.545  1.00  0.00     0.087 C 
ENDBRANCH  11  12
ENDBRANCH  10  11
ENDBRANCH   2  10
TORSDOF 6
ENDMDL
MODEL 7
REMARK VINA RESULT:    -5.663     16.151     18.801
REMARK INTER + INTRA:          -8.888
REMARK INTER:                  -7.402
REMARK INTRA:                  -1.486
REMARK UNBOUND:                -1.238
REMARK SMILES CC(=O)CCC=C(C)CCC=C(C)C
REMARK SMILES IDX 7 1 6 2 8 3 9 4 10 5 11 6 13 7 12 8 14 9 5 10 4 11 2 12 3 13
REMARK SMILES IDX 1 14
REMARK H PARENT
REMARK Flexibility Score: inf
ROOT
ATOM      1  C   UNL     1     -16.191  38.096  12.400  1.00  0.00    -0.077 C 
ATOM      2  C   UNL     1     -16.766  37.298  11.470  1.00  0.00    -0.028 C 
ATOM      3  C   UNL     1     -14.752  37.836  12.767  1.00  0.00     0.039 C 
ENDROOT
BRANCH   1   4
ATOM      4  C   UNL     1     -16.928  39.227  13.095  1.00  0.00     0.034 C 
BRANCH   4   5
ATOM      5  C   UNL     1     -17.119  38.950  14.593  1.00  0.00     0.032 C 
BRANCH   5   6
ATOM      6  C   UNL     1     -18.431  38.254  14.869  1.00  0.00    -0.028 C 
ATOM      7  C   UNL     1     -17.402  35.970  14.922  1.00  0.00     0.039 C 
ATOM      8  C   UNL     1     -18.578  36.915  14.988  1.00  0.00    -0.080 C 
ATOM      9  C   UNL     1     -19.962  36.364  15.211  1.00  0.00     0.039 C 
ENDBRANCH   5   6
ENDBRANCH   4   5
ENDBRANCH   1   4
BRANCH   2  10
ATOM     10  C   UNL     1     -18.167  37.455  10.925  1.00  0.00     0.035 C 
BRANCH  10  11
ATOM     11  C   UNL     1     -19.104  36.388  11.500  1.00  0.00     0.079 C 
BRANCH  11  12
ATOM     12  C   UNL     1     -18.625  34.997  11.176  1.00  0.00     0.130 C 
ATOM     13  O   UNL     1     -18.340  34.712  10.022  1.00  0.00    -0.300 OA
ATOM     14  C   UNL     1     -18.483  33.954  12.243  1.00  0.00     0.087 C 
ENDBRANCH  11  12
ENDBRANCH  10  11
ENDBRANCH   2  10
TORSDOF 6
ENDMDL
MODEL 8
REMARK VINA RESULT:    -5.648      1.585      3.792
REMARK INTER + INTRA:          -8.867
REMARK INTER:                  -7.402
REMARK INTRA:                  -1.466
REMARK UNBOUND:                -1.238
REMARK SMILES CC(=O)CCC=C(C)CCC=C(C)C
REMARK SMILES IDX 7 1 6 2 8 3 9 4 10 5 11 6 13 7 12 8 14 9 5 10 4 11 2 12 3 13
REMARK SMILES IDX 1 14
REMARK H PARENT
REMARK Flexibility Score: inf
ROOT
ATOM      1  C   UNL     1     -30.421  21.407  12.318  1.00  0.00    -0.077 C 
ATOM      2  C   UNL     1     -29.803  22.186  11.399  1.00  0.00    -0.028 C 
ATOM      3  C   UNL     1     -31.872  21.680  12.621  1.00  0.00     0.039 C 
ENDROOT
BRANCH   1   4
ATOM      4  C   UNL     1     -29.719  20.285  13.062  1.00  0.00     0.034 C 
BRANCH   4   5
ATOM      5  C   UNL     1     -29.522  20.618  14.548  1.00  0.00     0.032 C 
BRANCH   5   6
ATOM      6  C   UNL     1     -28.188  21.278  14.801  1.00  0.00    -0.028 C 
ATOM      7  C   UNL     1     -29.140  23.595  14.790  1.00  0.00     0.039 C 
ATOM      8  C   UNL     1     -27.995  22.614  14.880  1.00  0.00    -0.080 C 
ATOM      9  C   UNL     1     -26.593  23.125  15.084  1.00  0.00     0.039 C 
ENDBRANCH   5   6
ENDBRANCH   4   5
ENDBRANCH   1   4
BRANCH   2  10
ATOM     10  C   UNL     1     -28.382  22.012  10.915  1.00  0.00     0.035 C 
BRANCH  10  11
ATOM     11  C   UNL     1     -27.485  23.145  11.425  1.00  0.00     0.079 C 
BRANCH  11  12
ATOM     12  C   UNL     1     -28.006  24.495  11.008  1.00  0.00     0.130 C 
ATOM     13  O   UNL     1     -28.308  24.690   9.840  1.00  0.00    -0.300 OA
ATOM     14  C   UNL     1     -28.171  25.607  12.001  1.00  0.00     0.087 C 
ENDBRANCH  11  12
ENDBRANCH  10  11
ENDBRANCH   2  10
TORSDOF 6
ENDMDL
MODEL 9
REMARK VINA RESULT:    -5.614     16.892     19.247
REMARK INTER + INTRA:          -8.821
REMARK INTER:                  -7.771
REMARK INTRA:                  -1.050
REMARK UNBOUND:                -1.238
REMARK SMILES CC(=O)CCC=C(C)CCC=C(C)C
REMARK SMILES IDX 7 1 6 2 8 3 9 4 10 5 11 6 13 7 12 8 14 9 5 10 4 11 2 12 3 13
REMARK SMILES IDX 1 14
REMARK H PARENT
REMARK Flexibility Score: inf
ROOT
ATOM      1  C   UNL     1     -17.426  38.819  16.400  1.00  0.00    -0.077 C 
ATOM      2  C   UNL     1     -18.500  37.995  16.422  1.00  0.00    -0.028 C 
ATOM      3  C   UNL     1     -17.420  40.002  17.334  1.00  0.00     0.039 C 
ENDROOT
BRANCH   1   4
ATOM      4  C   UNL     1     -16.242  38.614  15.473  1.00  0.00     0.034 C 
BRANCH   4   5
ATOM      5  C   UNL     1     -16.282  39.571  14.272  1.00  0.00     0.032 C 
BRANCH   5   6
ATOM      6  C   UNL     1     -16.983  38.950  13.087  1.00  0.00    -0.028 C 
ATOM      7  C   UNL     1     -15.127  37.334  12.621  1.00  0.00     0.039 C 
ATOM      8  C   UNL     1     -16.464  37.967  12.318  1.00  0.00    -0.080 C 
ATOM      9  C   UNL     1     -17.263  37.485  11.135  1.00  0.00     0.039 C 
ENDBRANCH   5   6
ENDBRANCH   4   5
ENDBRANCH   1   4
BRANCH   2  10
ATOM     10  C   UNL     1     -18.649  36.725  15.616  1.00  0.00     0.035 C 
BRANCH  10  11
ATOM     11  C   UNL     1     -19.846  36.815  14.664  1.00  0.00     0.079 C 
BRANCH  11  12
ATOM     12  C   UNL     1     -19.603  36.045  13.393  1.00  0.00     0.130 C 
ATOM     13  O   UNL     1     -20.298  36.265  12.412  1.00  0.00    -0.300 OA
ATOM     14  C   UNL     1     -18.517  35.014  13.303  1.00  0.00     0.087 C 
ENDBRANCH  11  12
ENDBRANCH  10  11
ENDBRANCH   2  10
TORSDOF 6
ENDMDL
