MODEL 1
REMARK VINA RESULT:    -4.107      0.000      0.000
REMARK INTER + INTRA:          -6.258
REMARK INTER:                  -6.268
REMARK INTRA:                   0.010
REMARK UNBOUND:                 0.010
REMARK SMILES CC1=CCC[C@H](C)C(=O)C[C@@H](C(C)C)C(=O)C1
REMARK SMILES IDX 8 1 9 2 6 3 7 4 5 5 4 6 3 7 2 8 1 9 10 11 11 12 15 13 16 14
REMARK SMILES IDX 17 15 12 17 13 18 14 19
REMARK H PARENT
REMARK Flexibility Score: 70.00
ROOT
ATOM      1  C   UNL     1       3.634  27.615  31.424  1.00  0.00     0.136 C 
ATOM      2  O   UNL     1       3.830  27.052  32.494  1.00  0.00    -0.299 OA
ENDROOT
BRANCH   1   3
ATOM      3  C   UNL     1       4.214  27.032  30.149  1.00  0.00     0.053 C 
ATOM      4  C   UNL     1       5.435  26.148  30.453  1.00  0.00     0.016 C 
BRANCH   3   5
ATOM      5  C   UNL     1       3.132  26.234  29.380  1.00  0.00     0.015 C 
BRANCH   5   6
ATOM      6  C   UNL     1       2.520  27.045  28.222  1.00  0.00     0.028 C 
BRANCH   6   7
ATOM      7  C   UNL     1       1.031  26.832  28.131  1.00  0.00    -0.028 C 
ATOM      8  C   UNL     1       0.103  27.596  28.753  1.00  0.00    -0.070 CG0
ATOM      9  C   UNL     1      -1.348  27.216  28.600  1.00  0.00     0.039 C 
ATOM     10  G   UNL     1       0.459  28.815  29.591  1.00  0.00     0.000 G0
ENDBRANCH   6   7
ENDBRANCH   5   6
ENDBRANCH   3   5
ENDBRANCH   1   3
BRANCH   1  11
ATOM     11  C   UNL     1       2.787  28.866  31.401  1.00  0.00     0.087 C 
BRANCH  11  12
ATOM     12  C   UNL     1       1.412  28.646  32.084  1.00  0.00     0.066 C 
BRANCH  12  13
ATOM     13  C   UNL     1       0.265  28.601  31.082  1.00  0.00     0.140 C 
ATOM     14  O   UNL     1      -0.873  28.453  31.505  1.00  0.00    -0.299 OA
BRANCH  13  15
ATOM     15  C   UNL     1       0.464  28.833  29.602  1.00  0.00     0.106 CG0
ATOM     16  G   UNL     1       0.100  27.611  28.772  1.00  0.00     0.000 G0
ENDBRANCH  13  15
ENDBRANCH  12  13
BRANCH  12  17
ATOM     17  C   UNL     1       1.122  29.618  33.276  1.00  0.00    -0.006 C 
ATOM     18  C   UNL     1       2.020  30.868  33.322  1.00  0.00     0.008 C 
ATOM     19  C   UNL     1       1.205  28.883  34.625  1.00  0.00     0.008 C 
ENDBRANCH  12  17
ENDBRANCH  11  12
ENDBRANCH   1  11
TORSDOF 1
ENDMDL
MODEL 2
REMARK VINA RESULT:    -4.107      2.139      4.663
REMARK INTER + INTRA:          -6.257
REMARK INTER:                  -6.695
REMARK INTRA:                   0.438
REMARK UNBOUND:                 0.010
REMARK SMILES CC1=CCC[C@H](C)C(=O)C[C@@H](C(C)C)C(=O)C1
REMARK SMILES IDX 8 1 9 2 6 3 7 4 5 5 4 6 3 7 2 8 1 9 10 11 11 12 15 13 16 14
REMARK SMILES IDX 17 15 12 17 13 18 14 19
REMARK H PARENT
REMARK Flexibility Score: 70.00
ROOT
ATOM      1  C   UNL     1      -0.265  28.409  32.848  1.00  0.00     0.136 C 
ATOM      2  O   UNL     1      -0.833  27.380  33.192  1.00  0.00    -0.299 OA
ENDROOT
BRANCH   1   3
ATOM      3  C   UNL     1       0.461  29.250  33.882  1.00  0.00     0.053 C 
ATOM      4  C   UNL     1       1.656  28.486  34.474  1.00  0.00     0.016 C 
BRANCH   3   5
ATOM      5  C   UNL     1       0.915  30.593  33.260  1.00  0.00     0.015 C 
BRANCH   5   6
ATOM      6  C   UNL     1       2.357  30.530  32.722  1.00  0.00     0.028 C 
BRANCH   6   7
ATOM      7  C   UNL     1       2.420  30.938  31.272  1.00  0.00    -0.028 C 
ATOM      8  C   UNL     1       2.552  30.079  30.235  1.00  0.00    -0.070 CG0
ATOM      9  C   UNL     1       2.650  30.655  28.845  1.00  0.00     0.039 C 
ATOM     10  G   UNL     1       2.603  28.569  30.409  1.00  0.00     0.000 G0
ENDBRANCH   6   7
ENDBRANCH   5   6
ENDBRANCH   3   5
ENDBRANCH   1   3
BRANCH   1  11
ATOM     11  C   UNL     1      -0.277  28.798  31.388  1.00  0.00     0.087 C 
BRANCH  11  12
ATOM     12  C   UNL     1       0.119  27.612  30.471  1.00  0.00     0.066 C 
BRANCH  12  13
ATOM     13  C   UNL     1       1.444  27.847  29.754  1.00  0.00     0.140 C 
ATOM     14  O   UNL     1       1.536  27.524  28.578  1.00  0.00    -0.299 OA
BRANCH  13  15
ATOM     15  C   UNL     1       2.610  28.553  30.406  1.00  0.00     0.106 CG0
ATOM     16  G   UNL     1       2.544  30.063  30.230  1.00  0.00     0.000 G0
ENDBRANCH  13  15
ENDBRANCH  12  13
BRANCH  12  17
ATOM     17  C   UNL     1      -1.011  27.147  29.492  1.00  0.00    -0.006 C 
ATOM     18  C   UNL     1      -1.579  28.258  28.591  1.00  0.00     0.008 C 
ATOM     19  C   UNL     1      -2.164  26.472  30.256  1.00  0.00     0.008 C 
ENDBRANCH  12  17
ENDBRANCH  11  12
ENDBRANCH   1  11
TORSDOF 1
ENDMDL
MODEL 3
REMARK VINA RESULT:    -3.891      2.243      3.046
REMARK INTER + INTRA:          -5.929
REMARK INTER:                  -5.746
REMARK INTRA:                  -0.183
REMARK UNBOUND:                 0.010
REMARK SMILES CC1=CCC[C@H](C)C(=O)C[C@@H](C(C)C)C(=O)C1
REMARK SMILES IDX 8 1 9 2 6 3 7 4 5 5 4 6 3 7 2 8 1 9 10 11 11 12 15 13 16 14
REMARK SMILES IDX 17 15 12 17 13 18 14 19
REMARK H PARENT
REMARK Flexibility Score: 70.00
ROOT
ATOM      1  C   UNL     1       2.931  30.212  29.977  1.00  0.00     0.136 C 
ATOM      2  O   UNL     1       3.486  29.187  29.603  1.00  0.00    -0.299 OA
ENDROOT
BRANCH   1   3
ATOM      3  C   UNL     1       2.784  31.381  29.020  1.00  0.00     0.053 C 
ATOM      4  C   UNL     1       4.142  31.771  28.415  1.00  0.00     0.016 C 
BRANCH   3   5
ATOM      5  C   UNL     1       1.760  31.042  27.909  1.00  0.00     0.015 C 
BRANCH   5   6
ATOM      6  C   UNL     1       0.306  31.110  28.413  1.00  0.00     0.028 C 
BRANCH   6   7
ATOM      7  C   UNL     1      -0.338  29.747  28.415  1.00  0.00    -0.028 C 
ATOM      8  C   UNL     1      -0.667  29.052  29.529  1.00  0.00    -0.070 CG0
ATOM      9  C   UNL     1      -1.259  27.676  29.357  1.00  0.00     0.039 C 
ATOM     10  G   UNL     1      -0.470  29.596  30.936  1.00  0.00     0.000 G0
ENDBRANCH   6   7
ENDBRANCH   5   6
ENDBRANCH   3   5
ENDBRANCH   1   3
BRANCH   1  11
ATOM     11  C   UNL     1       2.376  30.272  31.382  1.00  0.00     0.087 C 
BRANCH  11  12
ATOM     12  C   UNL     1       1.921  28.877  31.883  1.00  0.00     0.066 C 
BRANCH  12  13
ATOM     13  C   UNL     1       0.411  28.690  31.792  1.00  0.00     0.140 C 
ATOM     14  O   UNL     1      -0.114  27.840  32.498  1.00  0.00    -0.299 OA
BRANCH  13  15
ATOM     15  C   UNL     1      -0.472  29.575  30.945  1.00  0.00     0.106 CG0
ATOM     16  G   UNL     1      -0.655  29.030  29.536  1.00  0.00     0.000 G0
ENDBRANCH  13  15
ENDBRANCH  12  13
BRANCH  12  17
ATOM     17  C   UNL     1       2.485  28.482  33.289  1.00  0.00    -0.006 C 
ATOM     18  C   UNL     1       2.340  29.569  34.370  1.00  0.00     0.008 C 
ATOM     19  C   UNL     1       3.960  28.052  33.195  1.00  0.00     0.008 C 
ENDBRANCH  12  17
ENDBRANCH  11  12
ENDBRANCH   1  11
TORSDOF 1
ENDMDL
MODEL 4
REMARK VINA RESULT:    -3.867      1.821      4.163
REMARK INTER + INTRA:          -5.891
REMARK INTER:                  -6.006
REMARK INTRA:                   0.115
REMARK UNBOUND:                 0.010
REMARK SMILES CC1=CCC[C@H](C)C(=O)C[C@@H](C(C)C)C(=O)C1
REMARK SMILES IDX 8 1 9 2 6 3 7 4 5 5 4 6 3 7 2 8 1 9 10 11 11 12 15 13 16 14
REMARK SMILES IDX 17 15 12 17 13 18 14 19
REMARK H PARENT
REMARK Flexibility Score: 70.00
ROOT
ATOM      1  C   UNL     1       2.563  29.470  31.657  1.00  0.00     0.136 C 
ATOM      2  O   UNL     1       2.638  30.460  30.941  1.00  0.00    -0.299 OA
ENDROOT
BRANCH   1   3
ATOM      3  C   UNL     1       1.996  29.595  33.060  1.00  0.00     0.053 C 
ATOM      4  C   UNL     1       1.943  31.066  33.503  1.00  0.00     0.016 C 
BRANCH   3   5
ATOM      5  C   UNL     1       0.593  28.943  33.133  1.00  0.00     0.015 C 
BRANCH   5   6
ATOM      6  C   UNL     1      -0.236  29.198  31.860  1.00  0.00     0.028 C 
BRANCH   6   7
ATOM      7  C   UNL     1      -1.025  27.975  31.467  1.00  0.00    -0.028 C 
ATOM      8  C   UNL     1      -0.926  27.345  30.273  1.00  0.00    -0.070 CG0
ATOM      9  C   UNL     1      -1.826  26.162  30.018  1.00  0.00     0.039 C 
ATOM     10  G   UNL     1       0.048  27.775  29.187  1.00  0.00     0.000 G0
ENDBRANCH   6   7
ENDBRANCH   5   6
ENDBRANCH   3   5
ENDBRANCH   1   3
BRANCH   1  11
ATOM     11  C   UNL     1       3.013  28.135  31.108  1.00  0.00     0.087 C 
BRANCH  11  12
ATOM     12  C   UNL     1       2.688  27.992  29.599  1.00  0.00     0.066 C 
BRANCH  12  13
ATOM     13  C   UNL     1       1.435  27.161  29.349  1.00  0.00     0.140 C 
ATOM     14  O   UNL     1       1.529  25.942  29.375  1.00  0.00    -0.299 OA
BRANCH  13  15
ATOM     15  C   UNL     1       0.068  27.779  29.173  1.00  0.00     0.106 CG0
ATOM     16  G   UNL     1      -0.908  27.344  30.256  1.00  0.00     0.000 G0
ENDBRANCH  13  15
ENDBRANCH  12  13
BRANCH  12  17
ATOM     17  C   UNL     1       3.896  27.524  28.720  1.00  0.00    -0.006 C 
ATOM     18  C   UNL     1       4.977  26.735  29.481  1.00  0.00     0.008 C 
ATOM     19  C   UNL     1       4.550  28.714  27.996  1.00  0.00     0.008 C 
ENDBRANCH  12  17
ENDBRANCH  11  12
ENDBRANCH   1  11
TORSDOF 1
ENDMDL
MODEL 5
REMARK VINA RESULT:    -3.844      1.490      3.761
REMARK INTER + INTRA:          -5.856
REMARK INTER:                  -5.945
REMARK INTRA:                   0.089
REMARK UNBOUND:                 0.010
REMARK SMILES CC1=CCC[C@H](C)C(=O)C[C@@H](C(C)C)C(=O)C1
REMARK SMILES IDX 8 1 9 2 6 3 7 4 5 5 4 6 3 7 2 8 1 9 10 11 11 12 15 13 16 14
REMARK SMILES IDX 17 15 12 17 13 18 14 19
REMARK H PARENT
REMARK Flexibility Score: 70.00
ROOT
ATOM      1  C   UNL     1       0.003  28.976  30.205  1.00  0.00     0.136 C 
ATOM      2  O   UNL     1      -0.280  30.166  30.246  1.00  0.00    -0.299 OA
ENDROOT
BRANCH   1   3
ATOM      3  C   UNL     1      -0.211  28.194  28.922  1.00  0.00     0.053 C 
ATOM      4  C   UNL     1       0.439  28.908  27.726  1.00  0.00     0.016 C 
BRANCH   3   5
ATOM      5  C   UNL     1       0.338  26.754  29.072  1.00  0.00     0.015 C 
BRANCH   5   6
ATOM      6  C   UNL     1       1.606  26.521  28.228  1.00  0.00     0.028 C 
BRANCH   6   7
ATOM      7  C   UNL     1       2.637  25.733  28.995  1.00  0.00    -0.028 C 
ATOM      8  C   UNL     1       3.539  26.270  29.848  1.00  0.00    -0.070 CG0
ATOM      9  C   UNL     1       4.539  25.347  30.498  1.00  0.00     0.039 C 
ATOM     10  G   UNL     1       3.587  27.754  30.180  1.00  0.00     0.000 G0
ENDBRANCH   6   7
ENDBRANCH   5   6
ENDBRANCH   3   5
ENDBRANCH   1   3
BRANCH   1  11
ATOM     11  C   UNL     1       0.592  28.322  31.434  1.00  0.00     0.087 C 
BRANCH  11  12
ATOM     12  C   UNL     1       1.935  28.977  31.850  1.00  0.00     0.066 C 
BRANCH  12  13
ATOM     13  C   UNL     1       3.131  28.073  31.578  1.00  0.00     0.140 C 
ATOM     14  O   UNL     1       3.667  27.514  32.524  1.00  0.00    -0.299 OA
BRANCH  13  15
ATOM     15  C   UNL     1       3.618  27.761  30.182  1.00  0.00     0.106 CG0
ATOM     16  G   UNL     1       3.540  26.276  29.861  1.00  0.00     0.000 G0
ENDBRANCH  13  15
ENDBRANCH  12  13
BRANCH  12  17
ATOM     17  C   UNL     1       1.947  29.557  33.304  1.00  0.00    -0.006 C 
ATOM     18  C   UNL     1       0.799  29.063  34.204  1.00  0.00     0.008 C 
ATOM     19  C   UNL     1       1.955  31.096  33.288  1.00  0.00     0.008 C 
ENDBRANCH  12  17
ENDBRANCH  11  12
ENDBRANCH   1  11
TORSDOF 1
ENDMDL
MODEL 6
REMARK VINA RESULT:    -3.800      2.519      4.010
REMARK INTER + INTRA:          -5.789
REMARK INTER:                  -5.574
REMARK INTRA:                  -0.215
REMARK UNBOUND:                 0.010
REMARK SMILES CC1=CCC[C@H](C)C(=O)C[C@@H](C(C)C)C(=O)C1
REMARK SMILES IDX 8 1 9 2 6 3 7 4 5 5 4 6 3 7 2 8 1 9 10 11 11 12 15 13 16 14
REMARK SMILES IDX 17 15 12 17 13 18 14 19
REMARK H PARENT
REMARK Flexibility Score: 70.00
ROOT
ATOM      1  C   UNL     1      -0.188  28.417  30.921  1.00  0.00     0.136 C 
ATOM      2  O   UNL     1      -0.746  29.024  31.826  1.00  0.00    -0.299 OA
ENDROOT
BRANCH   1   3
ATOM      3  C   UNL     1      -1.011  27.591  29.949  1.00  0.00     0.053 C 
ATOM      4  C   UNL     1      -2.236  26.979  30.646  1.00  0.00     0.016 C 
BRANCH   3   5
ATOM      5  C   UNL     1      -1.437  28.454  28.736  1.00  0.00     0.015 C 
BRANCH   5   6
ATOM      6  C   UNL     1      -0.316  28.583  27.687  1.00  0.00     0.028 C 
BRANCH   6   7
ATOM      7  C   UNL     1      -0.050  30.027  27.345  1.00  0.00    -0.028 C 
ATOM      8  C   UNL     1       1.073  30.704  27.682  1.00  0.00    -0.070 CG0
ATOM      9  C   UNL     1       1.161  32.162  27.307  1.00  0.00     0.039 C 
ATOM     10  G   UNL     1       2.241  30.062  28.414  1.00  0.00     0.000 G0
ENDBRANCH   6   7
ENDBRANCH   5   6
ENDBRANCH   3   5
ENDBRANCH   1   3
BRANCH   1  11
ATOM     11  C   UNL     1       1.312  28.536  30.777  1.00  0.00     0.087 C 
BRANCH  11  12
ATOM     12  C   UNL     1       1.805  29.982  31.039  1.00  0.00     0.066 C 
BRANCH  12  13
ATOM     13  C   UNL     1       2.461  30.605  29.812  1.00  0.00     0.140 C 
ATOM     14  O   UNL     1       3.236  31.536  29.975  1.00  0.00    -0.299 OA
BRANCH  13  15
ATOM     15  C   UNL     1       2.271  30.055  28.418  1.00  0.00     0.106 CG0
ATOM     16  G   UNL     1       1.090  30.692  27.701  1.00  0.00     0.000 G0
ENDBRANCH  13  15
ENDBRANCH  12  13
BRANCH  12  17
ATOM     17  C   UNL     1       2.681  30.142  32.327  1.00  0.00    -0.006 C 
ATOM     18  C   UNL     1       3.148  28.817  32.956  1.00  0.00     0.008 C 
ATOM     19  C   UNL     1       1.954  30.983  33.392  1.00  0.00     0.008 C 
ENDBRANCH  12  17
ENDBRANCH  11  12
ENDBRANCH   1  11
TORSDOF 1
ENDMDL
MODEL 7
REMARK VINA RESULT:    -3.782      1.795      4.425
REMARK INTER + INTRA:          -5.761
REMARK INTER:                  -5.743
REMARK INTRA:                  -0.018
REMARK UNBOUND:                 0.010
REMARK SMILES CC1=CCC[C@H](C)C(=O)C[C@@H](C(C)C)C(=O)C1
REMARK SMILES IDX 8 1 9 2 6 3 7 4 5 5 4 6 3 7 2 8 1 9 10 11 11 12 15 13 16 14
REMARK SMILES IDX 17 15 12 17 13 18 14 19
REMARK H PARENT
REMARK Flexibility Score: 70.00
ROOT
ATOM      1  C   UNL     1      -0.267  28.320  32.360  1.00  0.00     0.136 C 
ATOM      2  O   UNL     1      -0.493  27.412  33.150  1.00  0.00    -0.299 OA
ENDROOT
BRANCH   1   3
ATOM      3  C   UNL     1       0.738  29.399  32.720  1.00  0.00     0.053 C 
ATOM      4  C   UNL     1       0.539  29.876  34.168  1.00  0.00     0.016 C 
BRANCH   3   5
ATOM      5  C   UNL     1       2.182  28.885  32.500  1.00  0.00     0.015 C 
BRANCH   5   6
ATOM      6  C   UNL     1       2.736  29.273  31.116  1.00  0.00     0.028 C 
BRANCH   6   7
ATOM      7  C   UNL     1       3.209  28.060  30.356  1.00  0.00    -0.028 C 
ATOM      8  C   UNL     1       2.477  27.397  29.431  1.00  0.00    -0.070 CG0
ATOM      9  C   UNL     1       3.080  26.168  28.798  1.00  0.00     0.039 C 
ATOM     10  G   UNL     1       1.085  27.835  29.004  1.00  0.00     0.000 G0
ENDBRANCH   6   7
ENDBRANCH   5   6
ENDBRANCH   3   5
ENDBRANCH   1   3
BRANCH   1  11
ATOM     11  C   UNL     1      -0.979  28.322  31.027  1.00  0.00     0.087 C 
BRANCH  11  12
ATOM     12  C   UNL     1      -1.001  26.913  30.381  1.00  0.00     0.066 C 
BRANCH  12  13
ATOM     13  C   UNL     1       0.035  26.763  29.273  1.00  0.00     0.140 C 
ATOM     14  O   UNL     1      -0.031  25.785  28.542  1.00  0.00    -0.299 OA
BRANCH  13  15
ATOM     15  C   UNL     1       1.073  27.820  28.978  1.00  0.00     0.106 CG0
ATOM     16  G   UNL     1       2.465  27.406  29.431  1.00  0.00     0.000 G0
ENDBRANCH  13  15
ENDBRANCH  12  13
BRANCH  12  17
ATOM     17  C   UNL     1      -2.422  26.430  29.936  1.00  0.00    -0.006 C 
ATOM     18  C   UNL     1      -3.127  27.352  28.924  1.00  0.00     0.008 C 
ATOM     19  C   UNL     1      -3.340  26.210  31.151  1.00  0.00     0.008 C 
ENDBRANCH  12  17
ENDBRANCH  11  12
ENDBRANCH   1  11
TORSDOF 1
ENDMDL
MODEL 8
REMARK VINA RESULT:    -3.691      1.732      4.179
REMARK INTER + INTRA:          -5.622
REMARK INTER:                  -5.605
REMARK INTRA:                  -0.017
REMARK UNBOUND:                 0.010
REMARK SMILES CC1=CCC[C@H](C)C(=O)C[C@@H](C(C)C)C(=O)C1
REMARK SMILES IDX 8 1 9 2 6 3 7 4 5 5 4 6 3 7 2 8 1 9 10 11 11 12 15 13 16 14
REMARK SMILES IDX 17 15 12 17 13 18 14 19
REMARK H PARENT
REMARK Flexibility Score: 70.00
ROOT
ATOM      1  C   UNL     1       3.441  28.086  32.769  1.00  0.00     0.136 C 
ATOM      2  O   UNL     1       4.427  28.436  33.405  1.00  0.00    -0.299 OA
ENDROOT
BRANCH   1   3
ATOM      3  C   UNL     1       2.111  28.780  32.998  1.00  0.00     0.053 C 
ATOM      4  C   UNL     1       1.512  28.387  34.358  1.00  0.00     0.016 C 
BRANCH   3   5
ATOM      5  C   UNL     1       2.280  30.315  32.890  1.00  0.00     0.015 C 
BRANCH   5   6
ATOM      6  C   UNL     1       2.332  30.796  31.427  1.00  0.00     0.028 C 
BRANCH   6   7
ATOM      7  C   UNL     1       1.023  30.548  30.722  1.00  0.00    -0.028 C 
ATOM      8  C   UNL     1       0.879  29.795  29.607  1.00  0.00    -0.070 CG0
ATOM      9  C   UNL     1      -0.495  29.690  28.995  1.00  0.00     0.039 C 
ATOM     10  G   UNL     1       2.035  29.055  28.951  1.00  0.00     0.000 G0
ENDBRANCH   6   7
ENDBRANCH   5   6
ENDBRANCH   3   5
ENDBRANCH   1   3
BRANCH   1  11
ATOM     11  C   UNL     1       3.586  26.984  31.745  1.00  0.00     0.087 C 
BRANCH  11  12
ATOM     12  C   UNL     1       3.735  27.546  30.308  1.00  0.00     0.066 C 
BRANCH  12  13
ATOM     13  C   UNL     1       2.390  27.767  29.626  1.00  0.00     0.140 C 
ATOM     14  O   UNL     1       1.537  26.896  29.725  1.00  0.00    -0.299 OA
BRANCH  13  15
ATOM     15  C   UNL     1       2.033  29.055  28.923  1.00  0.00     0.106 CG0
ATOM     16  G   UNL     1       0.892  29.792  29.610  1.00  0.00     0.000 G0
ENDBRANCH  13  15
ENDBRANCH  12  13
BRANCH  12  17
ATOM     17  C   UNL     1       4.736  26.750  29.404  1.00  0.00    -0.006 C 
ATOM     18  C   UNL     1       5.888  26.070  30.165  1.00  0.00     0.008 C 
ATOM     19  C   UNL     1       5.316  27.645  28.295  1.00  0.00     0.008 C 
ENDBRANCH  12  17
ENDBRANCH  11  12
ENDBRANCH   1  11
TORSDOF 1
ENDMDL
MODEL 9
REMARK VINA RESULT:    -3.632      2.143      4.598
REMARK INTER + INTRA:          -5.533
REMARK INTER:                  -5.663
REMARK INTRA:                   0.130
REMARK UNBOUND:                 0.010
REMARK SMILES CC1=CCC[C@H](C)C(=O)C[C@@H](C(C)C)C(=O)C1
REMARK SMILES IDX 8 1 9 2 6 3 7 4 5 5 4 6 3 7 2 8 1 9 10 11 11 12 15 13 16 14
REMARK SMILES IDX 17 15 12 17 13 18 14 19
REMARK H PARENT
REMARK Flexibility Score: 70.00
ROOT
ATOM      1  C   UNL     1       0.834  28.903  32.099  1.00  0.00     0.136 C 
ATOM      2  O   UNL     1       0.082  27.982  31.805  1.00  0.00    -0.299 OA
ENDROOT
BRANCH   1   3
ATOM      3  C   UNL     1       1.271  29.088  33.541  1.00  0.00     0.053 C 
ATOM      4  C   UNL     1       0.089  28.892  34.504  1.00  0.00     0.016 C 
BRANCH   3   5
ATOM      5  C   UNL     1       2.429  28.118  33.881  1.00  0.00     0.015 C 
BRANCH   5   6
ATOM      6  C   UNL     1       3.661  28.340  32.982  1.00  0.00     0.028 C 
BRANCH   6   7
ATOM      7  C   UNL     1       3.929  27.137  32.114  1.00  0.00    -0.028 C 
ATOM      8  C   UNL     1       3.913  27.144  30.761  1.00  0.00    -0.070 CG0
ATOM      9  C   UNL     1       4.152  25.841  30.042  1.00  0.00     0.039 C 
ATOM     10  G   UNL     1       3.668  28.402  29.940  1.00  0.00     0.000 G0
ENDBRANCH   6   7
ENDBRANCH   5   6
ENDBRANCH   3   5
ENDBRANCH   1   3
BRANCH   1  11
ATOM     11  C   UNL     1       1.334  29.817  31.004  1.00  0.00     0.087 C 
BRANCH  11  12
ATOM     12  C   UNL     1       1.158  29.184  29.599  1.00  0.00     0.066 C 
BRANCH  12  13
ATOM     13  C   UNL     1       2.385  28.395  29.158  1.00  0.00     0.140 C 
ATOM     14  O   UNL     1       2.339  27.792  28.095  1.00  0.00    -0.299 OA
BRANCH  13  15
ATOM     15  C   UNL     1       3.684  28.408  29.928  1.00  0.00     0.106 CG0
ATOM     16  G   UNL     1       3.884  27.143  30.748  1.00  0.00     0.000 G0
ENDBRANCH  13  15
ENDBRANCH  12  13
BRANCH  12  17
ATOM     17  C   UNL     1       0.668  30.184  28.498  1.00  0.00    -0.006 C 
ATOM     18  C   UNL     1       1.784  31.022  27.847  1.00  0.00     0.008 C 
ATOM     19  C   UNL     1      -0.421  31.124  29.046  1.00  0.00     0.008 C 
ENDBRANCH  12  17
ENDBRANCH  11  12
ENDBRANCH   1  11
TORSDOF 1
ENDMDL
