MODEL 1
REMARK VINA RESULT:    -4.953      0.000      0.000
REMARK INTER + INTRA:          -6.367
REMARK INTER:                  -6.111
REMARK INTRA:                  -0.256
REMARK UNBOUND:                -0.256
REMARK SMILES C=CC[C@H](C)C(=O)CC
REMARK SMILES IDX 4 1 5 2 6 3 7 4 8 5 9 6 3 7 2 8 1 9
REMARK H PARENT
REMARK Flexibility Score: inf
ROOT
ATOM      1  C   UNL     1      32.276   7.057 107.956  1.00  0.00     0.057 C 
ATOM      2  C   UNL     1      31.667   7.775 109.169  1.00  0.00     0.016 C 
ENDROOT
BRANCH   1   3
ATOM      3  C   UNL     1      31.602   7.532 106.686  1.00  0.00     0.135 C 
ATOM      4  O   UNL     1      31.744   8.692 106.323  1.00  0.00    -0.299 OA
BRANCH   3   5
ATOM      5  C   UNL     1      30.747   6.606 105.862  1.00  0.00     0.072 C 
ATOM      6  C   UNL     1      30.460   7.211 104.492  1.00  0.00     0.012 C 
ENDBRANCH   3   5
ENDBRANCH   1   3
BRANCH   1   7
ATOM      7  C   UNL     1      32.151   5.524 108.076  1.00  0.00     0.038 C 
BRANCH   7   8
ATOM      8  C   UNL     1      33.414   4.811 107.668  1.00  0.00    -0.034 C 
ATOM      9  C   UNL     1      33.393   3.758 106.846  1.00  0.00     0.004 C 
ENDBRANCH   7   8
ENDBRANCH   1   7
TORSDOF 4
ENDMDL
MODEL 2
REMARK VINA RESULT:    -4.916      1.258      2.576
REMARK INTER + INTRA:          -6.322
REMARK INTER:                  -6.001
REMARK INTRA:                  -0.322
REMARK UNBOUND:                -0.256
REMARK SMILES C=CC[C@H](C)C(=O)CC
REMARK SMILES IDX 4 1 5 2 6 3 7 4 8 5 9 6 3 7 2 8 1 9
REMARK H PARENT
REMARK Flexibility Score: inf
ROOT
ATOM      1  C   UNL     1      31.355   6.558 107.354  1.00  0.00     0.057 C 
ATOM      2  C   UNL     1      30.981   6.125 105.930  1.00  0.00     0.016 C 
ENDROOT
BRANCH   1   3
ATOM      3  C   UNL     1      32.157   7.842 107.307  1.00  0.00     0.135 C 
ATOM      4  O   UNL     1      31.875   8.701 106.483  1.00  0.00    -0.299 OA
BRANCH   3   5
ATOM      5  C   UNL     1      33.306   8.080 108.250  1.00  0.00     0.072 C 
ATOM      6  C   UNL     1      34.405   8.888 107.570  1.00  0.00     0.012 C 
ENDBRANCH   3   5
ENDBRANCH   1   3
BRANCH   1   7
ATOM      7  C   UNL     1      32.155   5.465 108.093  1.00  0.00     0.038 C 
BRANCH   7   8
ATOM      8  C   UNL     1      32.583   4.348 107.175  1.00  0.00    -0.034 C 
ATOM      9  C   UNL     1      33.853   3.941 107.108  1.00  0.00     0.004 C 
ENDBRANCH   7   8
ENDBRANCH   1   7
TORSDOF 4
ENDMDL
MODEL 3
REMARK VINA RESULT:    -4.903      1.620      3.665
REMARK INTER + INTRA:          -6.306
REMARK INTER:                  -6.046
REMARK INTRA:                  -0.259
REMARK UNBOUND:                -0.256
REMARK SMILES C=CC[C@H](C)C(=O)CC
REMARK SMILES IDX 4 1 5 2 6 3 7 4 8 5 9 6 3 7 2 8 1 9
REMARK H PARENT
REMARK Flexibility Score: inf
ROOT
ATOM      1  C   UNL     1      31.445   6.834 107.547  1.00  0.00     0.057 C 
ATOM      2  C   UNL     1      32.216   8.147 107.352  1.00  0.00     0.016 C 
ENDROOT
BRANCH   1   3
ATOM      3  C   UNL     1      32.394   5.742 107.997  1.00  0.00     0.135 C 
ATOM      4  O   UNL     1      33.267   5.999 108.815  1.00  0.00    -0.299 OA
BRANCH   3   5
ATOM      5  C   UNL     1      32.293   4.345 107.447  1.00  0.00     0.072 C 
ATOM      6  C   UNL     1      33.661   3.837 107.006  1.00  0.00     0.012 C 
ENDBRANCH   3   5
ENDBRANCH   1   3
BRANCH   1   7
ATOM      7  C   UNL     1      30.718   6.400 106.257  1.00  0.00     0.038 C 
BRANCH   7   8
ATOM      8  C   UNL     1      30.683   7.496 105.223  1.00  0.00    -0.034 C 
ATOM      9  C   UNL     1      30.295   7.264 103.965  1.00  0.00     0.004 C 
ENDBRANCH   7   8
ENDBRANCH   1   7
TORSDOF 4
ENDMDL
MODEL 4
REMARK VINA RESULT:    -4.744      1.726      2.833
REMARK INTER + INTRA:          -6.110
REMARK INTER:                  -5.699
REMARK INTRA:                  -0.411
REMARK UNBOUND:                -0.256
REMARK SMILES C=CC[C@H](C)C(=O)CC
REMARK SMILES IDX 4 1 5 2 6 3 7 4 8 5 9 6 3 7 2 8 1 9
REMARK H PARENT
REMARK Flexibility Score: inf
ROOT
ATOM      1  C   UNL     1      31.999   4.726 107.512  1.00  0.00     0.057 C 
ATOM      2  C   UNL     1      33.352   4.085 107.174  1.00  0.00     0.016 C 
ENDROOT
BRANCH   1   3
ATOM      3  C   UNL     1      31.374   5.299 106.257  1.00  0.00     0.135 C 
ATOM      4  O   UNL     1      31.612   4.784 105.173  1.00  0.00    -0.299 OA
BRANCH   3   5
ATOM      5  C   UNL     1      30.470   6.501 106.315  1.00  0.00     0.072 C 
ATOM      6  C   UNL     1      30.696   7.406 105.108  1.00  0.00     0.012 C 
ENDBRANCH   3   5
ENDBRANCH   1   3
BRANCH   1   7
ATOM      7  C   UNL     1      32.139   5.829 108.581  1.00  0.00     0.038 C 
BRANCH   7   8
ATOM      8  C   UNL     1      33.403   6.633 108.414  1.00  0.00    -0.034 C 
ATOM      9  C   UNL     1      33.373   7.946 108.164  1.00  0.00     0.004 C 
ENDBRANCH   7   8
ENDBRANCH   1   7
TORSDOF 4
ENDMDL
MODEL 5
REMARK VINA RESULT:    -4.545      1.555      3.723
REMARK INTER + INTRA:          -5.864
REMARK INTER:                  -5.521
REMARK INTRA:                  -0.342
REMARK UNBOUND:                -0.256
REMARK SMILES C=CC[C@H](C)C(=O)CC
REMARK SMILES IDX 4 1 5 2 6 3 7 4 8 5 9 6 3 7 2 8 1 9
REMARK H PARENT
REMARK Flexibility Score: inf
ROOT
ATOM      1  C   UNL     1      31.920   6.050 107.026  1.00  0.00     0.057 C 
ATOM      2  C   UNL     1      32.096   4.577 107.419  1.00  0.00     0.016 C 
ENDROOT
BRANCH   1   3
ATOM      3  C   UNL     1      32.087   6.931 108.247  1.00  0.00     0.135 C 
ATOM      4  O   UNL     1      31.097   7.312 108.858  1.00  0.00    -0.299 OA
BRANCH   3   5
ATOM      5  C   UNL     1      33.450   7.359 108.720  1.00  0.00     0.072 C 
ATOM      6  C   UNL     1      33.997   8.484 107.848  1.00  0.00     0.012 C 
ENDBRANCH   3   5
ENDBRANCH   1   3
BRANCH   1   7
ATOM      7  C   UNL     1      30.545   6.308 106.375  1.00  0.00     0.038 C 
BRANCH   7   8
ATOM      8  C   UNL     1      30.652   7.136 105.120  1.00  0.00    -0.034 C 
ATOM      9  C   UNL     1      30.995   8.427 105.156  1.00  0.00     0.004 C 
ENDBRANCH   7   8
ENDBRANCH   1   7
TORSDOF 4
ENDMDL
MODEL 6
REMARK VINA RESULT:    -4.538      1.073      1.189
REMARK INTER + INTRA:          -5.856
REMARK INTER:                  -5.678
REMARK INTRA:                  -0.178
REMARK UNBOUND:                -0.256
REMARK SMILES C=CC[C@H](C)C(=O)CC
REMARK SMILES IDX 4 1 5 2 6 3 7 4 8 5 9 6 3 7 2 8 1 9
REMARK H PARENT
REMARK Flexibility Score: inf
ROOT
ATOM      1  C   UNL     1      32.234   6.946 108.015  1.00  0.00     0.057 C 
ATOM      2  C   UNL     1      31.632   7.728 109.191  1.00  0.00     0.016 C 
ENDROOT
BRANCH   1   3
ATOM      3  C   UNL     1      31.394   7.159 106.773  1.00  0.00     0.135 C 
ATOM      4  O   UNL     1      30.667   6.260 106.373  1.00  0.00    -0.299 OA
BRANCH   3   5
ATOM      5  C   UNL     1      31.443   8.457 106.012  1.00  0.00     0.072 C 
ATOM      6  C   UNL     1      30.675   8.342 104.699  1.00  0.00     0.012 C 
ENDBRANCH   3   5
ENDBRANCH   1   3
BRANCH   1   7
ATOM      7  C   UNL     1      32.341   5.438 108.325  1.00  0.00     0.038 C 
BRANCH   7   8
ATOM      8  C   UNL     1      33.538   4.801 107.668  1.00  0.00    -0.034 C 
ATOM      9  C   UNL     1      33.436   3.670 106.965  1.00  0.00     0.004 C 
ENDBRANCH   7   8
ENDBRANCH   1   7
TORSDOF 4
ENDMDL
MODEL 7
REMARK VINA RESULT:    -4.278      2.219      3.004
REMARK INTER + INTRA:          -5.534
REMARK INTER:                  -5.274
REMARK INTRA:                  -0.261
REMARK UNBOUND:                -0.256
REMARK SMILES C=CC[C@H](C)C(=O)CC
REMARK SMILES IDX 4 1 5 2 6 3 7 4 8 5 9 6 3 7 2 8 1 9
REMARK H PARENT
REMARK Flexibility Score: inf
ROOT
ATOM      1  C   UNL     1      32.112   7.688 107.922  1.00  0.00     0.057 C 
ATOM      2  C   UNL     1      31.385   8.112 109.206  1.00  0.00     0.016 C 
ENDROOT
BRANCH   1   3
ATOM      3  C   UNL     1      31.777   6.248 107.593  1.00  0.00     0.135 C 
ATOM      4  O   UNL     1      32.109   5.359 108.364  1.00  0.00    -0.299 OA
BRANCH   3   5
ATOM      5  C   UNL     1      31.051   5.887 106.325  1.00  0.00     0.072 C 
ATOM      6  C   UNL     1      30.735   7.135 105.508  1.00  0.00     0.012 C 
ENDBRANCH   3   5
ENDBRANCH   1   3
BRANCH   1   7
ATOM      7  C   UNL     1      33.641   7.858 108.048  1.00  0.00     0.038 C 
BRANCH   7   8
ATOM      8  C   UNL     1      34.149   9.059 107.292  1.00  0.00    -0.034 C 
ATOM      9  C   UNL     1      35.451   9.241 107.054  1.00  0.00     0.004 C 
ENDBRANCH   7   8
ENDBRANCH   1   7
TORSDOF 4
ENDMDL
MODEL 8
REMARK VINA RESULT:    -4.176      1.835      2.764
REMARK INTER + INTRA:          -5.409
REMARK INTER:                  -5.184
REMARK INTRA:                  -0.225
REMARK UNBOUND:                -0.256
REMARK SMILES C=CC[C@H](C)C(=O)CC
REMARK SMILES IDX 4 1 5 2 6 3 7 4 8 5 9 6 3 7 2 8 1 9
REMARK H PARENT
REMARK Flexibility Score: inf
ROOT
ATOM      1  C   UNL     1      32.118   7.163 107.832  1.00  0.00     0.057 C 
ATOM      2  C   UNL     1      31.407   7.602 109.120  1.00  0.00     0.016 C 
ENDROOT
BRANCH   1   3
ATOM      3  C   UNL     1      32.931   8.313 107.276  1.00  0.00     0.135 C 
ATOM      4  O   UNL     1      32.517   8.933 106.306  1.00  0.00    -0.299 OA
BRANCH   3   5
ATOM      5  C   UNL     1      34.250   8.703 107.887  1.00  0.00     0.072 C 
ATOM      6  C   UNL     1      35.097   9.487 106.891  1.00  0.00     0.012 C 
ENDBRANCH   3   5
ENDBRANCH   1   3
BRANCH   1   7
ATOM      7  C   UNL     1      31.117   6.662 106.769  1.00  0.00     0.038 C 
BRANCH   7   8
ATOM      8  C   UNL     1      31.343   5.218 106.404  1.00  0.00    -0.034 C 
ATOM      9  C   UNL     1      32.232   4.459 107.052  1.00  0.00     0.004 C 
ENDBRANCH   7   8
ENDBRANCH   1   7
TORSDOF 4
ENDMDL
MODEL 9
REMARK VINA RESULT:    -4.014      1.725      4.162
REMARK INTER + INTRA:          -5.208
REMARK INTER:                  -4.997
REMARK INTRA:                  -0.211
REMARK UNBOUND:                -0.256
REMARK SMILES C=CC[C@H](C)C(=O)CC
REMARK SMILES IDX 4 1 5 2 6 3 7 4 8 5 9 6 3 7 2 8 1 9
REMARK H PARENT
REMARK Flexibility Score: inf
ROOT
ATOM      1  C   UNL     1      31.827   6.997 106.570  1.00  0.00     0.057 C 
ATOM      2  C   UNL     1      30.648   6.424 105.770  1.00  0.00     0.016 C 
ENDROOT
BRANCH   1   3
ATOM      3  C   UNL     1      31.845   6.396 107.960  1.00  0.00     0.135 C 
ATOM      4  O   UNL     1      31.707   7.123 108.935  1.00  0.00    -0.299 OA
BRANCH   3   5
ATOM      5  C   UNL     1      32.041   4.919 108.168  1.00  0.00     0.072 C 
ATOM      6  C   UNL     1      33.304   4.436 107.464  1.00  0.00     0.012 C 
ENDBRANCH   3   5
ENDBRANCH   1   3
BRANCH   1   7
ATOM      7  C   UNL     1      31.760   8.536 106.662  1.00  0.00     0.038 C 
BRANCH   7   8
ATOM      8  C   UNL     1      31.348   9.172 105.359  1.00  0.00    -0.034 C 
ATOM      9  C   UNL     1      30.651  10.311 105.322  1.00  0.00     0.004 C 
ENDBRANCH   7   8
ENDBRANCH   1   7
TORSDOF 4
ENDMDL
