MODEL 1
REMARK VINA RESULT:    -4.400      0.000      0.000
REMARK INTER + INTRA:          -5.189
REMARK INTER:                  -4.914
REMARK INTRA:                  -0.275
REMARK UNBOUND:                -0.275
REMARK SMILES CC(=O)c1ccc(O)cc1O
REMARK SMILES IDX 4 1 10 2 9 3 7 4 6 5 5 6 2 7 1 8 3 9 11 10 8 12
REMARK H PARENT 11 11 8 13
REMARK Flexibility Score: inf
ROOT
ATOM      1  C   UNL     1      24.999  52.405   1.081  1.00  0.00     0.059 A 
ATOM      2  C   UNL     1      25.936  53.274   1.690  1.00  0.00     0.130 A 
ATOM      3  C   UNL     1      26.364  54.429   1.019  1.00  0.00     0.093 A 
ATOM      4  C   UNL     1      25.870  54.738  -0.250  1.00  0.00     0.119 A 
ATOM      5  C   UNL     1      24.942  53.888  -0.858  1.00  0.00     0.047 A 
ATOM      6  C   UNL     1      24.510  52.733  -0.202  1.00  0.00     0.019 A 
ENDROOT
BRANCH   1   7
ATOM      7  C   UNL     1      24.535  51.165   1.766  1.00  0.00     0.163 C 
ATOM      8  C   UNL     1      23.168  50.595   1.526  1.00  0.00     0.093 C 
ATOM      9  O   UNL     1      25.307  50.547   2.549  1.00  0.00    -0.294 OA
ENDBRANCH   1   7
BRANCH   2  10
ATOM     10  O   UNL     1      26.437  53.001   2.963  1.00  0.00    -0.507 OA
ATOM     11  H   UNL     1      27.270  52.439   3.099  1.00  0.00     0.293 HD
ENDBRANCH   2  10
BRANCH   4  12
ATOM     12  O   UNL     1      26.307  55.892  -0.897  1.00  0.00    -0.508 OA
ATOM     13  H   UNL     1      27.029  56.481  -0.497  1.00  0.00     0.293 HD
ENDBRANCH   4  12
TORSDOF 3
ENDMDL
MODEL 2
REMARK VINA RESULT:    -4.267      1.665      2.351
REMARK INTER + INTRA:          -5.041
REMARK INTER:                  -4.783
REMARK INTRA:                  -0.258
REMARK UNBOUND:                -0.275
REMARK SMILES CC(=O)c1ccc(O)cc1O
REMARK SMILES IDX 4 1 10 2 9 3 7 4 6 5 5 6 2 7 1 8 3 9 11 10 8 12
REMARK H PARENT 11 11 8 13
REMARK Flexibility Score: inf
ROOT
ATOM      1  C   UNL     1      24.964  52.570   0.911  1.00  0.00     0.059 A 
ATOM      2  C   UNL     1      24.767  53.085  -0.393  1.00  0.00     0.130 A 
ATOM      3  C   UNL     1      25.376  54.290  -0.773  1.00  0.00     0.093 A 
ATOM      4  C   UNL     1      26.184  54.991   0.124  1.00  0.00     0.119 A 
ATOM      5  C   UNL     1      26.387  54.489   1.413  1.00  0.00     0.047 A 
ATOM      6  C   UNL     1      25.784  53.292   1.804  1.00  0.00     0.019 A 
ENDROOT
BRANCH   1   7
ATOM      7  C   UNL     1      24.320  51.297   1.346  1.00  0.00     0.163 C 
ATOM      8  C   UNL     1      24.906  50.448   2.435  1.00  0.00     0.093 C 
ATOM      9  O   UNL     1      23.239  50.921   0.816  1.00  0.00    -0.294 OA
ENDBRANCH   1   7
BRANCH   2  10
ATOM     10  O   UNL     1      23.977  52.399  -1.317  1.00  0.00    -0.507 OA
ATOM     11  H   UNL     1      23.166  52.829  -1.748  1.00  0.00     0.293 HD
ENDBRANCH   2  10
BRANCH   4  12
ATOM     12  O   UNL     1      26.781  56.185  -0.276  1.00  0.00    -0.508 OA
ATOM     13  H   UNL     1      26.243  56.925  -0.712  1.00  0.00     0.293 HD
ENDBRANCH   4  12
TORSDOF 3
ENDMDL
MODEL 3
REMARK VINA RESULT:    -4.196      1.473      2.075
REMARK INTER + INTRA:          -4.962
REMARK INTER:                  -4.655
REMARK INTRA:                  -0.307
REMARK UNBOUND:                -0.275
REMARK SMILES CC(=O)c1ccc(O)cc1O
REMARK SMILES IDX 4 1 10 2 9 3 7 4 6 5 5 6 2 7 1 8 3 9 11 10 8 12
REMARK H PARENT 11 11 8 13
REMARK Flexibility Score: inf
ROOT
ATOM      1  C   UNL     1      23.429  51.387   0.979  1.00  0.00     0.059 A 
ATOM      2  C   UNL     1      24.670  51.657   1.607  1.00  0.00     0.130 A 
ATOM      3  C   UNL     1      25.608  52.491   0.980  1.00  0.00     0.093 A 
ATOM      4  C   UNL     1      25.329  53.067  -0.260  1.00  0.00     0.119 A 
ATOM      5  C   UNL     1      24.106  52.809  -0.886  1.00  0.00     0.047 A 
ATOM      6  C   UNL     1      23.165  51.978  -0.274  1.00  0.00     0.019 A 
ENDROOT
BRANCH   1   7
ATOM      7  C   UNL     1      22.418  50.495   1.616  1.00  0.00     0.163 C 
ATOM      8  C   UNL     1      20.993  50.925   1.803  1.00  0.00     0.093 C 
ATOM      9  O   UNL     1      22.741  49.335   1.989  1.00  0.00    -0.294 OA
ENDBRANCH   1   7
BRANCH   2  10
ATOM     10  O   UNL     1      24.970  51.107   2.853  1.00  0.00    -0.507 OA
ATOM     11  H   UNL     1      25.674  50.385   2.962  1.00  0.00     0.293 HD
ENDBRANCH   2  10
BRANCH   4  12
ATOM     12  O   UNL     1      26.275  53.894  -0.862  1.00  0.00    -0.508 OA
ATOM     13  H   UNL     1      26.326  53.995  -1.870  1.00  0.00     0.293 HD
ENDBRANCH   4  12
TORSDOF 3
ENDMDL
MODEL 4
REMARK VINA RESULT:    -4.186      1.827      4.031
REMARK INTER + INTRA:          -4.950
REMARK INTER:                  -4.721
REMARK INTRA:                  -0.229
REMARK UNBOUND:                -0.275
REMARK SMILES CC(=O)c1ccc(O)cc1O
REMARK SMILES IDX 4 1 10 2 9 3 7 4 6 5 5 6 2 7 1 8 3 9 11 10 8 12
REMARK H PARENT 11 11 8 13
REMARK Flexibility Score: inf
ROOT
ATOM      1  C   UNL     1      24.693  52.740   0.265  1.00  0.00     0.059 A 
ATOM      2  C   UNL     1      24.569  51.643   1.151  1.00  0.00     0.130 A 
ATOM      3  C   UNL     1      23.651  50.618   0.875  1.00  0.00     0.093 A 
ATOM      4  C   UNL     1      22.858  50.664  -0.272  1.00  0.00     0.119 A 
ATOM      5  C   UNL     1      22.976  51.742  -1.154  1.00  0.00     0.047 A 
ATOM      6  C   UNL     1      23.883  52.770  -0.890  1.00  0.00     0.019 A 
ENDROOT
BRANCH   1   7
ATOM      7  C   UNL     1      25.652  53.850   0.538  1.00  0.00     0.163 C 
ATOM      8  C   UNL     1      26.155  54.744  -0.556  1.00  0.00     0.093 C 
ATOM      9  O   UNL     1      26.040  54.076   1.716  1.00  0.00    -0.294 OA
ENDBRANCH   1   7
BRANCH   2  10
ATOM     10  O   UNL     1      25.359  51.561   2.298  1.00  0.00    -0.507 OA
ATOM     11  H   UNL     1      26.025  52.286   2.539  1.00  0.00     0.293 HD
ENDBRANCH   2  10
BRANCH   4  12
ATOM     12  O   UNL     1      21.955  49.633  -0.526  1.00  0.00    -0.508 OA
ATOM     13  H   UNL     1      21.923  49.167  -1.426  1.00  0.00     0.293 HD
ENDBRANCH   4  12
TORSDOF 3
ENDMDL
MODEL 5
REMARK VINA RESULT:    -4.132     11.532     12.874
REMARK INTER + INTRA:          -4.890
REMARK INTER:                  -4.603
REMARK INTRA:                  -0.287
REMARK UNBOUND:                -0.275
REMARK SMILES CC(=O)c1ccc(O)cc1O
REMARK SMILES IDX 4 1 10 2 9 3 7 4 6 5 5 6 2 7 1 8 3 9 11 10 8 12
REMARK H PARENT 11 11 8 13
REMARK Flexibility Score: inf
ROOT
ATOM      1  C   UNL     1      29.367  60.524   9.739  1.00  0.00     0.059 A 
ATOM      2  C   UNL     1      29.934  61.202   8.632  1.00  0.00     0.130 A 
ATOM      3  C   UNL     1      30.433  62.504   8.786  1.00  0.00     0.093 A 
ATOM      4  C   UNL     1      30.383  63.142  10.026  1.00  0.00     0.119 A 
ATOM      5  C   UNL     1      29.829  62.480  11.125  1.00  0.00     0.047 A 
ATOM      6  C   UNL     1      29.325  61.185  10.985  1.00  0.00     0.019 A 
ENDROOT
BRANCH   1   7
ATOM      7  C   UNL     1      28.818  59.144   9.603  1.00  0.00     0.163 C 
ATOM      8  C   UNL     1      28.927  58.139  10.710  1.00  0.00     0.093 C 
ATOM      9  O   UNL     1      28.218  58.802   8.547  1.00  0.00    -0.294 OA
ENDBRANCH   1   7
BRANCH   2  10
ATOM     10  O   UNL     1      30.011  60.584   7.383  1.00  0.00    -0.507 OA
ATOM     11  H   UNL     1      30.708  59.876   7.182  1.00  0.00     0.293 HD
ENDBRANCH   2  10
BRANCH   4  12
ATOM     12  O   UNL     1      30.887  64.435  10.155  1.00  0.00    -0.508 OA
ATOM     13  H   UNL     1      31.597  64.792   9.526  1.00  0.00     0.293 HD
ENDBRANCH   4  12
TORSDOF 3
ENDMDL
MODEL 6
REMARK VINA RESULT:    -4.100     13.707     15.336
REMARK INTER + INTRA:          -4.854
REMARK INTER:                  -4.633
REMARK INTRA:                  -0.222
REMARK UNBOUND:                -0.275
REMARK SMILES CC(=O)c1ccc(O)cc1O
REMARK SMILES IDX 4 1 10 2 9 3 7 4 6 5 5 6 2 7 1 8 3 9 11 10 8 12
REMARK H PARENT 11 11 8 13
REMARK Flexibility Score: inf
ROOT
ATOM      1  C   UNL     1      19.468  63.879  -8.037  1.00  0.00     0.059 A 
ATOM      2  C   UNL     1      20.847  63.867  -8.357  1.00  0.00     0.130 A 
ATOM      3  C   UNL     1      21.475  62.665  -8.714  1.00  0.00     0.093 A 
ATOM      4  C   UNL     1      20.752  61.472  -8.764  1.00  0.00     0.119 A 
ATOM      5  C   UNL     1      19.389  61.475  -8.454  1.00  0.00     0.047 A 
ATOM      6  C   UNL     1      18.752  62.664  -8.093  1.00  0.00     0.019 A 
ENDROOT
BRANCH   1   7
ATOM      7  C   UNL     1      18.776  65.139  -7.643  1.00  0.00     0.163 C 
ATOM      8  C   UNL     1      17.288  65.293  -7.759  1.00  0.00     0.093 C 
ATOM      9  O   UNL     1      19.437  66.104  -7.171  1.00  0.00    -0.294 OA
ENDBRANCH   1   7
BRANCH   2  10
ATOM     10  O   UNL     1      21.594  65.045  -8.330  1.00  0.00    -0.507 OA
ATOM     11  H   UNL     1      22.550  65.063  -7.993  1.00  0.00     0.293 HD
ENDBRANCH   2  10
BRANCH   4  12
ATOM     12  O   UNL     1      21.397  60.291  -9.124  1.00  0.00    -0.508 OA
ATOM     13  H   UNL     1      20.897  59.529  -9.568  1.00  0.00     0.293 HD
ENDBRANCH   4  12
TORSDOF 3
ENDMDL
MODEL 7
REMARK VINA RESULT:    -4.052      1.543      3.991
REMARK INTER + INTRA:          -4.800
REMARK INTER:                  -4.516
REMARK INTRA:                  -0.284
REMARK UNBOUND:                -0.275
REMARK SMILES CC(=O)c1ccc(O)cc1O
REMARK SMILES IDX 4 1 10 2 9 3 7 4 6 5 5 6 2 7 1 8 3 9 11 10 8 12
REMARK H PARENT 11 11 8 13
REMARK Flexibility Score: inf
ROOT
ATOM      1  C   UNL     1      25.179  53.382   0.024  1.00  0.00     0.059 A 
ATOM      2  C   UNL     1      25.275  52.480   1.112  1.00  0.00     0.130 A 
ATOM      3  C   UNL     1      24.399  51.388   1.198  1.00  0.00     0.093 A 
ATOM      4  C   UNL     1      23.432  51.173   0.215  1.00  0.00     0.119 A 
ATOM      5  C   UNL     1      23.332  52.056  -0.864  1.00  0.00     0.047 A 
ATOM      6  C   UNL     1      24.195  53.149  -0.960  1.00  0.00     0.019 A 
ENDROOT
BRANCH   1   7
ATOM      7  C   UNL     1      26.088  54.558  -0.088  1.00  0.00     0.163 C 
ATOM      8  C   UNL     1      26.555  55.071  -1.418  1.00  0.00     0.093 C 
ATOM      9  O   UNL     1      26.464  55.170   0.949  1.00  0.00    -0.294 OA
ENDBRANCH   1   7
BRANCH   2  10
ATOM     10  O   UNL     1      26.241  52.660   2.102  1.00  0.00    -0.507 OA
ATOM     11  H   UNL     1      26.581  51.886   2.662  1.00  0.00     0.293 HD
ENDBRANCH   2  10
BRANCH   4  12
ATOM     12  O   UNL     1      22.575  50.080   0.321  1.00  0.00    -0.508 OA
ATOM     13  H   UNL     1      22.570  49.488   1.144  1.00  0.00     0.293 HD
ENDBRANCH   4  12
TORSDOF 3
ENDMDL
MODEL 8
REMARK VINA RESULT:    -4.017     13.799     15.455
REMARK INTER + INTRA:          -4.761
REMARK INTER:                  -4.510
REMARK INTRA:                  -0.251
REMARK UNBOUND:                -0.275
REMARK SMILES CC(=O)c1ccc(O)cc1O
REMARK SMILES IDX 4 1 10 2 9 3 7 4 6 5 5 6 2 7 1 8 3 9 11 10 8 12
REMARK H PARENT 11 11 8 13
REMARK Flexibility Score: inf
ROOT
ATOM      1  C   UNL     1      19.914  63.175  -8.421  1.00  0.00     0.059 A 
ATOM      2  C   UNL     1      20.175  64.448  -7.859  1.00  0.00     0.130 A 
ATOM      3  C   UNL     1      19.112  65.291  -7.503  1.00  0.00     0.093 A 
ATOM      4  C   UNL     1      17.789  64.885  -7.692  1.00  0.00     0.119 A 
ATOM      5  C   UNL     1      17.522  63.629  -8.243  1.00  0.00     0.047 A 
ATOM      6  C   UNL     1      18.572  62.781  -8.605  1.00  0.00     0.019 A 
ENDROOT
BRANCH   1   7
ATOM      7  C   UNL     1      21.024  62.263  -8.819  1.00  0.00     0.163 C 
ATOM      8  C   UNL     1      20.833  60.777  -8.905  1.00  0.00     0.093 C 
ATOM      9  O   UNL     1      22.154  62.734  -9.123  1.00  0.00    -0.294 OA
ENDBRANCH   1   7
BRANCH   2  10
ATOM     10  O   UNL     1      21.486  64.875  -7.643  1.00  0.00    -0.507 OA
ATOM     11  H   UNL     1      22.217  64.718  -8.328  1.00  0.00     0.293 HD
ENDBRANCH   2  10
BRANCH   4  12
ATOM     12  O   UNL     1      16.750  65.738  -7.329  1.00  0.00    -0.508 OA
ATOM     13  H   UNL     1      16.717  66.699  -7.650  1.00  0.00     0.293 HD
ENDBRANCH   4  12
TORSDOF 3
ENDMDL
MODEL 9
REMARK VINA RESULT:    -3.985      3.715      4.960
REMARK INTER + INTRA:          -4.726
REMARK INTER:                  -4.423
REMARK INTRA:                  -0.303
REMARK UNBOUND:                -0.275
REMARK SMILES CC(=O)c1ccc(O)cc1O
REMARK SMILES IDX 4 1 10 2 9 3 7 4 6 5 5 6 2 7 1 8 3 9 11 10 8 12
REMARK H PARENT 11 11 8 13
REMARK Flexibility Score: inf
ROOT
ATOM      1  C   UNL     1      22.699  50.823  -0.453  1.00  0.00     0.059 A 
ATOM      2  C   UNL     1      23.072  51.631  -1.554  1.00  0.00     0.130 A 
ATOM      3  C   UNL     1      22.710  51.256  -2.856  1.00  0.00     0.093 A 
ATOM      4  C   UNL     1      21.978  50.089  -3.082  1.00  0.00     0.119 A 
ATOM      5  C   UNL     1      21.602  49.287  -2.001  1.00  0.00     0.047 A 
ATOM      6  C   UNL     1      21.958  49.647  -0.700  1.00  0.00     0.019 A 
ENDROOT
BRANCH   1   7
ATOM      7  C   UNL     1      23.079  51.191   0.941  1.00  0.00     0.163 C 
ATOM      8  C   UNL     1      22.053  51.337   2.026  1.00  0.00     0.093 C 
ATOM      9  O   UNL     1      24.291  51.360   1.244  1.00  0.00    -0.294 OA
ENDBRANCH   1   7
BRANCH   2  10
ATOM     10  O   UNL     1      23.791  52.811  -1.359  1.00  0.00    -0.507 OA
ATOM     11  H   UNL     1      24.320  53.243  -2.109  1.00  0.00     0.293 HD
ENDBRANCH   2  10
BRANCH   4  12
ATOM     12  O   UNL     1      21.628  49.738  -4.384  1.00  0.00    -0.508 OA
ATOM     13  H   UNL     1      20.946  49.012  -4.572  1.00  0.00     0.293 HD
ENDBRANCH   4  12
TORSDOF 3
ENDMDL
