MODEL 1
REMARK VINA RESULT:    -4.447      0.000      0.000
REMARK INTER + INTRA:         -10.179
REMARK INTER:                  -8.347
REMARK INTRA:                  -1.831
REMARK UNBOUND:                -1.831
REMARK SMILES O=C([O-])CCCCCCCCCCCCCCC(=O)[O-]
REMARK SMILES IDX 10 1 9 2 8 3 7 4 6 5 5 6 4 7 2 8 1 9 3 10 11 11 12 12 13 13
REMARK SMILES IDX 14 14 15 15 16 16 17 17 18 18 19 19 20 20
REMARK H PARENT
REMARK Flexibility Score: inf
ROOT
ATOM      1  C   UNL     1      20.562  -6.004  42.782  1.00  0.00     0.000 C 
ENDROOT
BRANCH   1   2
ATOM      2  C   UNL     1      19.246  -5.232  42.601  1.00  0.00     0.000 C 
BRANCH   2   3
ATOM      3  C   UNL     1      19.253  -3.873  43.317  1.00  0.00     0.000 C 
BRANCH   3   4
ATOM      4  C   UNL     1      20.625  -3.535  43.929  1.00  0.00     0.000 C 
BRANCH   4   5
ATOM      5  C   UNL     1      20.614  -3.590  45.465  1.00  0.00     0.000 C 
BRANCH   5   6
ATOM      6  C   UNL     1      21.986  -3.961  46.053  1.00  0.00     0.006 C 
BRANCH   6   7
ATOM      7  C   UNL     1      22.108  -3.572  47.532  1.00  0.00     0.053 C 
BRANCH   7   8
ATOM      8  C   UNL     1      22.555  -2.152  47.696  1.00  0.00     0.041 C 
ATOM      9  O   UNL     1      23.152  -1.562  46.757  1.00  0.00    -0.550 OA
ATOM     10  O   UNL     1      22.345  -1.491  48.900  1.00  0.00    -0.550 OA
ENDBRANCH   7   8
ENDBRANCH   6   7
ENDBRANCH   5   6
ENDBRANCH   4   5
ENDBRANCH   3   4
ENDBRANCH   2   3
ENDBRANCH   1   2
BRANCH   1  11
ATOM     11  C   UNL     1      20.346  -7.268  43.623  1.00  0.00     0.000 C 
BRANCH  11  12
ATOM     12  C   UNL     1      18.882  -7.387  44.072  1.00  0.00     0.000 C 
BRANCH  12  13
ATOM     13  C   UNL     1      18.685  -7.032  45.554  1.00  0.00     0.000 C 
BRANCH  13  14
ATOM     14  C   UNL     1      19.999  -7.066  46.350  1.00  0.00     0.000 C 
BRANCH  14  15
ATOM     15  C   UNL     1      19.761  -6.681  47.816  1.00  0.00     0.000 C 
BRANCH  15  16
ATOM     16  C   UNL     1      20.708  -7.452  48.748  1.00  0.00     0.006 C 
BRANCH  16  17
ATOM     17  C   UNL     1      20.554  -7.026  50.213  1.00  0.00     0.053 C 
BRANCH  17  18
ATOM     18  C   UNL     1      21.880  -6.902  50.899  1.00  0.00     0.041 C 
ATOM     19  O   UNL     1      22.536  -7.933  51.201  1.00  0.00    -0.550 OA
ATOM     20  O   UNL     1      22.406  -5.645  51.173  1.00  0.00    -0.550 OA
ENDBRANCH  17  18
ENDBRANCH  16  17
ENDBRANCH  15  16
ENDBRANCH  14  15
ENDBRANCH  13  14
ENDBRANCH  12  13
ENDBRANCH  11  12
ENDBRANCH   1  11
TORSDOF 15
ENDMDL
MODEL 2
REMARK VINA RESULT:    -4.401      2.858      5.863
REMARK INTER + INTRA:         -10.091
REMARK INTER:                  -8.486
REMARK INTRA:                  -1.605
REMARK UNBOUND:                -1.831
REMARK SMILES O=C([O-])CCCCCCCCCCCCCCC(=O)[O-]
REMARK SMILES IDX 10 1 9 2 8 3 7 4 6 5 5 6 4 7 2 8 1 9 3 10 11 11 12 12 13 13
REMARK SMILES IDX 14 14 15 15 16 16 17 17 18 18 19 19 20 20
REMARK H PARENT
REMARK Flexibility Score: inf
ROOT
ATOM      1  C   UNL     1      20.969  -7.283  48.851  1.00  0.00     0.000 C 
ENDROOT
BRANCH   1   2
ATOM      2  C   UNL     1      20.822  -7.094  50.368  1.00  0.00     0.000 C 
BRANCH   2   3
ATOM      3  C   UNL     1      22.075  -7.535  51.143  1.00  0.00     0.000 C 
BRANCH   3   4
ATOM      4  C   UNL     1      23.241  -6.542  50.994  1.00  0.00     0.000 C 
BRANCH   4   5
ATOM      5  C   UNL     1      22.801  -5.083  51.196  1.00  0.00     0.000 C 
BRANCH   5   6
ATOM      6  C   UNL     1      23.180  -4.182  50.008  1.00  0.00     0.006 C 
BRANCH   6   7
ATOM      7  C   UNL     1      23.661  -2.797  50.461  1.00  0.00     0.053 C 
BRANCH   7   8
ATOM      8  C   UNL     1      22.725  -1.714  50.022  1.00  0.00     0.041 C 
ATOM      9  O   UNL     1      22.072  -1.056  50.874  1.00  0.00    -0.550 OA
ATOM     10  O   UNL     1      22.547  -1.454  48.669  1.00  0.00    -0.550 OA
ENDBRANCH   7   8
ENDBRANCH   6   7
ENDBRANCH   5   6
ENDBRANCH   4   5
ENDBRANCH   3   4
ENDBRANCH   2   3
ENDBRANCH   1   2
BRANCH   1  11
ATOM     11  C   UNL     1      19.856  -6.547  48.096  1.00  0.00     0.000 C 
BRANCH  11  12
ATOM     12  C   UNL     1      20.442  -5.531  47.105  1.00  0.00     0.000 C 
BRANCH  12  13
ATOM     13  C   UNL     1      21.908  -5.827  46.748  1.00  0.00     0.000 C 
BRANCH  13  14
ATOM     14  C   UNL     1      22.252  -5.452  45.299  1.00  0.00     0.000 C 
BRANCH  14  15
ATOM     15  C   UNL     1      20.987  -5.087  44.513  1.00  0.00     0.000 C 
BRANCH  15  16
ATOM     16  C   UNL     1      20.766  -6.060  43.344  1.00  0.00     0.006 C 
BRANCH  16  17
ATOM     17  C   UNL     1      19.954  -7.292  43.762  1.00  0.00     0.053 C 
BRANCH  17  18
ATOM     18  C   UNL     1      18.552  -6.930  44.148  1.00  0.00     0.041 C 
ATOM     19  O   UNL     1      18.048  -7.388  45.206  1.00  0.00    -0.550 OA
ATOM     20  O   UNL     1      17.816  -6.059  43.354  1.00  0.00    -0.550 OA
ENDBRANCH  17  18
ENDBRANCH  16  17
ENDBRANCH  15  16
ENDBRANCH  14  15
ENDBRANCH  13  14
ENDBRANCH  12  13
ENDBRANCH  11  12
ENDBRANCH   1  11
TORSDOF 15
ENDMDL
MODEL 3
REMARK VINA RESULT:    -4.386      2.623      6.365
REMARK INTER + INTRA:         -10.064
REMARK INTER:                  -7.736
REMARK INTRA:                  -2.329
REMARK UNBOUND:                -1.831
REMARK SMILES O=C([O-])CCCCCCCCCCCCCCC(=O)[O-]
REMARK SMILES IDX 10 1 9 2 8 3 7 4 6 5 5 6 4 7 2 8 1 9 3 10 11 11 12 12 13 13
REMARK SMILES IDX 14 14 15 15 16 16 17 17 18 18 19 19 20 20
REMARK H PARENT
REMARK Flexibility Score: inf
ROOT
ATOM      1  C   UNL     1      21.664  -7.814  51.126  1.00  0.00     0.000 C 
ENDROOT
BRANCH   1   2
ATOM      2  C   UNL     1      20.579  -7.109  50.298  1.00  0.00     0.000 C 
BRANCH   2   3
ATOM      3  C   UNL     1      20.647  -7.469  48.805  1.00  0.00     0.000 C 
BRANCH   3   4
ATOM      4  C   UNL     1      19.832  -6.502  47.927  1.00  0.00     0.000 C 
BRANCH   4   5
ATOM      5  C   UNL     1      20.101  -6.700  46.427  1.00  0.00     0.000 C 
BRANCH   5   6
ATOM      6  C   UNL     1      20.176  -5.370  45.659  1.00  0.00     0.006 C 
BRANCH   6   7
ATOM      7  C   UNL     1      21.274  -5.380  44.588  1.00  0.00     0.053 C 
BRANCH   7   8
ATOM      8  C   UNL     1      20.949  -6.319  43.467  1.00  0.00     0.041 C 
ATOM      9  O   UNL     1      19.830  -6.256  42.892  1.00  0.00    -0.550 OA
ATOM     10  O   UNL     1      21.868  -7.287  43.081  1.00  0.00    -0.550 OA
ENDBRANCH   7   8
ENDBRANCH   6   7
ENDBRANCH   5   6
ENDBRANCH   4   5
ENDBRANCH   3   4
ENDBRANCH   2   3
ENDBRANCH   1   2
BRANCH   1  11
ATOM     11  C   UNL     1      22.973  -7.015  51.109  1.00  0.00     0.000 C 
BRANCH  11  12
ATOM     12  C   UNL     1      22.711  -5.524  51.367  1.00  0.00     0.000 C 
BRANCH  12  13
ATOM     13  C   UNL     1      23.265  -4.623  50.252  1.00  0.00     0.000 C 
BRANCH  13  14
ATOM     14  C   UNL     1      23.801  -5.423  49.056  1.00  0.00     0.000 C 
BRANCH  14  15
ATOM     15  C   UNL     1      23.297  -4.834  47.732  1.00  0.00     0.000 C 
BRANCH  15  16
ATOM     16  C   UNL     1      22.328  -3.669  47.983  1.00  0.00     0.006 C 
BRANCH  16  17
ATOM     17  C   UNL     1      22.492  -2.547  46.950  1.00  0.00     0.053 C 
BRANCH  17  18
ATOM     18  C   UNL     1      23.804  -1.839  47.102  1.00  0.00     0.041 C 
ATOM     19  O   UNL     1      24.503  -1.575  46.089  1.00  0.00    -0.550 OA
ATOM     20  O   UNL     1      24.238  -1.444  48.361  1.00  0.00    -0.550 OA
ENDBRANCH  17  18
ENDBRANCH  16  17
ENDBRANCH  15  16
ENDBRANCH  14  15
ENDBRANCH  13  14
ENDBRANCH  12  13
ENDBRANCH  11  12
ENDBRANCH   1  11
TORSDOF 15
ENDMDL
MODEL 4
REMARK VINA RESULT:    -4.385      3.020      6.017
REMARK INTER + INTRA:         -10.062
REMARK INTER:                  -8.077
REMARK INTRA:                  -1.985
REMARK UNBOUND:                -1.831
REMARK SMILES O=C([O-])CCCCCCCCCCCCCCC(=O)[O-]
REMARK SMILES IDX 10 1 9 2 8 3 7 4 6 5 5 6 4 7 2 8 1 9 3 10 11 11 12 12 13 13
REMARK SMILES IDX 14 14 15 15 16 16 17 17 18 18 19 19 20 20
REMARK H PARENT
REMARK Flexibility Score: inf
ROOT
ATOM      1  C   UNL     1      22.511  -5.420  51.272  1.00  0.00     0.000 C 
ENDROOT
BRANCH   1   2
ATOM      2  C   UNL     1      23.668  -4.581  50.709  1.00  0.00     0.000 C 
BRANCH   2   3
ATOM      3  C   UNL     1      24.451  -5.316  49.609  1.00  0.00     0.000 C 
BRANCH   3   4
ATOM      4  C   UNL     1      24.379  -4.595  48.251  1.00  0.00     0.000 C 
BRANCH   4   5
ATOM      5  C   UNL     1      23.051  -4.848  47.520  1.00  0.00     0.000 C 
BRANCH   5   6
ATOM      6  C   UNL     1      22.180  -3.584  47.422  1.00  0.00     0.006 C 
BRANCH   6   7
ATOM      7  C   UNL     1      22.190  -2.981  46.011  1.00  0.00     0.053 C 
BRANCH   7   8
ATOM      8  C   UNL     1      21.337  -3.769  45.065  1.00  0.00     0.041 C 
ATOM      9  O   UNL     1      21.867  -4.568  44.249  1.00  0.00    -0.550 OA
ATOM     10  O   UNL     1      19.959  -3.596  45.061  1.00  0.00    -0.550 OA
ENDBRANCH   7   8
ENDBRANCH   6   7
ENDBRANCH   5   6
ENDBRANCH   4   5
ENDBRANCH   3   4
ENDBRANCH   2   3
ENDBRANCH   1   2
BRANCH   1  11
ATOM     11  C   UNL     1      22.718  -6.910  50.975  1.00  0.00     0.000 C 
BRANCH  11  12
ATOM     12  C   UNL     1      21.389  -7.676  51.048  1.00  0.00     0.000 C 
BRANCH  12  13
ATOM     13  C   UNL     1      20.333  -7.127  50.075  1.00  0.00     0.000 C 
BRANCH  13  14
ATOM     14  C   UNL     1      20.728  -7.321  48.603  1.00  0.00     0.000 C 
BRANCH  14  15
ATOM     15  C   UNL     1      19.772  -6.560  47.675  1.00  0.00     0.000 C 
BRANCH  15  16
ATOM     16  C   UNL     1      19.917  -7.041  46.223  1.00  0.00     0.006 C 
BRANCH  16  17
ATOM     17  C   UNL     1      18.583  -7.006  45.466  1.00  0.00     0.053 C 
BRANCH  17  18
ATOM     18  C   UNL     1      18.781  -6.740  44.004  1.00  0.00     0.041 C 
ATOM     19  O   UNL     1      17.924  -6.082  43.359  1.00  0.00    -0.550 OA
ATOM     20  O   UNL     1      19.929  -7.190  43.365  1.00  0.00    -0.550 OA
ENDBRANCH  17  18
ENDBRANCH  16  17
ENDBRANCH  15  16
ENDBRANCH  14  15
ENDBRANCH  13  14
ENDBRANCH  12  13
ENDBRANCH  11  12
ENDBRANCH   1  11
TORSDOF 15
ENDMDL
MODEL 5
REMARK VINA RESULT:    -4.384      2.743      5.875
REMARK INTER + INTRA:         -10.060
REMARK INTER:                  -7.849
REMARK INTRA:                  -2.211
REMARK UNBOUND:                -1.831
REMARK SMILES O=C([O-])CCCCCCCCCCCCCCC(=O)[O-]
REMARK SMILES IDX 10 1 9 2 8 3 7 4 6 5 5 6 4 7 2 8 1 9 3 10 11 11 12 12 13 13
REMARK SMILES IDX 14 14 15 15 16 16 17 17 18 18 19 19 20 20
REMARK H PARENT
REMARK Flexibility Score: inf
ROOT
ATOM      1  C   UNL     1      22.494  -7.613  50.803  1.00  0.00     0.000 C 
ENDROOT
BRANCH   1   2
ATOM      2  C   UNL     1      23.524  -6.484  50.955  1.00  0.00     0.000 C 
BRANCH   2   3
ATOM      3  C   UNL     1      22.868  -5.104  51.125  1.00  0.00     0.000 C 
BRANCH   3   4
ATOM      4  C   UNL     1      23.274  -4.116  50.017  1.00  0.00     0.000 C 
BRANCH   4   5
ATOM      5  C   UNL     1      23.850  -4.823  48.780  1.00  0.00     0.000 C 
BRANCH   5   6
ATOM      6  C   UNL     1      23.360  -4.202  47.461  1.00  0.00     0.006 C 
BRANCH   6   7
ATOM      7  C   UNL     1      22.492  -2.958  47.694  1.00  0.00     0.053 C 
BRANCH   7   8
ATOM      8  C   UNL     1      22.819  -1.865  46.725  1.00  0.00     0.041 C 
ATOM      9  O   UNL     1      23.974  -1.363  46.701  1.00  0.00    -0.550 OA
ATOM     10  O   UNL     1      21.838  -1.375  45.872  1.00  0.00    -0.550 OA
ENDBRANCH   7   8
ENDBRANCH   6   7
ENDBRANCH   5   6
ENDBRANCH   4   5
ENDBRANCH   3   4
ENDBRANCH   2   3
ENDBRANCH   1   2
BRANCH   1  11
ATOM     11  C   UNL     1      21.064  -7.064  50.868  1.00  0.00     0.000 C 
BRANCH  11  12
ATOM     12  C   UNL     1      20.248  -7.508  49.645  1.00  0.00     0.000 C 
BRANCH  12  13
ATOM     13  C   UNL     1      20.859  -7.030  48.318  1.00  0.00     0.000 C 
BRANCH  13  14
ATOM     14  C   UNL     1      19.977  -6.001  47.596  1.00  0.00     0.000 C 
BRANCH  14  15
ATOM     15  C   UNL     1      20.038  -6.197  46.076  1.00  0.00     0.000 C 
BRANCH  15  16
ATOM     16  C   UNL     1      20.312  -4.865  45.361  1.00  0.00     0.006 C 
BRANCH  16  17
ATOM     17  C   UNL     1      21.433  -4.986  44.320  1.00  0.00     0.053 C 
BRANCH  17  18
ATOM     18  C   UNL     1      21.146  -6.062  43.318  1.00  0.00     0.041 C 
ATOM     19  O   UNL     1      20.139  -5.978  42.568  1.00  0.00    -0.550 OA
ATOM     20  O   UNL     1      22.011  -7.142  43.191  1.00  0.00    -0.550 OA
ENDBRANCH  17  18
ENDBRANCH  16  17
ENDBRANCH  15  16
ENDBRANCH  14  15
ENDBRANCH  13  14
ENDBRANCH  12  13
ENDBRANCH  11  12
ENDBRANCH   1  11
TORSDOF 15
ENDMDL
MODEL 6
REMARK VINA RESULT:    -4.365      3.024      6.619
REMARK INTER + INTRA:         -10.024
REMARK INTER:                  -8.224
REMARK INTRA:                  -1.800
REMARK UNBOUND:                -1.831
REMARK SMILES O=C([O-])CCCCCCCCCCCCCCC(=O)[O-]
REMARK SMILES IDX 10 1 9 2 8 3 7 4 6 5 5 6 4 7 2 8 1 9 3 10 11 11 12 12 13 13
REMARK SMILES IDX 14 14 15 15 16 16 17 17 18 18 19 19 20 20
REMARK H PARENT
REMARK Flexibility Score: inf
ROOT
ATOM      1  C   UNL     1      22.524  -7.482  50.324  1.00  0.00     0.000 C 
ENDROOT
BRANCH   1   2
ATOM      2  C   UNL     1      21.101  -7.222  50.841  1.00  0.00     0.000 C 
BRANCH   2   3
ATOM      3  C   UNL     1      20.068  -7.127  49.708  1.00  0.00     0.000 C 
BRANCH   3   4
ATOM      4  C   UNL     1      20.711  -7.217  48.312  1.00  0.00     0.000 C 
BRANCH   4   5
ATOM      5  C   UNL     1      20.212  -6.117  47.361  1.00  0.00     0.000 C 
BRANCH   5   6
ATOM      6  C   UNL     1      21.199  -4.944  47.245  1.00  0.00     0.006 C 
BRANCH   6   7
ATOM      7  C   UNL     1      21.786  -4.818  45.833  1.00  0.00     0.053 C 
BRANCH   7   8
ATOM      8  C   UNL     1      20.714  -4.661  44.799  1.00  0.00     0.041 C 
ATOM      9  O   UNL     1      20.607  -5.498  43.864  1.00  0.00    -0.550 OA
ATOM     10  O   UNL     1      19.855  -3.570  44.847  1.00  0.00    -0.550 OA
ENDBRANCH   7   8
ENDBRANCH   6   7
ENDBRANCH   5   6
ENDBRANCH   4   5
ENDBRANCH   3   4
ENDBRANCH   2   3
ENDBRANCH   1   2
BRANCH   1  11
ATOM     11  C   UNL     1      23.513  -6.462  50.899  1.00  0.00     0.000 C 
BRANCH  11  12
ATOM     12  C   UNL     1      22.829  -5.109  51.144  1.00  0.00     0.000 C 
BRANCH  12  13
ATOM     13  C   UNL     1      23.565  -3.940  50.469  1.00  0.00     0.000 C 
BRANCH  13  14
ATOM     14  C   UNL     1      22.926  -2.579  50.781  1.00  0.00     0.000 C 
BRANCH  14  15
ATOM     15  C   UNL     1      23.381  -1.516  49.774  1.00  0.00     0.000 C 
BRANCH  15  16
ATOM     16  C   UNL     1      22.664  -1.692  48.427  1.00  0.00     0.006 C 
BRANCH  16  17
ATOM     17  C   UNL     1      23.648  -1.918  47.272  1.00  0.00     0.053 C 
BRANCH  17  18
ATOM     18  C   UNL     1      23.162  -1.295  45.998  1.00  0.00     0.041 C 
ATOM     19  O   UNL     1      23.979  -0.989  45.091  1.00  0.00    -0.550 OA
ATOM     20  O   UNL     1      21.803  -1.083  45.803  1.00  0.00    -0.550 OA
ENDBRANCH  17  18
ENDBRANCH  16  17
ENDBRANCH  15  16
ENDBRANCH  14  15
ENDBRANCH  13  14
ENDBRANCH  12  13
ENDBRANCH  11  12
ENDBRANCH   1  11
TORSDOF 15
ENDMDL
MODEL 7
REMARK VINA RESULT:    -4.361      2.919      6.602
REMARK INTER + INTRA:         -10.017
REMARK INTER:                  -8.394
REMARK INTRA:                  -1.623
REMARK UNBOUND:                -1.831
REMARK SMILES O=C([O-])CCCCCCCCCCCCCCC(=O)[O-]
REMARK SMILES IDX 10 1 9 2 8 3 7 4 6 5 5 6 4 7 2 8 1 9 3 10 11 11 12 12 13 13
REMARK SMILES IDX 14 14 15 15 16 16 17 17 18 18 19 19 20 20
REMARK H PARENT
REMARK Flexibility Score: inf
ROOT
ATOM      1  C   UNL     1      21.198  -6.753  50.817  1.00  0.00     0.000 C 
ENDROOT
BRANCH   1   2
ATOM      2  C   UNL     1      20.240  -7.533  49.906  1.00  0.00     0.000 C 
BRANCH   2   3
ATOM      3  C   UNL     1      20.617  -7.425  48.420  1.00  0.00     0.000 C 
BRANCH   3   4
ATOM      4  C   UNL     1      19.851  -6.302  47.697  1.00  0.00     0.000 C 
BRANCH   4   5
ATOM      5  C   UNL     1      19.909  -6.440  46.167  1.00  0.00     0.000 C 
BRANCH   5   6
ATOM      6  C   UNL     1      18.629  -7.059  45.581  1.00  0.00     0.006 C 
BRANCH   6   7
ATOM      7  C   UNL     1      18.750  -7.323  44.074  1.00  0.00     0.053 C 
BRANCH   7   8
ATOM      8  C   UNL     1      19.037  -6.066  43.312  1.00  0.00     0.041 C 
ATOM      9  O   UNL     1      18.161  -5.166  43.219  1.00  0.00    -0.550 OA
ATOM     10  O   UNL     1      20.261  -5.902  42.675  1.00  0.00    -0.550 OA
ENDBRANCH   7   8
ENDBRANCH   6   7
ENDBRANCH   5   6
ENDBRANCH   4   5
ENDBRANCH   3   4
ENDBRANCH   2   3
ENDBRANCH   1   2
BRANCH   1  11
ATOM     11  C   UNL     1      22.614  -7.337  50.754  1.00  0.00     0.000 C 
BRANCH  11  12
ATOM     12  C   UNL     1      23.670  -6.222  50.727  1.00  0.00     0.000 C 
BRANCH  12  13
ATOM     13  C   UNL     1      23.061  -4.824  50.927  1.00  0.00     0.000 C 
BRANCH  13  14
ATOM     14  C   UNL     1      23.311  -3.893  49.731  1.00  0.00     0.000 C 
BRANCH  14  15
ATOM     15  C   UNL     1      23.212  -4.663  48.408  1.00  0.00     0.000 C 
BRANCH  15  16
ATOM     16  C   UNL     1      22.535  -3.810  47.325  1.00  0.00     0.006 C 
BRANCH  16  17
ATOM     17  C   UNL     1      22.637  -2.308  47.622  1.00  0.00     0.053 C 
BRANCH  17  18
ATOM     18  C   UNL     1      22.786  -1.503  46.367  1.00  0.00     0.041 C 
ATOM     19  O   UNL     1      21.767  -1.076  45.764  1.00  0.00    -0.550 OA
ATOM     20  O   UNL     1      24.052  -1.197  45.884  1.00  0.00    -0.550 OA
ENDBRANCH  17  18
ENDBRANCH  16  17
ENDBRANCH  15  16
ENDBRANCH  14  15
ENDBRANCH  13  14
ENDBRANCH  12  13
ENDBRANCH  11  12
ENDBRANCH   1  11
TORSDOF 15
ENDMDL
MODEL 8
REMARK VINA RESULT:    -4.334      1.463      2.492
REMARK INTER + INTRA:          -9.966
REMARK INTER:                  -8.141
REMARK INTRA:                  -1.825
REMARK UNBOUND:                -1.831
REMARK SMILES O=C([O-])CCCCCCCCCCCCCCC(=O)[O-]
REMARK SMILES IDX 10 1 9 2 8 3 7 4 6 5 5 6 4 7 2 8 1 9 3 10 11 11 12 12 13 13
REMARK SMILES IDX 14 14 15 15 16 16 17 17 18 18 19 19 20 20
REMARK H PARENT
REMARK Flexibility Score: inf
ROOT
ATOM      1  C   UNL     1      19.991  -3.886  43.107  1.00  0.00     0.000 C 
ENDROOT
BRANCH   1   2
ATOM      2  C   UNL     1      19.873  -3.670  44.623  1.00  0.00     0.000 C 
BRANCH   2   3
ATOM      3  C   UNL     1      21.189  -3.951  45.365  1.00  0.00     0.000 C 
BRANCH   3   4
ATOM      4  C   UNL     1      22.418  -3.407  44.615  1.00  0.00     0.000 C 
BRANCH   4   5
ATOM      5  C   UNL     1      22.406  -1.874  44.499  1.00  0.00     0.000 C 
BRANCH   5   6
ATOM      6  C   UNL     1      22.530  -1.177  45.865  1.00  0.00     0.006 C 
BRANCH   6   7
ATOM      7  C   UNL     1      23.823  -1.562  46.596  1.00  0.00     0.053 C 
BRANCH   7   8
ATOM      8  C   UNL     1      23.559  -1.962  48.015  1.00  0.00     0.041 C 
ATOM      9  O   UNL     1      23.909  -1.209  48.962  1.00  0.00    -0.550 OA
ATOM     10  O   UNL     1      22.959  -3.183  48.294  1.00  0.00    -0.550 OA
ENDBRANCH   7   8
ENDBRANCH   6   7
ENDBRANCH   5   6
ENDBRANCH   4   5
ENDBRANCH   3   4
ENDBRANCH   2   3
ENDBRANCH   1   2
BRANCH   1  11
ATOM     11  C   UNL     1      19.519  -5.291  42.714  1.00  0.00     0.000 C 
BRANCH  11  12
ATOM     12  C   UNL     1      20.648  -6.318  42.886  1.00  0.00     0.000 C 
BRANCH  12  13
ATOM     13  C   UNL     1      20.263  -7.469  43.831  1.00  0.00     0.000 C 
BRANCH  13  14
ATOM     14  C   UNL     1      18.768  -7.471  44.183  1.00  0.00     0.000 C 
BRANCH  14  15
ATOM     15  C   UNL     1      18.553  -7.124  45.661  1.00  0.00     0.000 C 
BRANCH  15  16
ATOM     16  C   UNL     1      19.878  -7.173  46.436  1.00  0.00     0.006 C 
BRANCH  16  17
ATOM     17  C   UNL     1      19.782  -6.466  47.794  1.00  0.00     0.053 C 
BRANCH  17  18
ATOM     18  C   UNL     1      20.559  -7.187  48.853  1.00  0.00     0.041 C 
ATOM     19  O   UNL     1      20.045  -7.401  49.982  1.00  0.00    -0.550 OA
ATOM     20  O   UNL     1      21.840  -7.651  48.580  1.00  0.00    -0.550 OA
ENDBRANCH  17  18
ENDBRANCH  16  17
ENDBRANCH  15  16
ENDBRANCH  14  15
ENDBRANCH  13  14
ENDBRANCH  12  13
ENDBRANCH  11  12
ENDBRANCH   1  11
TORSDOF 15
ENDMDL
MODEL 9
REMARK VINA RESULT:    -4.306      3.104      6.754
REMARK INTER + INTRA:          -9.913
REMARK INTER:                  -7.744
REMARK INTRA:                  -2.169
REMARK UNBOUND:                -1.831
REMARK SMILES O=C([O-])CCCCCCCCCCCCCCC(=O)[O-]
REMARK SMILES IDX 10 1 9 2 8 3 7 4 6 5 5 6 4 7 2 8 1 9 3 10 11 11 12 12 13 13
REMARK SMILES IDX 14 14 15 15 16 16 17 17 18 18 19 19 20 20
REMARK H PARENT
REMARK Flexibility Score: inf
ROOT
ATOM      1  C   UNL     1      22.768  -7.013  50.668  1.00  0.00     0.000 C 
ENDROOT
BRANCH   1   2
ATOM      2  C   UNL     1      21.430  -7.677  51.027  1.00  0.00     0.000 C 
BRANCH   2   3
ATOM      3  C   UNL     1      20.255  -7.124  50.205  1.00  0.00     0.000 C 
BRANCH   3   4
ATOM      4  C   UNL     1      20.371  -7.463  48.708  1.00  0.00     0.000 C 
BRANCH   4   5
ATOM      5  C   UNL     1      19.898  -6.311  47.806  1.00  0.00     0.000 C 
BRANCH   5   6
ATOM      6  C   UNL     1      19.485  -6.790  46.404  1.00  0.00     0.006 C 
BRANCH   6   7
ATOM      7  C   UNL     1      20.698  -7.100  45.517  1.00  0.00     0.053 C 
BRANCH   7   8
ATOM      8  C   UNL     1      20.471  -6.674  44.099  1.00  0.00     0.041 C 
ATOM      9  O   UNL     1      21.143  -7.190  43.167  1.00  0.00    -0.550 OA
ATOM     10  O   UNL     1      19.543  -5.682  43.810  1.00  0.00    -0.550 OA
ENDBRANCH   7   8
ENDBRANCH   6   7
ENDBRANCH   5   6
ENDBRANCH   4   5
ENDBRANCH   3   4
ENDBRANCH   2   3
ENDBRANCH   1   2
BRANCH   1  11
ATOM     11  C   UNL     1      22.788  -5.544  51.107  1.00  0.00     0.000 C 
BRANCH  11  12
ATOM     12  C   UNL     1      23.192  -4.627  49.943  1.00  0.00     0.000 C 
BRANCH  12  13
ATOM     13  C   UNL     1      23.371  -5.390  48.621  1.00  0.00     0.000 C 
BRANCH  13  14
ATOM     14  C   UNL     1      23.499  -4.453  47.410  1.00  0.00     0.000 C 
BRANCH  14  15
ATOM     15  C   UNL     1      22.320  -3.474  47.347  1.00  0.00     0.000 C 
BRANCH  15  16
ATOM     16  C   UNL     1      21.627  -3.536  45.978  1.00  0.00     0.006 C 
BRANCH  16  17
ATOM     17  C   UNL     1      22.631  -3.682  44.826  1.00  0.00     0.053 C 
BRANCH  17  18
ATOM     18  C   UNL     1      23.228  -2.364  44.439  1.00  0.00     0.041 C 
ATOM     19  O   UNL     1      24.477  -2.213  44.425  1.00  0.00    -0.550 OA
ATOM     20  O   UNL     1      22.403  -1.312  44.062  1.00  0.00    -0.550 OA
ENDBRANCH  17  18
ENDBRANCH  16  17
ENDBRANCH  15  16
ENDBRANCH  14  15
ENDBRANCH  13  14
ENDBRANCH  12  13
ENDBRANCH  11  12
ENDBRANCH   1  11
TORSDOF 15
ENDMDL
