MODEL 1
REMARK VINA RESULT:    -2.621      0.000      0.000
REMARK INTER + INTRA:          -2.621
REMARK INTER:                  -2.621
REMARK INTRA:                   0.000
REMARK UNBOUND:                 0.000
REMARK SMILES C=C1CCC[C@@]2(C)CC(=O)C(=C(C)C)C[C@@H]12
REMARK SMILES IDX 13 1 12 2 11 3 15 4 16 5 2 6 1 7 3 8 4 9 5 10 6 11 8 12 9 13
REMARK SMILES IDX 10 14 7 15 14 16
REMARK H PARENT
REMARK Flexibility Score: inf
ROOT
ATOM      1  C   UNL     1      82.338  29.717  64.088  1.00  0.00     0.039 C 
ATOM      2  C   UNL     1      83.634  29.053  64.491  1.00  0.00    -0.070 C 
ATOM      3  C   UNL     1      84.758  29.786  64.743  1.00  0.00    -0.006 C 
ATOM      4  C   UNL     1      84.753  31.303  64.656  1.00  0.00     0.047 C 
ATOM      5  C   UNL     1      85.732  31.978  65.653  1.00  0.00     0.025 C 
ATOM      6  C   UNL     1      85.253  32.033  67.108  1.00  0.00    -0.073 C 
ATOM      7  C   UNL     1      84.098  31.496  67.544  1.00  0.00     0.008 C 
ATOM      8  C   UNL     1      86.159  32.689  68.125  1.00  0.00     0.031 C 
ATOM      9  C   UNL     1      87.477  33.150  67.494  1.00  0.00     0.005 C 
ATOM     10  C   UNL     1      88.125  32.019  66.680  1.00  0.00     0.008 C 
ATOM     11  C   UNL     1      87.178  31.366  65.600  1.00  0.00    -0.018 C 
ATOM     12  C   UNL     1      87.088  29.840  65.872  1.00  0.00     0.088 C 
ATOM     13  C   UNL     1      86.081  29.153  64.996  1.00  0.00     0.159 C 
ATOM     14  O   UNL     1      86.385  28.044  64.479  1.00  0.00    -0.295 OA
ATOM     15  C   UNL     1      87.806  31.600  64.201  1.00  0.00     0.012 C 
ATOM     16  C   UNL     1      83.620  27.549  64.638  1.00  0.00     0.039 C 
ENDROOT
TORSDOF 0
ENDMDL
MODEL 2
REMARK VINA RESULT:    -0.342     14.455     16.664
REMARK INTER + INTRA:          -0.342
REMARK INTER:                  -0.342
REMARK INTRA:                   0.000
REMARK UNBOUND:                 0.000
REMARK SMILES C=C1CCC[C@@]2(C)CC(=O)C(=C(C)C)C[C@@H]12
REMARK SMILES IDX 13 1 12 2 11 3 15 4 16 5 2 6 1 7 3 8 4 9 5 10 6 11 8 12 9 13
REMARK SMILES IDX 10 14 7 15 14 16
REMARK H PARENT
REMARK Flexibility Score: inf
ROOT
ATOM      1  C   UNL     1      75.291  36.113  51.554  1.00  0.00     0.039 C 
ATOM      2  C   UNL     1      76.396  35.881  50.550  1.00  0.00    -0.070 C 
ATOM      3  C   UNL     1      77.628  35.439  50.941  1.00  0.00    -0.006 C 
ATOM      4  C   UNL     1      77.937  35.134  52.397  1.00  0.00     0.047 C 
ATOM      5  C   UNL     1      78.968  33.989  52.578  1.00  0.00     0.025 C 
ATOM      6  C   UNL     1      78.418  32.573  52.372  1.00  0.00    -0.073 C 
ATOM      7  C   UNL     1      77.153  32.299  52.002  1.00  0.00     0.008 C 
ATOM      8  C   UNL     1      79.373  31.414  52.546  1.00  0.00     0.031 C 
ATOM      9  C   UNL     1      80.794  31.893  52.857  1.00  0.00     0.005 C 
ATOM     10  C   UNL     1      81.249  32.963  51.853  1.00  0.00     0.008 C 
ATOM     11  C   UNL     1      80.259  34.183  51.706  1.00  0.00    -0.018 C 
ATOM     12  C   UNL     1      79.843  34.312  50.215  1.00  0.00     0.088 C 
ATOM     13  C   UNL     1      78.775  35.344  49.998  1.00  0.00     0.159 C 
ATOM     14  O   UNL     1      78.879  36.125  49.014  1.00  0.00    -0.295 OA
ATOM     15  C   UNL     1      81.009  35.469  52.140  1.00  0.00     0.012 C 
ATOM     16  C   UNL     1      76.066  36.124  49.095  1.00  0.00     0.039 C 
ENDROOT
TORSDOF 0
ENDMDL
MODEL 3
REMARK VINA RESULT:    -0.225      2.159      3.066
REMARK INTER + INTRA:          -0.225
REMARK INTER:                  -0.225
REMARK INTRA:                   0.000
REMARK UNBOUND:                 0.000
REMARK SMILES C=C1CCC[C@@]2(C)CC(=O)C(=C(C)C)C[C@@H]12
REMARK SMILES IDX 13 1 12 2 11 3 15 4 16 5 2 6 1 7 3 8 4 9 5 10 6 11 8 12 9 13
REMARK SMILES IDX 10 14 7 15 14 16
REMARK H PARENT
REMARK Flexibility Score: inf
ROOT
ATOM      1  C   UNL     1      82.936  29.560  64.329  1.00  0.00     0.039 C 
ATOM      2  C   UNL     1      83.249  30.366  65.568  1.00  0.00    -0.070 C 
ATOM      3  C   UNL     1      84.473  30.943  65.748  1.00  0.00    -0.006 C 
ATOM      4  C   UNL     1      85.568  30.826  64.701  1.00  0.00     0.047 C 
ATOM      5  C   UNL     1      86.500  32.065  64.646  1.00  0.00     0.025 C 
ATOM      6  C   UNL     1      85.917  33.293  63.937  1.00  0.00    -0.073 C 
ATOM      7  C   UNL     1      84.670  33.355  63.434  1.00  0.00     0.008 C 
ATOM      8  C   UNL     1      86.783  34.529  63.842  1.00  0.00     0.031 C 
ATOM      9  C   UNL     1      88.125  34.336  64.554  1.00  0.00     0.005 C 
ATOM     10  C   UNL     1      87.923  33.793  65.977  1.00  0.00     0.008 C 
ATOM     11  C   UNL     1      87.045  32.483  66.058  1.00  0.00    -0.018 C 
ATOM     12  C   UNL     1      85.842  32.747  67.004  1.00  0.00     0.088 C 
ATOM     13  C   UNL     1      84.858  31.614  67.020  1.00  0.00     0.159 C 
ATOM     14  O   UNL     1      84.378  31.244  68.125  1.00  0.00    -0.295 OA
ATOM     15  C   UNL     1      87.922  31.350  66.651  1.00  0.00     0.012 C 
ATOM     16  C   UNL     1      82.137  30.534  66.578  1.00  0.00     0.039 C 
ENDROOT
TORSDOF 0
ENDMDL
MODEL 4
REMARK VINA RESULT:     0.325     15.827     17.708
REMARK INTER + INTRA:           0.325
REMARK INTER:                   0.325
REMARK INTRA:                   0.000
REMARK UNBOUND:                 0.000
REMARK SMILES C=C1CCC[C@@]2(C)CC(=O)C(=C(C)C)C[C@@H]12
REMARK SMILES IDX 13 1 12 2 11 3 15 4 16 5 2 6 1 7 3 8 4 9 5 10 6 11 8 12 9 13
REMARK SMILES IDX 10 14 7 15 14 16
REMARK H PARENT
REMARK Flexibility Score: inf
ROOT
ATOM      1  C   UNL     1      79.791  35.559  51.765  1.00  0.00     0.039 C 
ATOM      2  C   UNL     1      78.914  34.329  51.809  1.00  0.00    -0.070 C 
ATOM      3  C   UNL     1      77.608  34.403  52.198  1.00  0.00    -0.006 C 
ATOM      4  C   UNL     1      76.966  35.727  52.579  1.00  0.00     0.047 C 
ATOM      5  C   UNL     1      75.454  35.798  52.235  1.00  0.00     0.025 C 
ATOM      6  C   UNL     1      75.128  36.035  50.756  1.00  0.00    -0.073 C 
ATOM      7  C   UNL     1      76.054  36.125  49.782  1.00  0.00     0.008 C 
ATOM      8  C   UNL     1      73.672  36.125  50.360  1.00  0.00     0.031 C 
ATOM      9  C   UNL     1      72.746  35.895  51.558  1.00  0.00     0.005 C 
ATOM     10  C   UNL     1      73.134  34.620  52.321  1.00  0.00     0.008 C 
ATOM     11  C   UNL     1      74.649  34.555  52.757  1.00  0.00    -0.018 C 
ATOM     12  C   UNL     1      75.282  33.264  52.170  1.00  0.00     0.088 C 
ATOM     13  C   UNL     1      76.765  33.192  52.393  1.00  0.00     0.159 C 
ATOM     14  O   UNL     1      77.271  32.095  52.754  1.00  0.00    -0.295 OA
ATOM     15  C   UNL     1      74.705  34.493  54.305  1.00  0.00     0.012 C 
ATOM     16  C   UNL     1      79.537  33.024  51.369  1.00  0.00     0.039 C 
ENDROOT
TORSDOF 0
ENDMDL
