MODEL 1
REMARK VINA RESULT:    -4.043      0.000      0.000
REMARK INTER + INTRA:          -4.784
REMARK INTER:                  -4.752
REMARK INTRA:                  -0.032
REMARK UNBOUND:                -0.032
REMARK SMILES CCCCC(=O)[O-]
REMARK SMILES IDX 4 1 5 2 6 3 7 4 3 5 2 6 1 7
REMARK H PARENT
REMARK Flexibility Score: inf
ROOT
ATOM      1  C   UNL     1     -18.209  31.600  -2.044  1.00  0.00     0.053 C 
ENDROOT
BRANCH   1   2
ATOM      2  C   UNL     1     -18.582  30.163  -1.839  1.00  0.00     0.041 C 
ATOM      3  O   UNL     1     -17.982  29.468  -0.977  1.00  0.00    -0.550 OA
ATOM      4  O   UNL     1     -19.615  29.601  -2.578  1.00  0.00    -0.550 OA
ENDBRANCH   1   2
BRANCH   1   5
ATOM      5  C   UNL     1     -18.152  32.366  -0.717  1.00  0.00     0.006 C 
BRANCH   5   6
ATOM      6  C   UNL     1     -16.988  33.366  -0.673  1.00  0.00    -0.003 C 
ATOM      7  C   UNL     1     -16.280  33.328   0.678  1.00  0.00     0.004 C 
ENDBRANCH   5   6
ENDBRANCH   1   5
TORSDOF 3
ENDMDL
MODEL 2
REMARK VINA RESULT:    -3.962      2.627      4.186
REMARK INTER + INTRA:          -4.688
REMARK INTER:                  -4.653
REMARK INTRA:                  -0.035
REMARK UNBOUND:                -0.032
REMARK SMILES CCCCC(=O)[O-]
REMARK SMILES IDX 4 1 5 2 6 3 7 4 3 5 2 6 1 7
REMARK H PARENT
REMARK Flexibility Score: inf
ROOT
ATOM      1  C   UNL     1     -17.030  33.330  -0.582  1.00  0.00     0.053 C 
ENDROOT
BRANCH   1   2
ATOM      2  C   UNL     1     -16.236  33.176   0.679  1.00  0.00     0.041 C 
ATOM      3  O   UNL     1     -15.956  34.184   1.380  1.00  0.00    -0.550 OA
ATOM      4  O   UNL     1     -15.833  31.915   1.097  1.00  0.00    -0.550 OA
ENDBRANCH   1   2
BRANCH   1   5
ATOM      5  C   UNL     1     -18.139  32.276  -0.687  1.00  0.00     0.006 C 
BRANCH   5   6
ATOM      6  C   UNL     1     -18.162  31.592  -2.061  1.00  0.00    -0.003 C 
ATOM      7  C   UNL     1     -18.968  30.297  -2.018  1.00  0.00     0.004 C 
ENDBRANCH   5   6
ENDBRANCH   1   5
TORSDOF 3
ENDMDL
MODEL 3
REMARK VINA RESULT:    -3.899      2.277      3.511
REMARK INTER + INTRA:          -4.614
REMARK INTER:                  -4.563
REMARK INTRA:                  -0.051
REMARK UNBOUND:                -0.032
REMARK SMILES CCCCC(=O)[O-]
REMARK SMILES IDX 4 1 5 2 6 3 7 4 3 5 2 6 1 7
REMARK H PARENT
REMARK Flexibility Score: inf
ROOT
ATOM      1  C   UNL     1     -16.695  31.920   1.328  1.00  0.00     0.053 C 
ENDROOT
BRANCH   1   2
ATOM      2  C   UNL     1     -15.823  30.702   1.294  1.00  0.00     0.041 C 
ATOM      3  O   UNL     1     -14.734  30.682   1.926  1.00  0.00    -0.550 OA
ATOM      4  O   UNL     1     -16.230  29.575   0.590  1.00  0.00    -0.550 OA
ENDBRANCH   1   2
BRANCH   1   5
ATOM      5  C   UNL     1     -16.097  33.068   0.506  1.00  0.00     0.006 C 
BRANCH   5   6
ATOM      6  C   UNL     1     -17.026  33.514  -0.632  1.00  0.00    -0.003 C 
ATOM      7  C   UNL     1     -18.051  32.433  -0.962  1.00  0.00     0.004 C 
ENDBRANCH   5   6
ENDBRANCH   1   5
TORSDOF 3
ENDMDL
MODEL 4
REMARK VINA RESULT:    -3.755      3.343      4.642
REMARK INTER + INTRA:          -4.446
REMARK INTER:                  -4.335
REMARK INTRA:                  -0.110
REMARK UNBOUND:                -0.032
REMARK SMILES CCCCC(=O)[O-]
REMARK SMILES IDX 4 1 5 2 6 3 7 4 3 5 2 6 1 7
REMARK H PARENT
REMARK Flexibility Score: inf
ROOT
ATOM      1  C   UNL     1     -16.361  31.456   2.088  1.00  0.00     0.053 C 
ENDROOT
BRANCH   1   2
ATOM      2  C   UNL     1     -16.717  32.456   1.031  1.00  0.00     0.041 C 
ATOM      3  O   UNL     1     -17.644  32.214   0.214  1.00  0.00    -0.550 OA
ATOM      4  O   UNL     1     -16.045  33.670   0.969  1.00  0.00    -0.550 OA
ENDBRANCH   1   2
BRANCH   1   5
ATOM      5  C   UNL     1     -15.457  30.346   1.538  1.00  0.00     0.006 C 
BRANCH   5   6
ATOM      6  C   UNL     1     -16.189  29.001   1.427  1.00  0.00    -0.003 C 
ATOM      7  C   UNL     1     -16.603  28.717  -0.014  1.00  0.00     0.004 C 
ENDBRANCH   5   6
ENDBRANCH   1   5
TORSDOF 3
ENDMDL
MODEL 5
REMARK VINA RESULT:    -3.690      3.698      5.027
REMARK INTER + INTRA:          -4.369
REMARK INTER:                  -4.265
REMARK INTRA:                  -0.104
REMARK UNBOUND:                -0.032
REMARK SMILES CCCCC(=O)[O-]
REMARK SMILES IDX 4 1 5 2 6 3 7 4 3 5 2 6 1 7
REMARK H PARENT
REMARK Flexibility Score: inf
ROOT
ATOM      1  C   UNL     1     -16.171  28.722   0.197  1.00  0.00     0.053 C 
ENDROOT
BRANCH   1   2
ATOM      2  C   UNL     1     -17.363  29.290  -0.511  1.00  0.00     0.041 C 
ATOM      3  O   UNL     1     -18.183  28.527  -1.087  1.00  0.00    -0.550 OA
ATOM      4  O   UNL     1     -17.586  30.661  -0.507  1.00  0.00    -0.550 OA
ENDBRANCH   1   2
BRANCH   1   5
ATOM      5  C   UNL     1     -16.579  27.694   1.259  1.00  0.00     0.006 C 
BRANCH   5   6
ATOM      6  C   UNL     1     -16.141  26.270   0.889  1.00  0.00    -0.003 C 
ATOM      7  C   UNL     1     -17.318  25.449   0.369  1.00  0.00     0.004 C 
ENDBRANCH   5   6
ENDBRANCH   1   5
TORSDOF 3
ENDMDL
MODEL 6
REMARK VINA RESULT:    -3.676      4.311      5.685
REMARK INTER + INTRA:          -4.352
REMARK INTER:                  -4.314
REMARK INTRA:                  -0.038
REMARK UNBOUND:                -0.032
REMARK SMILES CCCCC(=O)[O-]
REMARK SMILES IDX 4 1 5 2 6 3 7 4 3 5 2 6 1 7
REMARK H PARENT
REMARK Flexibility Score: inf
ROOT
ATOM      1  C   UNL     1     -16.215  28.971   1.710  1.00  0.00     0.053 C 
ENDROOT
BRANCH   1   2
ATOM      2  C   UNL     1     -15.498  30.246   2.034  1.00  0.00     0.041 C 
ATOM      3  O   UNL     1     -15.563  31.228   1.249  1.00  0.00    -0.550 OA
ATOM      4  O   UNL     1     -14.786  30.361   3.221  1.00  0.00    -0.550 OA
ENDBRANCH   1   2
BRANCH   1   5
ATOM      5  C   UNL     1     -16.231  28.698   0.201  1.00  0.00     0.006 C 
BRANCH   5   6
ATOM      6  C   UNL     1     -16.572  27.236  -0.121  1.00  0.00    -0.003 C 
ATOM      7  C   UNL     1     -16.256  26.323   1.060  1.00  0.00     0.004 C 
ENDBRANCH   5   6
ENDBRANCH   1   5
TORSDOF 3
ENDMDL
MODEL 7
REMARK VINA RESULT:    -3.646      4.111      5.733
REMARK INTER + INTRA:          -4.317
REMARK INTER:                  -4.222
REMARK INTRA:                  -0.094
REMARK UNBOUND:                -0.032
REMARK SMILES CCCCC(=O)[O-]
REMARK SMILES IDX 4 1 5 2 6 3 7 4 3 5 2 6 1 7
REMARK H PARENT
REMARK Flexibility Score: inf
ROOT
ATOM      1  C   UNL     1     -16.367  27.104  -0.189  1.00  0.00     0.053 C 
ENDROOT
BRANCH   1   2
ATOM      2  C   UNL     1     -16.992  28.466  -0.213  1.00  0.00     0.041 C 
ATOM      3  O   UNL     1     -16.466  29.417   0.424  1.00  0.00    -0.550 OA
ATOM      4  O   UNL     1     -18.138  28.692  -0.964  1.00  0.00    -0.550 OA
ENDBRANCH   1   2
BRANCH   1   5
ATOM      5  C   UNL     1     -16.756  26.323   1.071  1.00  0.00     0.006 C 
BRANCH   5   6
ATOM      6  C   UNL     1     -18.124  25.639   0.932  1.00  0.00    -0.003 C 
ATOM      7  C   UNL     1     -18.122  24.629  -0.212  1.00  0.00     0.004 C 
ENDBRANCH   5   6
ENDBRANCH   1   5
TORSDOF 3
ENDMDL
MODEL 8
REMARK VINA RESULT:    -3.623      2.959      3.476
REMARK INTER + INTRA:          -4.290
REMARK INTER:                  -4.216
REMARK INTRA:                  -0.074
REMARK UNBOUND:                -0.032
REMARK SMILES CCCCC(=O)[O-]
REMARK SMILES IDX 4 1 5 2 6 3 7 4 3 5 2 6 1 7
REMARK H PARENT
REMARK Flexibility Score: inf
ROOT
ATOM      1  C   UNL     1     -16.174  28.641   0.064  1.00  0.00     0.053 C 
ENDROOT
BRANCH   1   2
ATOM      2  C   UNL     1     -17.500  28.122  -0.403  1.00  0.00     0.041 C 
ATOM      3  O   UNL     1     -18.317  28.892  -0.974  1.00  0.00    -0.550 OA
ATOM      4  O   UNL     1     -17.820  26.781  -0.236  1.00  0.00    -0.550 OA
ENDBRANCH   1   2
BRANCH   1   5
ATOM      5  C   UNL     1     -16.181  28.946   1.566  1.00  0.00     0.006 C 
BRANCH   5   6
ATOM      6  C   UNL     1     -15.521  30.295   1.889  1.00  0.00    -0.003 C 
ATOM      7  C   UNL     1     -16.179  31.430   1.111  1.00  0.00     0.004 C 
ENDBRANCH   5   6
ENDBRANCH   1   5
TORSDOF 3
ENDMDL
MODEL 9
REMARK VINA RESULT:    -3.582      5.077      5.942
REMARK INTER + INTRA:          -4.242
REMARK INTER:                  -4.216
REMARK INTRA:                  -0.026
REMARK UNBOUND:                -0.032
REMARK SMILES CCCCC(=O)[O-]
REMARK SMILES IDX 4 1 5 2 6 3 7 4 3 5 2 6 1 7
REMARK H PARENT
REMARK Flexibility Score: inf
ROOT
ATOM      1  C   UNL     1     -17.729  25.876  -0.163  1.00  0.00     0.053 C 
ENDROOT
BRANCH   1   2
ATOM      2  C   UNL     1     -18.566  24.669   0.133  1.00  0.00     0.041 C 
ATOM      3  O   UNL     1     -18.185  23.527  -0.234  1.00  0.00    -0.550 OA
ATOM      4  O   UNL     1     -19.752  24.803   0.843  1.00  0.00    -0.550 OA
ENDBRANCH   1   2
BRANCH   1   5
ATOM      5  C   UNL     1     -16.652  26.096   0.906  1.00  0.00     0.006 C 
BRANCH   5   6
ATOM      6  C   UNL     1     -16.554  27.565   1.340  1.00  0.00    -0.003 C 
ATOM      7  C   UNL     1     -16.383  28.485   0.135  1.00  0.00     0.004 C 
ENDBRANCH   5   6
ENDBRANCH   1   5
TORSDOF 3
ENDMDL
