MODEL 1
REMARK VINA RESULT:    45.780      0.000      0.000
REMARK INTER + INTRA:          50.190
REMARK INTER:                  49.795
REMARK INTRA:                   0.396
REMARK UNBOUND:                 0.396
REMARK SMILES CC(=O)[C@@H]1CC[C@@H]2[C@H]3CC=C4C[C@@H](O)CC[C@@]4(C)[C@H]3CC[C@]21C
REMARK SMILES IDX 4 1 5 2 6 3 7 4 22 5 21 6 20 7 19 8 8 9 9 10 10 11 11 12
REMARK SMILES IDX 17 13 16 14 15 15 13 16 12 17 18 18 23 19 2 20 1 21 3 22
REMARK SMILES IDX 14 23
REMARK H PARENT 14 24
REMARK Flexibility Score: inf
ROOT
ATOM      1  C   UNL     1      37.745 -22.953   7.414  1.00  0.00     0.062 C 
ATOM      2  C   UNL     1      38.413 -24.327   7.631  1.00  0.00     0.012 C 
ATOM      3  C   UNL     1      37.317 -25.380   7.398  1.00  0.00     0.005 C 
ATOM      4  C   UNL     1      36.033 -24.572   7.199  1.00  0.00    -0.001 C 
ATOM      5  C   UNL     1      36.489 -23.257   6.557  1.00  0.00    -0.020 C 
ATOM      6  C   UNL     1      35.354 -22.209   6.703  1.00  0.00     0.008 C 
ATOM      7  C   UNL     1      33.928 -22.826   6.765  1.00  0.00     0.005 C 
ATOM      8  C   UNL     1      33.762 -24.183   6.002  1.00  0.00     0.003 C 
ATOM      9  C   UNL     1      34.857 -25.248   6.447  1.00  0.00     0.000 C 
ATOM     10  C   UNL     1      34.301 -26.435   7.291  1.00  0.00     0.031 C 
ATOM     11  C   UNL     1      33.018 -26.120   7.999  1.00  0.00    -0.027 C 
ATOM     12  C   UNL     1      32.042 -25.421   7.397  1.00  0.00    -0.065 C 
ATOM     13  C   UNL     1      32.291 -24.766   6.044  1.00  0.00    -0.008 C 
ATOM     14  C   UNL     1      31.207 -23.661   5.825  1.00  0.00     0.014 C 
ATOM     15  C   UNL     1      29.761 -24.181   5.958  1.00  0.00     0.033 C 
ATOM     16  C   UNL     1      29.559 -25.173   7.133  1.00  0.00     0.118 C 
ATOM     17  C   UNL     1      30.736 -25.175   8.125  1.00  0.00     0.063 C 
ATOM     18  C   UNL     1      32.135 -25.814   4.907  1.00  0.00     0.016 C 
ATOM     19  C   UNL     1      36.878 -23.423   5.052  1.00  0.00     0.012 C 
ENDROOT
BRANCH   1  20
ATOM     20  C   UNL     1      38.686 -21.899   6.859  1.00  0.00     0.133 C 
ATOM     21  C   UNL     1      39.124 -20.758   7.726  1.00  0.00     0.088 C 
ATOM     22  O   UNL     1      39.122 -21.990   5.720  1.00  0.00    -0.300 OA
ENDBRANCH   1  20
BRANCH  16  23
ATOM     23  O   UNL     1      28.367 -24.862   7.807  1.00  0.00    -0.393 OA
ATOM     24  H   UNL     1      28.591 -24.164   8.478  1.00  0.00     0.210 HD
ENDBRANCH  16  23
TORSDOF 2
ENDMDL
