MODEL 1
REMARK VINA RESULT:    -2.960      0.000      0.000
REMARK INTER + INTRA:          -4.563
REMARK INTER:                  -3.652
REMARK INTRA:                  -0.910
REMARK UNBOUND:                -0.910
REMARK SMILES CC(C)=CCC[C@@H](C)[C@H]1C=CC(C)=CC1
REMARK SMILES IDX 6 1 7 2 8 3 9 4 13 5 12 6 14 7 11 8 15 9 10 10 5 11 4 12
REMARK SMILES IDX 2 13 1 14 3 15
REMARK H PARENT
REMARK Flexibility Score: inf
ROOT
ATOM      1  C   UNL     1     137.339 134.892 122.521  1.00  0.00     0.008 C 
ENDROOT
BRANCH   1   2
ATOM      2  C   UNL     1     137.015 135.004 124.035  1.00  0.00    -0.007 C 
ATOM      3  C   UNL     1     138.284 134.889 124.902  1.00  0.00     0.008 C 
BRANCH   2   4
ATOM      4  C   UNL     1     136.195 136.294 124.340  1.00  0.00     0.018 C 
ATOM      5  C   UNL     1     134.875 140.420 124.574  1.00  0.00     0.044 C 
ATOM      6  C   UNL     1     135.469 139.070 124.301  1.00  0.00    -0.055 C 
ATOM      7  C   UNL     1     134.880 138.235 123.430  1.00  0.00    -0.023 C 
ATOM      8  C   UNL     1     136.659 138.622 125.060  1.00  0.00    -0.001 C 
ATOM      9  C   UNL     1     135.507 136.908 123.096  1.00  0.00     0.035 C 
ATOM     10  C   UNL     1     137.037 137.340 125.045  1.00  0.00    -0.023 C 
ENDBRANCH   2   4
ENDBRANCH   1   2
BRANCH   1  11
ATOM     11  C   UNL     1     138.594 135.680 122.094  1.00  0.00     0.027 C 
BRANCH  11  12
ATOM     12  C   UNL     1     138.403 136.418 120.789  1.00  0.00    -0.028 C 
ATOM     13  C   UNL     1     138.178 137.747 120.721  1.00  0.00    -0.080 C 
ATOM     14  C   UNL     1     138.098 138.600 121.964  1.00  0.00     0.039 C 
ATOM     15  C   UNL     1     138.003 138.383 119.366  1.00  0.00     0.039 C 
ENDBRANCH  11  12
ENDBRANCH   1  11
TORSDOF 4
ENDMDL
MODEL 2
REMARK VINA RESULT:    -2.697      1.312      2.096
REMARK INTER + INTRA:          -4.238
REMARK INTER:                  -3.201
REMARK INTRA:                  -1.037
REMARK UNBOUND:                -0.910
REMARK SMILES CC(C)=CCC[C@@H](C)[C@H]1C=CC(C)=CC1
REMARK SMILES IDX 6 1 7 2 8 3 9 4 13 5 12 6 14 7 11 8 15 9 10 10 5 11 4 12
REMARK SMILES IDX 2 13 1 14 3 15
REMARK H PARENT
REMARK Flexibility Score: inf
ROOT
ATOM      1  C   UNL     1     140.084 136.055 124.036  1.00  0.00     0.008 C 
ENDROOT
BRANCH   1   2
ATOM      2  C   UNL     1     138.871 135.626 124.906  1.00  0.00    -0.007 C 
ATOM      3  C   UNL     1     139.303 135.213 126.326  1.00  0.00     0.008 C 
BRANCH   2   4
ATOM      4  C   UNL     1     137.768 136.727 124.911  1.00  0.00     0.018 C 
ATOM      5  C   UNL     1     134.875 139.717 123.682  1.00  0.00     0.044 C 
ATOM      6  C   UNL     1     135.854 138.597 123.875  1.00  0.00    -0.055 C 
ATOM      7  C   UNL     1     135.427 137.386 124.268  1.00  0.00    -0.023 C 
ATOM      8  C   UNL     1     137.304 138.851 123.718  1.00  0.00    -0.001 C 
ATOM      9  C   UNL     1     136.392 136.237 124.395  1.00  0.00     0.035 C 
ATOM     10  C   UNL     1     138.205 137.963 124.151  1.00  0.00    -0.023 C 
ENDBRANCH   2   4
ENDBRANCH   1   2
BRANCH   1  11
ATOM     11  C   UNL     1     140.115 135.393 122.644  1.00  0.00     0.027 C 
BRANCH  11  12
ATOM     12  C   UNL     1     138.761 134.878 122.213  1.00  0.00    -0.028 C 
ATOM     13  C   UNL     1     137.913 135.590 121.441  1.00  0.00    -0.080 C 
ATOM     14  C   UNL     1     138.264 136.973 120.949  1.00  0.00     0.039 C 
ATOM     15  C   UNL     1     136.586 134.978 121.068  1.00  0.00     0.039 C 
ENDBRANCH  11  12
ENDBRANCH   1  11
TORSDOF 4
ENDMDL
MODEL 3
REMARK VINA RESULT:    -2.618      1.985      4.455
REMARK INTER + INTRA:          -4.140
REMARK INTER:                  -3.060
REMARK INTRA:                  -1.080
REMARK UNBOUND:                -0.910
REMARK SMILES CC(C)=CCC[C@@H](C)[C@H]1C=CC(C)=CC1
REMARK SMILES IDX 6 1 7 2 8 3 9 4 13 5 12 6 14 7 11 8 15 9 10 10 5 11 4 12
REMARK SMILES IDX 2 13 1 14 3 15
REMARK H PARENT
REMARK Flexibility Score: inf
ROOT
ATOM      1  C   UNL     1     136.376 135.556 123.965  1.00  0.00     0.008 C 
ENDROOT
BRANCH   1   2
ATOM      2  C   UNL     1     137.602 134.875 123.299  1.00  0.00    -0.007 C 
ATOM      3  C   UNL     1     137.730 135.257 121.812  1.00  0.00     0.008 C 
BRANCH   2   4
ATOM      4  C   UNL     1     138.907 135.156 124.104  1.00  0.00     0.018 C 
ATOM      5  C   UNL     1     142.113 137.121 126.267  1.00  0.00     0.044 C 
ATOM      6  C   UNL     1     140.871 136.643 125.575  1.00  0.00    -0.055 C 
ATOM      7  C   UNL     1     139.941 135.953 126.254  1.00  0.00    -0.023 C 
ATOM      8  C   UNL     1     140.712 136.856 124.119  1.00  0.00    -0.001 C 
ATOM      9  C   UNL     1     138.659 135.532 125.586  1.00  0.00     0.035 C 
ATOM     10  C   UNL     1     139.766 136.207 123.431  1.00  0.00    -0.023 C 
ENDBRANCH   2   4
ENDBRANCH   1   2
BRANCH   1  11
ATOM     11  C   UNL     1     135.614 136.516 123.030  1.00  0.00     0.027 C 
BRANCH  11  12
ATOM     12  C   UNL     1     135.246 137.817 123.706  1.00  0.00    -0.028 C 
ATOM     13  C   UNL     1     136.100 138.857 123.816  1.00  0.00    -0.080 C 
ATOM     14  C   UNL     1     137.504 138.789 123.265  1.00  0.00     0.039 C 
ATOM     15  C   UNL     1     135.628 140.111 124.508  1.00  0.00     0.039 C 
ENDBRANCH  11  12
ENDBRANCH   1  11
TORSDOF 4
ENDMDL
MODEL 4
REMARK VINA RESULT:    -2.460     13.535     16.077
REMARK INTER + INTRA:          -3.945
REMARK INTER:                  -4.046
REMARK INTRA:                   0.101
REMARK UNBOUND:                -0.910
REMARK SMILES CC(C)=CCC[C@@H](C)[C@H]1C=CC(C)=CC1
REMARK SMILES IDX 6 1 7 2 8 3 9 4 13 5 12 6 14 7 11 8 15 9 10 10 5 11 4 12
REMARK SMILES IDX 2 13 1 14 3 15
REMARK H PARENT
REMARK Flexibility Score: inf
ROOT
ATOM      1  C   UNL     1     135.236 154.278 122.360  1.00  0.00     0.008 C 
ENDROOT
BRANCH   1   2
ATOM      2  C   UNL     1     135.484 152.772 122.074  1.00  0.00    -0.007 C 
ATOM      3  C   UNL     1     136.869 152.531 121.443  1.00  0.00     0.008 C 
BRANCH   2   4
ATOM      4  C   UNL     1     135.250 151.911 123.352  1.00  0.00     0.018 C 
ATOM      5  C   UNL     1     135.716 150.006 127.221  1.00  0.00     0.044 C 
ATOM      6  C   UNL     1     135.719 150.831 125.969  1.00  0.00    -0.055 C 
ATOM      7  C   UNL     1     134.875 151.866 125.839  1.00  0.00    -0.023 C 
ATOM      8  C   UNL     1     136.593 150.447 124.837  1.00  0.00    -0.001 C 
ATOM      9  C   UNL     1     134.920 152.744 124.616  1.00  0.00     0.035 C 
ATOM     10  C   UNL     1     136.416 150.982 123.624  1.00  0.00    -0.023 C 
ENDBRANCH   2   4
ENDBRANCH   1   2
BRANCH   1  11
ATOM     11  C   UNL     1     135.931 154.790 123.637  1.00  0.00     0.027 C 
BRANCH  11  12
ATOM     12  C   UNL     1     137.393 155.107 123.418  1.00  0.00    -0.028 C 
ATOM     13  C   UNL     1     138.361 154.760 124.292  1.00  0.00    -0.080 C 
ATOM     14  C   UNL     1     138.044 154.024 125.572  1.00  0.00     0.039 C 
ATOM     15  C   UNL     1     139.789 155.124 123.973  1.00  0.00     0.039 C 
ENDBRANCH  11  12
ENDBRANCH   1  11
TORSDOF 4
ENDMDL
MODEL 5
REMARK VINA RESULT:    -1.606      1.100      4.040
REMARK INTER + INTRA:          -2.892
REMARK INTER:                  -2.181
REMARK INTRA:                  -0.711
REMARK UNBOUND:                -0.910
REMARK SMILES CC(C)=CCC[C@@H](C)[C@H]1C=CC(C)=CC1
REMARK SMILES IDX 6 1 7 2 8 3 9 4 13 5 12 6 14 7 11 8 15 9 10 10 5 11 4 12
REMARK SMILES IDX 2 13 1 14 3 15
REMARK H PARENT
REMARK Flexibility Score: inf
ROOT
ATOM      1  C   UNL     1     137.287 135.369 125.298  1.00  0.00     0.008 C 
ENDROOT
BRANCH   1   2
ATOM      2  C   UNL     1     138.726 135.906 125.073  1.00  0.00    -0.007 C 
ATOM      3  C   UNL     1     139.793 134.876 125.491  1.00  0.00     0.008 C 
BRANCH   2   4
ATOM      4  C   UNL     1     138.916 136.405 123.608  1.00  0.00     0.018 C 
ATOM      5  C   UNL     1     138.184 137.787 119.562  1.00  0.00     0.044 C 
ATOM      6  C   UNL     1     138.207 137.389 121.007  1.00  0.00    -0.055 C 
ATOM      7  C   UNL     1     138.603 138.265 121.944  1.00  0.00    -0.023 C 
ATOM      8  C   UNL     1     137.876 135.999 121.393  1.00  0.00    -0.001 C 
ATOM      9  C   UNL     1     138.561 137.899 123.404  1.00  0.00     0.035 C 
ATOM     10  C   UNL     1     138.155 135.544 122.620  1.00  0.00    -0.023 C 
ENDBRANCH   2   4
ENDBRANCH   1   2
BRANCH   1  11
ATOM     11  C   UNL     1     136.259 136.469 125.637  1.00  0.00     0.027 C 
BRANCH  11  12
ATOM     12  C   UNL     1     135.638 137.085 124.404  1.00  0.00    -0.028 C 
ATOM     13  C   UNL     1     135.513 138.417 124.230  1.00  0.00    -0.080 C 
ATOM     14  C   UNL     1     135.990 139.399 125.273  1.00  0.00     0.039 C 
ATOM     15  C   UNL     1     134.879 138.926 122.960  1.00  0.00     0.039 C 
ENDBRANCH  11  12
ENDBRANCH   1  11
TORSDOF 4
ENDMDL
MODEL 6
REMARK VINA RESULT:    -1.488     13.442     15.723
REMARK INTER + INTRA:          -2.746
REMARK INTER:                  -1.754
REMARK INTRA:                  -0.993
REMARK UNBOUND:                -0.910
REMARK SMILES CC(C)=CCC[C@@H](C)[C@H]1C=CC(C)=CC1
REMARK SMILES IDX 6 1 7 2 8 3 9 4 13 5 12 6 14 7 11 8 15 9 10 10 5 11 4 12
REMARK SMILES IDX 2 13 1 14 3 15
REMARK H PARENT
REMARK Flexibility Score: inf
ROOT
ATOM      1  C   UNL     1     135.689 150.317 123.876  1.00  0.00     0.008 C 
ENDROOT
BRANCH   1   2
ATOM      2  C   UNL     1     135.495 151.367 125.003  1.00  0.00    -0.007 C 
ATOM      3  C   UNL     1     135.146 150.704 126.349  1.00  0.00     0.008 C 
BRANCH   2   4
ATOM      4  C   UNL     1     136.726 152.317 125.104  1.00  0.00     0.018 C 
ATOM      5  C   UNL     1     139.897 155.124 124.161  1.00  0.00     0.044 C 
ATOM      6  C   UNL     1     138.689 154.244 124.284  1.00  0.00    -0.055 C 
ATOM      7  C   UNL     1     137.608 154.668 124.958  1.00  0.00    -0.023 C 
ATOM      8  C   UNL     1     138.722 152.868 123.738  1.00  0.00    -0.001 C 
ATOM      9  C   UNL     1     136.365 153.822 125.026  1.00  0.00     0.035 C 
ATOM     10  C   UNL     1     137.783 151.976 124.072  1.00  0.00    -0.023 C 
ENDBRANCH   2   4
ENDBRANCH   1   2
BRANCH   1  11
ATOM     11  C   UNL     1     135.013 150.701 122.545  1.00  0.00     0.027 C 
BRANCH  11  12
ATOM     12  C   UNL     1     134.875 152.196 122.372  1.00  0.00    -0.028 C 
ATOM     13  C   UNL     1     135.662 152.918 121.546  1.00  0.00    -0.080 C 
ATOM     14  C   UNL     1     136.754 152.271 120.729  1.00  0.00     0.039 C 
ATOM     15  C   UNL     1     135.437 154.406 121.448  1.00  0.00     0.039 C 
ENDBRANCH  11  12
ENDBRANCH   1  11
TORSDOF 4
ENDMDL
MODEL 7
REMARK VINA RESULT:    -1.056     12.695     16.029
REMARK INTER + INTRA:          -2.213
REMARK INTER:                  -2.750
REMARK INTRA:                   0.537
REMARK UNBOUND:                -0.910
REMARK SMILES CC(C)=CCC[C@@H](C)[C@H]1C=CC(C)=CC1
REMARK SMILES IDX 6 1 7 2 8 3 9 4 13 5 12 6 14 7 11 8 15 9 10 10 5 11 4 12
REMARK SMILES IDX 2 13 1 14 3 15
REMARK H PARENT
REMARK Flexibility Score: inf
ROOT
ATOM      1  C   UNL     1     135.122 153.820 125.562  1.00  0.00     0.008 C 
ENDROOT
BRANCH   1   2
ATOM      2  C   UNL     1     136.460 154.480 125.133  1.00  0.00    -0.007 C 
ATOM      3  C   UNL     1     137.642 153.990 125.992  1.00  0.00     0.008 C 
BRANCH   2   4
ATOM      4  C   UNL     1     136.713 154.296 123.606  1.00  0.00     0.018 C 
ATOM      5  C   UNL     1     137.476 152.573 119.698  1.00  0.00     0.044 C 
ATOM      6  C   UNL     1     137.132 152.942 121.111  1.00  0.00    -0.055 C 
ATOM      7  C   UNL     1     135.895 153.361 121.419  1.00  0.00    -0.023 C 
ATOM      8  C   UNL     1     138.185 152.929 122.152  1.00  0.00    -0.001 C 
ATOM      9  C   UNL     1     135.520 153.665 122.845  1.00  0.00     0.035 C 
ATOM     10  C   UNL     1     137.982 153.513 123.338  1.00  0.00    -0.023 C 
ENDBRANCH   2   4
ENDBRANCH   1   2
BRANCH   1  11
ATOM     11  C   UNL     1     134.875 152.441 124.918  1.00  0.00     0.027 C 
BRANCH  11  12
ATOM     12  C   UNL     1     135.957 151.440 125.253  1.00  0.00    -0.028 C 
ATOM     13  C   UNL     1     136.328 150.448 124.416  1.00  0.00    -0.080 C 
ATOM     14  C   UNL     1     135.675 150.267 123.066  1.00  0.00     0.039 C 
ATOM     15  C   UNL     1     137.421 149.505 124.849  1.00  0.00     0.039 C 
ENDBRANCH  11  12
ENDBRANCH   1  11
TORSDOF 4
ENDMDL
MODEL 8
REMARK VINA RESULT:    -0.910      1.625      3.883
REMARK INTER + INTRA:          -2.033
REMARK INTER:                  -2.441
REMARK INTRA:                   0.408
REMARK UNBOUND:                -0.910
REMARK SMILES CC(C)=CCC[C@@H](C)[C@H]1C=CC(C)=CC1
REMARK SMILES IDX 6 1 7 2 8 3 9 4 13 5 12 6 14 7 11 8 15 9 10 10 5 11 4 12
REMARK SMILES IDX 2 13 1 14 3 15
REMARK H PARENT
REMARK Flexibility Score: inf
ROOT
ATOM      1  C   UNL     1     136.876 135.118 125.502  1.00  0.00     0.008 C 
ENDROOT
BRANCH   1   2
ATOM      2  C   UNL     1     136.258 136.498 125.147  1.00  0.00    -0.007 C 
ATOM      3  C   UNL     1     136.783 137.614 126.070  1.00  0.00     0.008 C 
BRANCH   2   4
ATOM      4  C   UNL     1     136.453 136.828 123.636  1.00  0.00     0.018 C 
ATOM      5  C   UNL     1     138.205 137.780 119.783  1.00  0.00     0.044 C 
ATOM      6  C   UNL     1     137.825 137.366 121.174  1.00  0.00    -0.055 C 
ATOM      7  C   UNL     1     137.393 136.118 121.414  1.00  0.00    -0.023 C 
ATOM      8  C   UNL     1     137.842 138.362 122.268  1.00  0.00    -0.001 C 
ATOM      9  C   UNL     1     137.078 135.671 122.817  1.00  0.00     0.035 C 
ATOM     10  C   UNL     1     137.250 138.102 123.439  1.00  0.00    -0.023 C 
ENDBRANCH   2   4
ENDBRANCH   1   2
BRANCH   1  11
ATOM     11  C   UNL     1     138.260 134.875 124.865  1.00  0.00     0.027 C 
BRANCH  11  12
ATOM     12  C   UNL     1     139.287 135.897 125.296  1.00  0.00    -0.028 C 
ATOM     13  C   UNL     1     140.313 136.286 124.510  1.00  0.00    -0.080 C 
ATOM     14  C   UNL     1     140.510 135.715 123.126  1.00  0.00     0.039 C 
ATOM     15  C   UNL     1     141.280 137.315 125.038  1.00  0.00     0.039 C 
ENDBRANCH  11  12
ENDBRANCH   1  11
TORSDOF 4
ENDMDL
