MODEL 1
REMARK VINA RESULT:    10.315      0.000      0.000
REMARK INTER + INTRA:          25.098
REMARK INTER:                  25.994
REMARK INTRA:                  -0.896
REMARK UNBOUND:                -0.896
REMARK SMILES CCCCCCCCCCCCCCCCCCCCCCCCCCCC(=O)[O-]
REMARK SMILES IDX 15 1 16 2 17 3 18 4 19 5 20 6 21 7 22 8 23 9 24 10 25 11
REMARK SMILES IDX 26 12 27 13 28 14 29 15 30 16 14 17 13 18 12 19 11 20 10 21
REMARK SMILES IDX 9 22 8 23 7 24 6 25 5 26 4 27 3 28 2 29 1 30
REMARK H PARENT
REMARK Flexibility Score: inf
ROOT
ATOM      1  C   UNL     1      23.499  38.952  26.795  1.00  0.00     0.000 C 
ENDROOT
BRANCH   1   2
ATOM      2  C   UNL     1      22.033  38.714  27.197  1.00  0.00     0.000 C 
BRANCH   2   3
ATOM      3  C   UNL     1      21.658  39.392  28.527  1.00  0.00     0.000 C 
BRANCH   3   4
ATOM      4  C   UNL     1      22.338  38.806  29.781  1.00  0.00     0.000 C 
BRANCH   4   5
ATOM      5  C   UNL     1      21.359  38.446  30.921  1.00  0.00     0.000 C 
BRANCH   5   6
ATOM      6  C   UNL     1      22.070  37.776  32.113  1.00  0.00     0.000 C 
BRANCH   6   7
ATOM      7  C   UNL     1      21.698  38.412  33.461  1.00  0.00     0.000 C 
BRANCH   7   8
ATOM      8  C   UNL     1      21.901  39.937  33.474  1.00  0.00     0.000 C 
BRANCH   8   9
ATOM      9  C   UNL     1      22.567  40.389  34.782  1.00  0.00     0.000 C 
BRANCH   9  10
ATOM     10  C   UNL     1      23.176  41.797  34.686  1.00  0.00     0.000 C 
BRANCH  10  11
ATOM     11  C   UNL     1      22.113  42.905  34.629  1.00  0.00     0.000 C 
BRANCH  11  12
ATOM     12  C   UNL     1      22.559  44.137  35.423  1.00  0.00     0.006 C 
BRANCH  12  13
ATOM     13  C   UNL     1      21.447  45.190  35.471  1.00  0.00     0.053 C 
BRANCH  13  14
ATOM     14  C   UNL     1      20.794  45.341  34.131  1.00  0.00     0.041 C 
ATOM     15  O   UNL     1      21.148  46.269  33.354  1.00  0.00    -0.550 OA
ATOM     16  O   UNL     1      19.771  44.479  33.752  1.00  0.00    -0.550 OA
ENDBRANCH  13  14
ENDBRANCH  12  13
ENDBRANCH  11  12
ENDBRANCH  10  11
ENDBRANCH   9  10
ENDBRANCH   8   9
ENDBRANCH   7   8
ENDBRANCH   6   7
ENDBRANCH   5   6
ENDBRANCH   4   5
ENDBRANCH   3   4
ENDBRANCH   2   3
ENDBRANCH   1   2
BRANCH   1  17
ATOM     17  C   UNL     1      23.858  38.287  25.454  1.00  0.00     0.000 C 
BRANCH  17  18
ATOM     18  C   UNL     1      24.201  39.272  24.318  1.00  0.00     0.000 C 
BRANCH  18  19
ATOM     19  C   UNL     1      24.065  38.702  22.890  1.00  0.00     0.000 C 
BRANCH  19  20
ATOM     20  C   UNL     1      22.733  37.992  22.590  1.00  0.00     0.000 C 
BRANCH  20  21
ATOM     21  C   UNL     1      22.341  38.061  21.105  1.00  0.00     0.000 C 
BRANCH  21  22
ATOM     22  C   UNL     1      23.560  38.131  20.167  1.00  0.00    -0.000 C 
BRANCH  22  23
ATOM     23  C   UNL     1      23.968  36.764  19.578  1.00  0.00    -0.000 C 
BRANCH  23  24
ATOM     24  C   UNL     1      24.640  36.905  18.201  1.00  0.00    -0.000 C 
BRANCH  24  25
ATOM     25  C   UNL     1      25.981  36.159  18.118  1.00  0.00    -0.000 C 
BRANCH  25  26
ATOM     26  C   UNL     1      27.170  37.101  17.876  1.00  0.00    -0.000 C 
BRANCH  26  27
ATOM     27  C   UNL     1      27.790  37.549  19.210  1.00  0.00    -0.000 C 
BRANCH  27  28
ATOM     28  C   UNL     1      29.300  37.820  19.106  1.00  0.00    -0.000 C 
BRANCH  28  29
ATOM     29  C   UNL     1      30.088  36.605  18.589  1.00  0.00    -0.003 C 
ATOM     30  C   UNL     1      29.754  35.354  19.398  1.00  0.00     0.004 C 
ENDBRANCH  28  29
ENDBRANCH  27  28
ENDBRANCH  26  27
ENDBRANCH  25  26
ENDBRANCH  24  25
ENDBRANCH  23  24
ENDBRANCH  22  23
ENDBRANCH  21  22
ENDBRANCH  20  21
ENDBRANCH  19  20
ENDBRANCH  18  19
ENDBRANCH  17  18
ENDBRANCH   1  17
TORSDOF 26
ENDMDL
MODEL 2
REMARK VINA RESULT:    10.445      1.253      1.574
REMARK INTER + INTRA:          25.424
REMARK INTER:                  26.540
REMARK INTRA:                  -1.117
REMARK UNBOUND:                -0.896
REMARK SMILES CCCCCCCCCCCCCCCCCCCCCCCCCCCC(=O)[O-]
REMARK SMILES IDX 15 1 16 2 17 3 18 4 19 5 20 6 21 7 22 8 23 9 24 10 25 11
REMARK SMILES IDX 26 12 27 13 28 14 29 15 30 16 14 17 13 18 12 19 11 20 10 21
REMARK SMILES IDX 9 22 8 23 7 24 6 25 5 26 4 27 3 28 2 29 1 30
REMARK H PARENT
REMARK Flexibility Score: inf
ROOT
ATOM      1  C   UNL     1      23.329  38.799  26.469  1.00  0.00     0.000 C 
ENDROOT
BRANCH   1   2
ATOM      2  C   UNL     1      21.883  38.586  26.950  1.00  0.00     0.000 C 
BRANCH   2   3
ATOM      3  C   UNL     1      21.700  38.877  28.450  1.00  0.00     0.000 C 
BRANCH   3   4
ATOM      4  C   UNL     1      22.759  38.248  29.379  1.00  0.00     0.000 C 
BRANCH   4   5
ATOM      5  C   UNL     1      22.176  37.596  30.652  1.00  0.00     0.000 C 
BRANCH   5   6
ATOM      6  C   UNL     1      21.371  38.594  31.505  1.00  0.00     0.000 C 
BRANCH   6   7
ATOM      7  C   UNL     1      21.731  38.529  32.997  1.00  0.00     0.000 C 
BRANCH   7   8
ATOM      8  C   UNL     1      21.503  39.866  33.722  1.00  0.00     0.000 C 
BRANCH   8   9
ATOM      9  C   UNL     1      22.724  40.242  34.574  1.00  0.00     0.000 C 
BRANCH   9  10
ATOM     10  C   UNL     1      22.492  41.497  35.430  1.00  0.00     0.000 C 
BRANCH  10  11
ATOM     11  C   UNL     1      22.702  42.802  34.647  1.00  0.00     0.000 C 
BRANCH  11  12
ATOM     12  C   UNL     1      21.364  43.384  34.180  1.00  0.00     0.006 C 
BRANCH  12  13
ATOM     13  C   UNL     1      21.422  44.915  34.123  1.00  0.00     0.053 C 
BRANCH  13  14
ATOM     14  C   UNL     1      21.337  45.504  35.499  1.00  0.00     0.041 C 
ATOM     15  O   UNL     1      20.266  46.039  35.894  1.00  0.00    -0.550 OA
ATOM     16  O   UNL     1      22.450  45.495  36.331  1.00  0.00    -0.550 OA
ENDBRANCH  13  14
ENDBRANCH  12  13
ENDBRANCH  11  12
ENDBRANCH  10  11
ENDBRANCH   9  10
ENDBRANCH   8   9
ENDBRANCH   7   8
ENDBRANCH   6   7
ENDBRANCH   5   6
ENDBRANCH   4   5
ENDBRANCH   3   4
ENDBRANCH   2   3
ENDBRANCH   1   2
BRANCH   1  17
ATOM     17  C   UNL     1      23.636  38.038  25.167  1.00  0.00     0.000 C 
BRANCH  17  18
ATOM     18  C   UNL     1      23.918  38.937  23.946  1.00  0.00     0.000 C 
BRANCH  18  19
ATOM     19  C   UNL     1      22.787  38.997  22.898  1.00  0.00     0.000 C 
BRANCH  19  20
ATOM     20  C   UNL     1      22.194  37.636  22.490  1.00  0.00     0.000 C 
BRANCH  20  21
ATOM     21  C   UNL     1      22.487  37.271  21.026  1.00  0.00     0.000 C 
BRANCH  21  22
ATOM     22  C   UNL     1      23.378  36.023  20.888  1.00  0.00    -0.000 C 
BRANCH  22  23
ATOM     23  C   UNL     1      23.045  35.158  19.653  1.00  0.00    -0.000 C 
BRANCH  23  24
ATOM     24  C   UNL     1      23.719  35.691  18.377  1.00  0.00    -0.000 C 
BRANCH  24  25
ATOM     25  C   UNL     1      24.983  34.901  18.000  1.00  0.00    -0.000 C 
BRANCH  25  26
ATOM     26  C   UNL     1      26.235  35.788  17.922  1.00  0.00    -0.000 C 
BRANCH  26  27
ATOM     27  C   UNL     1      27.384  35.183  18.745  1.00  0.00    -0.000 C 
BRANCH  27  28
ATOM     28  C   UNL     1      28.711  35.130  17.971  1.00  0.00    -0.000 C 
BRANCH  28  29
ATOM     29  C   UNL     1      29.398  36.502  17.875  1.00  0.00    -0.003 C 
ATOM     30  C   UNL     1      29.564  37.127  19.259  1.00  0.00     0.004 C 
ENDBRANCH  28  29
ENDBRANCH  27  28
ENDBRANCH  26  27
ENDBRANCH  25  26
ENDBRANCH  24  25
ENDBRANCH  23  24
ENDBRANCH  22  23
ENDBRANCH  21  22
ENDBRANCH  20  21
ENDBRANCH  19  20
ENDBRANCH  18  19
ENDBRANCH  17  18
ENDBRANCH   1  17
TORSDOF 26
ENDMDL
MODEL 3
REMARK VINA RESULT:    11.681      2.577      3.464
REMARK INTER + INTRA:          28.540
REMARK INTER:                  29.967
REMARK INTRA:                  -1.427
REMARK UNBOUND:                -0.896
REMARK SMILES CCCCCCCCCCCCCCCCCCCCCCCCCCCC(=O)[O-]
REMARK SMILES IDX 15 1 16 2 17 3 18 4 19 5 20 6 21 7 22 8 23 9 24 10 25 11
REMARK SMILES IDX 26 12 27 13 28 14 29 15 30 16 14 17 13 18 12 19 11 20 10 21
REMARK SMILES IDX 9 22 8 23 7 24 6 25 5 26 4 27 3 28 2 29 1 30
REMARK H PARENT
REMARK Flexibility Score: inf
ROOT
ATOM      1  C   UNL     1      23.093  37.997  25.529  1.00  0.00     0.000 C 
ENDROOT
BRANCH   1   2
ATOM      2  C   UNL     1      21.827  38.077  26.400  1.00  0.00     0.000 C 
BRANCH   2   3
ATOM      3  C   UNL     1      22.097  38.647  27.803  1.00  0.00     0.000 C 
BRANCH   3   4
ATOM      4  C   UNL     1      22.857  39.989  27.836  1.00  0.00     0.000 C 
BRANCH   4   5
ATOM      5  C   UNL     1      23.222  40.475  29.257  1.00  0.00     0.000 C 
BRANCH   5   6
ATOM      6  C   UNL     1      23.128  42.006  29.393  1.00  0.00     0.000 C 
BRANCH   6   7
ATOM      7  C   UNL     1      23.405  42.494  30.824  1.00  0.00     0.000 C 
BRANCH   7   8
ATOM      8  C   UNL     1      24.855  42.238  31.267  1.00  0.00     0.000 C 
BRANCH   8   9
ATOM      9  C   UNL     1      24.936  42.054  32.791  1.00  0.00     0.000 C 
BRANCH   9  10
ATOM     10  C   UNL     1      23.580  41.703  33.423  1.00  0.00     0.000 C 
BRANCH  10  11
ATOM     11  C   UNL     1      23.659  40.504  34.380  1.00  0.00     0.000 C 
BRANCH  11  12
ATOM     12  C   UNL     1      22.260  40.047  34.806  1.00  0.00     0.006 C 
BRANCH  12  13
ATOM     13  C   UNL     1      21.337  39.902  33.590  1.00  0.00     0.053 C 
BRANCH  13  14
ATOM     14  C   UNL     1      21.623  38.631  32.850  1.00  0.00     0.041 C 
ATOM     15  O   UNL     1      22.425  37.785  33.329  1.00  0.00    -0.550 OA
ATOM     16  O   UNL     1      21.030  38.395  31.615  1.00  0.00    -0.550 OA
ENDBRANCH  13  14
ENDBRANCH  12  13
ENDBRANCH  11  12
ENDBRANCH  10  11
ENDBRANCH   9  10
ENDBRANCH   8   9
ENDBRANCH   7   8
ENDBRANCH   6   7
ENDBRANCH   5   6
ENDBRANCH   4   5
ENDBRANCH   3   4
ENDBRANCH   2   3
ENDBRANCH   1   2
BRANCH   1  17
ATOM     17  C   UNL     1      22.776  37.710  24.051  1.00  0.00     0.000 C 
BRANCH  17  18
ATOM     18  C   UNL     1      23.395  38.708  23.052  1.00  0.00     0.000 C 
BRANCH  18  19
ATOM     19  C   UNL     1      23.076  38.436  21.567  1.00  0.00     0.000 C 
BRANCH  19  20
ATOM     20  C   UNL     1      22.000  37.366  21.310  1.00  0.00     0.000 C 
BRANCH  20  21
ATOM     21  C   UNL     1      22.535  36.157  20.526  1.00  0.00     0.000 C 
BRANCH  21  22
ATOM     22  C   UNL     1      24.007  36.320  20.106  1.00  0.00    -0.000 C 
BRANCH  22  23
ATOM     23  C   UNL     1      24.203  36.489  18.585  1.00  0.00    -0.000 C 
BRANCH  23  24
ATOM     24  C   UNL     1      24.996  35.322  17.971  1.00  0.00    -0.000 C 
BRANCH  24  25
ATOM     25  C   UNL     1      26.502  35.614  17.875  1.00  0.00    -0.000 C 
BRANCH  25  26
ATOM     26  C   UNL     1      26.871  37.007  18.407  1.00  0.00    -0.000 C 
BRANCH  26  27
ATOM     27  C   UNL     1      28.290  37.401  17.965  1.00  0.00    -0.000 C 
BRANCH  27  28
ATOM     28  C   UNL     1      29.162  37.898  19.130  1.00  0.00    -0.000 C 
BRANCH  28  29
ATOM     29  C   UNL     1      29.608  36.763  20.065  1.00  0.00    -0.003 C 
ATOM     30  C   UNL     1      31.131  36.693  20.151  1.00  0.00     0.004 C 
ENDBRANCH  28  29
ENDBRANCH  27  28
ENDBRANCH  26  27
ENDBRANCH  25  26
ENDBRANCH  24  25
ENDBRANCH  23  24
ENDBRANCH  22  23
ENDBRANCH  21  22
ENDBRANCH  20  21
ENDBRANCH  19  20
ENDBRANCH  18  19
ENDBRANCH  17  18
ENDBRANCH   1  17
TORSDOF 26
ENDMDL
MODEL 4
REMARK VINA RESULT:    12.199      5.102     14.420
REMARK INTER + INTRA:          29.844
REMARK INTER:                  29.446
REMARK INTRA:                   0.399
REMARK UNBOUND:                -0.896
REMARK SMILES CCCCCCCCCCCCCCCCCCCCCCCCCCCC(=O)[O-]
REMARK SMILES IDX 15 1 16 2 17 3 18 4 19 5 20 6 21 7 22 8 23 9 24 10 25 11
REMARK SMILES IDX 26 12 27 13 28 14 29 15 30 16 14 17 13 18 12 19 11 20 10 21
REMARK SMILES IDX 9 22 8 23 7 24 6 25 5 26 4 27 3 28 2 29 1 30
REMARK H PARENT
REMARK Flexibility Score: inf
ROOT
ATOM      1  C   UNL     1      22.477  39.752  29.115  1.00  0.00     0.000 C 
ENDROOT
BRANCH   1   2
ATOM      2  C   UNL     1      23.241  39.105  27.947  1.00  0.00     0.000 C 
BRANCH   2   3
ATOM      3  C   UNL     1      22.310  38.560  26.850  1.00  0.00     0.000 C 
BRANCH   3   4
ATOM      4  C   UNL     1      22.770  37.245  26.186  1.00  0.00     0.000 C 
BRANCH   4   5
ATOM      5  C   UNL     1      23.234  37.405  24.721  1.00  0.00     0.000 C 
BRANCH   5   6
ATOM      6  C   UNL     1      24.132  38.641  24.524  1.00  0.00     0.000 C 
BRANCH   6   7
ATOM      7  C   UNL     1      23.688  39.517  23.342  1.00  0.00     0.000 C 
BRANCH   7   8
ATOM      8  C   UNL     1      23.410  38.699  22.069  1.00  0.00     0.000 C 
BRANCH   8   9
ATOM      9  C   UNL     1      22.560  37.460  22.390  1.00  0.00     0.000 C 
BRANCH   9  10
ATOM     10  C   UNL     1      21.939  36.820  21.138  1.00  0.00     0.000 C 
BRANCH  10  11
ATOM     11  C   UNL     1      22.934  36.704  19.972  1.00  0.00     0.000 C 
BRANCH  11  12
ATOM     12  C   UNL     1      23.460  35.271  19.840  1.00  0.00     0.006 C 
BRANCH  12  13
ATOM     13  C   UNL     1      23.925  34.988  18.407  1.00  0.00     0.053 C 
BRANCH  13  14
ATOM     14  C   UNL     1      25.233  35.664  18.126  1.00  0.00     0.041 C 
ATOM     15  O   UNL     1      25.291  36.920  18.039  1.00  0.00    -0.550 OA
ATOM     16  O   UNL     1      26.381  34.906  17.926  1.00  0.00    -0.550 OA
ENDBRANCH  13  14
ENDBRANCH  12  13
ENDBRANCH  11  12
ENDBRANCH  10  11
ENDBRANCH   9  10
ENDBRANCH   8   9
ENDBRANCH   7   8
ENDBRANCH   6   7
ENDBRANCH   5   6
ENDBRANCH   4   5
ENDBRANCH   3   4
ENDBRANCH   2   3
ENDBRANCH   1   2
BRANCH   1  17
ATOM     17  C   UNL     1      21.442  38.802  29.743  1.00  0.00     0.000 C 
BRANCH  17  18
ATOM     18  C   UNL     1      22.041  37.556  30.426  1.00  0.00     0.000 C 
BRANCH  18  19
ATOM     19  C   UNL     1      21.685  37.391  31.919  1.00  0.00     0.000 C 
BRANCH  19  20
ATOM     20  C   UNL     1      21.516  38.703  32.705  1.00  0.00     0.000 C 
BRANCH  20  21
ATOM     21  C   UNL     1      22.643  38.939  33.723  1.00  0.00     0.000 C 
BRANCH  21  22
ATOM     22  C   UNL     1      22.536  40.304  34.427  1.00  0.00    -0.000 C 
BRANCH  22  23
ATOM     23  C   UNL     1      23.485  41.376  33.850  1.00  0.00    -0.000 C 
BRANCH  23  24
ATOM     24  C   UNL     1      23.566  42.621  34.751  1.00  0.00    -0.000 C 
BRANCH  24  25
ATOM     25  C   UNL     1      22.291  43.476  34.695  1.00  0.00    -0.000 C 
BRANCH  25  26
ATOM     26  C   UNL     1      22.341  44.679  35.649  1.00  0.00    -0.000 C 
BRANCH  26  27
ATOM     27  C   UNL     1      21.250  45.703  35.294  1.00  0.00    -0.000 C 
BRANCH  27  28
ATOM     28  C   UNL     1      21.167  45.989  33.785  1.00  0.00    -0.000 C 
BRANCH  28  29
ATOM     29  C   UNL     1      20.126  45.114  33.070  1.00  0.00    -0.003 C 
ATOM     30  C   UNL     1      18.990  44.733  34.017  1.00  0.00     0.004 C 
ENDBRANCH  28  29
ENDBRANCH  27  28
ENDBRANCH  26  27
ENDBRANCH  25  26
ENDBRANCH  24  25
ENDBRANCH  23  24
ENDBRANCH  22  23
ENDBRANCH  21  22
ENDBRANCH  20  21
ENDBRANCH  19  20
ENDBRANCH  18  19
ENDBRANCH  17  18
ENDBRANCH   1  17
TORSDOF 26
ENDMDL
MODEL 5
REMARK VINA RESULT:    12.576      1.798      2.834
REMARK INTER + INTRA:          30.795
REMARK INTER:                  31.479
REMARK INTRA:                  -0.684
REMARK UNBOUND:                -0.896
REMARK SMILES CCCCCCCCCCCCCCCCCCCCCCCCCCCC(=O)[O-]
REMARK SMILES IDX 15 1 16 2 17 3 18 4 19 5 20 6 21 7 22 8 23 9 24 10 25 11
REMARK SMILES IDX 26 12 27 13 28 14 29 15 30 16 14 17 13 18 12 19 11 20 10 21
REMARK SMILES IDX 9 22 8 23 7 24 6 25 5 26 4 27 3 28 2 29 1 30
REMARK H PARENT
REMARK Flexibility Score: inf
ROOT
ATOM      1  C   UNL     1      23.147  38.135  24.650  1.00  0.00     0.000 C 
ENDROOT
BRANCH   1   2
ATOM      2  C   UNL     1      22.824  37.711  26.094  1.00  0.00     0.000 C 
BRANCH   2   3
ATOM      3  C   UNL     1      22.214  38.849  26.931  1.00  0.00     0.000 C 
BRANCH   3   4
ATOM      4  C   UNL     1      22.964  39.184  28.236  1.00  0.00     0.000 C 
BRANCH   4   5
ATOM      5  C   UNL     1      22.248  40.223  29.129  1.00  0.00     0.000 C 
BRANCH   5   6
ATOM      6  C   UNL     1      22.737  41.659  28.862  1.00  0.00     0.000 C 
BRANCH   6   7
ATOM      7  C   UNL     1      24.070  41.973  29.558  1.00  0.00     0.000 C 
BRANCH   7   8
ATOM      8  C   UNL     1      23.879  42.588  30.955  1.00  0.00     0.000 C 
BRANCH   8   9
ATOM      9  C   UNL     1      25.003  42.146  31.905  1.00  0.00     0.000 C 
BRANCH   9  10
ATOM     10  C   UNL     1      24.474  41.587  33.236  1.00  0.00     0.000 C 
BRANCH  10  11
ATOM     11  C   UNL     1      22.940  41.517  33.287  1.00  0.00     0.000 C 
BRANCH  11  12
ATOM     12  C   UNL     1      22.401  42.184  34.556  1.00  0.00     0.006 C 
BRANCH  12  13
ATOM     13  C   UNL     1      22.914  43.624  34.678  1.00  0.00     0.053 C 
BRANCH  13  14
ATOM     14  C   UNL     1      21.802  44.559  35.043  1.00  0.00     0.041 C 
ATOM     15  O   UNL     1      21.482  44.722  36.252  1.00  0.00    -0.550 OA
ATOM     16  O   UNL     1      21.094  45.224  34.049  1.00  0.00    -0.550 OA
ENDBRANCH  13  14
ENDBRANCH  12  13
ENDBRANCH  11  12
ENDBRANCH  10  11
ENDBRANCH   9  10
ENDBRANCH   8   9
ENDBRANCH   7   8
ENDBRANCH   6   7
ENDBRANCH   5   6
ENDBRANCH   4   5
ENDBRANCH   3   4
ENDBRANCH   2   3
ENDBRANCH   1   2
BRANCH   1  17
ATOM     17  C   UNL     1      21.989  37.850  23.678  1.00  0.00     0.000 C 
BRANCH  17  18
ATOM     18  C   UNL     1      22.158  38.466  22.275  1.00  0.00     0.000 C 
BRANCH  18  19
ATOM     19  C   UNL     1      23.060  37.667  21.311  1.00  0.00     0.000 C 
BRANCH  19  20
ATOM     20  C   UNL     1      22.524  36.285  20.901  1.00  0.00     0.000 C 
BRANCH  20  21
ATOM     21  C   UNL     1      23.530  35.477  20.065  1.00  0.00     0.000 C 
BRANCH  21  22
ATOM     22  C   UNL     1      24.130  36.288  18.903  1.00  0.00    -0.000 C 
BRANCH  22  23
ATOM     23  C   UNL     1      25.016  35.452  17.955  1.00  0.00    -0.000 C 
BRANCH  23  24
ATOM     24  C   UNL     1      26.248  34.875  18.675  1.00  0.00    -0.000 C 
BRANCH  24  25
ATOM     25  C   UNL     1      27.546  35.068  17.875  1.00  0.00    -0.000 C 
BRANCH  25  26
ATOM     26  C   UNL     1      28.643  35.772  18.686  1.00  0.00    -0.000 C 
BRANCH  26  27
ATOM     27  C   UNL     1      30.033  35.240  18.299  1.00  0.00    -0.000 C 
BRANCH  27  28
ATOM     28  C   UNL     1      31.121  35.611  19.321  1.00  0.00    -0.000 C 
BRANCH  28  29
ATOM     29  C   UNL     1      31.179  37.121  19.606  1.00  0.00    -0.003 C 
ATOM     30  C   UNL     1      30.551  37.916  18.463  1.00  0.00     0.004 C 
ENDBRANCH  28  29
ENDBRANCH  27  28
ENDBRANCH  26  27
ENDBRANCH  25  26
ENDBRANCH  24  25
ENDBRANCH  23  24
ENDBRANCH  22  23
ENDBRANCH  21  22
ENDBRANCH  20  21
ENDBRANCH  19  20
ENDBRANCH  18  19
ENDBRANCH  17  18
ENDBRANCH   1  17
TORSDOF 26
ENDMDL
MODEL 6
REMARK VINA RESULT:    12.617      5.257     15.063
REMARK INTER + INTRA:          30.898
REMARK INTER:                  32.249
REMARK INTRA:                  -1.351
REMARK UNBOUND:                -0.896
REMARK SMILES CCCCCCCCCCCCCCCCCCCCCCCCCCCC(=O)[O-]
REMARK SMILES IDX 15 1 16 2 17 3 18 4 19 5 20 6 21 7 22 8 23 9 24 10 25 11
REMARK SMILES IDX 26 12 27 13 28 14 29 15 30 16 14 17 13 18 12 19 11 20 10 21
REMARK SMILES IDX 9 22 8 23 7 24 6 25 5 26 4 27 3 28 2 29 1 30
REMARK H PARENT
REMARK Flexibility Score: inf
ROOT
ATOM      1  C   UNL     1      22.539  39.651  28.538  1.00  0.00     0.000 C 
ENDROOT
BRANCH   1   2
ATOM      2  C   UNL     1      23.509  39.053  27.505  1.00  0.00     0.000 C 
BRANCH   2   3
ATOM      3  C   UNL     1      22.851  38.803  26.137  1.00  0.00     0.000 C 
BRANCH   3   4
ATOM      4  C   UNL     1      22.378  37.357  25.885  1.00  0.00     0.000 C 
BRANCH   4   5
ATOM      5  C   UNL     1      22.385  36.938  24.398  1.00  0.00     0.000 C 
BRANCH   5   6
ATOM      6  C   UNL     1      23.121  37.957  23.507  1.00  0.00     0.000 C 
BRANCH   6   7
ATOM      7  C   UNL     1      22.332  38.319  22.239  1.00  0.00     0.000 C 
BRANCH   7   8
ATOM      8  C   UNL     1      23.205  38.303  20.973  1.00  0.00     0.000 C 
BRANCH   8   9
ATOM      9  C   UNL     1      23.281  36.888  20.379  1.00  0.00     0.000 C 
BRANCH   9  10
ATOM     10  C   UNL     1      23.989  36.851  19.015  1.00  0.00     0.000 C 
BRANCH  10  11
ATOM     11  C   UNL     1      24.124  35.427  18.452  1.00  0.00     0.000 C 
BRANCH  11  12
ATOM     12  C   UNL     1      25.596  35.052  18.254  1.00  0.00     0.006 C 
BRANCH  12  13
ATOM     13  C   UNL     1      26.429  36.281  17.875  1.00  0.00     0.053 C 
BRANCH  13  14
ATOM     14  C   UNL     1      27.887  36.036  18.121  1.00  0.00     0.041 C 
ATOM     15  O   UNL     1      28.368  34.879  17.980  1.00  0.00    -0.550 OA
ATOM     16  O   UNL     1      28.708  37.076  18.539  1.00  0.00    -0.550 OA
ENDBRANCH  13  14
ENDBRANCH  12  13
ENDBRANCH  11  12
ENDBRANCH  10  11
ENDBRANCH   9  10
ENDBRANCH   8   9
ENDBRANCH   7   8
ENDBRANCH   6   7
ENDBRANCH   5   6
ENDBRANCH   4   5
ENDBRANCH   3   4
ENDBRANCH   2   3
ENDBRANCH   1   2
BRANCH   1  17
ATOM     17  C   UNL     1      21.656  38.582  29.207  1.00  0.00     0.000 C 
BRANCH  17  18
ATOM     18  C   UNL     1      22.397  37.291  29.607  1.00  0.00     0.000 C 
BRANCH  18  19
ATOM     19  C   UNL     1      22.268  36.892  31.092  1.00  0.00     0.000 C 
BRANCH  19  20
ATOM     20  C   UNL     1      21.450  37.860  31.965  1.00  0.00     0.000 C 
BRANCH  20  21
ATOM     21  C   UNL     1      22.192  38.289  33.240  1.00  0.00     0.000 C 
BRANCH  21  22
ATOM     22  C   UNL     1      22.055  39.794  33.535  1.00  0.00    -0.000 C 
BRANCH  22  23
ATOM     23  C   UNL     1      22.891  40.268  34.742  1.00  0.00    -0.000 C 
BRANCH  23  24
ATOM     24  C   UNL     1      22.256  41.481  35.443  1.00  0.00    -0.000 C 
BRANCH  24  25
ATOM     25  C   UNL     1      22.196  42.723  34.539  1.00  0.00    -0.000 C 
BRANCH  25  26
ATOM     26  C   UNL     1      21.312  43.837  35.120  1.00  0.00    -0.000 C 
BRANCH  26  27
ATOM     27  C   UNL     1      22.021  45.199  35.027  1.00  0.00    -0.000 C 
BRANCH  27  28
ATOM     28  C   UNL     1      22.061  45.945  36.371  1.00  0.00    -0.000 C 
BRANCH  28  29
ATOM     29  C   UNL     1      23.437  46.564  36.665  1.00  0.00    -0.003 C 
ATOM     30  C   UNL     1      23.325  47.671  37.712  1.00  0.00     0.004 C 
ENDBRANCH  28  29
ENDBRANCH  27  28
ENDBRANCH  26  27
ENDBRANCH  25  26
ENDBRANCH  24  25
ENDBRANCH  23  24
ENDBRANCH  22  23
ENDBRANCH  21  22
ENDBRANCH  20  21
ENDBRANCH  19  20
ENDBRANCH  18  19
ENDBRANCH  17  18
ENDBRANCH   1  17
TORSDOF 26
ENDMDL
MODEL 7
REMARK VINA RESULT:    12.869      2.196      2.580
REMARK INTER + INTRA:          31.533
REMARK INTER:                  32.990
REMARK INTRA:                  -1.457
REMARK UNBOUND:                -0.896
REMARK SMILES CCCCCCCCCCCCCCCCCCCCCCCCCCCC(=O)[O-]
REMARK SMILES IDX 15 1 16 2 17 3 18 4 19 5 20 6 21 7 22 8 23 9 24 10 25 11
REMARK SMILES IDX 26 12 27 13 28 14 29 15 30 16 14 17 13 18 12 19 11 20 10 21
REMARK SMILES IDX 9 22 8 23 7 24 6 25 5 26 4 27 3 28 2 29 1 30
REMARK H PARENT
REMARK Flexibility Score: inf
ROOT
ATOM      1  C   UNL     1      23.053  38.010  25.496  1.00  0.00     0.000 C 
ENDROOT
BRANCH   1   2
ATOM      2  C   UNL     1      21.833  38.173  26.420  1.00  0.00     0.000 C 
BRANCH   2   3
ATOM      3  C   UNL     1      22.174  38.868  27.749  1.00  0.00     0.000 C 
BRANCH   3   4
ATOM      4  C   UNL     1      21.408  38.348  28.983  1.00  0.00     0.000 C 
BRANCH   4   5
ATOM      5  C   UNL     1      22.015  38.785  30.335  1.00  0.00     0.000 C 
BRANCH   5   6
ATOM      6  C   UNL     1      21.491  37.940  31.511  1.00  0.00     0.000 C 
BRANCH   6   7
ATOM      7  C   UNL     1      21.998  38.438  32.874  1.00  0.00     0.000 C 
BRANCH   7   8
ATOM      8  C   UNL     1      21.012  39.400  33.558  1.00  0.00     0.000 C 
BRANCH   8   9
ATOM      9  C   UNL     1      21.759  40.563  34.228  1.00  0.00     0.000 C 
BRANCH   9  10
ATOM     10  C   UNL     1      23.271  40.311  34.349  1.00  0.00     0.000 C 
BRANCH  10  11
ATOM     11  C   UNL     1      24.067  41.591  34.646  1.00  0.00     0.000 C 
BRANCH  11  12
ATOM     12  C   UNL     1      24.443  42.318  33.351  1.00  0.00     0.006 C 
BRANCH  12  13
ATOM     13  C   UNL     1      24.146  41.444  32.127  1.00  0.00     0.053 C 
BRANCH  13  14
ATOM     14  C   UNL     1      24.205  42.251  30.866  1.00  0.00     0.041 C 
ATOM     15  O   UNL     1      23.255  42.206  30.039  1.00  0.00    -0.550 OA
ATOM     16  O   UNL     1      25.324  43.027  30.586  1.00  0.00    -0.550 OA
ENDBRANCH  13  14
ENDBRANCH  12  13
ENDBRANCH  11  12
ENDBRANCH  10  11
ENDBRANCH   9  10
ENDBRANCH   8   9
ENDBRANCH   7   8
ENDBRANCH   6   7
ENDBRANCH   5   6
ENDBRANCH   4   5
ENDBRANCH   3   4
ENDBRANCH   2   3
ENDBRANCH   1   2
BRANCH   1  17
ATOM     17  C   UNL     1      22.655  37.709  24.040  1.00  0.00     0.000 C 
BRANCH  17  18
ATOM     18  C   UNL     1      23.341  38.601  22.987  1.00  0.00     0.000 C 
BRANCH  18  19
ATOM     19  C   UNL     1      22.996  38.271  21.519  1.00  0.00     0.000 C 
BRANCH  19  20
ATOM     20  C   UNL     1      21.985  37.127  21.323  1.00  0.00     0.000 C 
BRANCH  20  21
ATOM     21  C   UNL     1      22.565  35.947  20.528  1.00  0.00     0.000 C 
BRANCH  21  22
ATOM     22  C   UNL     1      24.041  36.151  20.145  1.00  0.00    -0.000 C 
BRANCH  22  23
ATOM     23  C   UNL     1      24.250  36.536  18.665  1.00  0.00    -0.000 C 
BRANCH  23  24
ATOM     24  C   UNL     1      24.988  35.436  17.881  1.00  0.00    -0.000 C 
BRANCH  24  25
ATOM     25  C   UNL     1      26.516  35.602  17.923  1.00  0.00    -0.000 C 
BRANCH  25  26
ATOM     26  C   UNL     1      26.947  37.047  18.216  1.00  0.00    -0.000 C 
BRANCH  26  27
ATOM     27  C   UNL     1      28.440  37.244  17.904  1.00  0.00    -0.000 C 
BRANCH  27  28
ATOM     28  C   UNL     1      29.298  37.417  19.168  1.00  0.00    -0.000 C 
BRANCH  28  29
ATOM     29  C   UNL     1      30.665  36.723  19.057  1.00  0.00    -0.003 C 
ATOM     30  C   UNL     1      30.813  35.636  20.120  1.00  0.00     0.004 C 
ENDBRANCH  28  29
ENDBRANCH  27  28
ENDBRANCH  26  27
ENDBRANCH  25  26
ENDBRANCH  24  25
ENDBRANCH  23  24
ENDBRANCH  22  23
ENDBRANCH  21  22
ENDBRANCH  20  21
ENDBRANCH  19  20
ENDBRANCH  18  19
ENDBRANCH  17  18
ENDBRANCH   1  17
TORSDOF 26
ENDMDL
