MODEL 1
REMARK VINA RESULT:    -6.311      0.000      0.000
REMARK INTER + INTRA:         -13.960
REMARK INTER:                 -10.922
REMARK INTRA:                  -3.038
REMARK UNBOUND:                -3.038
REMARK SMILES OC[C@@H]1O[C@H](O)[C@@H](O)[C@H](O)[C@@H]1O[C@@H]1O[C@H](CO)[C@@H](O[C@@H]2O[C@H](CO)[C@@H](O)[C@@H](O)[C@@H]2O)[C@@H](O)[C@H]1O
REMARK SMILES IDX 18 1 15 2 14 3 13 4 33 5 31 6 19 7 20 8 22 9 25 10 21 11
REMARK SMILES IDX 27 12 29 13 23 14 24 15 26 17 28 19 30 21 16 23 17 24 32 26
REMARK SMILES IDX 34 28 12 30 11 31 3 32 9 33 4 34 7 35 5 36 2 37 1 38 10 40
REMARK SMILES IDX 8 42 6 44
REMARK H PARENT 24 16 26 18 28 20 30 22 17 25 32 27 34 29 1 39 10 41 8 43 6 45
REMARK Flexibility Score: inf
ROOT
ATOM      1  C   UNL     1      17.869  26.786  52.913  1.00  0.00     0.184 C 
ATOM      2  C   UNL     1      18.191  28.196  52.352  1.00  0.00     0.178 C 
ATOM      3  O   UNL     1      19.262  28.223  51.408  1.00  0.00    -0.341 OA
ATOM      4  C   UNL     1      20.455  27.578  51.842  1.00  0.00     0.282 C 
ATOM      5  C   UNL     1      20.206  26.118  52.257  1.00  0.00     0.202 C 
ATOM      6  C   UNL     1      19.145  26.052  53.358  1.00  0.00     0.180 C 
ENDROOT
BRANCH   1   7
ATOM      7  O   UNL     1      17.227  26.016  51.906  1.00  0.00    -0.341 OA
BRANCH   7   8
ATOM      8  C   UNL     1      16.363  26.804  51.108  1.00  0.00     0.282 C 
ATOM      9  C   UNL     1      14.136  25.929  50.799  1.00  0.00     0.178 C 
ATOM     10  C   UNL     1      14.795  24.621  50.293  1.00  0.00     0.177 C 
ATOM     11  O   UNL     1      15.023  26.697  51.601  1.00  0.00    -0.341 OA
ATOM     12  C   UNL     1      16.066  24.917  49.442  1.00  0.00     0.179 C 
ATOM     13  C   UNL     1      16.528  26.376  49.631  1.00  0.00     0.202 C 
BRANCH   9  14
ATOM     14  C   UNL     1      12.885  25.621  51.636  1.00  0.00     0.191 C 
BRANCH  14  15
ATOM     15  O   UNL     1      12.973  24.325  52.158  1.00  0.00    -0.394 OA
ATOM     16  H   UNL     1      13.150  24.425  53.128  1.00  0.00     0.210 HD
ENDBRANCH  14  15
ENDBRANCH   9  14
BRANCH  10  17
ATOM     17  O   UNL     1      13.864  23.875  49.545  1.00  0.00    -0.387 OA
ATOM     18  H   UNL     1      14.239  23.757  48.633  1.00  0.00     0.211 HD
ENDBRANCH  10  17
BRANCH  12  19
ATOM     19  O   UNL     1      15.852  24.685  48.072  1.00  0.00    -0.387 OA
ATOM     20  H   UNL     1      14.887  24.820  47.895  1.00  0.00     0.211 HD
ENDBRANCH  12  19
BRANCH  13  21
ATOM     21  O   UNL     1      17.851  26.560  49.193  1.00  0.00    -0.385 OA
ATOM     22  H   UNL     1      18.397  26.846  49.970  1.00  0.00     0.211 HD
ENDBRANCH  13  21
ENDBRANCH   7   8
ENDBRANCH   1   7
BRANCH   2  23
ATOM     23  C   UNL     1      18.353  29.266  53.451  1.00  0.00     0.191 C 
BRANCH  23  24
ATOM     24  O   UNL     1      18.786  30.477  52.901  1.00  0.00    -0.394 OA
ATOM     25  H   UNL     1      17.998  31.085  52.870  1.00  0.00     0.210 HD
ENDBRANCH  23  24
ENDBRANCH   2  23
BRANCH   6  26
ATOM     26  O   UNL     1      18.840  24.714  53.654  1.00  0.00    -0.387 OA
ATOM     27  H   UNL     1      18.152  24.420  53.004  1.00  0.00     0.211 HD
ENDBRANCH   6  26
BRANCH   5  28
ATOM     28  O   UNL     1      19.787  25.369  51.141  1.00  0.00    -0.385 OA
ATOM     29  H   UNL     1      20.152  25.816  50.333  1.00  0.00     0.211 HD
ENDBRANCH   5  28
BRANCH   4  30
ATOM     30  O   UNL     1      21.081  28.299  52.895  1.00  0.00    -0.341 OA
BRANCH  30  31
ATOM     31  C   UNL     1      22.307  28.890  52.475  1.00  0.00     0.184 C 
ATOM     32  C   UNL     1      22.942  29.795  53.593  1.00  0.00     0.178 C 
ATOM     33  C   UNL     1      22.082  29.707  51.193  1.00  0.00     0.180 C 
ATOM     34  O   UNL     1      23.725  30.871  53.080  1.00  0.00    -0.342 OA
ATOM     35  C   UNL     1      23.393  30.403  50.739  1.00  0.00     0.201 C 
ATOM     36  C   UNL     1      24.407  30.511  51.897  1.00  0.00     0.279 C 
BRANCH  32  37
ATOM     37  C   UNL     1      21.888  30.411  54.526  1.00  0.00     0.191 C 
BRANCH  37  38
ATOM     38  O   UNL     1      21.441  31.634  54.002  1.00  0.00    -0.394 OA
ATOM     39  H   UNL     1      22.056  31.851  53.250  1.00  0.00     0.210 HD
ENDBRANCH  37  38
ENDBRANCH  32  37
BRANCH  33  40
ATOM     40  O   UNL     1      21.067  30.658  51.416  1.00  0.00    -0.387 OA
ATOM     41  H   UNL     1      20.501  30.662  50.599  1.00  0.00     0.211 HD
ENDBRANCH  33  40
BRANCH  35  42
ATOM     42  O   UNL     1      23.988  29.690  49.682  1.00  0.00    -0.385 OA
ATOM     43  H   UNL     1      24.139  28.765  50.007  1.00  0.00     0.211 HD
ENDBRANCH  35  42
BRANCH  36  44
ATOM     44  O   UNL     1      25.347  31.504  51.603  1.00  0.00    -0.366 OA
ATOM     45  H   UNL     1      24.945  32.376  51.855  1.00  0.00     0.213 HD
ENDBRANCH  36  44
ENDBRANCH  30  31
ENDBRANCH   4  30
TORSDOF 18
ENDMDL
MODEL 2
REMARK VINA RESULT:    -6.123      1.773      3.609
REMARK INTER + INTRA:         -13.636
REMARK INTER:                 -11.401
REMARK INTRA:                  -2.235
REMARK UNBOUND:                -3.038
REMARK SMILES OC[C@@H]1O[C@H](O)[C@@H](O)[C@H](O)[C@@H]1O[C@@H]1O[C@H](CO)[C@@H](O[C@@H]2O[C@H](CO)[C@@H](O)[C@@H](O)[C@@H]2O)[C@@H](O)[C@H]1O
REMARK SMILES IDX 18 1 15 2 14 3 13 4 33 5 31 6 19 7 20 8 22 9 25 10 21 11
REMARK SMILES IDX 27 12 29 13 23 14 24 15 26 17 28 19 30 21 16 23 17 24 32 26
REMARK SMILES IDX 34 28 12 30 11 31 3 32 9 33 4 34 7 35 5 36 2 37 1 38 10 40
REMARK SMILES IDX 8 42 6 44
REMARK H PARENT 24 16 26 18 28 20 30 22 17 25 32 27 34 29 1 39 10 41 8 43 6 45
REMARK Flexibility Score: inf
ROOT
ATOM      1  C   UNL     1      18.774  25.655  51.365  1.00  0.00     0.184 C 
ATOM      2  C   UNL     1      20.011  25.247  52.209  1.00  0.00     0.178 C 
ATOM      3  O   UNL     1      20.271  26.101  53.323  1.00  0.00    -0.341 OA
ATOM      4  C   UNL     1      20.320  27.489  53.012  1.00  0.00     0.282 C 
ATOM      5  C   UNL     1      19.036  27.973  52.314  1.00  0.00     0.202 C 
ATOM      6  C   UNL     1      18.784  27.158  51.042  1.00  0.00     0.180 C 
ENDROOT
BRANCH   1   7
ATOM      7  O   UNL     1      17.591  25.351  52.091  1.00  0.00    -0.341 OA
BRANCH   7   8
ATOM      8  C   UNL     1      16.875  24.277  51.510  1.00  0.00     0.282 C 
ATOM      9  C   UNL     1      15.464  24.851  49.638  1.00  0.00     0.178 C 
ATOM     10  C   UNL     1      14.801  25.913  50.552  1.00  0.00     0.177 C 
ATOM     11  O   UNL     1      16.759  24.485  50.099  1.00  0.00    -0.341 OA
ATOM     12  C   UNL     1      14.656  25.393  52.014  1.00  0.00     0.179 C 
ATOM     13  C   UNL     1      15.518  24.136  52.241  1.00  0.00     0.202 C 
BRANCH   9  14
ATOM     14  C   UNL     1      15.603  25.378  48.202  1.00  0.00     0.191 C 
BRANCH  14  15
ATOM     15  O   UNL     1      15.816  26.761  48.224  1.00  0.00    -0.394 OA
ATOM     16  H   UNL     1      15.096  27.147  48.785  1.00  0.00     0.210 HD
ENDBRANCH  14  15
ENDBRANCH   9  14
BRANCH  10  17
ATOM     17  O   UNL     1      13.546  26.275  50.030  1.00  0.00    -0.387 OA
ATOM     18  H   UNL     1      12.988  26.595  50.786  1.00  0.00     0.211 HD
ENDBRANCH  10  17
BRANCH  12  19
ATOM     19  O   UNL     1      13.322  25.088  52.336  1.00  0.00    -0.387 OA
ATOM     20  H   UNL     1      13.045  25.697  53.066  1.00  0.00     0.211 HD
ENDBRANCH  12  19
BRANCH  13  21
ATOM     21  O   UNL     1      15.703  23.876  53.610  1.00  0.00    -0.385 OA
ATOM     22  H   UNL     1      16.599  24.212  53.870  1.00  0.00     0.211 HD
ENDBRANCH  13  21
ENDBRANCH   7   8
ENDBRANCH   1   7
BRANCH   2  23
ATOM     23  C   UNL     1      21.273  24.996  51.358  1.00  0.00     0.191 C 
BRANCH  23  24
ATOM     24  O   UNL     1      22.411  24.944  52.167  1.00  0.00    -0.394 OA
ATOM     25  H   UNL     1      22.758  25.874  52.248  1.00  0.00     0.210 HD
ENDBRANCH  23  24
ENDBRANCH   2  23
BRANCH   6  26
ATOM     26  O   UNL     1      17.555  27.525  50.471  1.00  0.00    -0.387 OA
ATOM     27  H   UNL     1      17.753  28.149  49.727  1.00  0.00     0.211 HD
ENDBRANCH   6  26
BRANCH   5  28
ATOM     28  O   UNL     1      17.941  27.847  53.190  1.00  0.00    -0.385 OA
ATOM     29  H   UNL     1      17.220  28.436  52.846  1.00  0.00     0.211 HD
ENDBRANCH   5  28
BRANCH   4  30
ATOM     30  O   UNL     1      21.464  27.805  52.230  1.00  0.00    -0.341 OA
BRANCH  30  31
ATOM     31  C   UNL     1      21.730  29.204  52.223  1.00  0.00     0.184 C 
ATOM     32  C   UNL     1      21.755  29.796  50.766  1.00  0.00     0.178 C 
ATOM     33  C   UNL     1      23.062  29.487  52.935  1.00  0.00     0.180 C 
ATOM     34  O   UNL     1      22.613  30.927  50.625  1.00  0.00    -0.342 OA
ATOM     35  C   UNL     1      23.403  31.001  52.901  1.00  0.00     0.201 C 
ATOM     36  C   UNL     1      22.624  31.731  51.785  1.00  0.00     0.279 C 
BRANCH  32  37
ATOM     37  C   UNL     1      22.193  28.765  49.715  1.00  0.00     0.191 C 
BRANCH  37  38
ATOM     38  O   UNL     1      21.734  29.151  48.446  1.00  0.00    -0.394 OA
ATOM     39  H   UNL     1      21.827  28.347  47.866  1.00  0.00     0.210 HD
ENDBRANCH  37  38
ENDBRANCH  32  37
BRANCH  33  40
ATOM     40  O   UNL     1      24.087  28.735  52.327  1.00  0.00    -0.387 OA
ATOM     41  H   UNL     1      24.662  29.384  51.841  1.00  0.00     0.211 HD
ENDBRANCH  33  40
BRANCH  35  42
ATOM     42  O   UNL     1      23.095  31.603  54.135  1.00  0.00    -0.385 OA
ATOM     43  H   UNL     1      22.516  32.384  53.938  1.00  0.00     0.211 HD
ENDBRANCH  35  42
BRANCH  36  44
ATOM     44  O   UNL     1      23.261  32.939  51.486  1.00  0.00    -0.366 OA
ATOM     45  H   UNL     1      23.126  33.545  52.261  1.00  0.00     0.213 HD
ENDBRANCH  36  44
ENDBRANCH  30  31
ENDBRANCH   4  30
TORSDOF 18
ENDMDL
MODEL 3
REMARK VINA RESULT:    -5.910      1.905      8.009
REMARK INTER + INTRA:         -13.266
REMARK INTER:                 -11.112
REMARK INTRA:                  -2.155
REMARK UNBOUND:                -3.038
REMARK SMILES OC[C@@H]1O[C@H](O)[C@@H](O)[C@H](O)[C@@H]1O[C@@H]1O[C@H](CO)[C@@H](O[C@@H]2O[C@H](CO)[C@@H](O)[C@@H](O)[C@@H]2O)[C@@H](O)[C@H]1O
REMARK SMILES IDX 18 1 15 2 14 3 13 4 33 5 31 6 19 7 20 8 22 9 25 10 21 11
REMARK SMILES IDX 27 12 29 13 23 14 24 15 26 17 28 19 30 21 16 23 17 24 32 26
REMARK SMILES IDX 34 28 12 30 11 31 3 32 9 33 4 34 7 35 5 36 2 37 1 38 10 40
REMARK SMILES IDX 8 42 6 44
REMARK H PARENT 24 16 26 18 28 20 30 22 17 25 32 27 34 29 1 39 10 41 8 43 6 45
REMARK Flexibility Score: inf
ROOT
ATOM      1  C   UNL     1      19.050  29.568  53.221  1.00  0.00     0.184 C 
ATOM      2  C   UNL     1      17.795  29.544  54.133  1.00  0.00     0.178 C 
ATOM      3  O   UNL     1      17.258  28.241  54.361  1.00  0.00    -0.341 OA
ATOM      4  C   UNL     1      17.028  27.477  53.182  1.00  0.00     0.282 C 
ATOM      5  C   UNL     1      18.297  27.339  52.324  1.00  0.00     0.202 C 
ATOM      6  C   UNL     1      18.841  28.722  51.955  1.00  0.00     0.180 C 
ENDROOT
BRANCH   1   7
ATOM      7  O   UNL     1      20.161  29.049  53.940  1.00  0.00    -0.341 OA
BRANCH   7   8
ATOM      8  C   UNL     1      20.882  30.069  54.607  1.00  0.00     0.282 C 
ATOM      9  C   UNL     1      21.737  31.836  53.203  1.00  0.00     0.178 C 
ATOM     10  C   UNL     1      22.419  30.735  52.352  1.00  0.00     0.177 C 
ATOM     11  O   UNL     1      20.648  31.324  53.961  1.00  0.00    -0.341 OA
ATOM     12  C   UNL     1      22.964  29.582  53.247  1.00  0.00     0.179 C 
ATOM     13  C   UNL     1      22.373  29.659  54.668  1.00  0.00     0.202 C 
BRANCH   9  14
ATOM     14  C   UNL     1      21.203  32.965  52.308  1.00  0.00     0.191 C 
BRANCH  14  15
ATOM     15  O   UNL     1      19.805  32.911  52.261  1.00  0.00    -0.394 OA
ATOM     16  H   UNL     1      19.537  32.122  52.799  1.00  0.00     0.210 HD
ENDBRANCH  14  15
ENDBRANCH   9  14
BRANCH  10  17
ATOM     17  O   UNL     1      23.457  31.298  51.587  1.00  0.00    -0.387 OA
ATOM     18  H   UNL     1      23.815  32.075  52.092  1.00  0.00     0.211 HD
ENDBRANCH  10  17
BRANCH  12  19
ATOM     19  O   UNL     1      24.367  29.603  53.340  1.00  0.00    -0.387 OA
ATOM     20  H   UNL     1      24.656  30.547  53.269  1.00  0.00     0.211 HD
ENDBRANCH  12  19
BRANCH  13  21
ATOM     21  O   UNL     1      22.540  28.450  55.364  1.00  0.00    -0.385 OA
ATOM     22  H   UNL     1      21.737  27.889  55.206  1.00  0.00     0.211 HD
ENDBRANCH  13  21
ENDBRANCH   7   8
ENDBRANCH   1   7
BRANCH   2  23
ATOM     23  C   UNL     1      16.712  30.556  53.706  1.00  0.00     0.191 C 
BRANCH  23  24
ATOM     24  O   UNL     1      17.278  31.603  52.972  1.00  0.00    -0.394 OA
ATOM     25  H   UNL     1      17.902  31.196  52.311  1.00  0.00     0.210 HD
ENDBRANCH  23  24
ENDBRANCH   2  23
BRANCH   6  26
ATOM     26  O   UNL     1      20.059  28.593  51.269  1.00  0.00    -0.387 OA
ATOM     27  H   UNL     1      20.642  28.006  51.815  1.00  0.00     0.211 HD
ENDBRANCH   6  26
BRANCH   5  28
ATOM     28  O   UNL     1      19.274  26.612  53.030  1.00  0.00    -0.385 OA
ATOM     29  H   UNL     1      19.172  26.839  53.991  1.00  0.00     0.211 HD
ENDBRANCH   5  28
BRANCH   4  30
ATOM     30  O   UNL     1      15.960  28.016  52.414  1.00  0.00    -0.341 OA
BRANCH  30  31
ATOM     31  C   UNL     1      15.717  27.252  51.237  1.00  0.00     0.184 C 
ATOM     32  C   UNL     1      15.419  28.163  49.990  1.00  0.00     0.178 C 
ATOM     33  C   UNL     1      14.550  26.280  51.476  1.00  0.00     0.180 C 
ATOM     34  O   UNL     1      14.565  27.549  49.026  1.00  0.00    -0.342 OA
ATOM     35  C   UNL     1      14.230  25.467  50.193  1.00  0.00     0.201 C 
ATOM     36  C   UNL     1      14.788  26.159  48.931  1.00  0.00     0.279 C 
BRANCH  32  37
ATOM     37  C   UNL     1      14.773  29.502  50.375  1.00  0.00     0.191 C 
BRANCH  37  38
ATOM     38  O   UNL     1      15.768  30.444  50.682  1.00  0.00    -0.394 OA
ATOM     39  H   UNL     1      16.033  30.265  51.624  1.00  0.00     0.210 HD
ENDBRANCH  37  38
ENDBRANCH  32  37
BRANCH  33  40
ATOM     40  O   UNL     1      13.418  27.003  51.901  1.00  0.00    -0.387 OA
ATOM     41  H   UNL     1      13.615  27.320  52.822  1.00  0.00     0.211 HD
ENDBRANCH  33  40
BRANCH  35  42
ATOM     42  O   UNL     1      14.778  24.174  50.281  1.00  0.00    -0.385 OA
ATOM     43  H   UNL     1      14.058  23.539  50.032  1.00  0.00     0.211 HD
ENDBRANCH  35  42
BRANCH  36  44
ATOM     44  O   UNL     1      14.122  25.674  47.801  1.00  0.00    -0.366 OA
ATOM     45  H   UNL     1      13.608  24.872  48.082  1.00  0.00     0.213 HD
ENDBRANCH  36  44
ENDBRANCH  30  31
ENDBRANCH   4  30
TORSDOF 18
ENDMDL
MODEL 4
REMARK VINA RESULT:    -5.903      1.976      2.585
REMARK INTER + INTRA:         -13.255
REMARK INTER:                 -10.936
REMARK INTRA:                  -2.319
REMARK UNBOUND:                -3.038
REMARK SMILES OC[C@@H]1O[C@H](O)[C@@H](O)[C@H](O)[C@@H]1O[C@@H]1O[C@H](CO)[C@@H](O[C@@H]2O[C@H](CO)[C@@H](O)[C@@H](O)[C@@H]2O)[C@@H](O)[C@H]1O
REMARK SMILES IDX 18 1 15 2 14 3 13 4 33 5 31 6 19 7 20 8 22 9 25 10 21 11
REMARK SMILES IDX 27 12 29 13 23 14 24 15 26 17 28 19 30 21 16 23 17 24 32 26
REMARK SMILES IDX 34 28 12 30 11 31 3 32 9 33 4 34 7 35 5 36 2 37 1 38 10 40
REMARK SMILES IDX 8 42 6 44
REMARK H PARENT 24 16 26 18 28 20 30 22 17 25 32 27 34 29 1 39 10 41 8 43 6 45
REMARK Flexibility Score: inf
ROOT
ATOM      1  C   UNL     1      16.777  27.414  53.456  1.00  0.00     0.184 C 
ATOM      2  C   UNL     1      16.218  28.858  53.553  1.00  0.00     0.178 C 
ATOM      3  O   UNL     1      16.866  29.799  52.697  1.00  0.00    -0.341 OA
ATOM      4  C   UNL     1      18.287  29.810  52.791  1.00  0.00     0.282 C 
ATOM      5  C   UNL     1      18.896  28.420  52.539  1.00  0.00     0.202 C 
ATOM      6  C   UNL     1      18.313  27.399  53.521  1.00  0.00     0.180 C 
ENDROOT
BRANCH   1   7
ATOM      7  O   UNL     1      16.366  26.834  52.224  1.00  0.00    -0.341 OA
BRANCH   7   8
ATOM      8  C   UNL     1      15.075  27.270  51.839  1.00  0.00     0.282 C 
ATOM      9  C   UNL     1      13.561  25.540  51.109  1.00  0.00     0.178 C 
ATOM     10  C   UNL     1      14.648  25.114  50.090  1.00  0.00     0.177 C 
ATOM     11  O   UNL     1      14.107  26.278  52.194  1.00  0.00    -0.341 OA
ATOM     12  C   UNL     1      15.388  26.352  49.498  1.00  0.00     0.179 C 
ATOM     13  C   UNL     1      15.101  27.617  50.332  1.00  0.00     0.202 C 
BRANCH   9  14
ATOM     14  C   UNL     1      12.842  24.311  51.685  1.00  0.00     0.191 C 
BRANCH  14  15
ATOM     15  O   UNL     1      11.643  24.704  52.291  1.00  0.00    -0.394 OA
ATOM     16  H   UNL     1      11.866  24.935  53.228  1.00  0.00     0.210 HD
ENDBRANCH  14  15
ENDBRANCH   9  14
BRANCH  10  17
ATOM     17  O   UNL     1      14.067  24.349  49.062  1.00  0.00    -0.387 OA
ATOM     18  H   UNL     1      14.742  24.253  48.341  1.00  0.00     0.211 HD
ENDBRANCH  10  17
BRANCH  12  19
ATOM     19  O   UNL     1      15.020  26.599  48.164  1.00  0.00    -0.387 OA
ATOM     20  H   UNL     1      14.440  25.852  47.872  1.00  0.00     0.211 HD
ENDBRANCH  12  19
BRANCH  13  21
ATOM     21  O   UNL     1      16.029  28.636  50.060  1.00  0.00    -0.385 OA
ATOM     22  H   UNL     1      16.917  28.217  49.921  1.00  0.00     0.211 HD
ENDBRANCH  13  21
ENDBRANCH   7   8
ENDBRANCH   1   7
BRANCH   2  23
ATOM     23  C   UNL     1      16.103  29.370  55.004  1.00  0.00     0.191 C 
BRANCH  23  24
ATOM     24  O   UNL     1      15.775  30.729  55.023  1.00  0.00    -0.394 OA
ATOM     25  H   UNL     1      16.607  31.235  54.812  1.00  0.00     0.210 HD
ENDBRANCH  23  24
ENDBRANCH   2  23
BRANCH   6  26
ATOM     26  O   UNL     1      18.785  26.113  53.215  1.00  0.00    -0.387 OA
ATOM     27  H   UNL     1      19.773  26.166  53.173  1.00  0.00     0.211 HD
ENDBRANCH   6  26
BRANCH   5  28
ATOM     28  O   UNL     1      18.633  28.017  51.216  1.00  0.00    -0.385 OA
ATOM     29  H   UNL     1      17.699  28.281  51.008  1.00  0.00     0.211 HD
ENDBRANCH   5  28
BRANCH   4  30
ATOM     30  O   UNL     1      18.719  30.327  54.043  1.00  0.00    -0.341 OA
BRANCH  30  31
ATOM     31  C   UNL     1      20.102  30.669  54.024  1.00  0.00     0.184 C 
ATOM     32  C   UNL     1      20.610  31.161  55.429  1.00  0.00     0.178 C 
ATOM     33  C   UNL     1      20.360  31.746  52.958  1.00  0.00     0.180 C 
ATOM     34  O   UNL     1      21.689  32.090  55.352  1.00  0.00    -0.342 OA
ATOM     35  C   UNL     1      21.852  32.174  52.948  1.00  0.00     0.201 C 
ATOM     36  C   UNL     1      22.555  31.807  54.273  1.00  0.00     0.279 C 
BRANCH  32  37
ATOM     37  C   UNL     1      19.502  31.826  56.260  1.00  0.00     0.191 C 
BRANCH  37  38
ATOM     38  O   UNL     1      19.603  33.223  56.162  1.00  0.00    -0.394 OA
ATOM     39  H   UNL     1      19.967  33.533  57.036  1.00  0.00     0.210 HD
ENDBRANCH  37  38
ENDBRANCH  32  37
BRANCH  33  40
ATOM     40  O   UNL     1      19.528  32.856  53.203  1.00  0.00    -0.387 OA
ATOM     41  H   UNL     1      20.014  33.653  52.861  1.00  0.00     0.211 HD
ENDBRANCH  33  40
BRANCH  35  42
ATOM     42  O   UNL     1      22.535  31.552  51.887  1.00  0.00    -0.385 OA
ATOM     43  H   UNL     1      23.108  30.847  52.286  1.00  0.00     0.211 HD
ENDBRANCH  35  42
BRANCH  36  44
ATOM     44  O   UNL     1      23.713  32.577  54.415  1.00  0.00    -0.366 OA
ATOM     45  H   UNL     1      24.452  31.959  54.655  1.00  0.00     0.213 HD
ENDBRANCH  36  44
ENDBRANCH  30  31
ENDBRANCH   4  30
TORSDOF 18
ENDMDL
MODEL 5
REMARK VINA RESULT:    -5.893      2.261      9.055
REMARK INTER + INTRA:         -13.238
REMARK INTER:                 -10.872
REMARK INTRA:                  -2.366
REMARK UNBOUND:                -3.038
REMARK SMILES OC[C@@H]1O[C@H](O)[C@@H](O)[C@H](O)[C@@H]1O[C@@H]1O[C@H](CO)[C@@H](O[C@@H]2O[C@H](CO)[C@@H](O)[C@@H](O)[C@@H]2O)[C@@H](O)[C@H]1O
REMARK SMILES IDX 18 1 15 2 14 3 13 4 33 5 31 6 19 7 20 8 22 9 25 10 21 11
REMARK SMILES IDX 27 12 29 13 23 14 24 15 26 17 28 19 30 21 16 23 17 24 32 26
REMARK SMILES IDX 34 28 12 30 11 31 3 32 9 33 4 34 7 35 5 36 2 37 1 38 10 40
REMARK SMILES IDX 8 42 6 44
REMARK H PARENT 24 16 26 18 28 20 30 22 17 25 32 27 34 29 1 39 10 41 8 43 6 45
REMARK Flexibility Score: inf
ROOT
ATOM      1  C   UNL     1      22.639  29.617  53.163  1.00  0.00     0.184 C 
ATOM      2  C   UNL     1      21.785  29.410  51.884  1.00  0.00     0.178 C 
ATOM      3  O   UNL     1      20.454  29.918  51.976  1.00  0.00    -0.341 OA
ATOM      4  C   UNL     1      19.732  29.494  53.128  1.00  0.00     0.282 C 
ATOM      5  C   UNL     1      20.475  29.828  54.433  1.00  0.00     0.202 C 
ATOM      6  C   UNL     1      21.870  29.197  54.427  1.00  0.00     0.180 C 
ENDROOT
BRANCH   1   7
ATOM      7  O   UNL     1      22.989  30.990  53.276  1.00  0.00    -0.341 OA
BRANCH   7   8
ATOM      8  C   UNL     1      23.462  31.517  52.050  1.00  0.00     0.282 C 
ATOM      9  C   UNL     1      25.263  33.114  52.223  1.00  0.00     0.178 C 
ATOM     10  C   UNL     1      24.365  33.917  53.198  1.00  0.00     0.177 C 
ATOM     11  O   UNL     1      24.872  31.750  52.139  1.00  0.00    -0.341 OA
ATOM     12  C   UNL     1      22.871  33.877  52.757  1.00  0.00     0.179 C 
ATOM     13  C   UNL     1      22.635  32.778  51.703  1.00  0.00     0.202 C 
BRANCH   9  14
ATOM     14  C   UNL     1      26.731  33.160  52.672  1.00  0.00     0.191 C 
BRANCH  14  15
ATOM     15  O   UNL     1      27.256  34.438  52.444  1.00  0.00    -0.394 OA
ATOM     16  H   UNL     1      27.149  34.939  53.292  1.00  0.00     0.210 HD
ENDBRANCH  14  15
ENDBRANCH   9  14
BRANCH  10  17
ATOM     17  O   UNL     1      24.820  35.245  53.283  1.00  0.00    -0.387 OA
ATOM     18  H   UNL     1      25.428  35.403  52.514  1.00  0.00     0.211 HD
ENDBRANCH  10  17
BRANCH  12  19
ATOM     19  O   UNL     1      22.444  35.108  52.228  1.00  0.00    -0.387 OA
ATOM     20  H   UNL     1      23.155  35.435  51.623  1.00  0.00     0.211 HD
ENDBRANCH  12  19
BRANCH  13  21
ATOM     21  O   UNL     1      21.270  32.470  51.573  1.00  0.00    -0.385 OA
ATOM     22  H   UNL     1      20.748  33.288  51.779  1.00  0.00     0.211 HD
ENDBRANCH  13  21
ENDBRANCH   7   8
ENDBRANCH   1   7
BRANCH   2  23
ATOM     23  C   UNL     1      21.822  27.962  51.355  1.00  0.00     0.191 C 
BRANCH  23  24
ATOM     24  O   UNL     1      20.751  27.725  50.489  1.00  0.00    -0.394 OA
ATOM     25  H   UNL     1      20.845  28.356  49.724  1.00  0.00     0.210 HD
ENDBRANCH  23  24
ENDBRANCH   2  23
BRANCH   6  26
ATOM     26  O   UNL     1      22.585  29.598  55.567  1.00  0.00    -0.387 OA
ATOM     27  H   UNL     1      23.533  29.696  55.298  1.00  0.00     0.211 HD
ENDBRANCH   6  26
BRANCH   5  28
ATOM     28  O   UNL     1      20.580  31.224  54.579  1.00  0.00    -0.385 OA
ATOM     29  H   UNL     1      19.919  31.635  53.961  1.00  0.00     0.211 HD
ENDBRANCH   5  28
BRANCH   4  30
ATOM     30  O   UNL     1      19.427  28.107  53.066  1.00  0.00    -0.341 OA
BRANCH  30  31
ATOM     31  C   UNL     1      18.045  27.859  53.305  1.00  0.00     0.184 C 
ATOM     32  C   UNL     1      17.763  26.348  53.639  1.00  0.00     0.178 C 
ATOM     33  C   UNL     1      17.217  28.298  52.087  1.00  0.00     0.180 C 
ATOM     34  O   UNL     1      16.463  25.911  53.247  1.00  0.00    -0.342 OA
ATOM     35  C   UNL     1      15.709  27.994  52.299  1.00  0.00     0.201 C 
ATOM     36  C   UNL     1      15.495  26.928  53.394  1.00  0.00     0.279 C 
BRANCH  32  37
ATOM     37  C   UNL     1      18.775  25.397  52.983  1.00  0.00     0.191 C 
BRANCH  37  38
ATOM     38  O   UNL     1      18.173  24.726  51.906  1.00  0.00    -0.394 OA
ATOM     39  H   UNL     1      17.320  24.353  52.259  1.00  0.00     0.210 HD
ENDBRANCH  37  38
ENDBRANCH  32  37
BRANCH  33  40
ATOM     40  O   UNL     1      17.696  27.644  50.934  1.00  0.00    -0.387 OA
ATOM     41  H   UNL     1      18.139  26.811  51.247  1.00  0.00     0.211 HD
ENDBRANCH  33  40
BRANCH  35  42
ATOM     42  O   UNL     1      15.018  29.165  52.666  1.00  0.00    -0.385 OA
ATOM     43  H   UNL     1      14.891  29.694  51.837  1.00  0.00     0.211 HD
ENDBRANCH  35  42
BRANCH  36  44
ATOM     44  O   UNL     1      14.225  26.361  53.251  1.00  0.00    -0.366 OA
ATOM     45  H   UNL     1      13.974  25.972  54.130  1.00  0.00     0.213 HD
ENDBRANCH  36  44
ENDBRANCH  30  31
ENDBRANCH   4  30
TORSDOF 18
ENDMDL
MODEL 6
REMARK VINA RESULT:    -5.747      2.537      8.705
REMARK INTER + INTRA:         -12.984
REMARK INTER:                 -11.062
REMARK INTRA:                  -1.922
REMARK UNBOUND:                -3.038
REMARK SMILES OC[C@@H]1O[C@H](O)[C@@H](O)[C@H](O)[C@@H]1O[C@@H]1O[C@H](CO)[C@@H](O[C@@H]2O[C@H](CO)[C@@H](O)[C@@H](O)[C@@H]2O)[C@@H](O)[C@H]1O
REMARK SMILES IDX 18 1 15 2 14 3 13 4 33 5 31 6 19 7 20 8 22 9 25 10 21 11
REMARK SMILES IDX 27 12 29 13 23 14 24 15 26 17 28 19 30 21 16 23 17 24 32 26
REMARK SMILES IDX 34 28 12 30 11 31 3 32 9 33 4 34 7 35 5 36 2 37 1 38 10 40
REMARK SMILES IDX 8 42 6 44
REMARK H PARENT 24 16 26 18 28 20 30 22 17 25 32 27 34 29 1 39 10 41 8 43 6 45
REMARK Flexibility Score: inf
ROOT
ATOM      1  C   UNL     1      20.900  30.947  52.527  1.00  0.00     0.184 C 
ATOM      2  C   UNL     1      19.892  30.514  53.624  1.00  0.00     0.178 C 
ATOM      3  O   UNL     1      20.058  29.172  54.080  1.00  0.00    -0.341 OA
ATOM      4  C   UNL     1      20.113  28.194  53.045  1.00  0.00     0.282 C 
ATOM      5  C   UNL     1      21.215  28.501  52.016  1.00  0.00     0.202 C 
ATOM      6  C   UNL     1      21.005  29.893  51.413  1.00  0.00     0.180 C 
ENDROOT
BRANCH   1   7
ATOM      7  O   UNL     1      22.183  31.123  53.112  1.00  0.00    -0.341 OA
BRANCH   7   8
ATOM      8  C   UNL     1      22.259  32.315  53.871  1.00  0.00     0.282 C 
ATOM      9  C   UNL     1      21.872  34.360  52.650  1.00  0.00     0.178 C 
ATOM     10  C   UNL     1      22.988  33.906  51.674  1.00  0.00     0.177 C 
ATOM     11  O   UNL     1      21.316  33.266  53.368  1.00  0.00    -0.341 OA
ATOM     12  C   UNL     1      24.149  33.194  52.430  1.00  0.00     0.179 C 
ATOM     13  C   UNL     1      23.724  32.814  53.862  1.00  0.00     0.202 C 
BRANCH   9  14
ATOM     14  C   UNL     1      20.734  35.058  51.890  1.00  0.00     0.191 C 
BRANCH  14  15
ATOM     15  O   UNL     1      21.077  36.393  51.646  1.00  0.00    -0.394 OA
ATOM     16  H   UNL     1      21.609  36.397  50.810  1.00  0.00     0.210 HD
ENDBRANCH  14  15
ENDBRANCH   9  14
BRANCH  10  17
ATOM     17  O   UNL     1      23.473  35.014  50.955  1.00  0.00    -0.387 OA
ATOM     18  H   UNL     1      24.294  34.725  50.476  1.00  0.00     0.211 HD
ENDBRANCH  10  17
BRANCH  12  19
ATOM     19  O   UNL     1      25.303  33.995  52.500  1.00  0.00    -0.387 OA
ATOM     20  H   UNL     1      26.067  33.443  52.199  1.00  0.00     0.211 HD
ENDBRANCH  12  19
BRANCH  13  21
ATOM     21  O   UNL     1      24.590  31.859  54.422  1.00  0.00    -0.385 OA
ATOM     22  H   UNL     1      24.719  32.083  55.379  1.00  0.00     0.211 HD
ENDBRANCH  13  21
ENDBRANCH   7   8
ENDBRANCH   1   7
BRANCH   2  23
ATOM     23  C   UNL     1      18.426  30.834  53.265  1.00  0.00     0.191 C 
BRANCH  23  24
ATOM     24  O   UNL     1      18.304  32.152  52.816  1.00  0.00    -0.394 OA
ATOM     25  H   UNL     1      19.157  32.618  53.034  1.00  0.00     0.210 HD
ENDBRANCH  23  24
ENDBRANCH   2  23
BRANCH   6  26
ATOM     26  O   UNL     1      22.074  30.214  50.560  1.00  0.00    -0.387 OA
ATOM     27  H   UNL     1      22.891  29.813  50.952  1.00  0.00     0.211 HD
ENDBRANCH   6  26
BRANCH   5  28
ATOM     28  O   UNL     1      22.478  28.432  52.635  1.00  0.00    -0.385 OA
ATOM     29  H   UNL     1      23.143  28.782  51.985  1.00  0.00     0.211 HD
ENDBRANCH   5  28
BRANCH   4  30
ATOM     30  O   UNL     1      18.854  28.048  52.402  1.00  0.00    -0.341 OA
BRANCH  30  31
ATOM     31  C   UNL     1      18.054  27.049  53.028  1.00  0.00     0.184 C 
ATOM     32  C   UNL     1      18.034  25.707  52.208  1.00  0.00     0.178 C 
ATOM     33  C   UNL     1      16.623  27.573  53.226  1.00  0.00     0.180 C 
ATOM     34  O   UNL     1      16.830  24.958  52.370  1.00  0.00    -0.342 OA
ATOM     35  C   UNL     1      15.715  26.487  53.862  1.00  0.00     0.201 C 
ATOM     36  C   UNL     1      16.306  25.074  53.675  1.00  0.00     0.279 C 
BRANCH  32  37
ATOM     37  C   UNL     1      18.225  25.930  50.700  1.00  0.00     0.191 C 
BRANCH  37  38
ATOM     38  O   UNL     1      16.989  25.838  50.041  1.00  0.00    -0.394 OA
ATOM     39  H   UNL     1      16.693  26.775  49.884  1.00  0.00     0.210 HD
ENDBRANCH  37  38
ENDBRANCH  32  37
BRANCH  33  40
ATOM     40  O   UNL     1      16.102  27.991  51.985  1.00  0.00    -0.387 OA
ATOM     41  H   UNL     1      15.667  27.195  51.580  1.00  0.00     0.211 HD
ENDBRANCH  33  40
BRANCH  35  42
ATOM     42  O   UNL     1      15.548  26.730  55.238  1.00  0.00    -0.385 OA
ATOM     43  H   UNL     1      16.143  27.488  55.471  1.00  0.00     0.211 HD
ENDBRANCH  35  42
BRANCH  36  44
ATOM     44  O   UNL     1      15.297  24.121  53.839  1.00  0.00    -0.366 OA
ATOM     45  H   UNL     1      15.614  23.278  53.421  1.00  0.00     0.213 HD
ENDBRANCH  36  44
ENDBRANCH  30  31
ENDBRANCH   4  30
TORSDOF 18
ENDMDL
MODEL 7
REMARK VINA RESULT:    -5.739      2.049      8.332
REMARK INTER + INTRA:         -12.971
REMARK INTER:                 -10.793
REMARK INTRA:                  -2.177
REMARK UNBOUND:                -3.038
REMARK SMILES OC[C@@H]1O[C@H](O)[C@@H](O)[C@H](O)[C@@H]1O[C@@H]1O[C@H](CO)[C@@H](O[C@@H]2O[C@H](CO)[C@@H](O)[C@@H](O)[C@@H]2O)[C@@H](O)[C@H]1O
REMARK SMILES IDX 18 1 15 2 14 3 13 4 33 5 31 6 19 7 20 8 22 9 25 10 21 11
REMARK SMILES IDX 27 12 29 13 23 14 24 15 26 17 28 19 30 21 16 23 17 24 32 26
REMARK SMILES IDX 34 28 12 30 11 31 3 32 9 33 4 34 7 35 5 36 2 37 1 38 10 40
REMARK SMILES IDX 8 42 6 44
REMARK H PARENT 24 16 26 18 28 20 30 22 17 25 32 27 34 29 1 39 10 41 8 43 6 45
REMARK Flexibility Score: inf
ROOT
ATOM      1  C   UNL     1      17.564  28.813  53.808  1.00  0.00     0.184 C 
ATOM      2  C   UNL     1      18.032  27.739  52.791  1.00  0.00     0.178 C 
ATOM      3  O   UNL     1      17.678  28.018  51.436  1.00  0.00    -0.341 OA
ATOM      4  C   UNL     1      16.303  28.329  51.231  1.00  0.00     0.282 C 
ATOM      5  C   UNL     1      15.837  29.502  52.110  1.00  0.00     0.202 C 
ATOM      6  C   UNL     1      16.091  29.193  53.588  1.00  0.00     0.180 C 
ENDROOT
BRANCH   1   7
ATOM      7  O   UNL     1      18.363  29.979  53.660  1.00  0.00    -0.341 OA
BRANCH   7   8
ATOM      8  C   UNL     1      19.715  29.741  54.004  1.00  0.00     0.282 C 
ATOM      9  C   UNL     1      20.875  31.590  55.033  1.00  0.00     0.178 C 
ATOM     10  C   UNL     1      20.452  32.445  53.812  1.00  0.00     0.177 C 
ATOM     11  O   UNL     1      20.039  30.453  55.203  1.00  0.00    -0.341 OA
ATOM     12  C   UNL     1      20.504  31.616  52.493  1.00  0.00     0.179 C 
ATOM     13  C   UNL     1      20.605  30.107  52.793  1.00  0.00     0.202 C 
BRANCH   9  14
ATOM     14  C   UNL     1      20.818  32.419  56.325  1.00  0.00     0.191 C 
BRANCH  14  15
ATOM     15  O   UNL     1      19.712  33.276  56.288  1.00  0.00    -0.394 OA
ATOM     16  H   UNL     1      18.961  32.749  55.914  1.00  0.00     0.210 HD
ENDBRANCH  14  15
ENDBRANCH   9  14
BRANCH  10  17
ATOM     17  O   UNL     1      21.278  33.580  53.714  1.00  0.00    -0.387 OA
ATOM     18  H   UNL     1      21.518  33.694  52.757  1.00  0.00     0.211 HD
ENDBRANCH  10  17
BRANCH  12  19
ATOM     19  O   UNL     1      21.587  31.988  51.677  1.00  0.00    -0.387 OA
ATOM     20  H   UNL     1      21.894  32.879  51.978  1.00  0.00     0.211 HD
ENDBRANCH  12  19
BRANCH  13  21
ATOM     21  O   UNL     1      20.276  29.333  51.667  1.00  0.00    -0.385 OA
ATOM     22  H   UNL     1      20.980  28.645  51.548  1.00  0.00     0.211 HD
ENDBRANCH  13  21
ENDBRANCH   7   8
ENDBRANCH   1   7
BRANCH   2  23
ATOM     23  C   UNL     1      17.661  26.302  53.208  1.00  0.00     0.191 C 
BRANCH  23  24
ATOM     24  O   UNL     1      17.934  25.402  52.174  1.00  0.00    -0.394 OA
ATOM     25  H   UNL     1      17.132  24.819  52.071  1.00  0.00     0.210 HD
ENDBRANCH  23  24
ENDBRANCH   2  23
BRANCH   6  26
ATOM     26  O   UNL     1      15.769  30.309  54.376  1.00  0.00    -0.387 OA
ATOM     27  H   UNL     1      14.872  30.620  54.092  1.00  0.00     0.211 HD
ENDBRANCH   6  26
BRANCH   5  28
ATOM     28  O   UNL     1      16.522  30.676  51.741  1.00  0.00    -0.385 OA
ATOM     29  H   UNL     1      17.437  30.408  51.464  1.00  0.00     0.211 HD
ENDBRANCH   5  28
BRANCH   4  30
ATOM     30  O   UNL     1      15.478  27.190  51.437  1.00  0.00    -0.341 OA
BRANCH  30  31
ATOM     31  C   UNL     1      14.862  26.758  50.229  1.00  0.00     0.184 C 
ATOM     32  C   UNL     1      14.051  25.424  50.420  1.00  0.00     0.178 C 
ATOM     33  C   UNL     1      15.925  26.582  49.133  1.00  0.00     0.180 C 
ATOM     34  O   UNL     1      13.985  24.623  49.242  1.00  0.00    -0.342 OA
ATOM     35  C   UNL     1      15.288  26.064  47.816  1.00  0.00     0.201 C 
ATOM     36  C   UNL     1      13.914  25.408  48.071  1.00  0.00     0.279 C 
BRANCH  32  37
ATOM     37  C   UNL     1      14.624  24.537  51.536  1.00  0.00     0.191 C 
BRANCH  37  38
ATOM     38  O   UNL     1      14.179  24.993  52.787  1.00  0.00    -0.394 OA
ATOM     39  H   UNL     1      14.452  25.949  52.842  1.00  0.00     0.210 HD
ENDBRANCH  37  38
ENDBRANCH  32  37
BRANCH  33  40
ATOM     40  O   UNL     1      16.920  25.692  49.585  1.00  0.00    -0.387 OA
ATOM     41  H   UNL     1      17.684  25.780  48.954  1.00  0.00     0.211 HD
ENDBRANCH  33  40
BRANCH  35  42
ATOM     42  O   UNL     1      15.122  27.121  46.901  1.00  0.00    -0.385 OA
ATOM     43  H   UNL     1      16.019  27.323  46.529  1.00  0.00     0.211 HD
ENDBRANCH  35  42
BRANCH  36  44
ATOM     44  O   UNL     1      13.587  24.578  46.994  1.00  0.00    -0.366 OA
ATOM     45  H   UNL     1      12.904  23.933  47.315  1.00  0.00     0.213 HD
ENDBRANCH  36  44
ENDBRANCH  30  31
ENDBRANCH   4  30
TORSDOF 18
ENDMDL
MODEL 8
REMARK VINA RESULT:    -5.703      2.208      8.605
REMARK INTER + INTRA:         -12.909
REMARK INTER:                 -11.148
REMARK INTRA:                  -1.762
REMARK UNBOUND:                -3.038
REMARK SMILES OC[C@@H]1O[C@H](O)[C@@H](O)[C@H](O)[C@@H]1O[C@@H]1O[C@H](CO)[C@@H](O[C@@H]2O[C@H](CO)[C@@H](O)[C@@H](O)[C@@H]2O)[C@@H](O)[C@H]1O
REMARK SMILES IDX 18 1 15 2 14 3 13 4 33 5 31 6 19 7 20 8 22 9 25 10 21 11
REMARK SMILES IDX 27 12 29 13 23 14 24 15 26 17 28 19 30 21 16 23 17 24 32 26
REMARK SMILES IDX 34 28 12 30 11 31 3 32 9 33 4 34 7 35 5 36 2 37 1 38 10 40
REMARK SMILES IDX 8 42 6 44
REMARK H PARENT 24 16 26 18 28 20 30 22 17 25 32 27 34 29 1 39 10 41 8 43 6 45
REMARK Flexibility Score: inf
ROOT
ATOM      1  C   UNL     1      20.216  30.544  53.015  1.00  0.00     0.184 C 
ATOM      2  C   UNL     1      18.879  30.429  53.795  1.00  0.00     0.178 C 
ATOM      3  O   UNL     1      18.533  29.098  54.177  1.00  0.00    -0.341 OA
ATOM      4  C   UNL     1      18.572  28.146  53.119  1.00  0.00     0.282 C 
ATOM      5  C   UNL     1      19.941  28.113  52.418  1.00  0.00     0.202 C 
ATOM      6  C   UNL     1      20.299  29.504  51.886  1.00  0.00     0.180 C 
ENDROOT
BRANCH   1   7
ATOM      7  O   UNL     1      21.301  30.336  53.909  1.00  0.00    -0.341 OA
BRANCH   7   8
ATOM      8  C   UNL     1      21.713  31.540  54.530  1.00  0.00     0.282 C 
ATOM      9  C   UNL     1      21.883  33.460  53.079  1.00  0.00     0.178 C 
ATOM     10  C   UNL     1      22.815  32.610  52.178  1.00  0.00     0.177 C 
ATOM     11  O   UNL     1      21.059  32.650  53.907  1.00  0.00    -0.341 OA
ATOM     12  C   UNL     1      23.748  31.697  53.029  1.00  0.00     0.179 C 
ATOM     13  C   UNL     1      23.257  31.613  54.488  1.00  0.00     0.202 C 
BRANCH   9  14
ATOM     14  C   UNL     1      20.968  34.353  52.227  1.00  0.00     0.191 C 
BRANCH  14  15
ATOM     15  O   UNL     1      21.641  35.533  51.889  1.00  0.00    -0.394 OA
ATOM     16  H   UNL     1      21.677  35.561  50.899  1.00  0.00     0.210 HD
ENDBRANCH  14  15
ENDBRANCH   9  14
BRANCH  10  17
ATOM     17  O   UNL     1      23.575  33.454  51.347  1.00  0.00    -0.387 OA
ATOM     18  H   UNL     1      24.289  32.902  50.932  1.00  0.00     0.211 HD
ENDBRANCH  10  17
BRANCH  12  19
ATOM     19  O   UNL     1      25.079  32.153  53.027  1.00  0.00    -0.387 OA
ATOM     20  H   UNL     1      25.057  33.137  53.135  1.00  0.00     0.211 HD
ENDBRANCH  12  19
BRANCH  13  21
ATOM     21  O   UNL     1      23.836  30.526  55.166  1.00  0.00    -0.385 OA
ATOM     22  H   UNL     1      23.339  30.390  56.013  1.00  0.00     0.211 HD
ENDBRANCH  13  21
ENDBRANCH   7   8
ENDBRANCH   1   7
BRANCH   2  23
ATOM     23  C   UNL     1      17.709  31.165  53.111  1.00  0.00     0.191 C 
BRANCH  23  24
ATOM     24  O   UNL     1      18.145  32.368  52.547  1.00  0.00    -0.394 OA
ATOM     25  H   UNL     1      18.731  32.812  53.219  1.00  0.00     0.210 HD
ENDBRANCH  23  24
ENDBRANCH   2  23
BRANCH   6  26
ATOM     26  O   UNL     1      21.596  29.495  51.349  1.00  0.00    -0.387 OA
ATOM     27  H   UNL     1      21.510  29.655  50.375  1.00  0.00     0.211 HD
ENDBRANCH   6  26
BRANCH   5  28
ATOM     28  O   UNL     1      20.929  27.677  53.321  1.00  0.00    -0.385 OA
ATOM     29  H   UNL     1      21.398  26.911  52.897  1.00  0.00     0.211 HD
ENDBRANCH   5  28
BRANCH   4  30
ATOM     30  O   UNL     1      17.533  28.375  52.177  1.00  0.00    -0.341 OA
BRANCH  30  31
ATOM     31  C   UNL     1      16.586  27.311  52.165  1.00  0.00     0.184 C 
ATOM     32  C   UNL     1      15.435  27.553  51.120  1.00  0.00     0.178 C 
ATOM     33  C   UNL     1      15.996  27.120  53.571  1.00  0.00     0.180 C 
ATOM     34  O   UNL     1      14.196  26.949  51.487  1.00  0.00    -0.342 OA
ATOM     35  C   UNL     1      14.924  25.998  53.578  1.00  0.00     0.201 C 
ATOM     36  C   UNL     1      14.384  25.722  52.159  1.00  0.00     0.279 C 
BRANCH  32  37
ATOM     37  C   UNL     1      15.156  29.044  50.881  1.00  0.00     0.191 C 
BRANCH  37  38
ATOM     38  O   UNL     1      14.210  29.509  51.809  1.00  0.00    -0.394 OA
ATOM     39  H   UNL     1      14.121  30.486  51.642  1.00  0.00     0.210 HD
ENDBRANCH  37  38
ENDBRANCH  32  37
BRANCH  33  40
ATOM     40  O   UNL     1      15.443  28.337  54.016  1.00  0.00    -0.387 OA
ATOM     41  H   UNL     1      15.925  29.059  53.532  1.00  0.00     0.211 HD
ENDBRANCH  33  40
BRANCH  35  42
ATOM     42  O   UNL     1      15.463  24.805  54.097  1.00  0.00    -0.385 OA
ATOM     43  H   UNL     1      15.205  24.766  55.054  1.00  0.00     0.211 HD
ENDBRANCH  35  42
BRANCH  36  44
ATOM     44  O   UNL     1      13.151  25.067  52.248  1.00  0.00    -0.366 OA
ATOM     45  H   UNL     1      12.510  25.563  51.675  1.00  0.00     0.213 HD
ENDBRANCH  36  44
ENDBRANCH  30  31
ENDBRANCH   4  30
TORSDOF 18
ENDMDL
MODEL 9
REMARK VINA RESULT:    -5.623      1.850      8.511
REMARK INTER + INTRA:         -12.770
REMARK INTER:                 -10.434
REMARK INTRA:                  -2.336
REMARK UNBOUND:                -3.038
REMARK SMILES OC[C@@H]1O[C@H](O)[C@@H](O)[C@H](O)[C@@H]1O[C@@H]1O[C@H](CO)[C@@H](O[C@@H]2O[C@H](CO)[C@@H](O)[C@@H](O)[C@@H]2O)[C@@H](O)[C@H]1O
REMARK SMILES IDX 18 1 15 2 14 3 13 4 33 5 31 6 19 7 20 8 22 9 25 10 21 11
REMARK SMILES IDX 27 12 29 13 23 14 24 15 26 17 28 19 30 21 16 23 17 24 32 26
REMARK SMILES IDX 34 28 12 30 11 31 3 32 9 33 4 34 7 35 5 36 2 37 1 38 10 40
REMARK SMILES IDX 8 42 6 44
REMARK H PARENT 24 16 26 18 28 20 30 22 17 25 32 27 34 29 1 39 10 41 8 43 6 45
REMARK Flexibility Score: inf
ROOT
ATOM      1  C   UNL     1      21.243  28.357  53.059  1.00  0.00     0.184 C 
ATOM      2  C   UNL     1      20.607  27.376  52.039  1.00  0.00     0.178 C 
ATOM      3  O   UNL     1      19.409  27.856  51.429  1.00  0.00    -0.341 OA
ATOM      4  C   UNL     1      18.424  28.329  52.342  1.00  0.00     0.282 C 
ATOM      5  C   UNL     1      18.973  29.425  53.271  1.00  0.00     0.202 C 
ATOM      6  C   UNL     1      20.194  28.909  54.038  1.00  0.00     0.180 C 
ENDROOT
BRANCH   1   7
ATOM      7  O   UNL     1      21.833  29.444  52.359  1.00  0.00    -0.341 OA
BRANCH   7   8
ATOM      8  C   UNL     1      23.239  29.474  52.516  1.00  0.00     0.282 C 
ATOM      9  C   UNL     1      24.066  30.900  54.278  1.00  0.00     0.178 C 
ATOM     10  C   UNL     1      23.264  32.054  53.626  1.00  0.00     0.177 C 
ATOM     11  O   UNL     1      23.565  29.624  53.902  1.00  0.00    -0.341 OA
ATOM     12  C   UNL     1      23.306  31.967  52.070  1.00  0.00     0.179 C 
ATOM     13  C   UNL     1      23.814  30.587  51.609  1.00  0.00     0.202 C 
BRANCH   9  14
ATOM     14  C   UNL     1      24.013  30.997  55.810  1.00  0.00     0.191 C 
BRANCH  14  15
ATOM     15  O   UNL     1      22.867  31.701  56.200  1.00  0.00    -0.394 OA
ATOM     16  H   UNL     1      22.236  31.653  55.438  1.00  0.00     0.210 HD
ENDBRANCH  14  15
ENDBRANCH   9  14
BRANCH  10  17
ATOM     17  O   UNL     1      23.766  33.293  54.065  1.00  0.00    -0.387 OA
ATOM     18  H   UNL     1      24.248  33.708  53.302  1.00  0.00     0.211 HD
ENDBRANCH  10  17
BRANCH  12  19
ATOM     19  O   UNL     1      24.127  32.961  51.508  1.00  0.00    -0.387 OA
ATOM     20  H   UNL     1      23.556  33.528  50.932  1.00  0.00     0.211 HD
ENDBRANCH  12  19
BRANCH  13  21
ATOM     21  O   UNL     1      23.509  30.350  50.257  1.00  0.00    -0.385 OA
ATOM     22  H   UNL     1      22.727  29.740  50.219  1.00  0.00     0.211 HD
ENDBRANCH  13  21
ENDBRANCH   7   8
ENDBRANCH   1   7
BRANCH   2  23
ATOM     23  C   UNL     1      20.450  25.943  52.588  1.00  0.00     0.191 C 
BRANCH  23  24
ATOM     24  O   UNL     1      21.417  25.680  53.562  1.00  0.00    -0.394 OA
ATOM     25  H   UNL     1      21.443  24.692  53.692  1.00  0.00     0.210 HD
ENDBRANCH  23  24
ENDBRANCH   2  23
BRANCH   6  26
ATOM     26  O   UNL     1      20.759  29.946  54.798  1.00  0.00    -0.387 OA
ATOM     27  H   UNL     1      21.368  30.449  54.200  1.00  0.00     0.211 HD
ENDBRANCH   6  26
BRANCH   5  28
ATOM     28  O   UNL     1      19.325  30.560  52.515  1.00  0.00    -0.385 OA
ATOM     29  H   UNL     1      18.582  30.731  51.879  1.00  0.00     0.211 HD
ENDBRANCH   5  28
BRANCH   4  30
ATOM     30  O   UNL     1      17.865  27.264  53.099  1.00  0.00    -0.341 OA
BRANCH  30  31
ATOM     31  C   UNL     1      16.661  26.776  52.517  1.00  0.00     0.184 C 
ATOM     32  C   UNL     1      15.413  27.020  53.442  1.00  0.00     0.178 C 
ATOM     33  C   UNL     1      16.803  25.279  52.199  1.00  0.00     0.180 C 
ATOM     34  O   UNL     1      14.382  26.047  53.278  1.00  0.00    -0.342 OA
ATOM     35  C   UNL     1      15.487  24.707  51.607  1.00  0.00     0.201 C 
ATOM     36  C   UNL     1      14.278  25.607  51.941  1.00  0.00     0.279 C 
BRANCH  32  37
ATOM     37  C   UNL     1      15.777  27.043  54.934  1.00  0.00     0.191 C 
BRANCH  37  38
ATOM     38  O   UNL     1      16.145  28.342  55.318  1.00  0.00    -0.394 OA
ATOM     39  H   UNL     1      15.347  28.731  55.767  1.00  0.00     0.210 HD
ENDBRANCH  37  38
ENDBRANCH  32  37
BRANCH  33  40
ATOM     40  O   UNL     1      17.162  24.583  53.371  1.00  0.00    -0.387 OA
ATOM     41  H   UNL     1      16.479  24.814  54.056  1.00  0.00     0.211 HD
ENDBRANCH  33  40
BRANCH  35  42
ATOM     42  O   UNL     1      15.588  24.586  50.208  1.00  0.00    -0.385 OA
ATOM     43  H   UNL     1      16.554  24.508  49.996  1.00  0.00     0.211 HD
ENDBRANCH  35  42
BRANCH  36  44
ATOM     44  O   UNL     1      13.097  24.871  51.803  1.00  0.00    -0.366 OA
ATOM     45  H   UNL     1      12.422  25.279  52.406  1.00  0.00     0.213 HD
ENDBRANCH  36  44
ENDBRANCH  30  31
ENDBRANCH   4  30
TORSDOF 18
ENDMDL
