MODEL 1
REMARK VINA RESULT:    -5.616      0.000      0.000
REMARK INTER + INTRA:          -7.471
REMARK INTER:                  -7.093
REMARK INTRA:                  -0.378
REMARK UNBOUND:                -0.378
REMARK SMILES CC(C)=CCCC(C)=CCO
REMARK SMILES IDX 7 1 9 2 8 3 6 4 5 5 4 6 1 7 2 8 3 9 10 10 11 11
REMARK H PARENT 11 12
REMARK Flexibility Score: inf
ROOT
ATOM      1  C   UNL     1     -44.403  12.618  -0.448  1.00  0.00    -0.075 C 
ATOM      2  C   UNL     1     -44.019  12.065  -1.622  1.00  0.00    -0.000 C 
ATOM      3  C   UNL     1     -45.083  13.961  -0.481  1.00  0.00     0.039 C 
ENDROOT
BRANCH   1   4
ATOM      4  C   UNL     1     -44.199  11.941   0.896  1.00  0.00     0.034 C 
BRANCH   4   5
ATOM      5  C   UNL     1     -43.120  12.640   1.735  1.00  0.00     0.032 C 
BRANCH   5   6
ATOM      6  C   UNL     1     -41.733  12.204   1.323  1.00  0.00    -0.028 C 
ATOM      7  C   UNL     1     -39.262  12.102   1.411  1.00  0.00     0.039 C 
ATOM      8  C   UNL     1     -40.584  12.663   1.869  1.00  0.00    -0.080 C 
ATOM      9  C   UNL     1     -40.568  13.723   2.939  1.00  0.00     0.039 C 
ENDBRANCH   5   6
ENDBRANCH   4   5
ENDBRANCH   1   4
BRANCH   2  10
ATOM     10  C   UNL     1     -43.296  10.753  -1.756  1.00  0.00     0.183 C 
BRANCH  10  11
ATOM     11  O   UNL     1     -44.171   9.778  -2.250  1.00  0.00    -0.392 OA
ATOM     12  H   UNL     1     -45.073  10.192  -2.251  1.00  0.00     0.210 HD
ENDBRANCH  10  11
ENDBRANCH   2  10
TORSDOF 5
ENDMDL
MODEL 2
REMARK VINA RESULT:    -5.599     13.589     14.938
REMARK INTER + INTRA:          -7.450
REMARK INTER:                  -6.853
REMARK INTRA:                  -0.597
REMARK UNBOUND:                -0.378
REMARK SMILES CC(C)=CCCC(C)=CCO
REMARK SMILES IDX 7 1 9 2 8 3 6 4 5 5 4 6 1 7 2 8 3 9 10 10 11 11
REMARK H PARENT 11 12
REMARK Flexibility Score: inf
ROOT
ATOM      1  C   UNL     1     -39.604  25.493  -0.455  1.00  0.00    -0.075 C 
ATOM      2  C   UNL     1     -39.156  26.375  -1.378  1.00  0.00    -0.000 C 
ATOM      3  C   UNL     1     -40.563  24.420  -0.900  1.00  0.00     0.039 C 
ENDROOT
BRANCH   1   4
ATOM      4  C   UNL     1     -39.171  25.520   1.001  1.00  0.00     0.034 C 
BRANCH   4   5
ATOM      5  C   UNL     1     -40.372  25.540   1.958  1.00  0.00     0.032 C 
BRANCH   5   6
ATOM      6  C   UNL     1     -41.223  26.771   1.749  1.00  0.00    -0.028 C 
ATOM      7  C   UNL     1     -43.304  28.061   1.389  1.00  0.00     0.039 C 
ATOM      8  C   UNL     1     -42.556  26.759   1.519  1.00  0.00    -0.080 C 
ATOM      9  C   UNL     1     -43.340  25.479   1.395  1.00  0.00     0.039 C 
ENDBRANCH   5   6
ENDBRANCH   4   5
ENDBRANCH   1   4
BRANCH   2  10
ATOM     10  C   UNL     1     -38.230  27.523  -1.088  1.00  0.00     0.183 C 
BRANCH  10  11
ATOM     11  O   UNL     1     -38.157  28.368  -2.202  1.00  0.00    -0.392 OA
ATOM     12  H   UNL     1     -39.072  28.724  -2.339  1.00  0.00     0.210 HD
ENDBRANCH  10  11
ENDBRANCH   2  10
TORSDOF 5
ENDMDL
MODEL 3
REMARK VINA RESULT:    -5.373      1.957      2.727
REMARK INTER + INTRA:          -7.164
REMARK INTER:                  -6.428
REMARK INTRA:                  -0.736
REMARK UNBOUND:                -0.378
REMARK SMILES CC(C)=CCCC(C)=CCO
REMARK SMILES IDX 7 1 9 2 8 3 6 4 5 5 4 6 1 7 2 8 3 9 10 10 11 11
REMARK H PARENT 11 12
REMARK Flexibility Score: inf
ROOT
ATOM      1  C   UNL     1     -44.188  12.068  -0.904  1.00  0.00    -0.075 C 
ATOM      2  C   UNL     1     -44.239  13.209  -1.631  1.00  0.00    -0.000 C 
ATOM      3  C   UNL     1     -43.866  10.781  -1.619  1.00  0.00     0.039 C 
ENDROOT
BRANCH   1   4
ATOM      4  C   UNL     1     -44.419  12.026   0.596  1.00  0.00     0.034 C 
BRANCH   4   5
ATOM      5  C   UNL     1     -43.185  11.518   1.355  1.00  0.00     0.032 C 
BRANCH   5   6
ATOM      6  C   UNL     1     -42.152  12.608   1.521  1.00  0.00    -0.028 C 
ATOM      7  C   UNL     1     -40.053  13.838   1.069  1.00  0.00     0.039 C 
ATOM      8  C   UNL     1     -40.972  12.662   0.861  1.00  0.00    -0.080 C 
ATOM      9  C   UNL     1     -40.535  11.585  -0.096  1.00  0.00     0.039 C 
ENDBRANCH   5   6
ENDBRANCH   4   5
ENDBRANCH   1   4
BRANCH   2  10
ATOM     10  C   UNL     1     -44.585  14.563  -1.076  1.00  0.00     0.183 C 
BRANCH  10  11
ATOM     11  O   UNL     1     -45.923  14.863  -1.356  1.00  0.00    -0.392 OA
ATOM     12  H   UNL     1     -46.276  14.093  -1.873  1.00  0.00     0.210 HD
ENDBRANCH  10  11
ENDBRANCH   2  10
TORSDOF 5
ENDMDL
MODEL 4
REMARK VINA RESULT:    -5.292      3.033      5.409
REMARK INTER + INTRA:          -7.063
REMARK INTER:                  -6.560
REMARK INTRA:                  -0.502
REMARK UNBOUND:                -0.378
REMARK SMILES CC(C)=CCCC(C)=CCO
REMARK SMILES IDX 7 1 9 2 8 3 6 4 5 5 4 6 1 7 2 8 3 9 10 10 11 11
REMARK H PARENT 11 12
REMARK Flexibility Score: inf
ROOT
ATOM      1  C   UNL     1     -40.943  12.718   1.515  1.00  0.00    -0.075 C 
ATOM      2  C   UNL     1     -40.016  13.500   2.116  1.00  0.00    -0.000 C 
ATOM      3  C   UNL     1     -40.518  11.886   0.334  1.00  0.00     0.039 C 
ENDROOT
BRANCH   1   4
ATOM      4  C   UNL     1     -42.384  12.624   1.987  1.00  0.00     0.034 C 
BRANCH   4   5
ATOM      5  C   UNL     1     -43.275  11.893   0.973  1.00  0.00     0.032 C 
BRANCH   5   6
ATOM      6  C   UNL     1     -44.412  12.770   0.504  1.00  0.00    -0.028 C 
ATOM      7  C   UNL     1     -45.661  14.235  -1.052  1.00  0.00     0.039 C 
ATOM      8  C   UNL     1     -44.438  13.440  -0.671  1.00  0.00    -0.080 C 
ATOM      9  C   UNL     1     -43.282  13.417  -1.637  1.00  0.00     0.039 C 
ENDBRANCH   5   6
ENDBRANCH   4   5
ENDBRANCH   1   4
BRANCH   2  10
ATOM     10  C   UNL     1     -40.290  14.415   3.277  1.00  0.00     0.183 C 
BRANCH  10  11
ATOM     11  O   UNL     1     -39.553  15.597   3.134  1.00  0.00    -0.392 OA
ATOM     12  H   UNL     1     -38.636  15.321   2.874  1.00  0.00     0.210 HD
ENDBRANCH  10  11
ENDBRANCH   2  10
TORSDOF 5
ENDMDL
MODEL 5
REMARK VINA RESULT:    -5.290     13.144     14.676
REMARK INTER + INTRA:          -7.060
REMARK INTER:                  -6.582
REMARK INTRA:                  -0.478
REMARK UNBOUND:                -0.378
REMARK SMILES CC(C)=CCCC(C)=CCO
REMARK SMILES IDX 7 1 9 2 8 3 6 4 5 5 4 6 1 7 2 8 3 9 10 10 11 11
REMARK H PARENT 11 12
REMARK Flexibility Score: inf
ROOT
ATOM      1  C   UNL     1     -38.415  26.330   0.565  1.00  0.00    -0.075 C 
ATOM      2  C   UNL     1     -38.120  26.726  -0.695  1.00  0.00    -0.000 C 
ATOM      3  C   UNL     1     -37.384  25.534   1.322  1.00  0.00     0.039 C 
ENDROOT
BRANCH   1   4
ATOM      4  C   UNL     1     -39.723  26.666   1.258  1.00  0.00     0.034 C 
BRANCH   4   5
ATOM      5  C   UNL     1     -40.372  25.428   1.895  1.00  0.00     0.032 C 
BRANCH   5   6
ATOM      6  C   UNL     1     -41.788  25.234   1.406  1.00  0.00    -0.028 C 
ATOM      7  C   UNL     1     -43.588  24.415  -0.082  1.00  0.00     0.039 C 
ATOM      8  C   UNL     1     -42.132  24.596   0.264  1.00  0.00    -0.080 C 
ATOM      9  C   UNL     1     -41.106  24.042  -0.689  1.00  0.00     0.039 C 
ENDBRANCH   5   6
ENDBRANCH   4   5
ENDBRANCH   1   4
BRANCH   2  10
ATOM     10  C   UNL     1     -39.053  27.490  -1.593  1.00  0.00     0.183 C 
BRANCH  10  11
ATOM     11  O   UNL     1     -38.327  28.411  -2.358  1.00  0.00    -0.392 OA
ATOM     12  H   UNL     1     -37.459  28.531  -1.893  1.00  0.00     0.210 HD
ENDBRANCH  10  11
ENDBRANCH   2  10
TORSDOF 5
ENDMDL
MODEL 6
REMARK VINA RESULT:    -5.277     12.184     13.368
REMARK INTER + INTRA:          -7.043
REMARK INTER:                  -6.755
REMARK INTRA:                  -0.288
REMARK UNBOUND:                -0.378
REMARK SMILES CC(C)=CCCC(C)=CCO
REMARK SMILES IDX 7 1 9 2 8 3 6 4 5 5 4 6 1 7 2 8 3 9 10 10 11 11
REMARK H PARENT 11 12
REMARK Flexibility Score: inf
ROOT
ATOM      1  C   UNL     1     -42.587  24.222   1.877  1.00  0.00    -0.075 C 
ATOM      2  C   UNL     1     -43.279  23.632   0.875  1.00  0.00    -0.000 C 
ATOM      3  C   UNL     1     -42.341  23.433   3.136  1.00  0.00     0.039 C 
ENDROOT
BRANCH   1   4
ATOM      4  C   UNL     1     -42.029  25.632   1.785  1.00  0.00     0.034 C 
BRANCH   4   5
ATOM      5  C   UNL     1     -40.494  25.645   1.783  1.00  0.00     0.032 C 
BRANCH   5   6
ATOM      6  C   UNL     1     -39.949  26.359   0.568  1.00  0.00    -0.028 C 
ATOM      7  C   UNL     1     -38.239  27.082  -1.068  1.00  0.00     0.039 C 
ATOM      8  C   UNL     1     -38.647  26.385   0.205  1.00  0.00    -0.080 C 
ATOM      9  C   UNL     1     -37.569  25.728   1.026  1.00  0.00     0.039 C 
ENDBRANCH   5   6
ENDBRANCH   4   5
ENDBRANCH   1   4
BRANCH   2  10
ATOM     10  C   UNL     1     -43.640  24.296  -0.425  1.00  0.00     0.183 C 
BRANCH  10  11
ATOM     11  O   UNL     1     -44.944  24.800  -0.354  1.00  0.00    -0.392 OA
ATOM     12  H   UNL     1     -44.932  25.498   0.351  1.00  0.00     0.210 HD
ENDBRANCH  10  11
ENDBRANCH   2  10
TORSDOF 5
ENDMDL
MODEL 7
REMARK VINA RESULT:    -5.240      2.177      2.888
REMARK INTER + INTRA:          -6.997
REMARK INTER:                  -6.233
REMARK INTRA:                  -0.765
REMARK UNBOUND:                -0.378
REMARK SMILES CC(C)=CCCC(C)=CCO
REMARK SMILES IDX 7 1 9 2 8 3 6 4 5 5 4 6 1 7 2 8 3 9 10 10 11 11
REMARK H PARENT 11 12
REMARK Flexibility Score: inf
ROOT
ATOM      1  C   UNL     1     -44.316  12.335  -0.351  1.00  0.00    -0.075 C 
ATOM      2  C   UNL     1     -43.676  11.162  -0.568  1.00  0.00    -0.000 C 
ATOM      3  C   UNL     1     -44.755  12.659   1.053  1.00  0.00     0.039 C 
ENDROOT
BRANCH   1   4
ATOM      4  C   UNL     1     -44.595  13.346  -1.449  1.00  0.00     0.034 C 
BRANCH   4   5
ATOM      5  C   UNL     1     -43.616  14.527  -1.407  1.00  0.00     0.032 C 
BRANCH   5   6
ATOM      6  C   UNL     1     -42.401  14.268  -2.266  1.00  0.00    -0.028 C 
ATOM      7  C   UNL     1     -40.067  13.613  -2.766  1.00  0.00     0.039 C 
ATOM      8  C   UNL     1     -41.185  13.903  -1.798  1.00  0.00    -0.080 C 
ATOM      9  C   UNL     1     -40.899  13.763  -0.326  1.00  0.00     0.039 C 
ENDBRANCH   5   6
ENDBRANCH   4   5
ENDBRANCH   1   4
BRANCH   2  10
ATOM     10  C   UNL     1     -43.211  10.676  -1.913  1.00  0.00     0.183 C 
BRANCH  10  11
ATOM     11  O   UNL     1     -44.056   9.656  -2.366  1.00  0.00    -0.392 OA
ATOM     12  H   UNL     1     -44.151   9.020  -1.611  1.00  0.00     0.210 HD
ENDBRANCH  10  11
ENDBRANCH   2  10
TORSDOF 5
ENDMDL
MODEL 8
REMARK VINA RESULT:    -5.149      3.038      5.436
REMARK INTER + INTRA:          -6.882
REMARK INTER:                  -6.423
REMARK INTRA:                  -0.459
REMARK UNBOUND:                -0.378
REMARK SMILES CC(C)=CCCC(C)=CCO
REMARK SMILES IDX 7 1 9 2 8 3 6 4 5 5 4 6 1 7 2 8 3 9 10 10 11 11
REMARK H PARENT 11 12
REMARK Flexibility Score: inf
ROOT
ATOM      1  C   UNL     1     -41.723  12.745   1.123  1.00  0.00    -0.075 C 
ATOM      2  C   UNL     1     -40.975  13.040   2.212  1.00  0.00    -0.000 C 
ATOM      3  C   UNL     1     -42.865  11.776   1.284  1.00  0.00     0.039 C 
ENDROOT
BRANCH   1   4
ATOM      4  C   UNL     1     -41.479  13.356  -0.245  1.00  0.00     0.034 C 
BRANCH   4   5
ATOM      5  C   UNL     1     -42.552  12.941  -1.262  1.00  0.00     0.032 C 
BRANCH   5   6
ATOM      6  C   UNL     1     -43.133  14.141  -1.972  1.00  0.00    -0.028 C 
ATOM      7  C   UNL     1     -44.785  15.920  -2.450  1.00  0.00     0.039 C 
ATOM      8  C   UNL     1     -44.345  14.682  -1.713  1.00  0.00    -0.080 C 
ATOM      9  C   UNL     1     -45.287  14.095  -0.694  1.00  0.00     0.039 C 
ENDBRANCH   5   6
ENDBRANCH   4   5
ENDBRANCH   1   4
BRANCH   2  10
ATOM     10  C   UNL     1     -39.781  13.954   2.208  1.00  0.00     0.183 C 
BRANCH  10  11
ATOM     11  O   UNL     1     -39.659  14.580   3.455  1.00  0.00    -0.392 OA
ATOM     12  H   UNL     1     -40.171  14.021   4.095  1.00  0.00     0.210 HD
ENDBRANCH  10  11
ENDBRANCH   2  10
TORSDOF 5
ENDMDL
MODEL 9
REMARK VINA RESULT:    -5.146      2.315      3.022
REMARK INTER + INTRA:          -6.878
REMARK INTER:                  -6.333
REMARK INTRA:                  -0.545
REMARK UNBOUND:                -0.378
REMARK SMILES CC(C)=CCCC(C)=CCO
REMARK SMILES IDX 7 1 9 2 8 3 6 4 5 5 4 6 1 7 2 8 3 9 10 10 11 11
REMARK H PARENT 11 12
REMARK Flexibility Score: inf
ROOT
ATOM      1  C   UNL     1     -44.329  12.839  -0.275  1.00  0.00    -0.075 C 
ATOM      2  C   UNL     1     -45.242  13.825  -0.440  1.00  0.00    -0.000 C 
ATOM      3  C   UNL     1     -44.396  12.008   0.980  1.00  0.00     0.039 C 
ENDROOT
BRANCH   1   4
ATOM      4  C   UNL     1     -43.257  12.517  -1.300  1.00  0.00     0.034 C 
BRANCH   4   5
ATOM      5  C   UNL     1     -41.974  11.984  -0.645  1.00  0.00     0.032 C 
BRANCH   5   6
ATOM      6  C   UNL     1     -41.006  13.102  -0.338  1.00  0.00    -0.028 C 
ATOM      7  C   UNL     1     -39.505  14.492   1.055  1.00  0.00     0.039 C 
ATOM      8  C   UNL     1     -40.516  13.386   0.890  1.00  0.00    -0.080 C 
ATOM      9  C   UNL     1     -40.936  12.626   2.120  1.00  0.00     0.039 C 
ENDBRANCH   5   6
ENDBRANCH   4   5
ENDBRANCH   1   4
BRANCH   2  10
ATOM     10  C   UNL     1     -45.285  14.763  -1.614  1.00  0.00     0.183 C 
BRANCH  10  11
ATOM     11  O   UNL     1     -44.917  16.051  -1.205  1.00  0.00    -0.392 OA
ATOM     12  H   UNL     1     -45.521  16.286  -0.455  1.00  0.00     0.210 HD
ENDBRANCH  10  11
ENDBRANCH   2  10
TORSDOF 5
ENDMDL
