MODEL 1
REMARK VINA RESULT:    -4.463      0.000      0.000
REMARK INTER + INTRA:          -9.504
REMARK INTER:                  -8.116
REMARK INTRA:                  -1.388
REMARK UNBOUND:                -1.388
REMARK SMILES CCCCCCCCCCCCCC[C@H](C)C(=O)[O-]
REMARK SMILES IDX 9 1 10 2 11 3 12 4 13 5 14 6 15 7 16 8 17 9 18 10 19 11 8 12
REMARK SMILES IDX 7 13 6 14 5 15 4 16 3 17 2 18 1 19
REMARK H PARENT
REMARK Flexibility Score: inf
ROOT
ATOM      1  C   UNL     1      18.817  12.577 -15.011  1.00  0.00     0.000 C 
ENDROOT
BRANCH   1   2
ATOM      2  C   UNL     1      18.738  11.268 -15.812  1.00  0.00     0.000 C 
BRANCH   2   3
ATOM      3  C   UNL     1      18.478  10.044 -14.917  1.00  0.00     0.000 C 
BRANCH   3   4
ATOM      4  C   UNL     1      17.912   8.849 -15.700  1.00  0.00     0.000 C 
BRANCH   4   5
ATOM      5  C   UNL     1      16.388   8.701 -15.535  1.00  0.00     0.001 C 
BRANCH   5   6
ATOM      6  C   UNL     1      15.874   9.369 -14.241  1.00  0.00     0.009 C 
BRANCH   6   7
ATOM      7  C   UNL     1      14.693  10.337 -14.473  1.00  0.00     0.032 C 
ATOM      8  C   UNL     1      13.906  10.011 -15.749  1.00  0.00     0.014 C 
BRANCH   7   9
ATOM      9  C   UNL     1      15.201  11.751 -14.542  1.00  0.00     0.044 C 
ATOM     10  O   UNL     1      15.601  12.332 -13.499  1.00  0.00    -0.550 OA
ATOM     11  O   UNL     1      15.239  12.425 -15.758  1.00  0.00    -0.550 OA
ENDBRANCH   7   9
ENDBRANCH   6   7
ENDBRANCH   5   6
ENDBRANCH   4   5
ENDBRANCH   3   4
ENDBRANCH   2   3
ENDBRANCH   1   2
BRANCH   1  12
ATOM     12  C   UNL     1      19.391  12.368 -13.598  1.00  0.00     0.000 C 
BRANCH  12  13
ATOM     13  C   UNL     1      20.866  12.785 -13.491  1.00  0.00    -0.000 C 
BRANCH  13  14
ATOM     14  C   UNL     1      21.187  14.039 -14.317  1.00  0.00    -0.000 C 
BRANCH  14  15
ATOM     15  C   UNL     1      22.491  14.694 -13.838  1.00  0.00    -0.000 C 
BRANCH  15  16
ATOM     16  C   UNL     1      22.661  16.135 -14.350  1.00  0.00    -0.000 C 
BRANCH  16  17
ATOM     17  C   UNL     1      21.851  16.479 -15.618  1.00  0.00    -0.000 C 
BRANCH  17  18
ATOM     18  C   UNL     1      21.428  17.954 -15.739  1.00  0.00    -0.003 C 
ATOM     19  C   UNL     1      21.906  18.808 -14.565  1.00  0.00     0.004 C 
ENDBRANCH  17  18
ENDBRANCH  16  17
ENDBRANCH  15  16
ENDBRANCH  14  15
ENDBRANCH  13  14
ENDBRANCH  12  13
ENDBRANCH   1  12
TORSDOF 14
ENDMDL
MODEL 2
REMARK VINA RESULT:    -4.101      1.457      2.408
REMARK INTER + INTRA:          -8.845
REMARK INTER:                  -7.446
REMARK INTRA:                  -1.399
REMARK UNBOUND:                -1.388
REMARK SMILES CCCCCCCCCCCCCC[C@H](C)C(=O)[O-]
REMARK SMILES IDX 9 1 10 2 11 3 12 4 13 5 14 6 15 7 16 8 17 9 18 10 19 11 8 12
REMARK SMILES IDX 7 13 6 14 5 15 4 16 3 17 2 18 1 19
REMARK H PARENT
REMARK Flexibility Score: inf
ROOT
ATOM      1  C   UNL     1      20.477  12.988 -13.833  1.00  0.00     0.000 C 
ENDROOT
BRANCH   1   2
ATOM      2  C   UNL     1      20.793  12.381 -15.209  1.00  0.00     0.000 C 
BRANCH   2   3
ATOM      3  C   UNL     1      21.300  10.932 -15.112  1.00  0.00     0.000 C 
BRANCH   3   4
ATOM      4  C   UNL     1      20.259   9.983 -14.497  1.00  0.00     0.000 C 
BRANCH   4   5
ATOM      5  C   UNL     1      18.954   9.927 -15.311  1.00  0.00     0.001 C 
BRANCH   5   6
ATOM      6  C   UNL     1      17.706   9.833 -14.406  1.00  0.00     0.009 C 
BRANCH   6   7
ATOM      7  C   UNL     1      16.567  10.789 -14.823  1.00  0.00     0.032 C 
ATOM      8  C   UNL     1      16.859  12.249 -14.453  1.00  0.00     0.014 C 
BRANCH   7   9
ATOM      9  C   UNL     1      15.278  10.354 -14.181  1.00  0.00     0.044 C 
ATOM     10  O   UNL     1      14.945   9.140 -14.187  1.00  0.00    -0.550 OA
ATOM     11  O   UNL     1      14.448  11.288 -13.570  1.00  0.00    -0.550 OA
ENDBRANCH   7   9
ENDBRANCH   6   7
ENDBRANCH   5   6
ENDBRANCH   4   5
ENDBRANCH   3   4
ENDBRANCH   2   3
ENDBRANCH   1   2
BRANCH   1  12
ATOM     12  C   UNL     1      21.747  13.315 -13.028  1.00  0.00     0.000 C 
BRANCH  12  13
ATOM     13  C   UNL     1      22.854  13.935 -13.896  1.00  0.00    -0.000 C 
BRANCH  13  14
ATOM     14  C   UNL     1      22.892  15.467 -13.801  1.00  0.00    -0.000 C 
BRANCH  14  15
ATOM     15  C   UNL     1      22.845  16.105 -15.197  1.00  0.00    -0.000 C 
BRANCH  15  16
ATOM     16  C   UNL     1      21.423  16.516 -15.619  1.00  0.00    -0.000 C 
BRANCH  16  17
ATOM     17  C   UNL     1      21.206  18.034 -15.796  1.00  0.00    -0.000 C 
BRANCH  17  18
ATOM     18  C   UNL     1      21.775  18.909 -14.666  1.00  0.00    -0.003 C 
ATOM     19  C   UNL     1      22.749  19.973 -15.171  1.00  0.00     0.004 C 
ENDBRANCH  17  18
ENDBRANCH  16  17
ENDBRANCH  15  16
ENDBRANCH  14  15
ENDBRANCH  13  14
ENDBRANCH  12  13
ENDBRANCH   1  12
TORSDOF 14
ENDMDL
MODEL 3
REMARK VINA RESULT:    -4.077      2.874      7.954
REMARK INTER + INTRA:          -8.801
REMARK INTER:                  -7.433
REMARK INTRA:                  -1.369
REMARK UNBOUND:                -1.388
REMARK SMILES CCCCCCCCCCCCCC[C@H](C)C(=O)[O-]
REMARK SMILES IDX 9 1 10 2 11 3 12 4 13 5 14 6 15 7 16 8 17 9 18 10 19 11 8 12
REMARK SMILES IDX 7 13 6 14 5 15 4 16 3 17 2 18 1 19
REMARK H PARENT
REMARK Flexibility Score: inf
ROOT
ATOM      1  C   UNL     1      18.944  12.086 -15.074  1.00  0.00     0.000 C 
ENDROOT
BRANCH   1   2
ATOM      2  C   UNL     1      19.526  11.988 -13.655  1.00  0.00     0.000 C 
BRANCH   2   3
ATOM      3  C   UNL     1      20.818  12.807 -13.490  1.00  0.00     0.000 C 
BRANCH   3   4
ATOM      4  C   UNL     1      20.920  13.959 -14.502  1.00  0.00     0.000 C 
BRANCH   4   5
ATOM      5  C   UNL     1      22.168  14.832 -14.282  1.00  0.00     0.001 C 
BRANCH   5   6
ATOM      6  C   UNL     1      22.381  15.844 -15.429  1.00  0.00     0.009 C 
BRANCH   6   7
ATOM      7  C   UNL     1      22.771  17.257 -14.941  1.00  0.00     0.032 C 
ATOM      8  C   UNL     1      23.096  17.294 -13.442  1.00  0.00     0.014 C 
BRANCH   7   9
ATOM      9  C   UNL     1      21.658  18.223 -15.240  1.00  0.00     0.044 C 
ATOM     10  O   UNL     1      21.723  19.412 -14.832  1.00  0.00    -0.550 OA
ATOM     11  O   UNL     1      20.551  17.812 -15.976  1.00  0.00    -0.550 OA
ENDBRANCH   7   9
ENDBRANCH   6   7
ENDBRANCH   5   6
ENDBRANCH   4   5
ENDBRANCH   3   4
ENDBRANCH   2   3
ENDBRANCH   1   2
BRANCH   1  12
ATOM     12  C   UNL     1      19.297  10.864 -15.941  1.00  0.00     0.000 C 
BRANCH  12  13
ATOM     13  C   UNL     1      18.940   9.533 -15.260  1.00  0.00    -0.000 C 
BRANCH  13  14
ATOM     14  C   UNL     1      18.010   8.662 -16.116  1.00  0.00    -0.000 C 
BRANCH  14  15
ATOM     15  C   UNL     1      16.582   9.226 -16.125  1.00  0.00    -0.000 C 
BRANCH  15  16
ATOM     16  C   UNL     1      15.760   8.793 -14.898  1.00  0.00    -0.000 C 
BRANCH  16  17
ATOM     17  C   UNL     1      14.925   9.912 -14.241  1.00  0.00    -0.000 C 
BRANCH  17  18
ATOM     18  C   UNL     1      15.128  11.314 -14.843  1.00  0.00    -0.003 C 
ATOM     19  C   UNL     1      15.577  12.346 -13.809  1.00  0.00     0.004 C 
ENDBRANCH  17  18
ENDBRANCH  16  17
ENDBRANCH  15  16
ENDBRANCH  14  15
ENDBRANCH  13  14
ENDBRANCH  12  13
ENDBRANCH   1  12
TORSDOF 14
ENDMDL
MODEL 4
REMARK VINA RESULT:    -4.014      2.496      7.153
REMARK INTER + INTRA:          -8.687
REMARK INTER:                  -6.660
REMARK INTRA:                  -2.026
REMARK UNBOUND:                -1.388
REMARK SMILES CCCCCCCCCCCCCC[C@H](C)C(=O)[O-]
REMARK SMILES IDX 9 1 10 2 11 3 12 4 13 5 14 6 15 7 16 8 17 9 18 10 19 11 8 12
REMARK SMILES IDX 7 13 6 14 5 15 4 16 3 17 2 18 1 19
REMARK H PARENT
REMARK Flexibility Score: inf
ROOT
ATOM      1  C   UNL     1      18.223   9.970 -14.075  1.00  0.00     0.000 C 
ENDROOT
BRANCH   1   2
ATOM      2  C   UNL     1      19.427  10.914 -14.222  1.00  0.00     0.000 C 
BRANCH   2   3
ATOM      3  C   UNL     1      20.063  10.845 -15.621  1.00  0.00     0.000 C 
BRANCH   3   4
ATOM      4  C   UNL     1      21.536  10.409 -15.580  1.00  0.00     0.000 C 
BRANCH   4   5
ATOM      5  C   UNL     1      22.362  11.209 -14.556  1.00  0.00     0.001 C 
BRANCH   5   6
ATOM      6  C   UNL     1      22.830  12.569 -15.120  1.00  0.00     0.009 C 
BRANCH   6   7
ATOM      7  C   UNL     1      22.527  13.761 -14.185  1.00  0.00     0.032 C 
ATOM      8  C   UNL     1      21.991  13.317 -12.818  1.00  0.00     0.014 C 
BRANCH   7   9
ATOM      9  C   UNL     1      21.535  14.681 -14.842  1.00  0.00     0.044 C 
ATOM     10  O   UNL     1      21.900  15.809 -15.265  1.00  0.00    -0.550 OA
ATOM     11  O   UNL     1      20.208  14.290 -14.993  1.00  0.00    -0.550 OA
ENDBRANCH   7   9
ENDBRANCH   6   7
ENDBRANCH   5   6
ENDBRANCH   4   5
ENDBRANCH   3   4
ENDBRANCH   2   3
ENDBRANCH   1   2
BRANCH   1  12
ATOM     12  C   UNL     1      18.079   9.010 -15.270  1.00  0.00     0.000 C 
BRANCH  12  13
ATOM     13  C   UNL     1      16.680   9.063 -15.905  1.00  0.00    -0.000 C 
BRANCH  13  14
ATOM     14  C   UNL     1      15.585   8.531 -14.970  1.00  0.00    -0.000 C 
BRANCH  14  15
ATOM     15  C   UNL     1      14.211   9.096 -15.356  1.00  0.00    -0.000 C 
BRANCH  15  16
ATOM     16  C   UNL     1      14.140  10.629 -15.242  1.00  0.00    -0.000 C 
BRANCH  16  17
ATOM     17  C   UNL     1      14.489  11.199 -13.851  1.00  0.00    -0.000 C 
BRANCH  17  18
ATOM     18  C   UNL     1      15.516  12.344 -13.856  1.00  0.00    -0.003 C 
ATOM     19  C   UNL     1      16.018  12.686 -15.259  1.00  0.00     0.004 C 
ENDBRANCH  17  18
ENDBRANCH  16  17
ENDBRANCH  15  16
ENDBRANCH  14  15
ENDBRANCH  13  14
ENDBRANCH  12  13
ENDBRANCH   1  12
TORSDOF 14
ENDMDL
MODEL 5
REMARK VINA RESULT:    -3.869      1.654      2.421
REMARK INTER + INTRA:          -8.423
REMARK INTER:                  -7.278
REMARK INTRA:                  -1.145
REMARK UNBOUND:                -1.388
REMARK SMILES CCCCCCCCCCCCCC[C@H](C)C(=O)[O-]
REMARK SMILES IDX 9 1 10 2 11 3 12 4 13 5 14 6 15 7 16 8 17 9 18 10 19 11 8 12
REMARK SMILES IDX 7 13 6 14 5 15 4 16 3 17 2 18 1 19
REMARK H PARENT
REMARK Flexibility Score: inf
ROOT
ATOM      1  C   UNL     1      18.641  12.736 -14.278  1.00  0.00     0.000 C 
ENDROOT
BRANCH   1   2
ATOM      2  C   UNL     1      18.179  12.472 -15.720  1.00  0.00     0.000 C 
BRANCH   2   3
ATOM      3  C   UNL     1      16.660  12.647 -15.893  1.00  0.00     0.000 C 
BRANCH   3   4
ATOM      4  C   UNL     1      15.903  12.589 -14.557  1.00  0.00     0.000 C 
BRANCH   4   5
ATOM      5  C   UNL     1      14.697  11.633 -14.600  1.00  0.00     0.001 C 
BRANCH   5   6
ATOM      6  C   UNL     1      15.043  10.232 -14.050  1.00  0.00     0.009 C 
BRANCH   6   7
ATOM      7  C   UNL     1      15.514   9.241 -15.137  1.00  0.00     0.032 C 
ATOM      8  C   UNL     1      14.770   7.901 -15.075  1.00  0.00     0.014 C 
BRANCH   7   9
ATOM      9  C   UNL     1      16.993   9.004 -15.001  1.00  0.00     0.044 C 
ATOM     10  O   UNL     1      17.539   9.037 -13.866  1.00  0.00    -0.550 OA
ATOM     11  O   UNL     1      17.768   8.739 -16.125  1.00  0.00    -0.550 OA
ENDBRANCH   7   9
ENDBRANCH   6   7
ENDBRANCH   5   6
ENDBRANCH   4   5
ENDBRANCH   3   4
ENDBRANCH   2   3
ENDBRANCH   1   2
BRANCH   1  12
ATOM     12  C   UNL     1      19.936  11.981 -13.927  1.00  0.00     0.000 C 
BRANCH  12  13
ATOM     13  C   UNL     1      21.097  12.928 -13.583  1.00  0.00    -0.000 C 
BRANCH  13  14
ATOM     14  C   UNL     1      21.481  13.843 -14.755  1.00  0.00    -0.000 C 
BRANCH  14  15
ATOM     15  C   UNL     1      22.780  14.604 -14.454  1.00  0.00    -0.000 C 
BRANCH  15  16
ATOM     16  C   UNL     1      22.745  16.065 -14.938  1.00  0.00    -0.000 C 
BRANCH  16  17
ATOM     17  C   UNL     1      22.810  17.126 -13.821  1.00  0.00    -0.000 C 
BRANCH  17  18
ATOM     18  C   UNL     1      22.352  18.536 -14.235  1.00  0.00    -0.003 C 
ATOM     19  C   UNL     1      21.626  18.554 -15.580  1.00  0.00     0.004 C 
ENDBRANCH  17  18
ENDBRANCH  16  17
ENDBRANCH  15  16
ENDBRANCH  14  15
ENDBRANCH  13  14
ENDBRANCH  12  13
ENDBRANCH   1  12
TORSDOF 14
ENDMDL
MODEL 6
REMARK VINA RESULT:    -3.851      1.166      2.109
REMARK INTER + INTRA:          -8.391
REMARK INTER:                  -6.835
REMARK INTRA:                  -1.556
REMARK UNBOUND:                -1.388
REMARK SMILES CCCCCCCCCCCCCC[C@H](C)C(=O)[O-]
REMARK SMILES IDX 9 1 10 2 11 3 12 4 13 5 14 6 15 7 16 8 17 9 18 10 19 11 8 12
REMARK SMILES IDX 7 13 6 14 5 15 4 16 3 17 2 18 1 19
REMARK H PARENT
REMARK Flexibility Score: inf
ROOT
ATOM      1  C   UNL     1      18.002  12.468 -14.232  1.00  0.00     0.000 C 
ENDROOT
BRANCH   1   2
ATOM      2  C   UNL     1      19.142  11.677 -13.572  1.00  0.00     0.000 C 
BRANCH   2   3
ATOM      3  C   UNL     1      19.132  10.190 -13.967  1.00  0.00     0.000 C 
BRANCH   3   4
ATOM      4  C   UNL     1      18.819   9.977 -15.456  1.00  0.00     0.000 C 
BRANCH   4   5
ATOM      5  C   UNL     1      18.160   8.614 -15.735  1.00  0.00     0.001 C 
BRANCH   5   6
ATOM      6  C   UNL     1      16.653   8.746 -16.045  1.00  0.00     0.009 C 
BRANCH   6   7
ATOM      7  C   UNL     1      15.784   8.988 -14.791  1.00  0.00     0.032 C 
ATOM      8  C   UNL     1      14.688   7.928 -14.621  1.00  0.00     0.014 C 
BRANCH   7   9
ATOM      9  C   UNL     1      15.158  10.354 -14.863  1.00  0.00     0.044 C 
ATOM     10  O   UNL     1      15.196  11.013 -15.935  1.00  0.00    -0.550 OA
ATOM     11  O   UNL     1      14.526  10.896 -13.749  1.00  0.00    -0.550 OA
ENDBRANCH   7   9
ENDBRANCH   6   7
ENDBRANCH   5   6
ENDBRANCH   4   5
ENDBRANCH   3   4
ENDBRANCH   2   3
ENDBRANCH   1   2
BRANCH   1  12
ATOM     12  C   UNL     1      18.438  13.141 -15.547  1.00  0.00     0.000 C 
BRANCH  12  13
ATOM     13  C   UNL     1      19.733  13.953 -15.394  1.00  0.00    -0.000 C 
BRANCH  13  14
ATOM     14  C   UNL     1      20.924  13.308 -16.117  1.00  0.00    -0.000 C 
BRANCH  14  15
ATOM     15  C   UNL     1      22.172  13.303 -15.223  1.00  0.00    -0.000 C 
BRANCH  15  16
ATOM     16  C   UNL     1      21.961  14.051 -13.895  1.00  0.00    -0.000 C 
BRANCH  16  17
ATOM     17  C   UNL     1      22.837  15.307 -13.704  1.00  0.00    -0.000 C 
BRANCH  17  18
ATOM     18  C   UNL     1      23.103  16.115 -14.985  1.00  0.00    -0.003 C 
ATOM     19  C   UNL     1      21.953  17.055 -15.346  1.00  0.00     0.004 C 
ENDBRANCH  17  18
ENDBRANCH  16  17
ENDBRANCH  15  16
ENDBRANCH  14  15
ENDBRANCH  13  14
ENDBRANCH  12  13
ENDBRANCH   1  12
TORSDOF 14
ENDMDL
MODEL 7
REMARK VINA RESULT:    -3.748      2.806      7.725
REMARK INTER + INTRA:          -8.204
REMARK INTER:                  -6.589
REMARK INTRA:                  -1.616
REMARK UNBOUND:                -1.388
REMARK SMILES CCCCCCCCCCCCCC[C@H](C)C(=O)[O-]
REMARK SMILES IDX 9 1 10 2 11 3 12 4 13 5 14 6 15 7 16 8 17 9 18 10 19 11 8 12
REMARK SMILES IDX 7 13 6 14 5 15 4 16 3 17 2 18 1 19
REMARK H PARENT
REMARK Flexibility Score: inf
ROOT
ATOM      1  C   UNL     1      18.583  12.473 -14.531  1.00  0.00     0.000 C 
ENDROOT
BRANCH   1   2
ATOM      2  C   UNL     1      18.975  11.904 -15.904  1.00  0.00     0.000 C 
BRANCH   2   3
ATOM      3  C   UNL     1      20.485  11.631 -16.019  1.00  0.00     0.000 C 
BRANCH   3   4
ATOM      4  C   UNL     1      21.038  10.855 -14.813  1.00  0.00     0.000 C 
BRANCH   4   5
ATOM      5  C   UNL     1      22.462  11.295 -14.427  1.00  0.00     0.001 C 
BRANCH   5   6
ATOM      6  C   UNL     1      22.819  12.684 -15.001  1.00  0.00     0.009 C 
BRANCH   6   7
ATOM      7  C   UNL     1      23.124  13.741 -13.917  1.00  0.00     0.032 C 
ATOM      8  C   UNL     1      22.653  13.307 -12.523  1.00  0.00     0.014 C 
BRANCH   7   9
ATOM      9  C   UNL     1      22.475  15.048 -14.285  1.00  0.00     0.044 C 
ATOM     10  O   UNL     1      21.548  15.078 -15.135  1.00  0.00    -0.550 OA
ATOM     11  O   UNL     1      22.891  16.231 -13.683  1.00  0.00    -0.550 OA
ENDBRANCH   7   9
ENDBRANCH   6   7
ENDBRANCH   5   6
ENDBRANCH   4   5
ENDBRANCH   3   4
ENDBRANCH   2   3
ENDBRANCH   1   2
BRANCH   1  12
ATOM     12  C   UNL     1      17.486  11.642 -13.841  1.00  0.00     0.000 C 
BRANCH  12  13
ATOM     13  C   UNL     1      16.118  12.344 -13.852  1.00  0.00    -0.000 C 
BRANCH  13  14
ATOM     14  C   UNL     1      15.237  11.903 -15.030  1.00  0.00    -0.000 C 
BRANCH  14  15
ATOM     15  C   UNL     1      14.251  10.808 -14.597  1.00  0.00    -0.000 C 
BRANCH  15  16
ATOM     16  C   UNL     1      13.834   9.885 -15.757  1.00  0.00    -0.000 C 
BRANCH  16  17
ATOM     17  C   UNL     1      14.486   8.487 -15.748  1.00  0.00    -0.000 C 
BRANCH  17  18
ATOM     18  C   UNL     1      15.888   8.427 -15.118  1.00  0.00    -0.003 C 
ATOM     19  C   UNL     1      17.004   8.705 -16.124  1.00  0.00     0.004 C 
ENDBRANCH  17  18
ENDBRANCH  16  17
ENDBRANCH  15  16
ENDBRANCH  14  15
ENDBRANCH  13  14
ENDBRANCH  12  13
ENDBRANCH   1  12
TORSDOF 14
ENDMDL
MODEL 8
REMARK VINA RESULT:    -3.624      1.537      2.555
REMARK INTER + INTRA:          -7.977
REMARK INTER:                  -6.500
REMARK INTRA:                  -1.477
REMARK UNBOUND:                -1.388
REMARK SMILES CCCCCCCCCCCCCC[C@H](C)C(=O)[O-]
REMARK SMILES IDX 9 1 10 2 11 3 12 4 13 5 14 6 15 7 16 8 17 9 18 10 19 11 8 12
REMARK SMILES IDX 7 13 6 14 5 15 4 16 3 17 2 18 1 19
REMARK H PARENT
REMARK Flexibility Score: inf
ROOT
ATOM      1  C   UNL     1      19.241  11.019 -13.576  1.00  0.00     0.000 C 
ENDROOT
BRANCH   1   2
ATOM      2  C   UNL     1      18.300   9.820 -13.770  1.00  0.00     0.000 C 
BRANCH   2   3
ATOM      3  C   UNL     1      18.067   9.488 -15.254  1.00  0.00     0.000 C 
BRANCH   3   4
ATOM      4  C   UNL     1      16.804   8.642 -15.479  1.00  0.00     0.000 C 
BRANCH   4   5
ATOM      5  C   UNL     1      15.596   9.155 -14.675  1.00  0.00     0.001 C 
BRANCH   5   6
ATOM      6  C   UNL     1      14.602   9.944 -15.556  1.00  0.00     0.009 C 
BRANCH   6   7
ATOM      7  C   UNL     1      14.680  11.474 -15.357  1.00  0.00     0.032 C 
ATOM      8  C   UNL     1      15.849  12.108 -16.122  1.00  0.00     0.014 C 
BRANCH   7   9
ATOM      9  C   UNL     1      14.805  11.789 -13.892  1.00  0.00     0.044 C 
ATOM     10  O   UNL     1      13.850  11.547 -13.107  1.00  0.00    -0.550 OA
ATOM     11  O   UNL     1      15.978  12.345 -13.391  1.00  0.00    -0.550 OA
ENDBRANCH   7   9
ENDBRANCH   6   7
ENDBRANCH   5   6
ENDBRANCH   4   5
ENDBRANCH   3   4
ENDBRANCH   2   3
ENDBRANCH   1   2
BRANCH   1  12
ATOM     12  C   UNL     1      19.575  11.727 -14.902  1.00  0.00     0.000 C 
BRANCH  12  13
ATOM     13  C   UNL     1      18.938  13.122 -15.004  1.00  0.00    -0.000 C 
BRANCH  13  14
ATOM     14  C   UNL     1      19.694  14.048 -15.967  1.00  0.00    -0.000 C 
BRANCH  14  15
ATOM     15  C   UNL     1      21.210  13.958 -15.739  1.00  0.00    -0.000 C 
BRANCH  15  16
ATOM     16  C   UNL     1      21.798  15.236 -15.113  1.00  0.00    -0.000 C 
BRANCH  16  17
ATOM     17  C   UNL     1      23.114  15.037 -14.334  1.00  0.00    -0.000 C 
BRANCH  17  18
ATOM     18  C   UNL     1      22.943  14.573 -12.876  1.00  0.00    -0.003 C 
ATOM     19  C   UNL     1      22.580  13.093 -12.762  1.00  0.00     0.004 C 
ENDBRANCH  17  18
ENDBRANCH  16  17
ENDBRANCH  15  16
ENDBRANCH  14  15
ENDBRANCH  13  14
ENDBRANCH  12  13
ENDBRANCH   1  12
TORSDOF 14
ENDMDL
