MODEL 1
REMARK VINA RESULT:    -7.836      0.000      0.000
REMARK INTER + INTRA:          -9.635
REMARK INTER:                  -9.439
REMARK INTRA:                  -0.196
REMARK UNBOUND:                -0.196
REMARK SMILES O=c1c(O)c(-c2ccc(O)c(O)c2)oc2cc(O)cc(O)c12
REMARK SMILES IDX 5 1 3 2 2 3 1 4 22 5 20 6 19 7 17 8 16 9 15 10 14 11 6 12
REMARK SMILES IDX 7 13 8 14 9 15 13 16 11 17 10 18 12 20 4 22 21 24 18 26
REMARK H PARENT 10 19 12 21 4 23 21 25 18 27
REMARK Flexibility Score: inf
ROOT
ATOM      1  C   UNL     1      38.210 -12.138   8.981  1.00  0.00     0.180 A 
ATOM      2  C   UNL     1      38.471 -10.908   9.610  1.00  0.00     0.208 A 
ATOM      3  C   UNL     1      39.513 -10.830  10.549  1.00  0.00     0.238 A 
ATOM      4  O   UNL     1      39.706  -9.740  11.147  1.00  0.00    -0.285 OA
ATOM      5  C   UNL     1      40.290 -11.978  10.836  1.00  0.00     0.111 A 
ATOM      6  C   UNL     1      41.395 -12.004  11.738  1.00  0.00     0.134 A 
ATOM      7  C   UNL     1      42.009 -13.224  12.043  1.00  0.00     0.093 A 
ATOM      8  C   UNL     1      41.601 -14.410  11.428  1.00  0.00     0.123 A 
ATOM      9  C   UNL     1      40.563 -14.385  10.499  1.00  0.00     0.094 A 
ATOM     10  C   UNL     1      39.906 -13.188  10.202  1.00  0.00     0.146 A 
ATOM     11  O   UNL     1      38.915 -13.211   9.319  1.00  0.00    -0.452 OA
ENDROOT
BRANCH   1  12
ATOM     12  C   UNL     1      37.146 -12.292   7.963  1.00  0.00     0.025 A 
ATOM     13  C   UNL     1      35.981 -13.031   8.230  1.00  0.00     0.016 A 
ATOM     14  C   UNL     1      34.979 -13.143   7.262  1.00  0.00     0.051 A 
ATOM     15  C   UNL     1      35.120 -12.507   6.021  1.00  0.00     0.157 A 
ATOM     16  C   UNL     1      37.274 -11.640   6.726  1.00  0.00     0.062 A 
ATOM     17  C   UNL     1      36.272 -11.751   5.755  1.00  0.00     0.158 A 
BRANCH  15  18
ATOM     18  O   UNL     1      34.119 -12.623   5.057  1.00  0.00    -0.504 OA
ATOM     19  H   UNL     1      34.326 -12.563   4.066  1.00  0.00     0.293 HD
ENDBRANCH  15  18
BRANCH  17  20
ATOM     20  O   UNL     1      36.440 -11.101   4.531  1.00  0.00    -0.504 OA
ATOM     21  H   UNL     1      36.516 -11.608   3.659  1.00  0.00     0.293 HD
ENDBRANCH  17  20
ENDBRANCH   1  12
BRANCH   2  22
ATOM     22  O   UNL     1      37.677  -9.792   9.329  1.00  0.00    -0.502 OA
ATOM     23  H   UNL     1      36.812  -9.859   8.805  1.00  0.00     0.293 HD
ENDBRANCH   2  22
BRANCH   6  24
ATOM     24  O   UNL     1      41.940 -10.863  12.336  1.00  0.00    -0.507 OA
ATOM     25  H   UNL     1      41.409 -10.164  12.832  1.00  0.00     0.293 HD
ENDBRANCH   6  24
BRANCH   8  26
ATOM     26  O   UNL     1      42.228 -15.618  11.726  1.00  0.00    -0.508 OA
ATOM     27  H   UNL     1      42.913 -16.027  11.102  1.00  0.00     0.293 HD
ENDBRANCH   8  26
TORSDOF 6
ENDMDL
MODEL 2
REMARK VINA RESULT:    -7.805      1.478      1.682
REMARK INTER + INTRA:          -9.598
REMARK INTER:                  -9.878
REMARK INTRA:                   0.279
REMARK UNBOUND:                -0.196
REMARK SMILES O=c1c(O)c(-c2ccc(O)c(O)c2)oc2cc(O)cc(O)c12
REMARK SMILES IDX 5 1 3 2 2 3 1 4 22 5 20 6 19 7 17 8 16 9 15 10 14 11 6 12
REMARK SMILES IDX 7 13 8 14 9 15 13 16 11 17 10 18 12 20 4 22 21 24 18 26
REMARK H PARENT 10 19 12 21 4 23 21 25 18 27
REMARK Flexibility Score: inf
ROOT
ATOM      1  C   UNL     1      37.670 -12.929   8.925  1.00  0.00     0.180 A 
ATOM      2  C   UNL     1      37.862 -11.579   9.271  1.00  0.00     0.208 A 
ATOM      3  C   UNL     1      38.960 -11.231  10.073  1.00  0.00     0.238 A 
ATOM      4  O   UNL     1      39.095 -10.030  10.424  1.00  0.00    -0.285 OA
ATOM      5  C   UNL     1      39.863 -12.232  10.506  1.00  0.00     0.111 A 
ATOM      6  C   UNL     1      41.031 -11.987  11.288  1.00  0.00     0.134 A 
ATOM      7  C   UNL     1      41.780 -13.068  11.768  1.00  0.00     0.093 A 
ATOM      8  C   UNL     1      41.439 -14.383  11.441  1.00  0.00     0.123 A 
ATOM      9  C   UNL     1      40.335 -14.629  10.628  1.00  0.00     0.094 A 
ATOM     10  C   UNL     1      39.547 -13.573  10.164  1.00  0.00     0.146 A 
ATOM     11  O   UNL     1      38.497 -13.852   9.401  1.00  0.00    -0.452 OA
ENDROOT
BRANCH   1  12
ATOM     12  C   UNL     1      36.550 -13.370   8.063  1.00  0.00     0.025 A 
ATOM     13  C   UNL     1      35.322 -12.686   8.053  1.00  0.00     0.016 A 
ATOM     14  C   UNL     1      34.287 -13.107   7.213  1.00  0.00     0.051 A 
ATOM     15  C   UNL     1      34.469 -14.205   6.362  1.00  0.00     0.157 A 
ATOM     16  C   UNL     1      36.735 -14.457   7.194  1.00  0.00     0.062 A 
ATOM     17  C   UNL     1      35.700 -14.880   6.351  1.00  0.00     0.158 A 
BRANCH  15  18
ATOM     18  O   UNL     1      33.433 -14.623   5.527  1.00  0.00    -0.504 OA
ATOM     19  H   UNL     1      32.462 -14.531   5.799  1.00  0.00     0.293 HD
ENDBRANCH  15  18
BRANCH  17  20
ATOM     20  O   UNL     1      35.915 -15.973   5.511  1.00  0.00    -0.504 OA
ATOM     21  H   UNL     1      35.176 -16.625   5.278  1.00  0.00     0.293 HD
ENDBRANCH  17  20
ENDBRANCH   1  12
BRANCH   2  22
ATOM     22  O   UNL     1      36.946 -10.610   8.851  1.00  0.00    -0.502 OA
ATOM     23  H   UNL     1      36.881 -10.305   7.888  1.00  0.00     0.293 HD
ENDBRANCH   2  22
BRANCH   6  24
ATOM     24  O   UNL     1      41.511 -10.710  11.594  1.00  0.00    -0.507 OA
ATOM     25  H   UNL     1      41.583  -9.949  10.937  1.00  0.00     0.293 HD
ENDBRANCH   6  24
BRANCH   8  26
ATOM     26  O   UNL     1      42.198 -15.452  11.911  1.00  0.00    -0.508 OA
ATOM     27  H   UNL     1      42.320 -16.297  11.364  1.00  0.00     0.293 HD
ENDBRANCH   8  26
TORSDOF 6
ENDMDL
MODEL 3
REMARK VINA RESULT:    -7.603      1.590      2.242
REMARK INTER + INTRA:          -9.355
REMARK INTER:                  -9.302
REMARK INTRA:                  -0.053
REMARK UNBOUND:                -0.196
REMARK SMILES O=c1c(O)c(-c2ccc(O)c(O)c2)oc2cc(O)cc(O)c12
REMARK SMILES IDX 5 1 3 2 2 3 1 4 22 5 20 6 19 7 17 8 16 9 15 10 14 11 6 12
REMARK SMILES IDX 7 13 8 14 9 15 13 16 11 17 10 18 12 20 4 22 21 24 18 26
REMARK H PARENT 10 19 12 21 4 23 21 25 18 27
REMARK Flexibility Score: inf
ROOT
ATOM      1  C   UNL     1      36.745 -12.940   8.124  1.00  0.00     0.180 A 
ATOM      2  C   UNL     1      36.979 -11.573   8.359  1.00  0.00     0.208 A 
ATOM      3  C   UNL     1      38.092 -11.195   9.127  1.00  0.00     0.238 A 
ATOM      4  O   UNL     1      38.264  -9.974   9.378  1.00  0.00    -0.285 OA
ATOM      5  C   UNL     1      38.966 -12.185   9.637  1.00  0.00     0.111 A 
ATOM      6  C   UNL     1      40.145 -11.913  10.392  1.00  0.00     0.134 A 
ATOM      7  C   UNL     1      40.864 -12.973  10.957  1.00  0.00     0.093 A 
ATOM      8  C   UNL     1      40.482 -14.299  10.738  1.00  0.00     0.123 A 
ATOM      9  C   UNL     1      39.367 -14.577   9.951  1.00  0.00     0.094 A 
ATOM     10  C   UNL     1      38.608 -13.538   9.405  1.00  0.00     0.146 A 
ATOM     11  O   UNL     1      37.547 -13.846   8.670  1.00  0.00    -0.452 OA
ENDROOT
BRANCH   1  12
ATOM     12  C   UNL     1      35.608 -13.415   7.303  1.00  0.00     0.025 A 
ATOM     13  C   UNL     1      34.285 -13.049   7.605  1.00  0.00     0.016 A 
ATOM     14  C   UNL     1      33.230 -13.490   6.802  1.00  0.00     0.051 A 
ATOM     15  C   UNL     1      33.482 -14.290   5.680  1.00  0.00     0.157 A 
ATOM     16  C   UNL     1      35.857 -14.199   6.165  1.00  0.00     0.062 A 
ATOM     17  C   UNL     1      34.802 -14.643   5.359  1.00  0.00     0.158 A 
BRANCH  15  18
ATOM     18  O   UNL     1      32.426 -14.729   4.882  1.00  0.00    -0.504 OA
ATOM     19  H   UNL     1      32.566 -15.408   4.142  1.00  0.00     0.293 HD
ENDBRANCH  15  18
BRANCH  17  20
ATOM     20  O   UNL     1      35.087 -15.432   4.245  1.00  0.00    -0.504 OA
ATOM     21  H   UNL     1      34.532 -16.244   4.005  1.00  0.00     0.293 HD
ENDBRANCH  17  20
ENDBRANCH   1  12
BRANCH   2  22
ATOM     22  O   UNL     1      36.090 -10.613   7.865  1.00  0.00    -0.502 OA
ATOM     23  H   UNL     1      35.992 -10.423   6.875  1.00  0.00     0.293 HD
ENDBRANCH   2  22
BRANCH   6  24
ATOM     24  O   UNL     1      40.665 -10.630  10.593  1.00  0.00    -0.507 OA
ATOM     25  H   UNL     1      41.376 -10.397  11.269  1.00  0.00     0.293 HD
ENDBRANCH   6  24
BRANCH   8  26
ATOM     26  O   UNL     1      41.212 -15.350  11.290  1.00  0.00    -0.508 OA
ATOM     27  H   UNL     1      41.616 -16.077  10.712  1.00  0.00     0.293 HD
ENDBRANCH   8  26
TORSDOF 6
ENDMDL
MODEL 4
REMARK VINA RESULT:    -7.473      6.008     11.909
REMARK INTER + INTRA:          -9.198
REMARK INTER:                  -9.446
REMARK INTRA:                   0.248
REMARK UNBOUND:                -0.196
REMARK SMILES O=c1c(O)c(-c2ccc(O)c(O)c2)oc2cc(O)cc(O)c12
REMARK SMILES IDX 5 1 3 2 2 3 1 4 22 5 20 6 19 7 17 8 16 9 15 10 14 11 6 12
REMARK SMILES IDX 7 13 8 14 9 15 13 16 11 17 10 18 12 20 4 22 21 24 18 26
REMARK H PARENT 10 19 12 21 4 23 21 25 18 27
REMARK Flexibility Score: inf
ROOT
ATOM      1  C   UNL     1      32.182 -14.942   3.132  1.00  0.00     0.180 A 
ATOM      2  C   UNL     1      32.561 -15.004   1.779  1.00  0.00     0.208 A 
ATOM      3  C   UNL     1      31.563 -15.108   0.797  1.00  0.00     0.238 A 
ATOM      4  O   UNL     1      31.912 -15.217  -0.408  1.00  0.00    -0.285 OA
ATOM      5  C   UNL     1      30.200 -15.133   1.176  1.00  0.00     0.111 A 
ATOM      6  C   UNL     1      29.105 -15.195   0.263  1.00  0.00     0.134 A 
ATOM      7  C   UNL     1      27.803 -15.346   0.754  1.00  0.00     0.093 A 
ATOM      8  C   UNL     1      27.550 -15.371   2.128  1.00  0.00     0.123 A 
ATOM      9  C   UNL     1      28.606 -15.250   3.028  1.00  0.00     0.094 A 
ATOM     10  C   UNL     1      29.921 -15.136   2.568  1.00  0.00     0.146 A 
ATOM     11  O   UNL     1      30.898 -15.033   3.459  1.00  0.00    -0.452 OA
ENDROOT
BRANCH   1  12
ATOM     12  C   UNL     1      33.174 -14.806   4.223  1.00  0.00     0.025 A 
ATOM     13  C   UNL     1      34.454 -15.377   4.122  1.00  0.00     0.016 A 
ATOM     14  C   UNL     1      35.383 -15.215   5.154  1.00  0.00     0.051 A 
ATOM     15  C   UNL     1      35.050 -14.471   6.294  1.00  0.00     0.157 A 
ATOM     16  C   UNL     1      32.853 -14.044   5.358  1.00  0.00     0.062 A 
ATOM     17  C   UNL     1      33.780 -13.881   6.393  1.00  0.00     0.158 A 
BRANCH  15  18
ATOM     18  O   UNL     1      35.979 -14.313   7.323  1.00  0.00    -0.504 OA
ATOM     19  H   UNL     1      36.288 -15.099   7.883  1.00  0.00     0.293 HD
ENDBRANCH  15  18
BRANCH  17  20
ATOM     20  O   UNL     1      33.421 -13.128   7.512  1.00  0.00    -0.504 OA
ATOM     21  H   UNL     1      32.998 -12.212   7.431  1.00  0.00     0.293 HD
ENDBRANCH  17  20
ENDBRANCH   1  12
BRANCH   2  22
ATOM     22  O   UNL     1      33.914 -15.000   1.428  1.00  0.00    -0.502 OA
ATOM     23  H   UNL     1      34.237 -14.712   0.512  1.00  0.00     0.293 HD
ENDBRANCH   2  22
BRANCH   6  24
ATOM     24  O   UNL     1      29.240 -15.087  -1.125  1.00  0.00    -0.507 OA
ATOM     25  H   UNL     1      29.682 -15.774  -1.715  1.00  0.00     0.293 HD
ENDBRANCH   6  24
BRANCH   8  26
ATOM     26  O   UNL     1      26.250 -15.506   2.609  1.00  0.00    -0.508 OA
ATOM     27  H   UNL     1      25.949 -16.341   3.099  1.00  0.00     0.293 HD
ENDBRANCH   8  26
TORSDOF 6
ENDMDL
MODEL 5
REMARK VINA RESULT:    -7.401      1.704      7.188
REMARK INTER + INTRA:          -9.111
REMARK INTER:                  -8.810
REMARK INTRA:                  -0.301
REMARK UNBOUND:                -0.196
REMARK SMILES O=c1c(O)c(-c2ccc(O)c(O)c2)oc2cc(O)cc(O)c12
REMARK SMILES IDX 5 1 3 2 2 3 1 4 22 5 20 6 19 7 17 8 16 9 15 10 14 11 6 12
REMARK SMILES IDX 7 13 8 14 9 15 13 16 11 17 10 18 12 20 4 22 21 24 18 26
REMARK H PARENT 10 19 12 21 4 23 21 25 18 27
REMARK Flexibility Score: inf
ROOT
ATOM      1  C   UNL     1      37.758 -11.933   8.378  1.00  0.00     0.180 A 
ATOM      2  C   UNL     1      36.500 -12.485   8.681  1.00  0.00     0.208 A 
ATOM      3  C   UNL     1      35.563 -12.650   7.648  1.00  0.00     0.238 A 
ATOM      4  O   UNL     1      34.421 -13.094   7.934  1.00  0.00    -0.285 OA
ATOM      5  C   UNL     1      35.899 -12.276   6.324  1.00  0.00     0.111 A 
ATOM      6  C   UNL     1      35.043 -12.437   5.194  1.00  0.00     0.134 A 
ATOM      7  C   UNL     1      35.429 -11.913   3.955  1.00  0.00     0.093 A 
ATOM      8  C   UNL     1      36.669 -11.292   3.790  1.00  0.00     0.123 A 
ATOM      9  C   UNL     1      37.539 -11.185   4.874  1.00  0.00     0.094 A 
ATOM     10  C   UNL     1      37.165 -11.665   6.132  1.00  0.00     0.146 A 
ATOM     11  O   UNL     1      38.019 -11.533   7.140  1.00  0.00    -0.452 OA
ENDROOT
BRANCH   1  12
ATOM     12  C   UNL     1      38.806 -11.752   9.408  1.00  0.00     0.025 A 
ATOM     13  C   UNL     1      39.873 -12.659   9.534  1.00  0.00     0.016 A 
ATOM     14  C   UNL     1      40.864 -12.454  10.497  1.00  0.00     0.051 A 
ATOM     15  C   UNL     1      40.812 -11.334  11.338  1.00  0.00     0.157 A 
ATOM     16  C   UNL     1      38.770 -10.620  10.239  1.00  0.00     0.062 A 
ATOM     17  C   UNL     1      39.761 -10.413  11.205  1.00  0.00     0.158 A 
BRANCH  15  18
ATOM     18  O   UNL     1      41.802 -11.134  12.300  1.00  0.00    -0.504 OA
ATOM     19  H   UNL     1      42.783 -11.285  12.092  1.00  0.00     0.293 HD
ENDBRANCH  15  18
BRANCH  17  20
ATOM     20  O   UNL     1      39.685  -9.285  12.023  1.00  0.00    -0.504 OA
ATOM     21  H   UNL     1      40.445  -8.620  12.095  1.00  0.00     0.293 HD
ENDBRANCH  17  20
ENDBRANCH   1  12
BRANCH   2  22
ATOM     22  O   UNL     1      36.181 -12.826   9.998  1.00  0.00    -0.502 OA
ATOM     23  H   UNL     1      36.124 -12.138  10.739  1.00  0.00     0.293 HD
ENDBRANCH   2  22
BRANCH   6  24
ATOM     24  O   UNL     1      33.824 -13.121   5.230  1.00  0.00    -0.507 OA
ATOM     25  H   UNL     1      33.668 -13.993   5.712  1.00  0.00     0.293 HD
ENDBRANCH   6  24
BRANCH   8  26
ATOM     26  O   UNL     1      37.053 -10.787   2.550  1.00  0.00    -0.508 OA
ATOM     27  H   UNL     1      36.999 -11.349   1.709  1.00  0.00     0.293 HD
ENDBRANCH   8  26
TORSDOF 6
ENDMDL
MODEL 6
REMARK VINA RESULT:    -7.395      7.324     10.683
REMARK INTER + INTRA:          -9.104
REMARK INTER:                  -8.818
REMARK INTRA:                  -0.286
REMARK UNBOUND:                -0.196
REMARK SMILES O=c1c(O)c(-c2ccc(O)c(O)c2)oc2cc(O)cc(O)c12
REMARK SMILES IDX 5 1 3 2 2 3 1 4 22 5 20 6 19 7 17 8 16 9 15 10 14 11 6 12
REMARK SMILES IDX 7 13 8 14 9 15 13 16 11 17 10 18 12 20 4 22 21 24 18 26
REMARK H PARENT 10 19 12 21 4 23 21 25 18 27
REMARK Flexibility Score: inf
ROOT
ATOM      1  C   UNL     1      31.821 -14.424   1.535  1.00  0.00     0.180 A 
ATOM      2  C   UNL     1      32.530 -15.289   2.386  1.00  0.00     0.208 A 
ATOM      3  C   UNL     1      33.697 -14.823   3.013  1.00  0.00     0.238 A 
ATOM      4  O   UNL     1      34.356 -15.620   3.730  1.00  0.00    -0.285 OA
ATOM      5  C   UNL     1      34.133 -13.495   2.793  1.00  0.00     0.111 A 
ATOM      6  C   UNL     1      35.278 -12.905   3.407  1.00  0.00     0.134 A 
ATOM      7  C   UNL     1      35.689 -11.625   3.017  1.00  0.00     0.093 A 
ATOM      8  C   UNL     1      34.958 -10.888   2.082  1.00  0.00     0.123 A 
ATOM      9  C   UNL     1      33.804 -11.431   1.522  1.00  0.00     0.094 A 
ATOM     10  C   UNL     1      33.390 -12.721   1.864  1.00  0.00     0.146 A 
ATOM     11  O   UNL     1      32.291 -13.205   1.299  1.00  0.00    -0.452 OA
ENDROOT
BRANCH   1  12
ATOM     12  C   UNL     1      30.569 -14.834   0.859  1.00  0.00     0.025 A 
ATOM     13  C   UNL     1      30.563 -15.239  -0.486  1.00  0.00     0.016 A 
ATOM     14  C   UNL     1      29.373 -15.646  -1.096  1.00  0.00     0.051 A 
ATOM     15  C   UNL     1      28.176 -15.666  -0.368  1.00  0.00     0.157 A 
ATOM     16  C   UNL     1      29.371 -14.876   1.591  1.00  0.00     0.062 A 
ATOM     17  C   UNL     1      28.177 -15.282   0.983  1.00  0.00     0.158 A 
BRANCH  15  18
ATOM     18  O   UNL     1      26.990 -16.070  -0.980  1.00  0.00    -0.504 OA
ATOM     19  H   UNL     1      26.168 -16.311  -0.439  1.00  0.00     0.293 HD
ENDBRANCH  15  18
BRANCH  17  20
ATOM     20  O   UNL     1      27.004 -15.298   1.737  1.00  0.00    -0.504 OA
ATOM     21  H   UNL     1      26.228 -14.678   1.538  1.00  0.00     0.293 HD
ENDBRANCH  17  20
ENDBRANCH   1  12
BRANCH   2  22
ATOM     22  O   UNL     1      32.095 -16.605   2.572  1.00  0.00    -0.502 OA
ATOM     23  H   UNL     1      31.928 -17.236   1.797  1.00  0.00     0.293 HD
ENDBRANCH   2  22
BRANCH   6  24
ATOM     24  O   UNL     1      36.024 -13.519   4.418  1.00  0.00    -0.507 OA
ATOM     25  H   UNL     1      36.882 -13.154   4.803  1.00  0.00     0.293 HD
ENDBRANCH   6  24
BRANCH   8  26
ATOM     26  O   UNL     1      35.365  -9.608   1.711  1.00  0.00    -0.508 OA
ATOM     27  H   UNL     1      35.110  -9.210   0.815  1.00  0.00     0.293 HD
ENDBRANCH   8  26
TORSDOF 6
ENDMDL
MODEL 7
REMARK VINA RESULT:    -7.217      7.084     10.682
REMARK INTER + INTRA:          -8.889
REMARK INTER:                  -8.682
REMARK INTRA:                  -0.207
REMARK UNBOUND:                -0.196
REMARK SMILES O=c1c(O)c(-c2ccc(O)c(O)c2)oc2cc(O)cc(O)c12
REMARK SMILES IDX 5 1 3 2 2 3 1 4 22 5 20 6 19 7 17 8 16 9 15 10 14 11 6 12
REMARK SMILES IDX 7 13 8 14 9 15 13 16 11 17 10 18 12 20 4 22 21 24 18 26
REMARK H PARENT 10 19 12 21 4 23 21 25 18 27
REMARK Flexibility Score: inf
ROOT
ATOM      1  C   UNL     1      31.380 -14.067   1.165  1.00  0.00     0.180 A 
ATOM      2  C   UNL     1      31.901 -12.866   0.651  1.00  0.00     0.208 A 
ATOM      3  C   UNL     1      33.104 -12.366   1.175  1.00  0.00     0.238 A 
ATOM      4  O   UNL     1      33.536 -11.264   0.748  1.00  0.00    -0.285 OA
ATOM      5  C   UNL     1      33.779 -13.079   2.195  1.00  0.00     0.111 A 
ATOM      6  C   UNL     1      35.024 -12.686   2.770  1.00  0.00     0.134 A 
ATOM      7  C   UNL     1      35.535 -13.397   3.862  1.00  0.00     0.093 A 
ATOM      8  C   UNL     1      34.878 -14.526   4.358  1.00  0.00     0.123 A 
ATOM      9  C   UNL     1      33.693 -14.953   3.764  1.00  0.00     0.094 A 
ATOM     10  C   UNL     1      33.139 -14.242   2.696  1.00  0.00     0.146 A 
ATOM     11  O   UNL     1      32.003 -14.677   2.166  1.00  0.00    -0.452 OA
ENDROOT
BRANCH   1  12
ATOM     12  C   UNL     1      30.131 -14.669   0.646  1.00  0.00     0.025 A 
ATOM     13  C   UNL     1      30.050 -15.170  -0.665  1.00  0.00     0.016 A 
ATOM     14  C   UNL     1      28.868 -15.757  -1.124  1.00  0.00     0.051 A 
ATOM     15  C   UNL     1      27.756 -15.864  -0.278  1.00  0.00     0.157 A 
ATOM     16  C   UNL     1      29.021 -14.798   1.497  1.00  0.00     0.062 A 
ATOM     17  C   UNL     1      27.836 -15.385   1.039  1.00  0.00     0.158 A 
BRANCH  15  18
ATOM     18  O   UNL     1      26.577 -16.449  -0.741  1.00  0.00    -0.504 OA
ATOM     19  H   UNL     1      25.678 -15.996  -0.623  1.00  0.00     0.293 HD
ENDBRANCH  15  18
BRANCH  17  20
ATOM     20  O   UNL     1      26.749 -15.484   1.909  1.00  0.00    -0.504 OA
ATOM     21  H   UNL     1      26.236 -16.347   2.032  1.00  0.00     0.293 HD
ENDBRANCH  17  20
ENDBRANCH   1  12
BRANCH   2  22
ATOM     22  O   UNL     1      31.207 -12.166  -0.341  1.00  0.00    -0.502 OA
ATOM     23  H   UNL     1      30.985 -11.182  -0.257  1.00  0.00     0.293 HD
ENDBRANCH   2  22
BRANCH   6  24
ATOM     24  O   UNL     1      35.806 -11.629   2.292  1.00  0.00    -0.507 OA
ATOM     25  H   UNL     1      36.066 -11.497   1.327  1.00  0.00     0.293 HD
ENDBRANCH   6  24
BRANCH   8  26
ATOM     26  O   UNL     1      35.402 -15.237   5.436  1.00  0.00    -0.508 OA
ATOM     27  H   UNL     1      34.910 -16.025   5.840  1.00  0.00     0.293 HD
ENDBRANCH   8  26
TORSDOF 6
ENDMDL
MODEL 8
REMARK VINA RESULT:    -7.014      1.763      7.031
REMARK INTER + INTRA:          -8.645
REMARK INTER:                  -8.323
REMARK INTRA:                  -0.322
REMARK UNBOUND:                -0.196
REMARK SMILES O=c1c(O)c(-c2ccc(O)c(O)c2)oc2cc(O)cc(O)c12
REMARK SMILES IDX 5 1 3 2 2 3 1 4 22 5 20 6 19 7 17 8 16 9 15 10 14 11 6 12
REMARK SMILES IDX 7 13 8 14 9 15 13 16 11 17 10 18 12 20 4 22 21 24 18 26
REMARK H PARENT 10 19 12 21 4 23 21 25 18 27
REMARK Flexibility Score: inf
ROOT
ATOM      1  C   UNL     1      38.215 -11.604   8.003  1.00  0.00     0.180 A 
ATOM      2  C   UNL     1      38.490 -10.954   6.786  1.00  0.00     0.208 A 
ATOM      3  C   UNL     1      37.561 -11.050   5.737  1.00  0.00     0.238 A 
ATOM      4  O   UNL     1      37.839 -10.511   4.635  1.00  0.00    -0.285 OA
ATOM      5  C   UNL     1      36.362 -11.779   5.922  1.00  0.00     0.111 A 
ATOM      6  C   UNL     1      35.333 -11.908   4.942  1.00  0.00     0.134 A 
ATOM      7  C   UNL     1      34.250 -12.761   5.186  1.00  0.00     0.093 A 
ATOM      8  C   UNL     1      34.127 -13.439   6.401  1.00  0.00     0.123 A 
ATOM      9  C   UNL     1      35.096 -13.273   7.388  1.00  0.00     0.094 A 
ATOM     10  C   UNL     1      36.207 -12.457   7.159  1.00  0.00     0.146 A 
ATOM     11  O   UNL     1      37.113 -12.334   8.122  1.00  0.00    -0.452 OA
ENDROOT
BRANCH   1  12
ATOM     12  C   UNL     1      39.133 -11.528   9.162  1.00  0.00     0.025 A 
ATOM     13  C   UNL     1      40.187 -12.445   9.320  1.00  0.00     0.016 A 
ATOM     14  C   UNL     1      41.056 -12.339  10.410  1.00  0.00     0.051 A 
ATOM     15  C   UNL     1      40.893 -11.310  11.347  1.00  0.00     0.157 A 
ATOM     16  C   UNL     1      38.987 -10.487  10.092  1.00  0.00     0.062 A 
ATOM     17  C   UNL     1      39.856 -10.379  11.184  1.00  0.00     0.158 A 
BRANCH  15  18
ATOM     18  O   UNL     1      41.761 -11.209  12.434  1.00  0.00    -0.504 OA
ATOM     19  H   UNL     1      41.627 -11.761  13.274  1.00  0.00     0.293 HD
ENDBRANCH  15  18
BRANCH  17  20
ATOM     20  O   UNL     1      39.671  -9.339  12.096  1.00  0.00    -0.504 OA
ATOM     21  H   UNL     1      39.045  -9.422  12.887  1.00  0.00     0.293 HD
ENDBRANCH  17  20
ENDBRANCH   1  12
BRANCH   2  22
ATOM     22  O   UNL     1      39.690 -10.257   6.618  1.00  0.00    -0.502 OA
ATOM     23  H   UNL     1      40.159 -10.190   5.722  1.00  0.00     0.293 HD
ENDBRANCH   2  22
BRANCH   6  24
ATOM     24  O   UNL     1      35.314 -11.204   3.734  1.00  0.00    -0.507 OA
ATOM     25  H   UNL     1      36.012 -11.283   3.011  1.00  0.00     0.293 HD
ENDBRANCH   6  24
BRANCH   8  26
ATOM     26  O   UNL     1      33.038 -14.275   6.642  1.00  0.00    -0.508 OA
ATOM     27  H   UNL     1      32.135 -13.904   6.914  1.00  0.00     0.293 HD
ENDBRANCH   8  26
TORSDOF 6
ENDMDL
MODEL 9
REMARK VINA RESULT:    -6.927      2.621      4.509
REMARK INTER + INTRA:          -8.540
REMARK INTER:                  -8.230
REMARK INTRA:                  -0.310
REMARK UNBOUND:                -0.196
REMARK SMILES O=c1c(O)c(-c2ccc(O)c(O)c2)oc2cc(O)cc(O)c12
REMARK SMILES IDX 5 1 3 2 2 3 1 4 22 5 20 6 19 7 17 8 16 9 15 10 14 11 6 12
REMARK SMILES IDX 7 13 8 14 9 15 13 16 11 17 10 18 12 20 4 22 21 24 18 26
REMARK H PARENT 10 19 12 21 4 23 21 25 18 27
REMARK Flexibility Score: inf
ROOT
ATOM      1  C   UNL     1      35.390 -13.165   5.923  1.00  0.00     0.180 A 
ATOM      2  C   UNL     1      35.322 -11.770   6.084  1.00  0.00     0.208 A 
ATOM      3  C   UNL     1      36.057 -11.166   7.117  1.00  0.00     0.238 A 
ATOM      4  O   UNL     1      35.949  -9.924   7.289  1.00  0.00    -0.285 OA
ATOM      5  C   UNL     1      36.864 -11.962   7.966  1.00  0.00     0.111 A 
ATOM      6  C   UNL     1      37.682 -11.452   9.018  1.00  0.00     0.134 A 
ATOM      7  C   UNL     1      38.336 -12.343   9.877  1.00  0.00     0.093 A 
ATOM      8  C   UNL     1      38.255 -13.723   9.682  1.00  0.00     0.123 A 
ATOM      9  C   UNL     1      37.508 -14.229   8.620  1.00  0.00     0.094 A 
ATOM     10  C   UNL     1      36.813 -13.366   7.768  1.00  0.00     0.146 A 
ATOM     11  O   UNL     1      36.104 -13.890   6.776  1.00  0.00    -0.452 OA
ENDROOT
BRANCH   1  12
ATOM     12  C   UNL     1      34.664 -13.870   4.843  1.00  0.00     0.025 A 
ATOM     13  C   UNL     1      33.399 -14.442   5.064  1.00  0.00     0.016 A 
ATOM     14  C   UNL     1      32.722 -15.081   4.022  1.00  0.00     0.051 A 
ATOM     15  C   UNL     1      33.291 -15.147   2.743  1.00  0.00     0.157 A 
ATOM     16  C   UNL     1      35.221 -13.920   3.554  1.00  0.00     0.062 A 
ATOM     17  C   UNL     1      34.544 -14.560   2.509  1.00  0.00     0.158 A 
BRANCH  15  18
ATOM     18  O   UNL     1      32.612 -15.788   1.707  1.00  0.00    -0.504 OA
ATOM     19  H   UNL     1      32.069 -15.268   1.026  1.00  0.00     0.293 HD
ENDBRANCH  15  18
BRANCH  17  20
ATOM     20  O   UNL     1      35.135 -14.602   1.246  1.00  0.00    -0.504 OA
ATOM     21  H   UNL     1      34.587 -14.692   0.399  1.00  0.00     0.293 HD
ENDBRANCH  17  20
ENDBRANCH   1  12
BRANCH   2  22
ATOM     22  O   UNL     1      34.501 -11.006   5.249  1.00  0.00    -0.502 OA
ATOM     23  H   UNL     1      33.938 -10.238   5.595  1.00  0.00     0.293 HD
ENDBRANCH   2  22
BRANCH   6  24
ATOM     24  O   UNL     1      37.904 -10.090   9.243  1.00  0.00    -0.507 OA
ATOM     25  H   UNL     1      37.480  -9.552   9.983  1.00  0.00     0.293 HD
ENDBRANCH   6  24
BRANCH   8  26
ATOM     26  O   UNL     1      38.922 -14.602  10.532  1.00  0.00    -0.508 OA
ATOM     27  H   UNL     1      39.883 -14.876  10.364  1.00  0.00     0.293 HD
ENDBRANCH   8  26
TORSDOF 6
ENDMDL
