MODEL 1
REMARK VINA RESULT:    -7.559      0.000      0.000
REMARK INTER + INTRA:         -13.924
REMARK INTER:                 -12.420
REMARK INTRA:                  -1.504
REMARK UNBOUND:                -1.504
REMARK SMILES COc1ccc([C@H]2CC(=O)c3c(O)cc(O[C@H]4O[C@@H](CO[C@H]5O[C@H](C)[C@H](O)[C@H](O)[C@@H]5O)[C@@H](O)[C@H](O)[C@H]4O)cc3O2)cc1O
REMARK SMILES IDX 19 1 32 2 34 3 36 4 17 5 18 6 20 7 21 8 22 9 25 10 24 11
REMARK SMILES IDX 26 12 23 13 28 14 30 15 27 16 29 18 31 20 33 22 35 24 16 26
REMARK SMILES IDX 15 27 14 28 38 29 12 30 39 31 11 32 40 33 9 34 7 35 10 36
REMARK SMILES IDX 8 37 13 38 6 40 41 41 5 42 42 43 4 44 3 45 43 46 2 48 1 49
REMARK SMILES IDX 37 50
REMARK H PARENT 27 17 29 19 31 21 33 23 35 25 13 39 43 47 37 51
REMARK Flexibility Score: inf
ROOT
ATOM      1  C   UNL     1      -3.770 -40.253 -31.060  1.00  0.00     0.180 C 
ATOM      2  C   UNL     1      -4.748 -41.356 -30.522  1.00  0.00     0.177 C 
ATOM      3  C   UNL     1      -5.808 -41.695 -31.591  1.00  0.00     0.180 C 
ATOM      4  C   UNL     1      -5.122 -42.146 -32.903  1.00  0.00     0.214 C 
ATOM      5  C   UNL     1      -3.726 -41.486 -33.050  1.00  0.00     0.339 C 
ATOM      6  O   UNL     1      -3.752 -40.189 -32.481  1.00  0.00    -0.332 OA
ENDROOT
BRANCH   1   7
ATOM      7  C   UNL     1      -4.109 -38.847 -30.533  1.00  0.00     0.198 C 
BRANCH   7   8
ATOM      8  O   UNL     1      -5.380 -38.466 -31.023  1.00  0.00    -0.347 OA
BRANCH   8   9
ATOM      9  C   UNL     1      -6.024 -37.556 -30.144  1.00  0.00     0.281 C 
ATOM     10  C   UNL     1      -4.961 -34.382 -31.697  1.00  0.00     0.041 C 
ATOM     11  C   UNL     1      -5.697 -35.718 -31.577  1.00  0.00     0.150 C 
ATOM     12  C   UNL     1      -7.206 -35.548 -31.868  1.00  0.00     0.174 C 
ATOM     13  O   UNL     1      -5.490 -36.243 -30.274  1.00  0.00    -0.344 OA
ATOM     14  C   UNL     1      -7.897 -36.923 -31.740  1.00  0.00     0.179 C 
ATOM     15  C   UNL     1      -7.547 -37.585 -30.395  1.00  0.00     0.202 C 
BRANCH  12  16
ATOM     16  O   UNL     1      -7.772 -34.632 -30.961  1.00  0.00    -0.388 OA
ATOM     17  H   UNL     1      -8.015 -35.142 -30.146  1.00  0.00     0.211 HD
ENDBRANCH  12  16
BRANCH  14  18
ATOM     18  O   UNL     1      -9.294 -36.806 -31.856  1.00  0.00    -0.387 OA
ATOM     19  H   UNL     1      -9.503 -35.836 -31.937  1.00  0.00     0.211 HD
ENDBRANCH  14  18
BRANCH  15  20
ATOM     20  O   UNL     1      -8.202 -36.932 -29.338  1.00  0.00    -0.385 OA
ATOM     21  H   UNL     1      -8.799 -36.248 -29.743  1.00  0.00     0.211 HD
ENDBRANCH  15  20
ENDBRANCH   8   9
ENDBRANCH   7   8
ENDBRANCH   1   7
BRANCH   2  22
ATOM     22  O   UNL     1      -5.355 -40.967 -29.315  1.00  0.00    -0.387 OA
ATOM     23  H   UNL     1      -5.965 -41.705 -29.049  1.00  0.00     0.211 HD
ENDBRANCH   2  22
BRANCH   3  24
ATOM     24  O   UNL     1      -6.651 -42.716 -31.121  1.00  0.00    -0.387 OA
ATOM     25  H   UNL     1      -7.298 -42.293 -30.496  1.00  0.00     0.211 HD
ENDBRANCH   3  24
BRANCH   5  26
ATOM     26  O   UNL     1      -3.363 -41.366 -34.425  1.00  0.00    -0.462 OA
BRANCH  26  27
ATOM     27  C   UNL     1      -2.090 -41.013 -34.906  1.00  0.00     0.130 A 
ATOM     28  C   UNL     1      -1.797 -39.744 -35.447  1.00  0.00     0.093 A 
ATOM     29  C   UNL     1      -1.082 -41.980 -34.859  1.00  0.00     0.094 A 
ATOM     30  C   UNL     1      -0.531 -39.472 -35.976  1.00  0.00     0.133 A 
ATOM     31  C   UNL     1       0.177 -41.725 -35.397  1.00  0.00     0.138 A 
ATOM     32  C   UNL     1       0.467 -40.470 -35.963  1.00  0.00     0.102 A 
ATOM     33  O   UNL     1       1.149 -42.727 -35.358  1.00  0.00    -0.484 OA
ATOM     34  C   UNL     1       1.833 -40.249 -36.500  1.00  0.00     0.174 C 
ATOM     35  C   UNL     1       2.292 -42.736 -36.216  1.00  0.00     0.211 C 
ATOM     36  O   UNL     1       2.152 -39.146 -37.023  1.00  0.00    -0.294 OA
ATOM     37  C   UNL     1       2.888 -41.314 -36.379  1.00  0.00     0.131 C 
BRANCH  30  38
ATOM     38  O   UNL     1      -0.264 -38.213 -36.511  1.00  0.00    -0.507 OA
ATOM     39  H   UNL     1       0.071 -38.090 -37.466  1.00  0.00     0.293 HD
ENDBRANCH  30  38
BRANCH  35  40
ATOM     40  C   UNL     1       1.940 -43.436 -37.519  1.00  0.00    -0.003 A 
ATOM     41  C   UNL     1       2.982 -43.756 -38.410  1.00  0.00     0.057 A 
ATOM     42  C   UNL     1       0.632 -43.869 -37.821  1.00  0.00     0.011 A 
ATOM     43  C   UNL     1       2.729 -44.466 -39.589  1.00  0.00     0.158 A 
ATOM     44  C   UNL     1       0.376 -44.575 -39.001  1.00  0.00     0.051 A 
ATOM     45  C   UNL     1       1.411 -44.859 -39.898  1.00  0.00     0.160 A 
BRANCH  43  46
ATOM     46  O   UNL     1       3.795 -44.776 -40.434  1.00  0.00    -0.504 OA
ATOM     47  H   UNL     1       4.293 -44.071 -40.960  1.00  0.00     0.293 HD
ENDBRANCH  43  46
BRANCH  45  48
ATOM     48  O   UNL     1       1.129 -45.546 -41.076  1.00  0.00    -0.493 OA
ATOM     49  C   UNL     1       1.090 -44.881 -42.334  1.00  0.00     0.278 C 
ENDBRANCH  45  48
ENDBRANCH  35  40
ENDBRANCH  26  27
ENDBRANCH   5  26
BRANCH   4  50
ATOM     50  O   UNL     1      -5.949 -41.803 -33.988  1.00  0.00    -0.384 OA
ATOM     51  H   UNL     1      -5.475 -42.063 -34.821  1.00  0.00     0.211 HD
ENDBRANCH   4  50
TORSDOF 15
ENDMDL
MODEL 2
REMARK VINA RESULT:    -7.518      1.233      1.503
REMARK INTER + INTRA:         -13.857
REMARK INTER:                 -12.151
REMARK INTRA:                  -1.706
REMARK UNBOUND:                -1.504
REMARK SMILES COc1ccc([C@H]2CC(=O)c3c(O)cc(O[C@H]4O[C@@H](CO[C@H]5O[C@H](C)[C@H](O)[C@H](O)[C@@H]5O)[C@@H](O)[C@H](O)[C@H]4O)cc3O2)cc1O
REMARK SMILES IDX 19 1 32 2 34 3 36 4 17 5 18 6 20 7 21 8 22 9 25 10 24 11
REMARK SMILES IDX 26 12 23 13 28 14 30 15 27 16 29 18 31 20 33 22 35 24 16 26
REMARK SMILES IDX 15 27 14 28 38 29 12 30 39 31 11 32 40 33 9 34 7 35 10 36
REMARK SMILES IDX 8 37 13 38 6 40 41 41 5 42 42 43 4 44 3 45 43 46 2 48 1 49
REMARK SMILES IDX 37 50
REMARK H PARENT 27 17 29 19 31 21 33 23 35 25 13 39 43 47 37 51
REMARK Flexibility Score: inf
ROOT
ATOM      1  C   UNL     1      -5.275 -41.106 -30.990  1.00  0.00     0.180 C 
ATOM      2  C   UNL     1      -5.882 -42.517 -30.672  1.00  0.00     0.177 C 
ATOM      3  C   UNL     1      -6.809 -42.968 -31.820  1.00  0.00     0.180 C 
ATOM      4  C   UNL     1      -6.037 -42.980 -33.160  1.00  0.00     0.214 C 
ATOM      5  C   UNL     1      -4.895 -41.929 -33.148  1.00  0.00     0.339 C 
ATOM      6  O   UNL     1      -5.292 -40.807 -32.380  1.00  0.00    -0.332 OA
ENDROOT
BRANCH   1   7
ATOM      7  C   UNL     1      -6.002 -39.964 -30.257  1.00  0.00     0.198 C 
BRANCH   7   8
ATOM      8  O   UNL     1      -5.353 -38.742 -30.552  1.00  0.00    -0.347 OA
BRANCH   8   9
ATOM      9  C   UNL     1      -5.923 -37.663 -29.827  1.00  0.00     0.281 C 
ATOM     10  C   UNL     1      -4.297 -34.850 -31.575  1.00  0.00     0.041 C 
ATOM     11  C   UNL     1      -5.226 -36.052 -31.394  1.00  0.00     0.150 C 
ATOM     12  C   UNL     1      -6.667 -35.711 -31.835  1.00  0.00     0.174 C 
ATOM     13  O   UNL     1      -5.197 -36.457 -30.033  1.00  0.00    -0.344 OA
ATOM     14  C   UNL     1      -7.558 -36.956 -31.640  1.00  0.00     0.179 C 
ATOM     15  C   UNL     1      -7.411 -37.511 -30.211  1.00  0.00     0.202 C 
BRANCH  12  16
ATOM     16  O   UNL     1      -7.162 -34.633 -31.076  1.00  0.00    -0.388 OA
ATOM     17  H   UNL     1      -7.195 -33.845 -31.677  1.00  0.00     0.211 HD
ENDBRANCH  12  16
BRANCH  14  18
ATOM     18  O   UNL     1      -8.910 -36.663 -31.892  1.00  0.00    -0.387 OA
ATOM     19  H   UNL     1      -9.279 -36.240 -31.070  1.00  0.00     0.211 HD
ENDBRANCH  14  18
BRANCH  15  20
ATOM     20  O   UNL     1      -8.043 -36.665 -29.285  1.00  0.00    -0.385 OA
ATOM     21  H   UNL     1      -9.001 -36.930 -29.255  1.00  0.00     0.211 HD
ENDBRANCH  15  20
ENDBRANCH   8   9
ENDBRANCH   7   8
ENDBRANCH   1   7
BRANCH   2  22
ATOM     22  O   UNL     1      -6.562 -42.523 -29.441  1.00  0.00    -0.387 OA
ATOM     23  H   UNL     1      -5.929 -42.880 -28.764  1.00  0.00     0.211 HD
ENDBRANCH   2  22
BRANCH   3  24
ATOM     24  O   UNL     1      -7.313 -44.252 -31.551  1.00  0.00    -0.387 OA
ATOM     25  H   UNL     1      -7.928 -44.484 -32.296  1.00  0.00     0.211 HD
ENDBRANCH   3  24
BRANCH   5  26
ATOM     26  O   UNL     1      -4.598 -41.486 -34.471  1.00  0.00    -0.462 OA
BRANCH  26  27
ATOM     27  C   UNL     1      -3.422 -40.828 -34.868  1.00  0.00     0.130 A 
ATOM     28  C   UNL     1      -3.420 -39.555 -35.475  1.00  0.00     0.093 A 
ATOM     29  C   UNL     1      -2.205 -41.484 -34.664  1.00  0.00     0.094 A 
ATOM     30  C   UNL     1      -2.222 -38.978 -35.913  1.00  0.00     0.133 A 
ATOM     31  C   UNL     1      -1.010 -40.926 -35.111  1.00  0.00     0.138 A 
ATOM     32  C   UNL     1      -1.004 -39.669 -35.741  1.00  0.00     0.102 A 
ATOM     33  O   UNL     1       0.183 -41.627 -34.916  1.00  0.00    -0.484 OA
ATOM     34  C   UNL     1       0.303 -39.116 -36.176  1.00  0.00     0.174 C 
ATOM     35  C   UNL     1       1.368 -41.370 -35.671  1.00  0.00     0.211 C 
ATOM     36  O   UNL     1       0.372 -37.994 -36.751  1.00  0.00    -0.294 OA
ATOM     37  C   UNL     1       1.583 -39.851 -35.888  1.00  0.00     0.131 C 
BRANCH  30  38
ATOM     38  O   UNL     1      -2.243 -37.721 -36.515  1.00  0.00    -0.507 OA
ATOM     39  H   UNL     1      -1.956 -36.878 -36.019  1.00  0.00     0.293 HD
ENDBRANCH  30  38
BRANCH  35  40
ATOM     40  C   UNL     1       1.348 -42.202 -36.944  1.00  0.00    -0.003 A 
ATOM     41  C   UNL     1       2.065 -41.735 -38.061  1.00  0.00     0.057 A 
ATOM     42  C   UNL     1       0.728 -43.467 -37.015  1.00  0.00     0.011 A 
ATOM     43  C   UNL     1       2.144 -42.493 -39.235  1.00  0.00     0.158 A 
ATOM     44  C   UNL     1       0.801 -44.225 -38.189  1.00  0.00     0.051 A 
ATOM     45  C   UNL     1       1.488 -43.738 -39.307  1.00  0.00     0.160 A 
BRANCH  43  46
ATOM     46  O   UNL     1       2.881 -41.998 -40.311  1.00  0.00    -0.504 OA
ATOM     47  H   UNL     1       3.880 -42.129 -40.390  1.00  0.00     0.293 HD
ENDBRANCH  43  46
BRANCH  45  48
ATOM     48  O   UNL     1       1.530 -44.502 -40.471  1.00  0.00    -0.493 OA
ATOM     49  C   UNL     1       0.724 -45.664 -40.629  1.00  0.00     0.278 C 
ENDBRANCH  45  48
ENDBRANCH  35  40
ENDBRANCH  26  27
ENDBRANCH   5  26
BRANCH   4  50
ATOM     50  O   UNL     1      -6.941 -42.718 -34.206  1.00  0.00    -0.384 OA
ATOM     51  H   UNL     1      -7.222 -41.768 -34.129  1.00  0.00     0.211 HD
ENDBRANCH   4  50
TORSDOF 15
ENDMDL
MODEL 3
REMARK VINA RESULT:    -7.422      0.820      1.641
REMARK INTER + INTRA:         -13.700
REMARK INTER:                 -12.453
REMARK INTRA:                  -1.247
REMARK UNBOUND:                -1.504
REMARK SMILES COc1ccc([C@H]2CC(=O)c3c(O)cc(O[C@H]4O[C@@H](CO[C@H]5O[C@H](C)[C@H](O)[C@H](O)[C@@H]5O)[C@@H](O)[C@H](O)[C@H]4O)cc3O2)cc1O
REMARK SMILES IDX 19 1 32 2 34 3 36 4 17 5 18 6 20 7 21 8 22 9 25 10 24 11
REMARK SMILES IDX 26 12 23 13 28 14 30 15 27 16 29 18 31 20 33 22 35 24 16 26
REMARK SMILES IDX 15 27 14 28 38 29 12 30 39 31 11 32 40 33 9 34 7 35 10 36
REMARK SMILES IDX 8 37 13 38 6 40 41 41 5 42 42 43 4 44 3 45 43 46 2 48 1 49
REMARK SMILES IDX 37 50
REMARK H PARENT 27 17 29 19 31 21 33 23 35 25 13 39 43 47 37 51
REMARK Flexibility Score: inf
ROOT
ATOM      1  C   UNL     1      -4.149 -40.214 -31.315  1.00  0.00     0.180 C 
ATOM      2  C   UNL     1      -5.045 -41.374 -30.755  1.00  0.00     0.177 C 
ATOM      3  C   UNL     1      -6.005 -41.882 -31.851  1.00  0.00     0.180 C 
ATOM      4  C   UNL     1      -5.206 -42.341 -33.093  1.00  0.00     0.214 C 
ATOM      5  C   UNL     1      -3.873 -41.555 -33.214  1.00  0.00     0.339 C 
ATOM      6  O   UNL     1      -4.057 -40.235 -32.734  1.00  0.00    -0.332 OA
ENDROOT
BRANCH   1   7
ATOM      7  C   UNL     1      -4.651 -38.819 -30.900  1.00  0.00     0.198 C 
BRANCH   7   8
ATOM      8  O   UNL     1      -6.022 -38.707 -31.230  1.00  0.00    -0.347 OA
BRANCH   8   9
ATOM      9  C   UNL     1      -6.306 -37.465 -31.856  1.00  0.00     0.281 C 
ATOM     10  C   UNL     1      -9.712 -36.909 -30.552  1.00  0.00     0.041 C 
ATOM     11  C   UNL     1      -8.189 -37.051 -30.508  1.00  0.00     0.150 C 
ATOM     12  C   UNL     1      -7.540 -35.843 -29.796  1.00  0.00     0.174 C 
ATOM     13  O   UNL     1      -7.699 -37.179 -31.835  1.00  0.00    -0.344 OA
ATOM     14  C   UNL     1      -6.009 -36.041 -29.772  1.00  0.00     0.179 C 
ATOM     15  C   UNL     1      -5.478 -36.347 -31.185  1.00  0.00     0.202 C 
BRANCH  12  16
ATOM     16  O   UNL     1      -7.867 -34.651 -30.470  1.00  0.00    -0.388 OA
ATOM     17  H   UNL     1      -7.076 -34.398 -31.012  1.00  0.00     0.211 HD
ENDBRANCH  12  16
BRANCH  14  18
ATOM     18  O   UNL     1      -5.354 -34.906 -29.261  1.00  0.00    -0.387 OA
ATOM     19  H   UNL     1      -4.669 -35.226 -28.614  1.00  0.00     0.211 HD
ENDBRANCH  14  18
BRANCH  15  20
ATOM     20  O   UNL     1      -5.520 -35.196 -31.988  1.00  0.00    -0.385 OA
ATOM     21  H   UNL     1      -5.452 -35.498 -32.934  1.00  0.00     0.211 HD
ENDBRANCH  15  20
ENDBRANCH   8   9
ENDBRANCH   7   8
ENDBRANCH   1   7
BRANCH   2  22
ATOM     22  O   UNL     1      -5.754 -40.974 -29.608  1.00  0.00    -0.387 OA
ATOM     23  H   UNL     1      -6.457 -41.659 -29.451  1.00  0.00     0.211 HD
ENDBRANCH   2  22
BRANCH   3  24
ATOM     24  O   UNL     1      -6.771 -42.952 -31.357  1.00  0.00    -0.387 OA
ATOM     25  H   UNL     1      -6.836 -42.830 -30.372  1.00  0.00     0.211 HD
ENDBRANCH   3  24
BRANCH   5  26
ATOM     26  O   UNL     1      -3.446 -41.484 -34.573  1.00  0.00    -0.462 OA
BRANCH  26  27
ATOM     27  C   UNL     1      -2.156 -41.135 -35.007  1.00  0.00     0.130 A 
ATOM     28  C   UNL     1      -1.831 -39.857 -35.505  1.00  0.00     0.093 A 
ATOM     29  C   UNL     1      -1.161 -42.116 -34.956  1.00  0.00     0.094 A 
ATOM     30  C   UNL     1      -0.546 -39.588 -35.989  1.00  0.00     0.133 A 
ATOM     31  C   UNL     1       0.116 -41.864 -35.449  1.00  0.00     0.138 A 
ATOM     32  C   UNL     1       0.439 -40.599 -35.972  1.00  0.00     0.102 A 
ATOM     33  O   UNL     1       1.074 -42.879 -35.409  1.00  0.00    -0.484 OA
ATOM     34  C   UNL     1       1.823 -40.382 -36.463  1.00  0.00     0.174 C 
ATOM     35  C   UNL     1       2.242 -42.881 -36.232  1.00  0.00     0.211 C 
ATOM     36  O   UNL     1       2.171 -39.269 -36.947  1.00  0.00    -0.294 OA
ATOM     37  C   UNL     1       2.860 -41.463 -36.339  1.00  0.00     0.131 C 
BRANCH  30  38
ATOM     38  O   UNL     1      -0.247 -38.318 -36.482  1.00  0.00    -0.507 OA
ATOM     39  H   UNL     1      -0.017 -38.158 -37.462  1.00  0.00     0.293 HD
ENDBRANCH  30  38
BRANCH  35  40
ATOM     40  C   UNL     1       1.921 -43.542 -37.564  1.00  0.00    -0.003 A 
ATOM     41  C   UNL     1       2.975 -43.771 -38.469  1.00  0.00     0.057 A 
ATOM     42  C   UNL     1       0.635 -44.026 -37.881  1.00  0.00     0.011 A 
ATOM     43  C   UNL     1       2.752 -44.443 -39.676  1.00  0.00     0.158 A 
ATOM     44  C   UNL     1       0.410 -44.693 -39.090  1.00  0.00     0.051 A 
ATOM     45  C   UNL     1       1.455 -44.888 -40.000  1.00  0.00     0.160 A 
BRANCH  43  46
ATOM     46  O   UNL     1       3.830 -44.663 -40.535  1.00  0.00    -0.504 OA
ATOM     47  H   UNL     1       4.024 -44.065 -41.326  1.00  0.00     0.293 HD
ENDBRANCH  43  46
BRANCH  45  48
ATOM     48  O   UNL     1       1.203 -45.537 -41.206  1.00  0.00    -0.493 OA
ATOM     49  C   UNL     1       1.157 -44.826 -42.438  1.00  0.00     0.278 C 
ENDBRANCH  45  48
ENDBRANCH  35  40
ENDBRANCH  26  27
ENDBRANCH   5  26
BRANCH   4  50
ATOM     50  O   UNL     1      -5.999 -42.150 -34.239  1.00  0.00    -0.384 OA
ATOM     51  H   UNL     1      -5.397 -42.172 -35.029  1.00  0.00     0.211 HD
ENDBRANCH   4  50
TORSDOF 15
ENDMDL
MODEL 4
REMARK VINA RESULT:    -7.279      1.827      3.024
REMARK INTER + INTRA:         -13.464
REMARK INTER:                 -11.921
REMARK INTRA:                  -1.544
REMARK UNBOUND:                -1.504
REMARK SMILES COc1ccc([C@H]2CC(=O)c3c(O)cc(O[C@H]4O[C@@H](CO[C@H]5O[C@H](C)[C@H](O)[C@H](O)[C@@H]5O)[C@@H](O)[C@H](O)[C@H]4O)cc3O2)cc1O
REMARK SMILES IDX 19 1 32 2 34 3 36 4 17 5 18 6 20 7 21 8 22 9 25 10 24 11
REMARK SMILES IDX 26 12 23 13 28 14 30 15 27 16 29 18 31 20 33 22 35 24 16 26
REMARK SMILES IDX 15 27 14 28 38 29 12 30 39 31 11 32 40 33 9 34 7 35 10 36
REMARK SMILES IDX 8 37 13 38 6 40 41 41 5 42 42 43 4 44 3 45 43 46 2 48 1 49
REMARK SMILES IDX 37 50
REMARK H PARENT 27 17 29 19 31 21 33 23 35 25 13 39 43 47 37 51
REMARK Flexibility Score: inf
ROOT
ATOM      1  C   UNL     1      -5.734 -38.207 -31.520  1.00  0.00     0.180 C 
ATOM      2  C   UNL     1      -5.686 -38.818 -30.075  1.00  0.00     0.177 C 
ATOM      3  C   UNL     1      -5.664 -40.359 -30.150  1.00  0.00     0.180 C 
ATOM      4  C   UNL     1      -4.464 -40.838 -31.001  1.00  0.00     0.214 C 
ATOM      5  C   UNL     1      -4.087 -39.778 -32.069  1.00  0.00     0.339 C 
ATOM      6  O   UNL     1      -5.257 -39.111 -32.509  1.00  0.00    -0.332 OA
ENDROOT
BRANCH   1   7
ATOM      7  C   UNL     1      -7.149 -37.765 -31.934  1.00  0.00     0.198 C 
BRANCH   7   8
ATOM      8  O   UNL     1      -7.380 -36.454 -31.454  1.00  0.00    -0.347 OA
BRANCH   8   9
ATOM      9  C   UNL     1      -8.578 -35.910 -31.986  1.00  0.00     0.281 C 
ATOM     10  C   UNL     1     -10.893 -36.785 -29.250  1.00  0.00     0.041 C 
ATOM     11  C   UNL     1      -9.730 -36.070 -29.941  1.00  0.00     0.150 C 
ATOM     12  C   UNL     1      -9.838 -34.538 -29.766  1.00  0.00     0.174 C 
ATOM     13  O   UNL     1      -9.724 -36.422 -31.317  1.00  0.00    -0.344 OA
ATOM     14  C   UNL     1      -8.640 -33.870 -30.473  1.00  0.00     0.179 C 
ATOM     15  C   UNL     1      -8.517 -34.368 -31.924  1.00  0.00     0.202 C 
BRANCH  12  16
ATOM     16  O   UNL     1     -11.049 -34.074 -30.314  1.00  0.00    -0.388 OA
ATOM     17  H   UNL     1     -11.760 -34.261 -29.647  1.00  0.00     0.211 HD
ENDBRANCH  12  16
BRANCH  14  18
ATOM     18  O   UNL     1      -8.760 -32.468 -30.467  1.00  0.00    -0.387 OA
ATOM     19  H   UNL     1      -7.963 -32.105 -29.996  1.00  0.00     0.211 HD
ENDBRANCH  14  18
BRANCH  15  20
ATOM     20  O   UNL     1      -9.544 -33.833 -32.720  1.00  0.00    -0.385 OA
ATOM     21  H   UNL     1      -9.168 -33.701 -33.631  1.00  0.00     0.211 HD
ENDBRANCH  15  20
ENDBRANCH   8   9
ENDBRANCH   7   8
ENDBRANCH   1   7
BRANCH   2  22
ATOM     22  O   UNL     1      -6.758 -38.366 -29.285  1.00  0.00    -0.387 OA
ATOM     23  H   UNL     1      -6.388 -38.167 -28.385  1.00  0.00     0.211 HD
ENDBRANCH   2  22
BRANCH   3  24
ATOM     24  O   UNL     1      -5.574 -40.898 -28.855  1.00  0.00    -0.387 OA
ATOM     25  H   UNL     1      -6.103 -41.740 -28.855  1.00  0.00     0.211 HD
ENDBRANCH   3  24
BRANCH   5  26
ATOM     26  O   UNL     1      -3.468 -40.392 -33.198  1.00  0.00    -0.462 OA
BRANCH  26  27
ATOM     27  C   UNL     1      -2.438 -39.830 -33.971  1.00  0.00     0.130 A 
ATOM     28  C   UNL     1      -2.632 -38.726 -34.826  1.00  0.00     0.093 A 
ATOM     29  C   UNL     1      -1.170 -40.415 -33.894  1.00  0.00     0.094 A 
ATOM     30  C   UNL     1      -1.585 -38.254 -35.626  1.00  0.00     0.133 A 
ATOM     31  C   UNL     1      -0.126 -39.962 -34.697  1.00  0.00     0.138 A 
ATOM     32  C   UNL     1      -0.320 -38.879 -35.572  1.00  0.00     0.102 A 
ATOM     33  O   UNL     1       1.118 -40.592 -34.614  1.00  0.00    -0.484 OA
ATOM     34  C   UNL     1       0.835 -38.426 -36.386  1.00  0.00     0.174 C 
ATOM     35  C   UNL     1       2.106 -40.502 -35.642  1.00  0.00     0.211 C 
ATOM     36  O   UNL     1       0.722 -37.462 -37.192  1.00  0.00    -0.294 OA
ATOM     37  C   UNL     1       2.186 -39.068 -36.226  1.00  0.00     0.131 C 
BRANCH  30  38
ATOM     38  O   UNL     1      -1.799 -37.163 -36.468  1.00  0.00    -0.507 OA
ATOM     39  H   UNL     1      -1.896 -37.270 -37.477  1.00  0.00     0.293 HD
ENDBRANCH  30  38
BRANCH  35  40
ATOM     40  C   UNL     1       1.868 -41.598 -36.670  1.00  0.00    -0.003 A 
ATOM     41  C   UNL     1       1.161 -42.748 -36.270  1.00  0.00     0.057 A 
ATOM     42  C   UNL     1       2.234 -41.463 -38.024  1.00  0.00     0.011 A 
ATOM     43  C   UNL     1       0.848 -43.756 -37.190  1.00  0.00     0.158 A 
ATOM     44  C   UNL     1       1.927 -42.471 -38.944  1.00  0.00     0.051 A 
ATOM     45  C   UNL     1       1.253 -43.627 -38.533  1.00  0.00     0.160 A 
BRANCH  43  46
ATOM     46  O   UNL     1       0.130 -44.870 -36.752  1.00  0.00    -0.504 OA
ATOM     47  H   UNL     1      -0.150 -44.991 -35.789  1.00  0.00     0.293 HD
ENDBRANCH  43  46
BRANCH  45  48
ATOM     48  O   UNL     1       0.975 -44.626 -39.462  1.00  0.00    -0.493 OA
ATOM     49  C   UNL     1       1.741 -44.768 -40.654  1.00  0.00     0.278 C 
ENDBRANCH  45  48
ENDBRANCH  35  40
ENDBRANCH  26  27
ENDBRANCH   5  26
BRANCH   4  50
ATOM     50  O   UNL     1      -4.801 -42.060 -31.612  1.00  0.00    -0.384 OA
ATOM     51  H   UNL     1      -4.791 -41.916 -32.595  1.00  0.00     0.211 HD
ENDBRANCH   4  50
TORSDOF 15
ENDMDL
MODEL 5
REMARK VINA RESULT:    -7.242      2.171      3.159
REMARK INTER + INTRA:         -13.403
REMARK INTER:                 -11.050
REMARK INTRA:                  -2.354
REMARK UNBOUND:                -1.504
REMARK SMILES COc1ccc([C@H]2CC(=O)c3c(O)cc(O[C@H]4O[C@@H](CO[C@H]5O[C@H](C)[C@H](O)[C@H](O)[C@@H]5O)[C@@H](O)[C@H](O)[C@H]4O)cc3O2)cc1O
REMARK SMILES IDX 19 1 32 2 34 3 36 4 17 5 18 6 20 7 21 8 22 9 25 10 24 11
REMARK SMILES IDX 26 12 23 13 28 14 30 15 27 16 29 18 31 20 33 22 35 24 16 26
REMARK SMILES IDX 15 27 14 28 38 29 12 30 39 31 11 32 40 33 9 34 7 35 10 36
REMARK SMILES IDX 8 37 13 38 6 40 41 41 5 42 42 43 4 44 3 45 43 46 2 48 1 49
REMARK SMILES IDX 37 50
REMARK H PARENT 27 17 29 19 31 21 33 23 35 25 13 39 43 47 37 51
REMARK Flexibility Score: inf
ROOT
ATOM      1  C   UNL     1      -5.176 -41.442 -31.087  1.00  0.00     0.180 C 
ATOM      2  C   UNL     1      -6.168 -42.586 -30.675  1.00  0.00     0.177 C 
ATOM      3  C   UNL     1      -7.136 -42.894 -31.836  1.00  0.00     0.180 C 
ATOM      4  C   UNL     1      -6.343 -43.272 -33.110  1.00  0.00     0.214 C 
ATOM      5  C   UNL     1      -4.954 -42.581 -33.120  1.00  0.00     0.339 C 
ATOM      6  O   UNL     1      -5.051 -41.313 -32.498  1.00  0.00    -0.332 OA
ENDROOT
BRANCH   1   7
ATOM      7  C   UNL     1      -5.583 -40.068 -30.525  1.00  0.00     0.198 C 
BRANCH   7   8
ATOM      8  O   UNL     1      -4.900 -39.058 -31.243  1.00  0.00    -0.347 OA
BRANCH   8   9
ATOM      9  C   UNL     1      -3.850 -38.494 -30.473  1.00  0.00     0.281 C 
ATOM     10  C   UNL     1      -1.084 -40.685 -31.551  1.00  0.00     0.041 C 
ATOM     11  C   UNL     1      -2.170 -39.614 -31.680  1.00  0.00     0.150 C 
ATOM     12  C   UNL     1      -1.596 -38.313 -32.286  1.00  0.00     0.174 C 
ATOM     13  O   UNL     1      -2.732 -39.370 -30.399  1.00  0.00    -0.344 OA
ATOM     14  C   UNL     1      -2.731 -37.274 -32.401  1.00  0.00     0.179 C 
ATOM     15  C   UNL     1      -3.464 -37.117 -31.056  1.00  0.00     0.202 C 
BRANCH  12  16
ATOM     16  O   UNL     1      -0.561 -37.817 -31.471  1.00  0.00    -0.388 OA
ATOM     17  H   UNL     1      -0.881 -36.962 -31.083  1.00  0.00     0.211 HD
ENDBRANCH  12  16
BRANCH  14  18
ATOM     18  O   UNL     1      -2.239 -36.022 -32.815  1.00  0.00    -0.387 OA
ATOM     19  H   UNL     1      -1.246 -36.085 -32.826  1.00  0.00     0.211 HD
ENDBRANCH  14  18
BRANCH  15  20
ATOM     20  O   UNL     1      -2.659 -36.433 -30.130  1.00  0.00    -0.385 OA
ATOM     21  H   UNL     1      -2.299 -37.113 -29.499  1.00  0.00     0.211 HD
ENDBRANCH  15  20
ENDBRANCH   8   9
ENDBRANCH   7   8
ENDBRANCH   1   7
BRANCH   2  22
ATOM     22  O   UNL     1      -6.873 -42.263 -29.502  1.00  0.00    -0.387 OA
ATOM     23  H   UNL     1      -7.746 -42.735 -29.552  1.00  0.00     0.211 HD
ENDBRANCH   2  22
BRANCH   3  24
ATOM     24  O   UNL     1      -7.991 -43.951 -31.478  1.00  0.00    -0.387 OA
ATOM     25  H   UNL     1      -7.508 -44.497 -30.802  1.00  0.00     0.211 HD
ENDBRANCH   3  24
BRANCH   5  26
ATOM     26  O   UNL     1      -4.490 -42.393 -34.456  1.00  0.00    -0.462 OA
BRANCH  26  27
ATOM     27  C   UNL     1      -3.386 -41.610 -34.834  1.00  0.00     0.130 A 
ATOM     28  C   UNL     1      -3.511 -40.312 -35.372  1.00  0.00     0.093 A 
ATOM     29  C   UNL     1      -2.110 -42.162 -34.685  1.00  0.00     0.094 A 
ATOM     30  C   UNL     1      -2.380 -39.607 -35.797  1.00  0.00     0.133 A 
ATOM     31  C   UNL     1      -0.980 -41.475 -35.119  1.00  0.00     0.138 A 
ATOM     32  C   UNL     1      -1.101 -40.192 -35.681  1.00  0.00     0.102 A 
ATOM     33  O   UNL     1       0.275 -42.073 -34.981  1.00  0.00    -0.484 OA
ATOM     34  C   UNL     1       0.142 -39.499 -36.105  1.00  0.00     0.174 C 
ATOM     35  C   UNL     1       1.417 -41.670 -35.738  1.00  0.00     0.211 C 
ATOM     36  O   UNL     1       0.097 -38.347 -36.620  1.00  0.00    -0.294 OA
ATOM     37  C   UNL     1       1.488 -40.128 -35.876  1.00  0.00     0.131 C 
BRANCH  30  38
ATOM     38  O   UNL     1      -2.526 -38.327 -36.331  1.00  0.00    -0.507 OA
ATOM     39  H   UNL     1      -1.950 -37.544 -36.025  1.00  0.00     0.293 HD
ENDBRANCH  30  38
BRANCH  35  40
ATOM     40  C   UNL     1       1.446 -42.433 -37.054  1.00  0.00    -0.003 A 
ATOM     41  C   UNL     1       2.180 -41.892 -38.126  1.00  0.00     0.057 A 
ATOM     42  C   UNL     1       0.856 -43.705 -37.208  1.00  0.00     0.011 A 
ATOM     43  C   UNL     1       2.304 -42.584 -39.336  1.00  0.00     0.158 A 
ATOM     44  C   UNL     1       0.975 -44.397 -38.418  1.00  0.00     0.051 A 
ATOM     45  C   UNL     1       1.678 -43.837 -39.490  1.00  0.00     0.160 A 
BRANCH  43  46
ATOM     46  O   UNL     1       3.056 -42.017 -40.365  1.00  0.00    -0.504 OA
ATOM     47  H   UNL     1       4.063 -41.946 -40.325  1.00  0.00     0.293 HD
ENDBRANCH  43  46
BRANCH  45  48
ATOM     48  O   UNL     1       1.766 -44.536 -40.692  1.00  0.00    -0.493 OA
ATOM     49  C   UNL     1       0.914 -45.641 -40.974  1.00  0.00     0.278 C 
ENDBRANCH  45  48
ENDBRANCH  35  40
ENDBRANCH  26  27
ENDBRANCH   5  26
BRANCH   4  50
ATOM     50  O   UNL     1      -7.093 -42.895 -34.239  1.00  0.00    -0.384 OA
ATOM     51  H   UNL     1      -6.471 -42.459 -34.880  1.00  0.00     0.211 HD
ENDBRANCH   4  50
TORSDOF 15
ENDMDL
MODEL 6
REMARK VINA RESULT:    -7.209      2.258      3.243
REMARK INTER + INTRA:         -13.349
REMARK INTER:                 -11.789
REMARK INTRA:                  -1.560
REMARK UNBOUND:                -1.504
REMARK SMILES COc1ccc([C@H]2CC(=O)c3c(O)cc(O[C@H]4O[C@@H](CO[C@H]5O[C@H](C)[C@H](O)[C@H](O)[C@@H]5O)[C@@H](O)[C@H](O)[C@H]4O)cc3O2)cc1O
REMARK SMILES IDX 19 1 32 2 34 3 36 4 17 5 18 6 20 7 21 8 22 9 25 10 24 11
REMARK SMILES IDX 26 12 23 13 28 14 30 15 27 16 29 18 31 20 33 22 35 24 16 26
REMARK SMILES IDX 15 27 14 28 38 29 12 30 39 31 11 32 40 33 9 34 7 35 10 36
REMARK SMILES IDX 8 37 13 38 6 40 41 41 5 42 42 43 4 44 3 45 43 46 2 48 1 49
REMARK SMILES IDX 37 50
REMARK H PARENT 27 17 29 19 31 21 33 23 35 25 13 39 43 47 37 51
REMARK Flexibility Score: inf
ROOT
ATOM      1  C   UNL     1      -5.747 -37.999 -31.361  1.00  0.00     0.180 C 
ATOM      2  C   UNL     1      -5.774 -38.650 -29.933  1.00  0.00     0.177 C 
ATOM      3  C   UNL     1      -5.665 -40.185 -30.045  1.00  0.00     0.180 C 
ATOM      4  C   UNL     1      -4.382 -40.576 -30.815  1.00  0.00     0.214 C 
ATOM      5  C   UNL     1      -3.983 -39.467 -31.824  1.00  0.00     0.339 C 
ATOM      6  O   UNL     1      -5.151 -38.848 -32.334  1.00  0.00    -0.332 OA
ENDROOT
BRANCH   1   7
ATOM      7  C   UNL     1      -7.149 -37.618 -31.870  1.00  0.00     0.198 C 
BRANCH   7   8
ATOM      8  O   UNL     1      -7.442 -36.295 -31.461  1.00  0.00    -0.347 OA
BRANCH   8   9
ATOM      9  C   UNL     1      -8.684 -35.852 -31.987  1.00  0.00     0.281 C 
ATOM     10  C   UNL     1     -10.893 -36.846 -29.204  1.00  0.00     0.041 C 
ATOM     11  C   UNL     1      -9.795 -36.060 -29.924  1.00  0.00     0.150 C 
ATOM     12  C   UNL     1     -10.016 -34.537 -29.775  1.00  0.00     0.174 C 
ATOM     13  O   UNL     1      -9.780 -36.437 -31.293  1.00  0.00    -0.344 OA
ATOM     14  C   UNL     1      -8.880 -33.794 -30.510  1.00  0.00     0.179 C 
ATOM     15  C   UNL     1      -8.738 -34.310 -31.954  1.00  0.00     0.202 C 
BRANCH  12  16
ATOM     16  O   UNL     1     -11.265 -34.175 -30.315  1.00  0.00    -0.388 OA
ATOM     17  H   UNL     1     -11.420 -33.224 -30.079  1.00  0.00     0.211 HD
ENDBRANCH  12  16
BRANCH  14  18
ATOM     18  O   UNL     1      -9.106 -32.405 -30.529  1.00  0.00    -0.387 OA
ATOM     19  H   UNL     1      -9.667 -32.187 -29.737  1.00  0.00     0.211 HD
ENDBRANCH  14  18
BRANCH  15  20
ATOM     20  O   UNL     1      -9.812 -33.869 -32.745  1.00  0.00    -0.385 OA
ATOM     21  H   UNL     1      -9.422 -33.478 -33.573  1.00  0.00     0.211 HD
ENDBRANCH  15  20
ENDBRANCH   8   9
ENDBRANCH   7   8
ENDBRANCH   1   7
BRANCH   2  22
ATOM     22  O   UNL     1      -6.924 -38.277 -29.215  1.00  0.00    -0.387 OA
ATOM     23  H   UNL     1      -7.473 -37.713 -29.822  1.00  0.00     0.211 HD
ENDBRANCH   2  22
BRANCH   3  24
ATOM     24  O   UNL     1      -5.643 -40.757 -28.762  1.00  0.00    -0.387 OA
ATOM     25  H   UNL     1      -6.584 -40.974 -28.526  1.00  0.00     0.211 HD
ENDBRANCH   3  24
BRANCH   5  26
ATOM     26  O   UNL     1      -3.250 -40.015 -32.919  1.00  0.00    -0.462 OA
BRANCH  26  27
ATOM     27  C   UNL     1      -1.889 -40.365 -32.897  1.00  0.00     0.130 A 
ATOM     28  C   UNL     1      -0.859 -39.433 -32.653  1.00  0.00     0.093 A 
ATOM     29  C   UNL     1      -1.552 -41.697 -33.151  1.00  0.00     0.094 A 
ATOM     30  C   UNL     1       0.483 -39.825 -32.714  1.00  0.00     0.133 A 
ATOM     31  C   UNL     1      -0.220 -42.094 -33.229  1.00  0.00     0.138 A 
ATOM     32  C   UNL     1       0.813 -41.164 -33.013  1.00  0.00     0.102 A 
ATOM     33  O   UNL     1       0.077 -43.429 -33.515  1.00  0.00    -0.484 OA
ATOM     34  C   UNL     1       2.213 -41.650 -33.087  1.00  0.00     0.174 C 
ATOM     35  C   UNL     1       1.345 -43.853 -34.018  1.00  0.00     0.211 C 
ATOM     36  O   UNL     1       3.182 -40.862 -32.907  1.00  0.00    -0.294 OA
ATOM     37  C   UNL     1       2.510 -43.105 -33.320  1.00  0.00     0.131 C 
BRANCH  30  38
ATOM     38  O   UNL     1       1.486 -38.886 -32.474  1.00  0.00    -0.507 OA
ATOM     39  H   UNL     1       2.450 -39.037 -32.769  1.00  0.00     0.293 HD
ENDBRANCH  30  38
BRANCH  35  40
ATOM     40  C   UNL     1       1.343 -43.761 -35.536  1.00  0.00    -0.003 A 
ATOM     41  C   UNL     1       2.560 -43.495 -36.193  1.00  0.00     0.057 A 
ATOM     42  C   UNL     1       0.198 -44.032 -36.313  1.00  0.00     0.011 A 
ATOM     43  C   UNL     1       2.634 -43.472 -37.590  1.00  0.00     0.158 A 
ATOM     44  C   UNL     1       0.268 -44.006 -37.710  1.00  0.00     0.051 A 
ATOM     45  C   UNL     1       1.474 -43.708 -38.355  1.00  0.00     0.160 A 
BRANCH  43  46
ATOM     46  O   UNL     1       3.865 -43.223 -38.197  1.00  0.00    -0.504 OA
ATOM     47  H   UNL     1       4.586 -42.670 -37.755  1.00  0.00     0.293 HD
ENDBRANCH  43  46
BRANCH  45  48
ATOM     48  O   UNL     1       1.516 -43.667 -39.746  1.00  0.00    -0.493 OA
ATOM     49  C   UNL     1       1.753 -44.840 -40.518  1.00  0.00     0.278 C 
ENDBRANCH  45  48
ENDBRANCH  35  40
ENDBRANCH  26  27
ENDBRANCH   5  26
BRANCH   4  50
ATOM     50  O   UNL     1      -4.607 -41.795 -31.482  1.00  0.00    -0.384 OA
ATOM     51  H   UNL     1      -4.676 -42.506 -30.791  1.00  0.00     0.211 HD
ENDBRANCH   4  50
TORSDOF 15
ENDMDL
MODEL 7
REMARK VINA RESULT:    -7.206      3.483      6.476
REMARK INTER + INTRA:         -13.344
REMARK INTER:                 -11.436
REMARK INTRA:                  -1.908
REMARK UNBOUND:                -1.504
REMARK SMILES COc1ccc([C@H]2CC(=O)c3c(O)cc(O[C@H]4O[C@@H](CO[C@H]5O[C@H](C)[C@H](O)[C@H](O)[C@@H]5O)[C@@H](O)[C@H](O)[C@H]4O)cc3O2)cc1O
REMARK SMILES IDX 19 1 32 2 34 3 36 4 17 5 18 6 20 7 21 8 22 9 25 10 24 11
REMARK SMILES IDX 26 12 23 13 28 14 30 15 27 16 29 18 31 20 33 22 35 24 16 26
REMARK SMILES IDX 15 27 14 28 38 29 12 30 39 31 11 32 40 33 9 34 7 35 10 36
REMARK SMILES IDX 8 37 13 38 6 40 41 41 5 42 42 43 4 44 3 45 43 46 2 48 1 49
REMARK SMILES IDX 37 50
REMARK H PARENT 27 17 29 19 31 21 33 23 35 25 13 39 43 47 37 51
REMARK Flexibility Score: inf
ROOT
ATOM      1  C   UNL     1      -7.664 -35.459 -28.825  1.00  0.00     0.180 C 
ATOM      2  C   UNL     1      -9.201 -35.746 -28.694  1.00  0.00     0.177 C 
ATOM      3  C   UNL     1      -9.854 -35.800 -30.091  1.00  0.00     0.180 C 
ATOM      4  C   UNL     1      -9.157 -36.867 -30.968  1.00  0.00     0.214 C 
ATOM      5  C   UNL     1      -7.674 -37.045 -30.547  1.00  0.00     0.339 C 
ATOM      6  O   UNL     1      -7.154 -35.802 -30.108  1.00  0.00    -0.332 OA
ENDROOT
BRANCH   1   7
ATOM      7  C   UNL     1      -7.308 -33.984 -28.561  1.00  0.00     0.198 C 
BRANCH   7   8
ATOM      8  O   UNL     1      -6.640 -33.463 -29.693  1.00  0.00    -0.347 OA
BRANCH   8   9
ATOM      9  C   UNL     1      -7.242 -32.258 -30.142  1.00  0.00     0.281 C 
ATOM     10  C   UNL     1      -5.105 -31.586 -33.074  1.00  0.00     0.041 C 
ATOM     11  C   UNL     1      -6.145 -32.317 -32.223  1.00  0.00     0.150 C 
ATOM     12  C   UNL     1      -7.451 -32.544 -33.019  1.00  0.00     0.174 C 
ATOM     13  O   UNL     1      -6.395 -31.561 -31.048  1.00  0.00    -0.344 OA
ATOM     14  C   UNL     1      -8.460 -33.290 -32.119  1.00  0.00     0.179 C 
ATOM     15  C   UNL     1      -8.619 -32.571 -30.767  1.00  0.00     0.202 C 
BRANCH  12  16
ATOM     16  O   UNL     1      -7.986 -31.309 -33.431  1.00  0.00    -0.388 OA
ATOM     17  H   UNL     1      -8.338 -31.437 -34.350  1.00  0.00     0.211 HD
ENDBRANCH  12  16
BRANCH  14  18
ATOM     18  O   UNL     1      -9.717 -33.400 -32.742  1.00  0.00    -0.387 OA
ATOM     19  H   UNL     1      -9.597 -33.141 -33.695  1.00  0.00     0.211 HD
ENDBRANCH  14  18
BRANCH  15  20
ATOM     20  O   UNL     1      -9.337 -31.374 -30.925  1.00  0.00    -0.385 OA
ATOM     21  H   UNL     1      -9.523 -31.272 -31.896  1.00  0.00     0.211 HD
ENDBRANCH  15  20
ENDBRANCH   8   9
ENDBRANCH   7   8
ENDBRANCH   1   7
BRANCH   2  22
ATOM     22  O   UNL     1      -9.838 -34.797 -27.875  1.00  0.00    -0.387 OA
ATOM     23  H   UNL     1     -10.783 -35.087 -27.779  1.00  0.00     0.211 HD
ENDBRANCH   2  22
BRANCH   3  24
ATOM     24  O   UNL     1     -11.220 -36.104 -29.968  1.00  0.00    -0.387 OA
ATOM     25  H   UNL     1     -11.616 -36.034 -30.877  1.00  0.00     0.211 HD
ENDBRANCH   3  24
BRANCH   5  26
ATOM     26  O   UNL     1      -6.886 -37.499 -31.646  1.00  0.00    -0.462 OA
BRANCH  26  27
ATOM     27  C   UNL     1      -5.997 -38.587 -31.618  1.00  0.00     0.130 A 
ATOM     28  C   UNL     1      -5.255 -38.946 -30.474  1.00  0.00     0.093 A 
ATOM     29  C   UNL     1      -5.835 -39.329 -32.792  1.00  0.00     0.094 A 
ATOM     30  C   UNL     1      -4.332 -39.997 -30.526  1.00  0.00     0.133 A 
ATOM     31  C   UNL     1      -4.907 -40.365 -32.859  1.00  0.00     0.138 A 
ATOM     32  C   UNL     1      -4.145 -40.711 -31.729  1.00  0.00     0.102 A 
ATOM     33  O   UNL     1      -4.752 -41.063 -34.059  1.00  0.00    -0.484 OA
ATOM     34  C   UNL     1      -3.189 -41.839 -31.853  1.00  0.00     0.174 C 
ATOM     35  C   UNL     1      -3.588 -41.833 -34.366  1.00  0.00     0.211 C 
ATOM     36  O   UNL     1      -2.474 -42.194 -30.875  1.00  0.00    -0.294 OA
ATOM     37  C   UNL     1      -3.092 -42.627 -33.131  1.00  0.00     0.131 C 
BRANCH  30  38
ATOM     38  O   UNL     1      -3.605 -40.332 -29.384  1.00  0.00    -0.507 OA
ATOM     39  H   UNL     1      -4.006 -40.894 -28.633  1.00  0.00     0.293 HD
ENDBRANCH  30  38
BRANCH  35  40
ATOM     40  C   UNL     1      -2.544 -40.934 -35.012  1.00  0.00    -0.003 A 
ATOM     41  C   UNL     1      -2.950 -39.677 -35.498  1.00  0.00     0.057 A 
ATOM     42  C   UNL     1      -1.174 -41.266 -35.047  1.00  0.00     0.011 A 
ATOM     43  C   UNL     1      -2.020 -38.778 -36.034  1.00  0.00     0.158 A 
ATOM     44  C   UNL     1      -0.243 -40.371 -35.586  1.00  0.00     0.051 A 
ATOM     45  C   UNL     1      -0.659 -39.137 -36.099  1.00  0.00     0.160 A 
BRANCH  43  46
ATOM     46  O   UNL     1      -2.466 -37.536 -36.487  1.00  0.00    -0.504 OA
ATOM     47  H   UNL     1      -2.094 -37.097 -37.318  1.00  0.00     0.293 HD
ENDBRANCH  43  46
BRANCH  45  48
ATOM     48  O   UNL     1       0.282 -38.270 -36.649  1.00  0.00    -0.493 OA
ATOM     49  C   UNL     1       1.220 -37.576 -35.834  1.00  0.00     0.278 C 
ENDBRANCH  45  48
ENDBRANCH  35  40
ENDBRANCH  26  27
ENDBRANCH   5  26
BRANCH   4  50
ATOM     50  O   UNL     1      -9.247 -36.475 -32.316  1.00  0.00    -0.384 OA
ATOM     51  H   UNL     1     -10.045 -36.920 -32.705  1.00  0.00     0.211 HD
ENDBRANCH   4  50
TORSDOF 15
ENDMDL
MODEL 8
REMARK VINA RESULT:    -7.063      3.250      9.024
REMARK INTER + INTRA:         -13.109
REMARK INTER:                  -9.970
REMARK INTRA:                  -3.139
REMARK UNBOUND:                -1.504
REMARK SMILES COc1ccc([C@H]2CC(=O)c3c(O)cc(O[C@H]4O[C@@H](CO[C@H]5O[C@H](C)[C@H](O)[C@H](O)[C@@H]5O)[C@@H](O)[C@H](O)[C@H]4O)cc3O2)cc1O
REMARK SMILES IDX 19 1 32 2 34 3 36 4 17 5 18 6 20 7 21 8 22 9 25 10 24 11
REMARK SMILES IDX 26 12 23 13 28 14 30 15 27 16 29 18 31 20 33 22 35 24 16 26
REMARK SMILES IDX 15 27 14 28 38 29 12 30 39 31 11 32 40 33 9 34 7 35 10 36
REMARK SMILES IDX 8 37 13 38 6 40 41 41 5 42 42 43 4 44 3 45 43 46 2 48 1 49
REMARK SMILES IDX 37 50
REMARK H PARENT 27 17 29 19 31 21 33 23 35 25 13 39 43 47 37 51
REMARK Flexibility Score: inf
ROOT
ATOM      1  C   UNL     1       1.608 -43.487 -38.127  1.00  0.00     0.180 C 
ATOM      2  C   UNL     1       1.928 -44.085 -39.542  1.00  0.00     0.177 C 
ATOM      3  C   UNL     1       1.894 -42.972 -40.611  1.00  0.00     0.180 C 
ATOM      4  C   UNL     1       2.886 -41.845 -40.242  1.00  0.00     0.214 C 
ATOM      5  C   UNL     1       3.070 -41.752 -38.704  1.00  0.00     0.339 C 
ATOM      6  O   UNL     1       1.854 -42.088 -38.060  1.00  0.00    -0.332 OA
ENDROOT
BRANCH   1   7
ATOM      7  C   UNL     1       0.151 -43.727 -37.692  1.00  0.00     0.198 C 
BRANCH   7   8
ATOM      8  O   UNL     1      -0.085 -43.042 -36.477  1.00  0.00    -0.347 OA
BRANCH   8   9
ATOM      9  C   UNL     1      -0.051 -43.927 -35.368  1.00  0.00     0.281 C 
ATOM     10  C   UNL     1       3.236 -43.002 -33.972  1.00  0.00     0.041 C 
ATOM     11  C   UNL     1       1.767 -42.824 -34.360  1.00  0.00     0.150 C 
ATOM     12  C   UNL     1       0.931 -42.331 -33.157  1.00  0.00     0.174 C 
ATOM     13  O   UNL     1       1.267 -44.060 -34.850  1.00  0.00    -0.344 OA
ATOM     14  C   UNL     1      -0.537 -42.163 -33.605  1.00  0.00     0.179 C 
ATOM     15  C   UNL     1      -1.047 -43.443 -34.291  1.00  0.00     0.202 C 
BRANCH  12  16
ATOM     16  O   UNL     1       1.015 -43.257 -32.099  1.00  0.00    -0.388 OA
ATOM     17  H   UNL     1       1.717 -43.914 -32.343  1.00  0.00     0.211 HD
ENDBRANCH  12  16
BRANCH  14  18
ATOM     18  O   UNL     1      -1.371 -41.851 -32.516  1.00  0.00    -0.387 OA
ATOM     19  H   UNL     1      -0.847 -41.272 -31.899  1.00  0.00     0.211 HD
ENDBRANCH  14  18
BRANCH  15  20
ATOM     20  O   UNL     1      -1.240 -44.466 -33.349  1.00  0.00    -0.385 OA
ATOM     21  H   UNL     1      -0.737 -44.208 -32.531  1.00  0.00     0.211 HD
ENDBRANCH  15  20
ENDBRANCH   8   9
ENDBRANCH   7   8
ENDBRANCH   1   7
BRANCH   2  22
ATOM     22  O   UNL     1       1.047 -45.130 -39.874  1.00  0.00    -0.387 OA
ATOM     23  H   UNL     1       0.154 -44.720 -40.017  1.00  0.00     0.211 HD
ENDBRANCH   2  22
BRANCH   3  24
ATOM     24  O   UNL     1       2.226 -43.506 -41.867  1.00  0.00    -0.387 OA
ATOM     25  H   UNL     1       1.533 -44.185 -42.086  1.00  0.00     0.211 HD
ENDBRANCH   3  24
BRANCH   5  26
ATOM     26  O   UNL     1       3.435 -40.429 -38.315  1.00  0.00    -0.462 OA
BRANCH  26  27
ATOM     27  C   UNL     1       2.996 -39.769 -37.155  1.00  0.00     0.130 A 
ATOM     28  C   UNL     1       3.617 -39.926 -35.898  1.00  0.00     0.093 A 
ATOM     29  C   UNL     1       1.878 -38.935 -37.259  1.00  0.00     0.094 A 
ATOM     30  C   UNL     1       3.093 -39.298 -34.763  1.00  0.00     0.133 A 
ATOM     31  C   UNL     1       1.340 -38.319 -36.133  1.00  0.00     0.138 A 
ATOM     32  C   UNL     1       1.939 -38.493 -34.872  1.00  0.00     0.102 A 
ATOM     33  O   UNL     1       0.204 -37.519 -36.273  1.00  0.00    -0.484 OA
ATOM     34  C   UNL     1       1.333 -37.793 -33.712  1.00  0.00     0.174 C 
ATOM     35  C   UNL     1      -0.655 -37.188 -35.180  1.00  0.00     0.211 C 
ATOM     36  O   UNL     1       1.823 -37.914 -32.555  1.00  0.00    -0.294 OA
ATOM     37  C   UNL     1       0.157 -36.875 -33.897  1.00  0.00     0.131 C 
BRANCH  30  38
ATOM     38  O   UNL     1       3.720 -39.470 -33.529  1.00  0.00    -0.507 OA
ATOM     39  H   UNL     1       4.422 -38.817 -33.182  1.00  0.00     0.293 HD
ENDBRANCH  30  38
BRANCH  35  40
ATOM     40  C   UNL     1      -1.711 -38.271 -35.021  1.00  0.00    -0.003 A 
ATOM     41  C   UNL     1      -2.224 -38.523 -33.735  1.00  0.00     0.057 A 
ATOM     42  C   UNL     1      -2.269 -38.956 -36.121  1.00  0.00     0.011 A 
ATOM     43  C   UNL     1      -3.249 -39.455 -33.539  1.00  0.00     0.158 A 
ATOM     44  C   UNL     1      -3.290 -39.891 -35.927  1.00  0.00     0.051 A 
ATOM     45  C   UNL     1      -3.772 -40.161 -34.641  1.00  0.00     0.160 A 
BRANCH  43  46
ATOM     46  O   UNL     1      -3.739 -39.659 -32.248  1.00  0.00    -0.504 OA
ATOM     47  H   UNL     1      -3.589 -38.996 -31.500  1.00  0.00     0.293 HD
ENDBRANCH  43  46
BRANCH  45  48
ATOM     48  O   UNL     1      -4.776 -41.111 -34.469  1.00  0.00    -0.493 OA
ATOM     49  C   UNL     1      -4.472 -42.485 -34.259  1.00  0.00     0.278 C 
ENDBRANCH  45  48
ENDBRANCH  35  40
ENDBRANCH  26  27
ENDBRANCH   5  26
BRANCH   4  50
ATOM     50  O   UNL     1       2.402 -40.628 -40.757  1.00  0.00    -0.384 OA
ATOM     51  H   UNL     1       3.115 -40.241 -41.331  1.00  0.00     0.211 HD
ENDBRANCH   4  50
TORSDOF 15
ENDMDL
MODEL 9
REMARK VINA RESULT:    -6.932      2.869      5.899
REMARK INTER + INTRA:         -12.894
REMARK INTER:                 -10.343
REMARK INTRA:                  -2.551
REMARK UNBOUND:                -1.504
REMARK SMILES COc1ccc([C@H]2CC(=O)c3c(O)cc(O[C@H]4O[C@@H](CO[C@H]5O[C@H](C)[C@H](O)[C@H](O)[C@@H]5O)[C@@H](O)[C@H](O)[C@H]4O)cc3O2)cc1O
REMARK SMILES IDX 19 1 32 2 34 3 36 4 17 5 18 6 20 7 21 8 22 9 25 10 24 11
REMARK SMILES IDX 26 12 23 13 28 14 30 15 27 16 29 18 31 20 33 22 35 24 16 26
REMARK SMILES IDX 15 27 14 28 38 29 12 30 39 31 11 32 40 33 9 34 7 35 10 36
REMARK SMILES IDX 8 37 13 38 6 40 41 41 5 42 42 43 4 44 3 45 43 46 2 48 1 49
REMARK SMILES IDX 37 50
REMARK H PARENT 27 17 29 19 31 21 33 23 35 25 13 39 43 47 37 51
REMARK Flexibility Score: inf
ROOT
ATOM      1  C   UNL     1      -3.761 -39.688 -33.604  1.00  0.00     0.180 C 
ATOM      2  C   UNL     1      -4.385 -39.523 -32.174  1.00  0.00     0.177 C 
ATOM      3  C   UNL     1      -3.350 -39.904 -31.095  1.00  0.00     0.180 C 
ATOM      4  C   UNL     1      -2.072 -39.047 -31.251  1.00  0.00     0.214 C 
ATOM      5  C   UNL     1      -1.868 -38.624 -32.730  1.00  0.00     0.339 C 
ATOM      6  O   UNL     1      -2.339 -39.651 -33.585  1.00  0.00    -0.332 OA
ENDROOT
BRANCH   1   7
ATOM      7  C   UNL     1      -4.184 -40.999 -34.293  1.00  0.00     0.198 C 
BRANCH   7   8
ATOM      8  O   UNL     1      -3.029 -41.662 -34.768  1.00  0.00    -0.347 OA
BRANCH   8   9
ATOM      9  C   UNL     1      -2.910 -42.963 -34.212  1.00  0.00     0.281 C 
ATOM     10  C   UNL     1      -0.353 -44.347 -36.483  1.00  0.00     0.041 C 
ATOM     11  C   UNL     1      -0.932 -43.444 -35.392  1.00  0.00     0.150 C 
ATOM     12  C   UNL     1      -0.062 -43.488 -34.116  1.00  0.00     0.174 C 
ATOM     13  O   UNL     1      -2.262 -43.855 -35.112  1.00  0.00    -0.344 OA
ATOM     14  C   UNL     1      -0.686 -42.557 -33.054  1.00  0.00     0.179 C 
ATOM     15  C   UNL     1      -2.178 -42.880 -32.856  1.00  0.00     0.202 C 
BRANCH  12  16
ATOM     16  O   UNL     1       0.010 -44.806 -33.626  1.00  0.00    -0.388 OA
ATOM     17  H   UNL     1       0.921 -45.143 -33.832  1.00  0.00     0.211 HD
ENDBRANCH  12  16
BRANCH  14  18
ATOM     18  O   UNL     1      -0.015 -42.664 -31.822  1.00  0.00    -0.387 OA
ATOM     19  H   UNL     1      -0.044 -43.622 -31.553  1.00  0.00     0.211 HD
ENDBRANCH  14  18
BRANCH  15  20
ATOM     20  O   UNL     1      -2.334 -44.097 -32.172  1.00  0.00    -0.385 OA
ATOM     21  H   UNL     1      -3.311 -44.271 -32.106  1.00  0.00     0.211 HD
ENDBRANCH  15  20
ENDBRANCH   8   9
ENDBRANCH   7   8
ENDBRANCH   1   7
BRANCH   2  22
ATOM     22  O   UNL     1      -5.563 -40.277 -32.033  1.00  0.00    -0.387 OA
ATOM     23  H   UNL     1      -5.832 -40.567 -32.944  1.00  0.00     0.211 HD
ENDBRANCH   2  22
BRANCH   3  24
ATOM     24  O   UNL     1      -3.900 -39.709 -29.816  1.00  0.00    -0.387 OA
ATOM     25  H   UNL     1      -3.149 -39.762 -29.167  1.00  0.00     0.211 HD
ENDBRANCH   3  24
BRANCH   5  26
ATOM     26  O   UNL     1      -0.486 -38.405 -33.010  1.00  0.00    -0.462 OA
BRANCH  26  27
ATOM     27  C   UNL     1       0.038 -37.952 -34.232  1.00  0.00     0.130 A 
ATOM     28  C   UNL     1      -0.640 -37.043 -35.070  1.00  0.00     0.093 A 
ATOM     29  C   UNL     1       1.281 -38.449 -34.635  1.00  0.00     0.094 A 
ATOM     30  C   UNL     1      -0.102 -36.682 -36.310  1.00  0.00     0.133 A 
ATOM     31  C   UNL     1       1.817 -38.108 -35.874  1.00  0.00     0.138 A 
ATOM     32  C   UNL     1       1.133 -37.223 -36.726  1.00  0.00     0.102 A 
ATOM     33  O   UNL     1       3.048 -38.650 -36.254  1.00  0.00    -0.484 OA
ATOM     34  C   UNL     1       1.766 -36.879 -38.024  1.00  0.00     0.174 C 
ATOM     35  C   UNL     1       3.485 -38.710 -37.613  1.00  0.00     0.211 C 
ATOM     36  O   UNL     1       1.199 -36.093 -38.833  1.00  0.00    -0.294 OA
ATOM     37  C   UNL     1       3.126 -37.412 -38.381  1.00  0.00     0.131 C 
BRANCH  30  38
ATOM     38  O   UNL     1      -0.791 -35.785 -37.126  1.00  0.00    -0.507 OA
ATOM     39  H   UNL     1      -0.482 -34.822 -37.253  1.00  0.00     0.293 HD
ENDBRANCH  30  38
BRANCH  35  40
ATOM     40  C   UNL     1       2.975 -39.993 -38.252  1.00  0.00    -0.003 A 
ATOM     41  C   UNL     1       3.001 -40.099 -39.656  1.00  0.00     0.057 A 
ATOM     42  C   UNL     1       2.578 -41.113 -37.494  1.00  0.00     0.011 A 
ATOM     43  C   UNL     1       2.615 -41.282 -40.295  1.00  0.00     0.158 A 
ATOM     44  C   UNL     1       2.187 -42.296 -38.131  1.00  0.00     0.051 A 
ATOM     45  C   UNL     1       2.183 -42.382 -39.527  1.00  0.00     0.160 A 
BRANCH  43  46
ATOM     46  O   UNL     1       2.674 -41.348 -41.688  1.00  0.00    -0.504 OA
ATOM     47  H   UNL     1       2.718 -42.225 -42.188  1.00  0.00     0.293 HD
ENDBRANCH  43  46
BRANCH  45  48
ATOM     48  O   UNL     1       1.771 -43.563 -40.141  1.00  0.00    -0.493 OA
ATOM     49  C   UNL     1       2.642 -44.683 -40.258  1.00  0.00     0.278 C 
ENDBRANCH  45  48
ENDBRANCH  35  40
ENDBRANCH  26  27
ENDBRANCH   5  26
BRANCH   4  50
ATOM     50  O   UNL     1      -0.969 -39.790 -30.791  1.00  0.00    -0.384 OA
ATOM     51  H   UNL     1      -0.605 -40.296 -31.564  1.00  0.00     0.211 HD
ENDBRANCH   4  50
TORSDOF 15
ENDMDL
