MODEL 1
REMARK VINA RESULT:    -3.516      0.000      0.000
REMARK INTER + INTRA:         -11.511
REMARK INTER:                  -8.038
REMARK INTRA:                  -3.474
REMARK UNBOUND:                -3.474
REMARK SMILES CCCCCCCCCCCCCCCCCCCCCCCC(=O)[O-]
REMARK SMILES IDX 13 1 14 2 15 3 16 4 17 5 18 6 19 7 20 8 21 9 22 10 23 11
REMARK SMILES IDX 24 12 25 13 26 14 12 15 11 16 10 17 9 18 8 19 7 20 6 21 5 22
REMARK SMILES IDX 4 23 3 24 2 25 1 26
REMARK H PARENT
REMARK Flexibility Score: inf
ROOT
ATOM      1  C   UNL     1      32.986   5.395  -6.787  1.00  0.00     0.000 C 
ENDROOT
BRANCH   1   2
ATOM      2  C   UNL     1      33.668   6.650  -6.226  1.00  0.00     0.000 C 
BRANCH   2   3
ATOM      3  C   UNL     1      34.864   6.274  -5.339  1.00  0.00     0.000 C 
BRANCH   3   4
ATOM      4  C   UNL     1      36.134   7.064  -5.696  1.00  0.00     0.000 C 
BRANCH   4   5
ATOM      5  C   UNL     1      36.083   7.655  -7.112  1.00  0.00     0.000 C 
BRANCH   5   6
ATOM      6  C   UNL     1      37.080   6.946  -8.037  1.00  0.00     0.000 C 
BRANCH   6   7
ATOM      7  C   UNL     1      36.525   5.596  -8.514  1.00  0.00     0.000 C 
BRANCH   7   8
ATOM      8  C   UNL     1      37.473   4.424  -8.208  1.00  0.00     0.000 C 
BRANCH   8   9
ATOM      9  C   UNL     1      38.845   4.587  -8.886  1.00  0.00     0.000 C 
BRANCH   9  10
ATOM     10  C   UNL     1      40.019   4.336  -7.921  1.00  0.00     0.006 C 
BRANCH  10  11
ATOM     11  C   UNL     1      39.610   3.749  -6.561  1.00  0.00     0.053 C 
BRANCH  11  12
ATOM     12  C   UNL     1      40.327   2.467  -6.263  1.00  0.00     0.041 C 
ATOM     13  O   UNL     1      40.045   1.810  -5.225  1.00  0.00    -0.550 OA
ATOM     14  O   UNL     1      41.317   2.010  -7.122  1.00  0.00    -0.550 OA
ENDBRANCH  11  12
ENDBRANCH  10  11
ENDBRANCH   9  10
ENDBRANCH   8   9
ENDBRANCH   7   8
ENDBRANCH   6   7
ENDBRANCH   5   6
ENDBRANCH   4   5
ENDBRANCH   3   4
ENDBRANCH   2   3
ENDBRANCH   1   2
BRANCH   1  15
ATOM     15  C   UNL     1      31.570   5.717  -7.291  1.00  0.00     0.000 C 
BRANCH  15  16
ATOM     16  C   UNL     1      31.139   7.153  -6.958  1.00  0.00     0.000 C 
BRANCH  16  17
ATOM     17  C   UNL     1      29.628   7.270  -6.685  1.00  0.00     0.000 C 
BRANCH  17  18
ATOM     18  C   UNL     1      29.000   8.492  -7.391  1.00  0.00    -0.000 C 
BRANCH  18  19
ATOM     19  C   UNL     1      29.157   8.472  -8.926  1.00  0.00    -0.000 C 
BRANCH  19  20
ATOM     20  C   UNL     1      28.636   7.197  -9.611  1.00  0.00    -0.000 C 
BRANCH  20  21
ATOM     21  C   UNL     1      29.428   6.845 -10.882  1.00  0.00    -0.000 C 
BRANCH  21  22
ATOM     22  C   UNL     1      30.931   7.133 -10.742  1.00  0.00    -0.000 C 
BRANCH  22  23
ATOM     23  C   UNL     1      31.800   5.918 -11.116  1.00  0.00    -0.000 C 
BRANCH  23  24
ATOM     24  C   UNL     1      33.188   5.949 -10.450  1.00  0.00    -0.000 C 
BRANCH  24  25
ATOM     25  C   UNL     1      33.643   7.335  -9.957  1.00  0.00    -0.003 C 
ATOM     26  C   UNL     1      34.577   8.044 -10.938  1.00  0.00     0.004 C 
ENDBRANCH  24  25
ENDBRANCH  23  24
ENDBRANCH  22  23
ENDBRANCH  21  22
ENDBRANCH  20  21
ENDBRANCH  19  20
ENDBRANCH  18  19
ENDBRANCH  17  18
ENDBRANCH  16  17
ENDBRANCH  15  16
ENDBRANCH   1  15
TORSDOF 22
ENDMDL
MODEL 2
REMARK VINA RESULT:    -3.442      1.805      2.074
REMARK INTER + INTRA:         -11.342
REMARK INTER:                  -8.364
REMARK INTRA:                  -2.978
REMARK UNBOUND:                -3.474
REMARK SMILES CCCCCCCCCCCCCCCCCCCCCCCC(=O)[O-]
REMARK SMILES IDX 13 1 14 2 15 3 16 4 17 5 18 6 19 7 20 8 21 9 22 10 23 11
REMARK SMILES IDX 24 12 25 13 26 14 12 15 11 16 10 17 9 18 8 19 7 20 6 21 5 22
REMARK SMILES IDX 4 23 3 24 2 25 1 26
REMARK H PARENT
REMARK Flexibility Score: inf
ROOT
ATOM      1  C   UNL     1      33.261   5.539  -6.584  1.00  0.00     0.000 C 
ENDROOT
BRANCH   1   2
ATOM      2  C   UNL     1      33.845   6.932  -6.315  1.00  0.00     0.000 C 
BRANCH   2   3
ATOM      3  C   UNL     1      34.915   6.875  -5.215  1.00  0.00     0.000 C 
BRANCH   3   4
ATOM      4  C   UNL     1      36.304   7.297  -5.721  1.00  0.00     0.000 C 
BRANCH   4   5
ATOM      5  C   UNL     1      36.555   6.879  -7.177  1.00  0.00     0.000 C 
BRANCH   5   6
ATOM      6  C   UNL     1      37.059   5.433  -7.253  1.00  0.00     0.000 C 
BRANCH   6   7
ATOM      7  C   UNL     1      36.433   4.693  -8.444  1.00  0.00     0.000 C 
BRANCH   7   8
ATOM      8  C   UNL     1      35.878   3.312  -8.057  1.00  0.00     0.000 C 
BRANCH   8   9
ATOM      9  C   UNL     1      36.897   2.183  -8.292  1.00  0.00     0.000 C 
BRANCH   9  10
ATOM     10  C   UNL     1      36.248   0.785  -8.292  1.00  0.00     0.006 C 
BRANCH  10  11
ATOM     11  C   UNL     1      36.789  -0.167  -7.215  1.00  0.00     0.053 C 
BRANCH  11  12
ATOM     12  C   UNL     1      38.285  -0.247  -7.234  1.00  0.00     0.041 C 
ATOM     13  O   UNL     1      38.954   0.134  -6.236  1.00  0.00    -0.550 OA
ATOM     14  O   UNL     1      38.940  -0.724  -8.362  1.00  0.00    -0.550 OA
ENDBRANCH  11  12
ENDBRANCH  10  11
ENDBRANCH   9  10
ENDBRANCH   8   9
ENDBRANCH   7   8
ENDBRANCH   6   7
ENDBRANCH   5   6
ENDBRANCH   4   5
ENDBRANCH   3   4
ENDBRANCH   2   3
ENDBRANCH   1   2
BRANCH   1  15
ATOM     15  C   UNL     1      31.869   5.641  -7.228  1.00  0.00     0.000 C 
BRANCH  15  16
ATOM     16  C   UNL     1      31.203   7.002  -6.979  1.00  0.00     0.000 C 
BRANCH  16  17
ATOM     17  C   UNL     1      29.667   6.931  -7.043  1.00  0.00     0.000 C 
BRANCH  17  18
ATOM     18  C   UNL     1      29.030   8.307  -7.336  1.00  0.00    -0.000 C 
BRANCH  18  19
ATOM     19  C   UNL     1      28.474   8.444  -8.768  1.00  0.00    -0.000 C 
BRANCH  19  20
ATOM     20  C   UNL     1      28.594   7.176  -9.631  1.00  0.00    -0.000 C 
BRANCH  20  21
ATOM     21  C   UNL     1      28.809   7.493 -11.121  1.00  0.00    -0.000 C 
BRANCH  21  22
ATOM     22  C   UNL     1      30.105   6.878 -11.676  1.00  0.00    -0.000 C 
BRANCH  22  23
ATOM     23  C   UNL     1      31.057   6.409 -10.561  1.00  0.00    -0.000 C 
BRANCH  23  24
ATOM     24  C   UNL     1      32.267   5.625 -11.100  1.00  0.00    -0.000 C 
BRANCH  24  25
ATOM     25  C   UNL     1      33.629   6.050 -10.520  1.00  0.00    -0.003 C 
ATOM     26  C   UNL     1      33.634   7.482  -9.988  1.00  0.00     0.004 C 
ENDBRANCH  24  25
ENDBRANCH  23  24
ENDBRANCH  22  23
ENDBRANCH  21  22
ENDBRANCH  20  21
ENDBRANCH  19  20
ENDBRANCH  18  19
ENDBRANCH  17  18
ENDBRANCH  16  17
ENDBRANCH  15  16
ENDBRANCH   1  15
TORSDOF 22
ENDMDL
MODEL 3
REMARK VINA RESULT:    -3.391     11.739     14.254
REMARK INTER + INTRA:         -11.227
REMARK INTER:                  -6.727
REMARK INTRA:                  -4.499
REMARK UNBOUND:                -3.474
REMARK SMILES CCCCCCCCCCCCCCCCCCCCCCCC(=O)[O-]
REMARK SMILES IDX 13 1 14 2 15 3 16 4 17 5 18 6 19 7 20 8 21 9 22 10 23 11
REMARK SMILES IDX 24 12 25 13 26 14 12 15 11 16 10 17 9 18 8 19 7 20 6 21 5 22
REMARK SMILES IDX 4 23 3 24 2 25 1 26
REMARK H PARENT
REMARK Flexibility Score: inf
ROOT
ATOM      1  C   UNL     1      40.809   1.984   2.497  1.00  0.00     0.000 C 
ENDROOT
BRANCH   1   2
ATOM      2  C   UNL     1      39.755   3.097   2.561  1.00  0.00     0.000 C 
BRANCH   2   3
ATOM      3  C   UNL     1      39.406   3.439   4.018  1.00  0.00     0.000 C 
BRANCH   3   4
ATOM      4  C   UNL     1      39.434   2.206   4.936  1.00  0.00     0.000 C 
BRANCH   4   5
ATOM      5  C   UNL     1      39.072   2.543   6.389  1.00  0.00     0.000 C 
BRANCH   5   6
ATOM      6  C   UNL     1      38.756   4.036   6.543  1.00  0.00     0.000 C 
BRANCH   6   7
ATOM      7  C   UNL     1      37.298   4.248   6.979  1.00  0.00     0.000 C 
BRANCH   7   8
ATOM      8  C   UNL     1      36.710   5.569   6.455  1.00  0.00     0.000 C 
BRANCH   8   9
ATOM      9  C   UNL     1      37.492   6.123   5.250  1.00  0.00     0.000 C 
BRANCH   9  10
ATOM     10  C   UNL     1      36.572   6.694   4.155  1.00  0.00     0.006 C 
BRANCH  10  11
ATOM     11  C   UNL     1      35.376   7.500   4.685  1.00  0.00     0.053 C 
BRANCH  11  12
ATOM     12  C   UNL     1      34.071   6.977   4.166  1.00  0.00     0.041 C 
ATOM     13  O   UNL     1      33.898   6.818   2.928  1.00  0.00    -0.550 OA
ATOM     14  O   UNL     1      33.040   6.684   5.050  1.00  0.00    -0.550 OA
ENDBRANCH  11  12
ENDBRANCH  10  11
ENDBRANCH   9  10
ENDBRANCH   8   9
ENDBRANCH   7   8
ENDBRANCH   6   7
ENDBRANCH   5   6
ENDBRANCH   4   5
ENDBRANCH   3   4
ENDBRANCH   2   3
ENDBRANCH   1   2
BRANCH   1  15
ATOM     15  C   UNL     1      40.365   0.859   1.549  1.00  0.00     0.000 C 
BRANCH  15  16
ATOM     16  C   UNL     1      39.950  -0.415   2.300  1.00  0.00     0.000 C 
BRANCH  16  17
ATOM     17  C   UNL     1      38.491  -0.818   2.024  1.00  0.00     0.000 C 
BRANCH  17  18
ATOM     18  C   UNL     1      37.700   0.301   1.314  1.00  0.00    -0.000 C 
BRANCH  18  19
ATOM     19  C   UNL     1      36.591   0.929   2.183  1.00  0.00    -0.000 C 
BRANCH  19  20
ATOM     20  C   UNL     1      36.528   0.404   3.628  1.00  0.00    -0.000 C 
BRANCH  20  21
ATOM     21  C   UNL     1      35.790   1.365   4.574  1.00  0.00    -0.000 C 
BRANCH  21  22
ATOM     22  C   UNL     1      35.773   2.812   4.054  1.00  0.00    -0.000 C 
BRANCH  22  23
ATOM     23  C   UNL     1      34.362   3.427   4.075  1.00  0.00    -0.000 C 
BRANCH  23  24
ATOM     24  C   UNL     1      33.555   3.117   2.801  1.00  0.00    -0.000 C 
BRANCH  24  25
ATOM     25  C   UNL     1      32.535   1.972   2.938  1.00  0.00    -0.003 C 
ATOM     26  C   UNL     1      32.721   0.873   1.893  1.00  0.00     0.004 C 
ENDBRANCH  24  25
ENDBRANCH  23  24
ENDBRANCH  22  23
ENDBRANCH  21  22
ENDBRANCH  20  21
ENDBRANCH  19  20
ENDBRANCH  18  19
ENDBRANCH  17  18
ENDBRANCH  16  17
ENDBRANCH  15  16
ENDBRANCH   1  15
TORSDOF 22
ENDMDL
MODEL 4
REMARK VINA RESULT:    -3.349     11.233     13.863
REMARK INTER + INTRA:         -11.129
REMARK INTER:                  -7.485
REMARK INTRA:                  -3.644
REMARK UNBOUND:                -3.474
REMARK SMILES CCCCCCCCCCCCCCCCCCCCCCCC(=O)[O-]
REMARK SMILES IDX 13 1 14 2 15 3 16 4 17 5 18 6 19 7 20 8 21 9 22 10 23 11
REMARK SMILES IDX 24 12 25 13 26 14 12 15 11 16 10 17 9 18 8 19 7 20 6 21 5 22
REMARK SMILES IDX 4 23 3 24 2 25 1 26
REMARK H PARENT
REMARK Flexibility Score: inf
ROOT
ATOM      1  C   UNL     1      39.383   2.455   2.308  1.00  0.00     0.000 C 
ENDROOT
BRANCH   1   2
ATOM      2  C   UNL     1      40.720   2.886   2.924  1.00  0.00     0.000 C 
BRANCH   2   3
ATOM      3  C   UNL     1      41.389   1.714   3.659  1.00  0.00     0.000 C 
BRANCH   3   4
ATOM      4  C   UNL     1      41.657   2.024   5.140  1.00  0.00     0.000 C 
BRANCH   4   5
ATOM      5  C   UNL     1      40.952   3.303   5.614  1.00  0.00     0.000 C 
BRANCH   5   6
ATOM      6  C   UNL     1      39.727   2.967   6.472  1.00  0.00     0.000 C 
BRANCH   6   7
ATOM      7  C   UNL     1      38.481   3.713   5.969  1.00  0.00     0.000 C 
BRANCH   7   8
ATOM      8  C   UNL     1      38.791   5.155   5.533  1.00  0.00     0.000 C 
BRANCH   8   9
ATOM      9  C   UNL     1      37.973   5.584   4.302  1.00  0.00     0.000 C 
BRANCH   9  10
ATOM     10  C   UNL     1      36.455   5.577   4.564  1.00  0.00     0.006 C 
BRANCH  10  11
ATOM     11  C   UNL     1      35.761   6.927   4.325  1.00  0.00     0.053 C 
BRANCH  11  12
ATOM     12  C   UNL     1      34.296   6.767   4.054  1.00  0.00     0.041 C 
ATOM     13  O   UNL     1      33.493   6.569   5.005  1.00  0.00    -0.550 OA
ATOM     14  O   UNL     1      33.822   6.816   2.750  1.00  0.00    -0.550 OA
ENDBRANCH  11  12
ENDBRANCH  10  11
ENDBRANCH   9  10
ENDBRANCH   8   9
ENDBRANCH   7   8
ENDBRANCH   6   7
ENDBRANCH   5   6
ENDBRANCH   4   5
ENDBRANCH   3   4
ENDBRANCH   2   3
ENDBRANCH   1   2
BRANCH   1  15
ATOM     15  C   UNL     1      39.216   0.928   2.367  1.00  0.00     0.000 C 
BRANCH  15  16
ATOM     16  C   UNL     1      37.884   0.506   3.006  1.00  0.00     0.000 C 
BRANCH  16  17
ATOM     17  C   UNL     1      37.002   1.708   3.389  1.00  0.00     0.000 C 
BRANCH  17  18
ATOM     18  C   UNL     1      35.498   1.363   3.357  1.00  0.00    -0.000 C 
BRANCH  18  19
ATOM     19  C   UNL     1      34.596   2.451   3.975  1.00  0.00    -0.000 C 
BRANCH  19  20
ATOM     20  C   UNL     1      33.759   3.249   2.961  1.00  0.00    -0.000 C 
BRANCH  20  21
ATOM     21  C   UNL     1      33.499   2.465   1.663  1.00  0.00    -0.000 C 
BRANCH  21  22
ATOM     22  C   UNL     1      32.046   1.975   1.549  1.00  0.00    -0.000 C 
BRANCH  22  23
ATOM     23  C   UNL     1      31.910   0.469   1.840  1.00  0.00    -0.000 C 
BRANCH  23  24
ATOM     24  C   UNL     1      31.710   0.166   3.336  1.00  0.00    -0.000 C 
BRANCH  24  25
ATOM     25  C   UNL     1      30.872   1.204   4.105  1.00  0.00    -0.003 C 
ATOM     26  C   UNL     1      31.346   1.413   5.542  1.00  0.00     0.004 C 
ENDBRANCH  24  25
ENDBRANCH  23  24
ENDBRANCH  22  23
ENDBRANCH  21  22
ENDBRANCH  20  21
ENDBRANCH  19  20
ENDBRANCH  18  19
ENDBRANCH  17  18
ENDBRANCH  16  17
ENDBRANCH  15  16
ENDBRANCH   1  15
TORSDOF 22
ENDMDL
MODEL 5
REMARK VINA RESULT:    -3.324     10.798     14.921
REMARK INTER + INTRA:         -11.072
REMARK INTER:                  -7.042
REMARK INTRA:                  -4.030
REMARK UNBOUND:                -3.474
REMARK SMILES CCCCCCCCCCCCCCCCCCCCCCCC(=O)[O-]
REMARK SMILES IDX 13 1 14 2 15 3 16 4 17 5 18 6 19 7 20 8 21 9 22 10 23 11
REMARK SMILES IDX 24 12 25 13 26 14 12 15 11 16 10 17 9 18 8 19 7 20 6 21 5 22
REMARK SMILES IDX 4 23 3 24 2 25 1 26
REMARK H PARENT
REMARK Flexibility Score: inf
ROOT
ATOM      1  C   UNL     1      37.632   6.506   3.976  1.00  0.00     0.000 C 
ENDROOT
BRANCH   1   2
ATOM      2  C   UNL     1      37.024   7.774   4.588  1.00  0.00     0.000 C 
BRANCH   2   3
ATOM      3  C   UNL     1      35.962   8.379   3.658  1.00  0.00     0.000 C 
BRANCH   3   4
ATOM      4  C   UNL     1      34.530   8.137   4.163  1.00  0.00     0.000 C 
BRANCH   4   5
ATOM      5  C   UNL     1      34.495   7.531   5.574  1.00  0.00     0.000 C 
BRANCH   5   6
ATOM      6  C   UNL     1      33.624   6.270   5.606  1.00  0.00     0.000 C 
BRANCH   6   7
ATOM      7  C   UNL     1      34.484   5.003   5.485  1.00  0.00     0.000 C 
BRANCH   7   8
ATOM      8  C   UNL     1      34.192   4.210   4.199  1.00  0.00     0.000 C 
BRANCH   8   9
ATOM      9  C   UNL     1      33.248   3.020   4.445  1.00  0.00     0.000 C 
BRANCH   9  10
ATOM     10  C   UNL     1      33.187   2.053   3.248  1.00  0.00     0.006 C 
BRANCH  10  11
ATOM     11  C   UNL     1      33.786   2.611   1.947  1.00  0.00     0.053 C 
BRANCH  11  12
ATOM     12  C   UNL     1      32.727   3.033   0.975  1.00  0.00     0.041 C 
ATOM     13  O   UNL     1      33.042   3.390  -0.191  1.00  0.00    -0.550 OA
ATOM     14  O   UNL     1      31.394   3.051   1.365  1.00  0.00    -0.550 OA
ENDBRANCH  11  12
ENDBRANCH  10  11
ENDBRANCH   9  10
ENDBRANCH   8   9
ENDBRANCH   7   8
ENDBRANCH   6   7
ENDBRANCH   5   6
ENDBRANCH   4   5
ENDBRANCH   3   4
ENDBRANCH   2   3
ENDBRANCH   1   2
BRANCH   1  15
ATOM     15  C   UNL     1      38.393   5.693   5.035  1.00  0.00     0.000 C 
BRANCH  15  16
ATOM     16  C   UNL     1      37.893   5.971   6.461  1.00  0.00     0.000 C 
BRANCH  16  17
ATOM     17  C   UNL     1      38.457   4.976   7.491  1.00  0.00     0.000 C 
BRANCH  17  18
ATOM     18  C   UNL     1      39.974   4.747   7.313  1.00  0.00    -0.000 C 
BRANCH  18  19
ATOM     19  C   UNL     1      40.425   3.303   7.612  1.00  0.00    -0.000 C 
BRANCH  19  20
ATOM     20  C   UNL     1      41.230   2.632   6.486  1.00  0.00    -0.000 C 
BRANCH  20  21
ATOM     21  C   UNL     1      41.334   3.512   5.228  1.00  0.00    -0.000 C 
BRANCH  21  22
ATOM     22  C   UNL     1      41.204   2.703   3.927  1.00  0.00    -0.000 C 
BRANCH  22  23
ATOM     23  C   UNL     1      39.853   2.932   3.226  1.00  0.00    -0.000 C 
BRANCH  23  24
ATOM     24  C   UNL     1      38.807   1.858   3.578  1.00  0.00    -0.000 C 
BRANCH  24  25
ATOM     25  C   UNL     1      37.445   2.404   4.045  1.00  0.00    -0.003 C 
ATOM     26  C   UNL     1      37.141   2.088   5.508  1.00  0.00     0.004 C 
ENDBRANCH  24  25
ENDBRANCH  23  24
ENDBRANCH  22  23
ENDBRANCH  21  22
ENDBRANCH  20  21
ENDBRANCH  19  20
ENDBRANCH  18  19
ENDBRANCH  17  18
ENDBRANCH  16  17
ENDBRANCH  15  16
ENDBRANCH   1  15
TORSDOF 22
ENDMDL
MODEL 6
REMARK VINA RESULT:    -3.287     11.425     14.375
REMARK INTER + INTRA:         -10.989
REMARK INTER:                  -7.218
REMARK INTRA:                  -3.770
REMARK UNBOUND:                -3.474
REMARK SMILES CCCCCCCCCCCCCCCCCCCCCCCC(=O)[O-]
REMARK SMILES IDX 13 1 14 2 15 3 16 4 17 5 18 6 19 7 20 8 21 9 22 10 23 11
REMARK SMILES IDX 24 12 25 13 26 14 12 15 11 16 10 17 9 18 8 19 7 20 6 21 5 22
REMARK SMILES IDX 4 23 3 24 2 25 1 26
REMARK H PARENT
REMARK Flexibility Score: inf
ROOT
ATOM      1  C   UNL     1      41.840   2.462   3.452  1.00  0.00     0.000 C 
ENDROOT
BRANCH   1   2
ATOM      2  C   UNL     1      42.713   1.648   4.415  1.00  0.00     0.000 C 
BRANCH   2   3
ATOM      3  C   UNL     1      42.282   1.874   5.872  1.00  0.00     0.000 C 
BRANCH   3   4
ATOM      4  C   UNL     1      41.960   3.348   6.169  1.00  0.00     0.000 C 
BRANCH   4   5
ATOM      5  C   UNL     1      40.828   3.511   7.193  1.00  0.00     0.000 C 
BRANCH   5   6
ATOM      6  C   UNL     1      40.222   4.918   7.119  1.00  0.00     0.000 C 
BRANCH   6   7
ATOM      7  C   UNL     1      39.478   5.128   5.791  1.00  0.00     0.000 C 
BRANCH   7   8
ATOM      8  C   UNL     1      37.955   4.967   5.934  1.00  0.00     0.000 C 
BRANCH   8   9
ATOM      9  C   UNL     1      37.192   5.475   4.698  1.00  0.00     0.000 C 
BRANCH   9  10
ATOM     10  C   UNL     1      36.569   6.867   4.914  1.00  0.00     0.006 C 
BRANCH  10  11
ATOM     11  C   UNL     1      36.516   7.743   3.653  1.00  0.00     0.053 C 
BRANCH  11  12
ATOM     12  C   UNL     1      37.883   8.034   3.113  1.00  0.00     0.041 C 
ATOM     13  O   UNL     1      38.129   7.871   1.887  1.00  0.00    -0.550 OA
ATOM     14  O   UNL     1      38.889   8.466   3.966  1.00  0.00    -0.550 OA
ENDBRANCH  11  12
ENDBRANCH  10  11
ENDBRANCH   9  10
ENDBRANCH   8   9
ENDBRANCH   7   8
ENDBRANCH   6   7
ENDBRANCH   5   6
ENDBRANCH   4   5
ENDBRANCH   3   4
ENDBRANCH   2   3
ENDBRANCH   1   2
BRANCH   1  15
ATOM     15  C   UNL     1      40.662   1.622   2.933  1.00  0.00     0.000 C 
BRANCH  15  16
ATOM     16  C   UNL     1      39.303   2.293   3.189  1.00  0.00     0.000 C 
BRANCH  16  17
ATOM     17  C   UNL     1      38.549   1.670   4.378  1.00  0.00     0.000 C 
BRANCH  17  18
ATOM     18  C   UNL     1      37.016   1.767   4.212  1.00  0.00    -0.000 C 
BRANCH  18  19
ATOM     19  C   UNL     1      36.313   0.398   4.109  1.00  0.00    -0.000 C 
BRANCH  19  20
ATOM     20  C   UNL     1      35.510   0.181   2.815  1.00  0.00    -0.000 C 
BRANCH  20  21
ATOM     21  C   UNL     1      35.508   1.421   1.905  1.00  0.00    -0.000 C 
BRANCH  21  22
ATOM     22  C   UNL     1      34.096   1.985   1.676  1.00  0.00    -0.000 C 
BRANCH  22  23
ATOM     23  C   UNL     1      33.443   2.479   2.980  1.00  0.00    -0.000 C 
BRANCH  23  24
ATOM     24  C   UNL     1      33.968   3.856   3.427  1.00  0.00    -0.000 C 
BRANCH  24  25
ATOM     25  C   UNL     1      33.907   4.115   4.944  1.00  0.00    -0.003 C 
ATOM     26  C   UNL     1      33.843   2.831   5.770  1.00  0.00     0.004 C 
ENDBRANCH  24  25
ENDBRANCH  23  24
ENDBRANCH  22  23
ENDBRANCH  21  22
ENDBRANCH  20  21
ENDBRANCH  19  20
ENDBRANCH  18  19
ENDBRANCH  17  18
ENDBRANCH  16  17
ENDBRANCH  15  16
ENDBRANCH   1  15
TORSDOF 22
ENDMDL
MODEL 7
REMARK VINA RESULT:    -3.250     11.105     14.756
REMARK INTER + INTRA:         -10.904
REMARK INTER:                  -6.354
REMARK INTRA:                  -4.550
REMARK UNBOUND:                -3.474
REMARK SMILES CCCCCCCCCCCCCCCCCCCCCCCC(=O)[O-]
REMARK SMILES IDX 13 1 14 2 15 3 16 4 17 5 18 6 19 7 20 8 21 9 22 10 23 11
REMARK SMILES IDX 24 12 25 13 26 14 12 15 11 16 10 17 9 18 8 19 7 20 6 21 5 22
REMARK SMILES IDX 4 23 3 24 2 25 1 26
REMARK H PARENT
REMARK Flexibility Score: inf
ROOT
ATOM      1  C   UNL     1      38.083   4.861   4.401  1.00  0.00     0.000 C 
ENDROOT
BRANCH   1   2
ATOM      2  C   UNL     1      38.021   6.393   4.357  1.00  0.00     0.000 C 
BRANCH   2   3
ATOM      3  C   UNL     1      37.385   6.954   5.639  1.00  0.00     0.000 C 
BRANCH   3   4
ATOM      4  C   UNL     1      36.239   7.936   5.347  1.00  0.00     0.000 C 
BRANCH   4   5
ATOM      5  C   UNL     1      34.855   7.284   5.475  1.00  0.00     0.000 C 
BRANCH   5   6
ATOM      6  C   UNL     1      34.294   6.915   4.096  1.00  0.00     0.000 C 
BRANCH   6   7
ATOM      7  C   UNL     1      34.449   5.410   3.824  1.00  0.00     0.000 C 
BRANCH   7   8
ATOM      8  C   UNL     1      34.158   4.551   5.066  1.00  0.00     0.000 C 
BRANCH   8   9
ATOM      9  C   UNL     1      34.388   3.051   4.809  1.00  0.00     0.000 C 
BRANCH   9  10
ATOM     10  C   UNL     1      35.108   2.780   3.474  1.00  0.00     0.006 C 
BRANCH  10  11
ATOM     11  C   UNL     1      34.355   1.833   2.527  1.00  0.00     0.053 C 
BRANCH  11  12
ATOM     12  C   UNL     1      33.330   2.556   1.706  1.00  0.00     0.041 C 
ATOM     13  O   UNL     1      32.216   2.862   2.209  1.00  0.00    -0.550 OA
ATOM     14  O   UNL     1      33.601   2.874   0.382  1.00  0.00    -0.550 OA
ENDBRANCH  11  12
ENDBRANCH  10  11
ENDBRANCH   9  10
ENDBRANCH   8   9
ENDBRANCH   7   8
ENDBRANCH   6   7
ENDBRANCH   5   6
ENDBRANCH   4   5
ENDBRANCH   3   4
ENDBRANCH   2   3
ENDBRANCH   1   2
BRANCH   1  15
ATOM     15  C   UNL     1      37.777   4.338   5.813  1.00  0.00     0.000 C 
BRANCH  15  16
ATOM     16  C   UNL     1      38.765   3.252   6.265  1.00  0.00     0.000 C 
BRANCH  16  17
ATOM     17  C   UNL     1      40.075   3.838   6.822  1.00  0.00     0.000 C 
BRANCH  17  18
ATOM     18  C   UNL     1      41.240   3.726   5.815  1.00  0.00    -0.000 C 
BRANCH  18  19
ATOM     19  C   UNL     1      41.701   2.277   5.555  1.00  0.00    -0.000 C 
BRANCH  19  20
ATOM     20  C   UNL     1      41.729   1.865   4.073  1.00  0.00    -0.000 C 
BRANCH  20  21
ATOM     21  C   UNL     1      40.941   2.833   3.175  1.00  0.00    -0.000 C 
BRANCH  21  22
ATOM     22  C   UNL     1      40.033   2.103   2.171  1.00  0.00    -0.000 C 
BRANCH  22  23
ATOM     23  C   UNL     1      38.646   1.783   2.757  1.00  0.00    -0.000 C 
BRANCH  23  24
ATOM     24  C   UNL     1      38.465   0.289   3.082  1.00  0.00    -0.000 C 
BRANCH  24  25
ATOM     25  C   UNL     1      38.445  -0.052   4.584  1.00  0.00    -0.003 C 
ATOM     26  C   UNL     1      37.066   0.122   5.220  1.00  0.00     0.004 C 
ENDBRANCH  24  25
ENDBRANCH  23  24
ENDBRANCH  22  23
ENDBRANCH  21  22
ENDBRANCH  20  21
ENDBRANCH  19  20
ENDBRANCH  18  19
ENDBRANCH  17  18
ENDBRANCH  16  17
ENDBRANCH  15  16
ENDBRANCH   1  15
TORSDOF 22
ENDMDL
MODEL 8
REMARK VINA RESULT:    -3.222     11.389     14.769
REMARK INTER + INTRA:         -10.840
REMARK INTER:                  -6.685
REMARK INTRA:                  -4.156
REMARK UNBOUND:                -3.474
REMARK SMILES CCCCCCCCCCCCCCCCCCCCCCCC(=O)[O-]
REMARK SMILES IDX 13 1 14 2 15 3 16 4 17 5 18 6 19 7 20 8 21 9 22 10 23 11
REMARK SMILES IDX 24 12 25 13 26 14 12 15 11 16 10 17 9 18 8 19 7 20 6 21 5 22
REMARK SMILES IDX 4 23 3 24 2 25 1 26
REMARK H PARENT
REMARK Flexibility Score: inf
ROOT
ATOM      1  C   UNL     1      38.095   2.431   5.781  1.00  0.00     0.000 C 
ENDROOT
BRANCH   1   2
ATOM      2  C   UNL     1      38.353   3.943   5.801  1.00  0.00     0.000 C 
BRANCH   2   3
ATOM      3  C   UNL     1      37.883   4.597   4.493  1.00  0.00     0.000 C 
BRANCH   3   4
ATOM      4  C   UNL     1      37.250   5.980   4.719  1.00  0.00     0.000 C 
BRANCH   4   5
ATOM      5  C   UNL     1      35.869   5.896   5.385  1.00  0.00     0.000 C 
BRANCH   5   6
ATOM      6  C   UNL     1      34.845   5.253   4.442  1.00  0.00     0.000 C 
BRANCH   6   7
ATOM      7  C   UNL     1      33.964   4.242   5.191  1.00  0.00     0.000 C 
BRANCH   7   8
ATOM      8  C   UNL     1      33.723   2.955   4.384  1.00  0.00     0.000 C 
BRANCH   8   9
ATOM      9  C   UNL     1      33.885   3.174   2.869  1.00  0.00     0.000 C 
BRANCH   9  10
ATOM     10  C   UNL     1      33.698   1.878   2.057  1.00  0.00     0.006 C 
BRANCH  10  11
ATOM     11  C   UNL     1      32.265   1.645   1.552  1.00  0.00     0.053 C 
BRANCH  11  12
ATOM     12  C   UNL     1      31.491   0.735   2.456  1.00  0.00     0.041 C 
ATOM     13  O   UNL     1      31.640  -0.514   2.378  1.00  0.00    -0.550 OA
ATOM     14  O   UNL     1      30.592   1.267   3.371  1.00  0.00    -0.550 OA
ENDBRANCH  11  12
ENDBRANCH  10  11
ENDBRANCH   9  10
ENDBRANCH   8   9
ENDBRANCH   7   8
ENDBRANCH   6   7
ENDBRANCH   5   6
ENDBRANCH   4   5
ENDBRANCH   3   4
ENDBRANCH   2   3
ENDBRANCH   1   2
BRANCH   1  15
ATOM     15  C   UNL     1      37.130   2.052   4.646  1.00  0.00     0.000 C 
BRANCH  15  16
ATOM     16  C   UNL     1      36.801   0.552   4.630  1.00  0.00     0.000 C 
BRANCH  16  17
ATOM     17  C   UNL     1      36.894  -0.061   3.221  1.00  0.00     0.000 C 
BRANCH  17  18
ATOM     18  C   UNL     1      37.313   0.979   2.159  1.00  0.00    -0.000 C 
BRANCH  18  19
ATOM     19  C   UNL     1      38.531   0.551   1.315  1.00  0.00    -0.000 C 
BRANCH  19  20
ATOM     20  C   UNL     1      39.891   1.016   1.862  1.00  0.00    -0.000 C 
BRANCH  20  21
ATOM     21  C   UNL     1      39.900   2.509   2.233  1.00  0.00    -0.000 C 
BRANCH  21  22
ATOM     22  C   UNL     1      40.952   2.846   3.303  1.00  0.00    -0.000 C 
BRANCH  22  23
ATOM     23  C   UNL     1      41.385   1.610   4.112  1.00  0.00    -0.000 C 
BRANCH  23  24
ATOM     24  C   UNL     1      42.329   1.959   5.277  1.00  0.00    -0.000 C 
BRANCH  24  25
ATOM     25  C   UNL     1      41.897   3.171   6.124  1.00  0.00    -0.003 C 
ATOM     26  C   UNL     1      41.604   2.811   7.580  1.00  0.00     0.004 C 
ENDBRANCH  24  25
ENDBRANCH  23  24
ENDBRANCH  22  23
ENDBRANCH  21  22
ENDBRANCH  20  21
ENDBRANCH  19  20
ENDBRANCH  18  19
ENDBRANCH  17  18
ENDBRANCH  16  17
ENDBRANCH  15  16
ENDBRANCH   1  15
TORSDOF 22
ENDMDL
MODEL 9
REMARK VINA RESULT:    -3.218      1.706      3.065
REMARK INTER + INTRA:         -10.831
REMARK INTER:                  -6.341
REMARK INTRA:                  -4.490
REMARK UNBOUND:                -3.474
REMARK SMILES CCCCCCCCCCCCCCCCCCCCCCCC(=O)[O-]
REMARK SMILES IDX 13 1 14 2 15 3 16 4 17 5 18 6 19 7 20 8 21 9 22 10 23 11
REMARK SMILES IDX 24 12 25 13 26 14 12 15 11 16 10 17 9 18 8 19 7 20 6 21 5 22
REMARK SMILES IDX 4 23 3 24 2 25 1 26
REMARK H PARENT
REMARK Flexibility Score: inf
ROOT
ATOM      1  C   UNL     1      33.982   4.961  -6.443  1.00  0.00     0.000 C 
ENDROOT
BRANCH   1   2
ATOM      2  C   UNL     1      34.554   5.952  -5.422  1.00  0.00     0.000 C 
BRANCH   2   3
ATOM      3  C   UNL     1      36.021   6.280  -5.737  1.00  0.00     0.000 C 
BRANCH   3   4
ATOM      4  C   UNL     1      36.179   7.606  -6.498  1.00  0.00     0.000 C 
BRANCH   4   5
ATOM      5  C   UNL     1      36.646   7.405  -7.947  1.00  0.00     0.000 C 
BRANCH   5   6
ATOM      6  C   UNL     1      37.265   6.015  -8.134  1.00  0.00     0.000 C 
BRANCH   6   7
ATOM      7  C   UNL     1      38.266   6.011  -9.300  1.00  0.00     0.000 C 
BRANCH   7   8
ATOM      8  C   UNL     1      39.512   5.159  -9.007  1.00  0.00     0.000 C 
BRANCH   8   9
ATOM      9  C   UNL     1      39.537   4.632  -7.561  1.00  0.00     0.000 C 
BRANCH   9  10
ATOM     10  C   UNL     1      40.206   3.250  -7.443  1.00  0.00     0.006 C 
BRANCH  10  11
ATOM     11  C   UNL     1      40.158   2.638  -6.034  1.00  0.00     0.053 C 
BRANCH  11  12
ATOM     12  C   UNL     1      40.937   1.361  -5.948  1.00  0.00     0.041 C 
ATOM     13  O   UNL     1      40.559   0.438  -5.178  1.00  0.00    -0.550 OA
ATOM     14  O   UNL     1      42.090   1.198  -6.706  1.00  0.00    -0.550 OA
ENDBRANCH  11  12
ENDBRANCH  10  11
ENDBRANCH   9  10
ENDBRANCH   8   9
ENDBRANCH   7   8
ENDBRANCH   6   7
ENDBRANCH   5   6
ENDBRANCH   4   5
ENDBRANCH   3   4
ENDBRANCH   2   3
ENDBRANCH   1   2
BRANCH   1  15
ATOM     15  C   UNL     1      32.691   5.506  -7.076  1.00  0.00     0.000 C 
BRANCH  15  16
ATOM     16  C   UNL     1      32.520   7.017  -6.856  1.00  0.00     0.000 C 
BRANCH  16  17
ATOM     17  C   UNL     1      32.045   7.751  -8.124  1.00  0.00     0.000 C 
BRANCH  17  18
ATOM     18  C   UNL     1      33.209   8.434  -8.874  1.00  0.00    -0.000 C 
BRANCH  18  19
ATOM     19  C   UNL     1      33.600   7.731 -10.190  1.00  0.00    -0.000 C 
BRANCH  19  20
ATOM     20  C   UNL     1      32.577   6.702 -10.700  1.00  0.00    -0.000 C 
BRANCH  20  21
ATOM     21  C   UNL     1      33.218   5.339 -11.018  1.00  0.00    -0.000 C 
BRANCH  21  22
ATOM     22  C   UNL     1      34.581   5.153 -10.332  1.00  0.00    -0.000 C 
BRANCH  22  23
ATOM     23  C   UNL     1      34.858   3.683  -9.967  1.00  0.00    -0.000 C 
BRANCH  23  24
ATOM     24  C   UNL     1      36.217   3.183 -10.490  1.00  0.00    -0.000 C 
BRANCH  24  25
ATOM     25  C   UNL     1      37.085   2.448  -9.452  1.00  0.00    -0.003 C 
ATOM     26  C   UNL     1      36.423   2.351  -8.078  1.00  0.00     0.004 C 
ENDBRANCH  24  25
ENDBRANCH  23  24
ENDBRANCH  22  23
ENDBRANCH  21  22
ENDBRANCH  20  21
ENDBRANCH  19  20
ENDBRANCH  18  19
ENDBRANCH  17  18
ENDBRANCH  16  17
ENDBRANCH  15  16
ENDBRANCH   1  15
TORSDOF 22
ENDMDL
