MODEL 1
REMARK VINA RESULT:     5.184      0.000      0.000
REMARK INTER + INTRA:          10.703
REMARK INTER:                   8.517
REMARK INTRA:                   2.186
REMARK UNBOUND:                 2.186
REMARK SMILES COc1ccc([C@@H]2CC(=O)c3c(O)cc(O[C@@H]4O[C@@H](CO[C@@H]5O[C@@H](C)[C@@H](O)[C@H](O)[C@H]5O)[C@@H](O)[C@H](O)[C@H]4O)cc3O2)cc1O
REMARK SMILES IDX 19 1 32 2 34 3 36 4 17 5 18 6 20 7 21 8 22 9 25 10 24 11
REMARK SMILES IDX 26 12 23 13 28 14 30 15 27 16 29 18 31 20 33 22 35 24 16 26
REMARK SMILES IDX 15 27 14 28 38 29 12 30 39 31 11 32 40 33 9 34 7 35 10 36
REMARK SMILES IDX 8 37 13 38 6 40 41 41 5 42 42 43 4 44 3 45 43 46 2 48 1 49
REMARK SMILES IDX 37 50
REMARK H PARENT 27 17 29 19 31 21 33 23 35 25 13 39 43 47 37 51
REMARK Flexibility Score: inf
ROOT
ATOM      1  C   UNL     1      41.777 -32.264  10.957  1.00  0.00     0.180 C 
ATOM      2  C   UNL     1      41.798 -32.406  12.502  1.00  0.00     0.177 C 
ATOM      3  C   UNL     1      40.471 -31.906  13.125  1.00  0.00     0.180 C 
ATOM      4  C   UNL     1      39.986 -30.579  12.496  1.00  0.00     0.214 C 
ATOM      5  C   UNL     1      40.165 -30.561  10.958  1.00  0.00     0.339 C 
ATOM      6  O   UNL     1      41.480 -30.931  10.581  1.00  0.00    -0.332 OA
ENDROOT
BRANCH   1   7
ATOM      7  C   UNL     1      43.126 -32.644  10.318  1.00  0.00     0.198 C 
BRANCH   7   8
ATOM      8  O   UNL     1      43.367 -31.936   9.116  1.00  0.00    -0.347 OA
BRANCH   8   9
ATOM      9  C   UNL     1      44.707 -31.473   9.013  1.00  0.00     0.281 C 
ATOM     10  C   UNL     1      45.401 -31.270  12.630  1.00  0.00     0.041 C 
ATOM     11  C   UNL     1      44.739 -30.909  11.297  1.00  0.00     0.150 C 
ATOM     12  C   UNL     1      44.811 -29.378  11.039  1.00  0.00     0.174 C 
ATOM     13  O   UNL     1      45.374 -31.644  10.259  1.00  0.00    -0.344 OA
ATOM     14  C   UNL     1      44.268 -29.018   9.633  1.00  0.00     0.179 C 
ATOM     15  C   UNL     1      44.785 -29.993   8.548  1.00  0.00     0.202 C 
BRANCH  12  16
ATOM     16  O   UNL     1      46.117 -28.876  11.209  1.00  0.00    -0.388 OA
ATOM     17  H   UNL     1      46.056 -27.911  11.442  1.00  0.00     0.211 HD
ENDBRANCH  12  16
BRANCH  14  18
ATOM     18  O   UNL     1      42.861 -28.943   9.610  1.00  0.00    -0.387 OA
ATOM     19  H   UNL     1      42.566 -28.836   8.669  1.00  0.00     0.211 HD
ENDBRANCH  14  18
BRANCH  15  20
ATOM     20  O   UNL     1      46.124 -29.695   8.235  1.00  0.00    -0.385 OA
ATOM     21  H   UNL     1      46.563 -29.409   9.082  1.00  0.00     0.211 HD
ENDBRANCH  15  20
ENDBRANCH   8   9
ENDBRANCH   7   8
ENDBRANCH   1   7
BRANCH   2  22
ATOM     22  O   UNL     1      42.899 -31.733  13.073  1.00  0.00    -0.387 OA
ATOM     23  H   UNL     1      42.936 -31.958  14.038  1.00  0.00     0.211 HD
ENDBRANCH   2  22
BRANCH   3  24
ATOM     24  O   UNL     1      39.470 -32.897  13.058  1.00  0.00    -0.387 OA
ATOM     25  H   UNL     1      38.589 -32.450  12.986  1.00  0.00     0.211 HD
ENDBRANCH   3  24
BRANCH   5  26
ATOM     26  O   UNL     1      39.195 -31.391  10.307  1.00  0.00    -0.462 OA
BRANCH  26  27
ATOM     27  C   UNL     1      37.846 -31.056  10.122  1.00  0.00     0.130 A 
ATOM     28  C   UNL     1      37.364 -30.916   8.813  1.00  0.00     0.093 A 
ATOM     29  C   UNL     1      36.972 -30.847  11.202  1.00  0.00     0.094 A 
ATOM     30  C   UNL     1      36.019 -30.599   8.574  1.00  0.00     0.133 A 
ATOM     31  C   UNL     1      35.631 -30.526  10.974  1.00  0.00     0.138 A 
ATOM     32  C   UNL     1      35.139 -30.405   9.661  1.00  0.00     0.102 A 
ATOM     33  O   UNL     1      34.795 -30.302  12.072  1.00  0.00    -0.484 OA
ATOM     34  C   UNL     1      33.725 -29.998   9.481  1.00  0.00     0.174 C 
ATOM     35  C   UNL     1      33.368 -30.302  11.982  1.00  0.00     0.211 C 
ATOM     36  O   UNL     1      33.228 -29.882   8.328  1.00  0.00    -0.294 OA
ATOM     37  C   UNL     1      32.880 -29.636  10.674  1.00  0.00     0.131 C 
BRANCH  30  38
ATOM     38  O   UNL     1      35.567 -30.464   7.261  1.00  0.00    -0.507 OA
ATOM     39  H   UNL     1      35.676 -31.209   6.581  1.00  0.00     0.293 HD
ENDBRANCH  30  38
BRANCH  35  40
ATOM     40  C   UNL     1      32.843 -31.710  12.214  1.00  0.00    -0.003 A 
ATOM     41  C   UNL     1      31.509 -31.977  12.577  1.00  0.00     0.057 A 
ATOM     42  C   UNL     1      33.701 -32.798  11.983  1.00  0.00     0.011 A 
ATOM     43  C   UNL     1      31.063 -33.294  12.789  1.00  0.00     0.158 A 
ATOM     44  C   UNL     1      33.270 -34.108  12.209  1.00  0.00     0.051 A 
ATOM     45  C   UNL     1      31.967 -34.371  12.645  1.00  0.00     0.160 A 
BRANCH  43  46
ATOM     46  O   UNL     1      29.728 -33.514  13.122  1.00  0.00    -0.504 OA
ATOM     47  H   UNL     1      28.967 -33.196  12.533  1.00  0.00     0.293 HD
ENDBRANCH  43  46
BRANCH  45  48
ATOM     48  O   UNL     1      31.647 -35.715  12.924  1.00  0.00    -0.493 OA
ATOM     49  C   UNL     1      30.335 -36.262  12.909  1.00  0.00     0.278 C 
ENDBRANCH  45  48
ENDBRANCH  35  40
ENDBRANCH  26  27
ENDBRANCH   5  26
BRANCH   4  50
ATOM     50  O   UNL     1      40.701 -29.510  13.065  1.00  0.00    -0.384 OA
ATOM     51  H   UNL     1      40.175 -29.193  13.844  1.00  0.00     0.211 HD
ENDBRANCH   4  50
TORSDOF 15
ENDMDL
MODEL 2
REMARK VINA RESULT:     7.718      2.572     10.778
REMARK INTER + INTRA:          14.867
REMARK INTER:                  15.570
REMARK INTRA:                  -0.703
REMARK UNBOUND:                 2.186
REMARK SMILES COc1ccc([C@@H]2CC(=O)c3c(O)cc(O[C@@H]4O[C@@H](CO[C@@H]5O[C@@H](C)[C@@H](O)[C@H](O)[C@H]5O)[C@@H](O)[C@H](O)[C@H]4O)cc3O2)cc1O
REMARK SMILES IDX 19 1 32 2 34 3 36 4 17 5 18 6 20 7 21 8 22 9 25 10 24 11
REMARK SMILES IDX 26 12 23 13 28 14 30 15 27 16 29 18 31 20 33 22 35 24 16 26
REMARK SMILES IDX 15 27 14 28 38 29 12 30 39 31 11 32 40 33 9 34 7 35 10 36
REMARK SMILES IDX 8 37 13 38 6 40 41 41 5 42 42 43 4 44 3 45 43 46 2 48 1 49
REMARK SMILES IDX 37 50
REMARK H PARENT 27 17 29 19 31 21 33 23 35 25 13 39 43 47 37 51
REMARK Flexibility Score: inf
ROOT
ATOM      1  C   UNL     1      34.406 -34.205   9.224  1.00  0.00     0.180 C 
ATOM      2  C   UNL     1      33.950 -35.280   8.201  1.00  0.00     0.177 C 
ATOM      3  C   UNL     1      34.422 -34.921   6.770  1.00  0.00     0.180 C 
ATOM      4  C   UNL     1      34.212 -33.426   6.436  1.00  0.00     0.214 C 
ATOM      5  C   UNL     1      34.590 -32.503   7.620  1.00  0.00     0.339 C 
ATOM      6  O   UNL     1      33.969 -32.918   8.825  1.00  0.00    -0.332 OA
ENDROOT
BRANCH   1   7
ATOM      7  C   UNL     1      33.853 -34.473  10.636  1.00  0.00     0.198 C 
BRANCH   7   8
ATOM      8  O   UNL     1      32.457 -34.253  10.715  1.00  0.00    -0.347 OA
BRANCH   8   9
ATOM      9  C   UNL     1      31.754 -35.379  11.225  1.00  0.00     0.281 C 
ATOM     10  C   UNL     1      29.001 -35.350   8.769  1.00  0.00     0.041 C 
ATOM     11  C   UNL     1      29.863 -34.845   9.931  1.00  0.00     0.150 C 
ATOM     12  C   UNL     1      28.980 -34.480  11.157  1.00  0.00     0.174 C 
ATOM     13  O   UNL     1      30.821 -35.844  10.256  1.00  0.00    -0.344 OA
ATOM     14  C   UNL     1      29.850 -34.099  12.382  1.00  0.00     0.179 C 
ATOM     15  C   UNL     1      31.040 -35.070  12.569  1.00  0.00     0.202 C 
BRANCH  12  16
ATOM     16  O   UNL     1      28.085 -35.516  11.489  1.00  0.00    -0.388 OA
ATOM     17  H   UNL     1      27.478 -35.667  10.715  1.00  0.00     0.211 HD
ENDBRANCH  12  16
BRANCH  14  18
ATOM     18  O   UNL     1      30.298 -32.763  12.322  1.00  0.00    -0.387 OA
ATOM     19  H   UNL     1      31.248 -32.762  12.039  1.00  0.00     0.211 HD
ENDBRANCH  14  18
BRANCH  15  20
ATOM     20  O   UNL     1      30.587 -36.283  13.121  1.00  0.00    -0.385 OA
ATOM     21  H   UNL     1      30.432 -36.907  12.360  1.00  0.00     0.211 HD
ENDBRANCH  15  20
ENDBRANCH   8   9
ENDBRANCH   7   8
ENDBRANCH   1   7
BRANCH   2  22
ATOM     22  O   UNL     1      32.553 -35.470   8.231  1.00  0.00    -0.387 OA
ATOM     23  H   UNL     1      32.328 -36.003   9.035  1.00  0.00     0.211 HD
ENDBRANCH   2  22
BRANCH   3  24
ATOM     24  O   UNL     1      35.763 -35.306   6.562  1.00  0.00    -0.387 OA
ATOM     25  H   UNL     1      35.802 -36.295   6.512  1.00  0.00     0.211 HD
ENDBRANCH   3  24
BRANCH   5  26
ATOM     26  O   UNL     1      36.011 -32.415   7.785  1.00  0.00    -0.462 OA
BRANCH  26  27
ATOM     27  C   UNL     1      36.658 -31.693   8.798  1.00  0.00     0.130 A 
ATOM     28  C   UNL     1      35.946 -31.400   9.970  1.00  0.00     0.093 A 
ATOM     29  C   UNL     1      37.985 -31.250   8.672  1.00  0.00     0.094 A 
ATOM     30  C   UNL     1      36.553 -30.696  11.020  1.00  0.00     0.133 A 
ATOM     31  C   UNL     1      38.597 -30.544   9.712  1.00  0.00     0.138 A 
ATOM     32  C   UNL     1      37.892 -30.265  10.897  1.00  0.00     0.102 A 
ATOM     33  O   UNL     1      39.911 -30.098   9.542  1.00  0.00    -0.484 OA
ATOM     34  C   UNL     1      38.569 -29.456  11.937  1.00  0.00     0.174 C 
ATOM     35  C   UNL     1      40.739 -29.674  10.627  1.00  0.00     0.211 C 
ATOM     36  O   UNL     1      37.989 -29.182  13.023  1.00  0.00    -0.294 OA
ATOM     37  C   UNL     1      39.935 -28.877  11.680  1.00  0.00     0.131 C 
BRANCH  30  38
ATOM     38  O   UNL     1      35.820 -30.415  12.174  1.00  0.00    -0.507 OA
ATOM     39  H   UNL     1      35.508 -29.474  12.390  1.00  0.00     0.293 HD
ENDBRANCH  30  38
BRANCH  35  40
ATOM     40  C   UNL     1      41.504 -30.868  11.180  1.00  0.00    -0.003 A 
ATOM     41  C   UNL     1      42.107 -31.837  10.355  1.00  0.00     0.057 A 
ATOM     42  C   UNL     1      41.684 -30.970  12.569  1.00  0.00     0.011 A 
ATOM     43  C   UNL     1      42.800 -32.930  10.905  1.00  0.00     0.158 A 
ATOM     44  C   UNL     1      42.355 -32.062  13.124  1.00  0.00     0.051 A 
ATOM     45  C   UNL     1      42.888 -33.067  12.309  1.00  0.00     0.160 A 
BRANCH  43  46
ATOM     46  O   UNL     1      43.404 -33.851  10.052  1.00  0.00    -0.504 OA
ATOM     47  H   UNL     1      44.343 -33.718   9.694  1.00  0.00     0.293 HD
ENDBRANCH  43  46
BRANCH  45  48
ATOM     48  O   UNL     1      43.477 -34.170  12.960  1.00  0.00    -0.493 OA
ATOM     49  C   UNL     1      44.857 -34.509  12.906  1.00  0.00     0.278 C 
ENDBRANCH  45  48
ENDBRANCH  35  40
ENDBRANCH  26  27
ENDBRANCH   5  26
BRANCH   4  50
ATOM     50  O   UNL     1      32.866 -33.215   6.088  1.00  0.00    -0.384 OA
ATOM     51  H   UNL     1      32.822 -32.343   5.618  1.00  0.00     0.211 HD
ENDBRANCH   4  50
TORSDOF 15
ENDMDL
