MODEL 1
REMARK VINA RESULT:    -4.246      0.000      0.000
REMARK INTER + INTRA:         -11.153
REMARK INTER:                  -8.217
REMARK INTRA:                  -2.936
REMARK UNBOUND:                -2.936
REMARK SMILES CCCCCCCCCCCCCCCCCC(=O)[O-]
REMARK SMILES IDX 10 1 11 2 12 3 13 4 14 5 15 6 16 7 17 8 18 9 19 10 20 11
REMARK SMILES IDX 9 12 8 13 7 14 6 15 5 16 4 17 3 18 2 19 1 20
REMARK H PARENT
REMARK Flexibility Score: inf
ROOT
ATOM      1  C   UNL     1     -16.215  -5.268  31.458  1.00  0.00     0.000 C 
ENDROOT
BRANCH   1   2
ATOM      2  C   UNL     1     -17.455  -4.882  32.282  1.00  0.00     0.000 C 
BRANCH   2   3
ATOM      3  C   UNL     1     -17.905  -3.434  32.027  1.00  0.00     0.000 C 
BRANCH   3   4
ATOM      4  C   UNL     1     -16.723  -2.479  31.805  1.00  0.00     0.000 C 
BRANCH   4   5
ATOM      5  C   UNL     1     -16.809  -1.271  32.750  1.00  0.00     0.000 C 
BRANCH   5   6
ATOM      6  C   UNL     1     -17.562  -1.584  34.056  1.00  0.00     0.000 C 
BRANCH   6   7
ATOM      7  C   UNL     1     -16.774  -1.292  35.347  1.00  0.00     0.006 C 
BRANCH   7   8
ATOM      8  C   UNL     1     -17.662  -0.768  36.483  1.00  0.00     0.053 C 
BRANCH   8   9
ATOM      9  C   UNL     1     -18.118   0.626  36.189  1.00  0.00     0.041 C 
ATOM     10  O   UNL     1     -17.287   1.571  36.151  1.00  0.00    -0.550 OA
ATOM     11  O   UNL     1     -19.457   0.877  35.911  1.00  0.00    -0.550 OA
ENDBRANCH   8   9
ENDBRANCH   7   8
ENDBRANCH   6   7
ENDBRANCH   5   6
ENDBRANCH   4   5
ENDBRANCH   3   4
ENDBRANCH   2   3
ENDBRANCH   1   2
BRANCH   1  12
ATOM     12  C   UNL     1     -15.568  -6.575  31.942  1.00  0.00     0.000 C 
BRANCH  12  13
ATOM     13  C   UNL     1     -14.043  -6.591  31.744  1.00  0.00    -0.000 C 
BRANCH  13  14
ATOM     14  C   UNL     1     -13.290  -6.954  33.042  1.00  0.00    -0.000 C 
BRANCH  14  15
ATOM     15  C   UNL     1     -12.674  -5.740  33.765  1.00  0.00    -0.000 C 
BRANCH  15  16
ATOM     16  C   UNL     1     -13.013  -4.372  33.150  1.00  0.00    -0.000 C 
BRANCH  16  17
ATOM     17  C   UNL     1     -14.056  -3.591  33.965  1.00  0.00    -0.000 C 
BRANCH  17  18
ATOM     18  C   UNL     1     -14.418  -4.287  35.289  1.00  0.00    -0.000 C 
BRANCH  18  19
ATOM     19  C   UNL     1     -15.866  -4.799  35.375  1.00  0.00    -0.003 C 
ATOM     20  C   UNL     1     -15.954  -6.292  35.691  1.00  0.00     0.004 C 
ENDBRANCH  18  19
ENDBRANCH  17  18
ENDBRANCH  16  17
ENDBRANCH  15  16
ENDBRANCH  14  15
ENDBRANCH  13  14
ENDBRANCH  12  13
ENDBRANCH   1  12
TORSDOF 16
ENDMDL
MODEL 2
REMARK VINA RESULT:    -4.239      1.639      2.993
REMARK INTER + INTRA:         -11.139
REMARK INTER:                  -9.514
REMARK INTRA:                  -1.625
REMARK UNBOUND:                -2.936
REMARK SMILES CCCCCCCCCCCCCCCCCC(=O)[O-]
REMARK SMILES IDX 10 1 11 2 12 3 13 4 14 5 15 6 16 7 17 8 18 9 19 10 20 11
REMARK SMILES IDX 9 12 8 13 7 14 6 15 5 16 4 17 3 18 2 19 1 20
REMARK H PARENT
REMARK Flexibility Score: inf
ROOT
ATOM      1  C   UNL     1     -15.697  -3.211  31.367  1.00  0.00     0.000 C 
ENDROOT
BRANCH   1   2
ATOM      2  C   UNL     1     -16.596  -2.020  31.740  1.00  0.00     0.000 C 
BRANCH   2   3
ATOM      3  C   UNL     1     -17.980  -2.460  32.241  1.00  0.00     0.000 C 
BRANCH   3   4
ATOM      4  C   UNL     1     -18.327  -1.871  33.616  1.00  0.00     0.000 C 
BRANCH   4   5
ATOM      5  C   UNL     1     -17.153  -2.036  34.594  1.00  0.00     0.000 C 
BRANCH   5   6
ATOM      6  C   UNL     1     -17.172  -1.002  35.734  1.00  0.00     0.000 C 
BRANCH   6   7
ATOM      7  C   UNL     1     -18.080   0.218  35.490  1.00  0.00     0.006 C 
BRANCH   7   8
ATOM      8  C   UNL     1     -17.629   1.462  36.267  1.00  0.00     0.053 C 
BRANCH   8   9
ATOM      9  C   UNL     1     -18.387   1.578  37.553  1.00  0.00     0.041 C 
ATOM     10  O   UNL     1     -18.116   2.499  38.368  1.00  0.00    -0.550 OA
ATOM     11  O   UNL     1     -19.425   0.697  37.831  1.00  0.00    -0.550 OA
ENDBRANCH   8   9
ENDBRANCH   7   8
ENDBRANCH   6   7
ENDBRANCH   5   6
ENDBRANCH   4   5
ENDBRANCH   3   4
ENDBRANCH   2   3
ENDBRANCH   1   2
BRANCH   1  12
ATOM     12  C   UNL     1     -14.226  -2.982  31.747  1.00  0.00     0.000 C 
BRANCH  12  13
ATOM     13  C   UNL     1     -14.001  -2.965  33.269  1.00  0.00    -0.000 C 
BRANCH  13  14
ATOM     14  C   UNL     1     -13.308  -4.249  33.771  1.00  0.00    -0.000 C 
BRANCH  14  15
ATOM     15  C   UNL     1     -12.994  -5.265  32.656  1.00  0.00    -0.000 C 
BRANCH  15  16
ATOM     16  C   UNL     1     -13.122  -6.742  33.064  1.00  0.00    -0.000 C 
BRANCH  16  17
ATOM     17  C   UNL     1     -13.661  -7.631  31.931  1.00  0.00    -0.000 C 
BRANCH  17  18
ATOM     18  C   UNL     1     -15.186  -7.828  32.004  1.00  0.00    -0.000 C 
BRANCH  18  19
ATOM     19  C   UNL     1     -16.005  -6.848  31.147  1.00  0.00    -0.003 C 
ATOM     20  C   UNL     1     -17.303  -6.405  31.821  1.00  0.00     0.004 C 
ENDBRANCH  18  19
ENDBRANCH  17  18
ENDBRANCH  16  17
ENDBRANCH  15  16
ENDBRANCH  14  15
ENDBRANCH  13  14
ENDBRANCH  12  13
ENDBRANCH   1  12
TORSDOF 16
ENDMDL
MODEL 3
REMARK VINA RESULT:    -4.228      1.303      3.566
REMARK INTER + INTRA:         -11.119
REMARK INTER:                  -8.754
REMARK INTRA:                  -2.365
REMARK UNBOUND:                -2.936
REMARK SMILES CCCCCCCCCCCCCCCCCC(=O)[O-]
REMARK SMILES IDX 10 1 11 2 12 3 13 4 14 5 15 6 16 7 17 8 18 9 19 10 20 11
REMARK SMILES IDX 9 12 8 13 7 14 6 15 5 16 4 17 3 18 2 19 1 20
REMARK H PARENT
REMARK Flexibility Score: inf
ROOT
ATOM      1  C   UNL     1     -13.218  -3.903  32.950  1.00  0.00     0.000 C 
ENDROOT
BRANCH   1   2
ATOM      2  C   UNL     1     -13.613  -4.046  34.430  1.00  0.00     0.000 C 
BRANCH   2   3
ATOM      3  C   UNL     1     -14.482  -2.878  34.923  1.00  0.00     0.000 C 
BRANCH   3   4
ATOM      4  C   UNL     1     -15.107  -3.147  36.301  1.00  0.00     0.000 C 
BRANCH   4   5
ATOM      5  C   UNL     1     -16.412  -2.356  36.474  1.00  0.00     0.000 C 
BRANCH   5   6
ATOM      6  C   UNL     1     -16.770  -1.511  35.238  1.00  0.00     0.000 C 
BRANCH   6   7
ATOM      7  C   UNL     1     -17.827  -0.417  35.482  1.00  0.00     0.006 C 
BRANCH   7   8
ATOM      8  C   UNL     1     -17.805   0.124  36.918  1.00  0.00     0.053 C 
BRANCH   8   9
ATOM      9  C   UNL     1     -17.875   1.619  36.914  1.00  0.00     0.041 C 
ATOM     10  O   UNL     1     -17.856   2.252  35.826  1.00  0.00    -0.550 OA
ATOM     11  O   UNL     1     -18.008   2.313  38.111  1.00  0.00    -0.550 OA
ENDBRANCH   8   9
ENDBRANCH   7   8
ENDBRANCH   6   7
ENDBRANCH   5   6
ENDBRANCH   4   5
ENDBRANCH   3   4
ENDBRANCH   2   3
ENDBRANCH   1   2
BRANCH   1  12
ATOM     12  C   UNL     1     -13.084  -5.259  32.241  1.00  0.00     0.000 C 
BRANCH  12  13
ATOM     13  C   UNL     1     -13.689  -6.416  33.054  1.00  0.00    -0.000 C 
BRANCH  13  14
ATOM     14  C   UNL     1     -14.972  -6.978  32.404  1.00  0.00    -0.000 C 
BRANCH  14  15
ATOM     15  C   UNL     1     -16.273  -6.436  33.027  1.00  0.00    -0.000 C 
BRANCH  15  16
ATOM     16  C   UNL     1     -17.090  -5.499  32.121  1.00  0.00    -0.000 C 
BRANCH  16  17
ATOM     17  C   UNL     1     -17.192  -4.069  32.677  1.00  0.00    -0.000 C 
BRANCH  17  18
ATOM     18  C   UNL     1     -16.600  -3.017  31.724  1.00  0.00    -0.000 C 
BRANCH  18  19
ATOM     19  C   UNL     1     -17.549  -1.860  31.368  1.00  0.00    -0.003 C 
ATOM     20  C   UNL     1     -18.983  -2.097  31.842  1.00  0.00     0.004 C 
ENDBRANCH  18  19
ENDBRANCH  17  18
ENDBRANCH  16  17
ENDBRANCH  15  16
ENDBRANCH  14  15
ENDBRANCH  13  14
ENDBRANCH  12  13
ENDBRANCH   1  12
TORSDOF 16
ENDMDL
MODEL 4
REMARK VINA RESULT:    -4.218      1.175      2.193
REMARK INTER + INTRA:         -11.100
REMARK INTER:                  -8.905
REMARK INTRA:                  -2.195
REMARK UNBOUND:                -2.936
REMARK SMILES CCCCCCCCCCCCCCCCCC(=O)[O-]
REMARK SMILES IDX 10 1 11 2 12 3 13 4 14 5 15 6 16 7 17 8 18 9 19 10 20 11
REMARK SMILES IDX 9 12 8 13 7 14 6 15 5 16 4 17 3 18 2 19 1 20
REMARK H PARENT
REMARK Flexibility Score: inf
ROOT
ATOM      1  C   UNL     1     -17.484  -4.501  32.339  1.00  0.00     0.000 C 
ENDROOT
BRANCH   1   2
ATOM      2  C   UNL     1     -16.410  -3.439  32.049  1.00  0.00     0.000 C 
BRANCH   2   3
ATOM      3  C   UNL     1     -16.644  -2.136  32.829  1.00  0.00     0.000 C 
BRANCH   3   4
ATOM      4  C   UNL     1     -17.516  -2.343  34.077  1.00  0.00     0.000 C 
BRANCH   4   5
ATOM      5  C   UNL     1     -17.526  -1.081  34.954  1.00  0.00     0.000 C 
BRANCH   5   6
ATOM      6  C   UNL     1     -16.966  -1.329  36.367  1.00  0.00     0.000 C 
BRANCH   6   7
ATOM      7  C   UNL     1     -17.820  -0.757  37.513  1.00  0.00     0.006 C 
BRANCH   7   8
ATOM      8  C   UNL     1     -18.902   0.216  37.025  1.00  0.00     0.053 C 
BRANCH   8   9
ATOM      9  C   UNL     1     -18.452   1.631  37.206  1.00  0.00     0.041 C 
ATOM     10  O   UNL     1     -18.674   2.234  38.289  1.00  0.00    -0.550 OA
ATOM     11  O   UNL     1     -17.746   2.273  36.195  1.00  0.00    -0.550 OA
ENDBRANCH   8   9
ENDBRANCH   7   8
ENDBRANCH   6   7
ENDBRANCH   5   6
ENDBRANCH   4   5
ENDBRANCH   3   4
ENDBRANCH   2   3
ENDBRANCH   1   2
BRANCH   1  12
ATOM     12  C   UNL     1     -16.955  -5.935  32.181  1.00  0.00     0.000 C 
BRANCH  12  13
ATOM     13  C   UNL     1     -15.743  -6.019  31.237  1.00  0.00    -0.000 C 
BRANCH  13  14
ATOM     14  C   UNL     1     -14.754  -7.129  31.654  1.00  0.00    -0.000 C 
BRANCH  14  15
ATOM     15  C   UNL     1     -13.327  -6.620  31.933  1.00  0.00    -0.000 C 
BRANCH  15  16
ATOM     16  C   UNL     1     -12.988  -6.407  33.417  1.00  0.00    -0.000 C 
BRANCH  16  17
ATOM     17  C   UNL     1     -13.190  -4.953  33.875  1.00  0.00    -0.000 C 
BRANCH  17  18
ATOM     18  C   UNL     1     -14.438  -4.776  34.759  1.00  0.00    -0.000 C 
BRANCH  18  19
ATOM     19  C   UNL     1     -14.289  -3.739  35.885  1.00  0.00    -0.003 C 
ATOM     20  C   UNL     1     -13.483  -2.511  35.464  1.00  0.00     0.004 C 
ENDBRANCH  18  19
ENDBRANCH  17  18
ENDBRANCH  16  17
ENDBRANCH  15  16
ENDBRANCH  14  15
ENDBRANCH  13  14
ENDBRANCH  12  13
ENDBRANCH   1  12
TORSDOF 16
ENDMDL
MODEL 5
REMARK VINA RESULT:    -4.216      1.241      3.781
REMARK INTER + INTRA:         -11.094
REMARK INTER:                  -8.405
REMARK INTRA:                  -2.690
REMARK UNBOUND:                -2.936
REMARK SMILES CCCCCCCCCCCCCCCCCC(=O)[O-]
REMARK SMILES IDX 10 1 11 2 12 3 13 4 14 5 15 6 16 7 17 8 18 9 19 10 20 11
REMARK SMILES IDX 9 12 8 13 7 14 6 15 5 16 4 17 3 18 2 19 1 20
REMARK H PARENT
REMARK Flexibility Score: inf
ROOT
ATOM      1  C   UNL     1     -13.177  -5.590  33.321  1.00  0.00     0.000 C 
ENDROOT
BRANCH   1   2
ATOM      2  C   UNL     1     -13.341  -4.075  33.108  1.00  0.00     0.000 C 
BRANCH   2   3
ATOM      3  C   UNL     1     -13.759  -3.341  34.393  1.00  0.00     0.000 C 
BRANCH   3   4
ATOM      4  C   UNL     1     -14.572  -4.232  35.344  1.00  0.00     0.000 C 
BRANCH   4   5
ATOM      5  C   UNL     1     -15.552  -3.392  36.177  1.00  0.00     0.000 C 
BRANCH   5   6
ATOM      6  C   UNL     1     -16.011  -2.113  35.454  1.00  0.00     0.000 C 
BRANCH   6   7
ATOM      7  C   UNL     1     -17.356  -1.540  35.938  1.00  0.00     0.006 C 
BRANCH   7   8
ATOM      8  C   UNL     1     -17.604  -0.107  35.449  1.00  0.00     0.053 C 
BRANCH   8   9
ATOM      9  C   UNL     1     -17.889   0.799  36.606  1.00  0.00     0.041 C 
ATOM     10  O   UNL     1     -18.101   0.318  37.750  1.00  0.00    -0.550 OA
ATOM     11  O   UNL     1     -17.873   2.178  36.431  1.00  0.00    -0.550 OA
ENDBRANCH   8   9
ENDBRANCH   7   8
ENDBRANCH   6   7
ENDBRANCH   5   6
ENDBRANCH   4   5
ENDBRANCH   3   4
ENDBRANCH   2   3
ENDBRANCH   1   2
BRANCH   1  12
ATOM     12  C   UNL     1     -14.071  -6.417  32.385  1.00  0.00     0.000 C 
BRANCH  12  13
ATOM     13  C   UNL     1     -15.150  -7.211  33.142  1.00  0.00    -0.000 C 
BRANCH  13  14
ATOM     14  C   UNL     1     -16.555  -6.593  32.973  1.00  0.00    -0.000 C 
BRANCH  14  15
ATOM     15  C   UNL     1     -16.609  -5.436  31.957  1.00  0.00    -0.000 C 
BRANCH  15  16
ATOM     16  C   UNL     1     -17.147  -4.106  32.511  1.00  0.00    -0.000 C 
BRANCH  16  17
ATOM     17  C   UNL     1     -16.645  -2.884  31.724  1.00  0.00    -0.000 C 
BRANCH  17  18
ATOM     18  C   UNL     1     -17.550  -1.651  31.900  1.00  0.00    -0.000 C 
BRANCH  18  19
ATOM     19  C   UNL     1     -19.017  -1.970  32.238  1.00  0.00    -0.003 C 
ATOM     20  C   UNL     1     -19.921  -1.998  31.007  1.00  0.00     0.004 C 
ENDBRANCH  18  19
ENDBRANCH  17  18
ENDBRANCH  16  17
ENDBRANCH  15  16
ENDBRANCH  14  15
ENDBRANCH  13  14
ENDBRANCH  12  13
ENDBRANCH   1  12
TORSDOF 16
ENDMDL
MODEL 6
REMARK VINA RESULT:    -4.173      1.437      3.864
REMARK INTER + INTRA:         -11.011
REMARK INTER:                  -8.717
REMARK INTRA:                  -2.294
REMARK UNBOUND:                -2.936
REMARK SMILES CCCCCCCCCCCCCCCCCC(=O)[O-]
REMARK SMILES IDX 10 1 11 2 12 3 13 4 14 5 15 6 16 7 17 8 18 9 19 10 20 11
REMARK SMILES IDX 9 12 8 13 7 14 6 15 5 16 4 17 3 18 2 19 1 20
REMARK H PARENT
REMARK Flexibility Score: inf
ROOT
ATOM      1  C   UNL     1     -14.020  -2.931  32.283  1.00  0.00     0.000 C 
ENDROOT
BRANCH   1   2
ATOM      2  C   UNL     1     -13.510  -4.103  33.138  1.00  0.00     0.000 C 
BRANCH   2   3
ATOM      3  C   UNL     1     -14.013  -4.037  34.589  1.00  0.00     0.000 C 
BRANCH   3   4
ATOM      4  C   UNL     1     -14.611  -2.668  34.945  1.00  0.00     0.000 C 
BRANCH   4   5
ATOM      5  C   UNL     1     -16.065  -2.812  35.419  1.00  0.00     0.000 C 
BRANCH   5   6
ATOM      6  C   UNL     1     -16.476  -1.728  36.432  1.00  0.00     0.000 C 
BRANCH   6   7
ATOM      7  C   UNL     1     -17.474  -0.683  35.897  1.00  0.00     0.006 C 
BRANCH   7   8
ATOM      8  C   UNL     1     -18.286  -0.009  37.011  1.00  0.00     0.053 C 
BRANCH   8   9
ATOM      9  C   UNL     1     -17.979   1.454  37.069  1.00  0.00     0.041 C 
ATOM     10  O   UNL     1     -17.828   2.027  38.180  1.00  0.00    -0.550 OA
ATOM     11  O   UNL     1     -17.813   2.178  35.894  1.00  0.00    -0.550 OA
ENDBRANCH   8   9
ENDBRANCH   7   8
ENDBRANCH   6   7
ENDBRANCH   5   6
ENDBRANCH   4   5
ENDBRANCH   3   4
ENDBRANCH   2   3
ENDBRANCH   1   2
BRANCH   1  12
ATOM     12  C   UNL     1     -15.191  -3.330  31.372  1.00  0.00     0.000 C 
BRANCH  12  13
ATOM     13  C   UNL     1     -16.474  -2.536  31.672  1.00  0.00    -0.000 C 
BRANCH  13  14
ATOM     14  C   UNL     1     -17.628  -3.448  32.141  1.00  0.00    -0.000 C 
BRANCH  14  15
ATOM     15  C   UNL     1     -17.178  -4.866  32.542  1.00  0.00    -0.000 C 
BRANCH  15  16
ATOM     16  C   UNL     1     -17.868  -6.010  31.780  1.00  0.00    -0.000 C 
BRANCH  16  17
ATOM     17  C   UNL     1     -16.959  -7.236  31.590  1.00  0.00    -0.000 C 
BRANCH  17  18
ATOM     18  C   UNL     1     -15.649  -6.896  30.857  1.00  0.00    -0.000 C 
BRANCH  18  19
ATOM     19  C   UNL     1     -14.367  -7.200  31.651  1.00  0.00    -0.003 C 
ATOM     20  C   UNL     1     -14.643  -7.859  33.001  1.00  0.00     0.004 C 
ENDBRANCH  18  19
ENDBRANCH  17  18
ENDBRANCH  16  17
ENDBRANCH  15  16
ENDBRANCH  14  15
ENDBRANCH  13  14
ENDBRANCH  12  13
ENDBRANCH   1  12
TORSDOF 16
ENDMDL
MODEL 7
REMARK VINA RESULT:    -4.100      1.312      2.238
REMARK INTER + INTRA:         -10.872
REMARK INTER:                  -8.310
REMARK INTRA:                  -2.561
REMARK UNBOUND:                -2.936
REMARK SMILES CCCCCCCCCCCCCCCCCC(=O)[O-]
REMARK SMILES IDX 10 1 11 2 12 3 13 4 14 5 15 6 16 7 17 8 18 9 19 10 20 11
REMARK SMILES IDX 9 12 8 13 7 14 6 15 5 16 4 17 3 18 2 19 1 20
REMARK H PARENT
REMARK Flexibility Score: inf
ROOT
ATOM      1  C   UNL     1     -15.165  -3.003  31.590  1.00  0.00     0.000 C 
ENDROOT
BRANCH   1   2
ATOM      2  C   UNL     1     -15.965  -4.294  31.840  1.00  0.00     0.000 C 
BRANCH   2   3
ATOM      3  C   UNL     1     -17.351  -4.020  32.445  1.00  0.00     0.000 C 
BRANCH   3   4
ATOM      4  C   UNL     1     -17.857  -2.601  32.146  1.00  0.00     0.000 C 
BRANCH   4   5
ATOM      5  C   UNL     1     -18.312  -1.900  33.435  1.00  0.00     0.000 C 
BRANCH   5   6
ATOM      6  C   UNL     1     -17.137  -1.475  34.334  1.00  0.00     0.000 C 
BRANCH   6   7
ATOM      7  C   UNL     1     -17.543  -0.890  35.700  1.00  0.00     0.006 C 
BRANCH   7   8
ATOM      8  C   UNL     1     -18.181   0.501  35.589  1.00  0.00     0.053 C 
BRANCH   8   9
ATOM      9  C   UNL     1     -18.566   1.010  36.942  1.00  0.00     0.041 C 
ATOM     10  O   UNL     1     -19.380   0.365  37.655  1.00  0.00    -0.550 OA
ATOM     11  O   UNL     1     -17.989   2.174  37.438  1.00  0.00    -0.550 OA
ENDBRANCH   8   9
ENDBRANCH   7   8
ENDBRANCH   6   7
ENDBRANCH   5   6
ENDBRANCH   4   5
ENDBRANCH   3   4
ENDBRANCH   2   3
ENDBRANCH   1   2
BRANCH   1  12
ATOM     12  C   UNL     1     -13.760  -3.049  32.209  1.00  0.00     0.000 C 
BRANCH  12  13
ATOM     13  C   UNL     1     -13.131  -4.451  32.150  1.00  0.00    -0.000 C 
BRANCH  13  14
ATOM     14  C   UNL     1     -12.594  -4.909  33.523  1.00  0.00    -0.000 C 
BRANCH  14  15
ATOM     15  C   UNL     1     -13.141  -6.274  33.983  1.00  0.00    -0.000 C 
BRANCH  15  16
ATOM     16  C   UNL     1     -13.925  -6.251  35.306  1.00  0.00    -0.000 C 
BRANCH  16  17
ATOM     17  C   UNL     1     -15.413  -5.913  35.113  1.00  0.00    -0.000 C 
BRANCH  17  18
ATOM     18  C   UNL     1     -15.812  -4.584  35.780  1.00  0.00    -0.000 C 
BRANCH  18  19
ATOM     19  C   UNL     1     -14.677  -3.877  36.539  1.00  0.00    -0.003 C 
ATOM     20  C   UNL     1     -14.130  -2.658  35.798  1.00  0.00     0.004 C 
ENDBRANCH  18  19
ENDBRANCH  17  18
ENDBRANCH  16  17
ENDBRANCH  15  16
ENDBRANCH  14  15
ENDBRANCH  13  14
ENDBRANCH  12  13
ENDBRANCH   1  12
TORSDOF 16
ENDMDL
MODEL 8
REMARK VINA RESULT:    -4.092      1.348      3.235
REMARK INTER + INTRA:         -10.856
REMARK INTER:                  -8.434
REMARK INTRA:                  -2.422
REMARK UNBOUND:                -2.936
REMARK SMILES CCCCCCCCCCCCCCCCCC(=O)[O-]
REMARK SMILES IDX 10 1 11 2 12 3 13 4 14 5 15 6 16 7 17 8 18 9 19 10 20 11
REMARK SMILES IDX 9 12 8 13 7 14 6 15 5 16 4 17 3 18 2 19 1 20
REMARK H PARENT
REMARK Flexibility Score: inf
ROOT
ATOM      1  C   UNL     1     -15.919  -6.278  33.611  1.00  0.00     0.000 C 
ENDROOT
BRANCH   1   2
ATOM      2  C   UNL     1     -16.099  -5.075  34.552  1.00  0.00     0.000 C 
BRANCH   2   3
ATOM      3  C   UNL     1     -15.579  -5.353  35.971  1.00  0.00     0.000 C 
BRANCH   3   4
ATOM      4  C   UNL     1     -15.295  -4.065  36.760  1.00  0.00     0.000 C 
BRANCH   4   5
ATOM      5  C   UNL     1     -15.908  -2.845  36.055  1.00  0.00     0.000 C 
BRANCH   5   6
ATOM      6  C   UNL     1     -16.879  -2.058  36.954  1.00  0.00     0.000 C 
BRANCH   6   7
ATOM      7  C   UNL     1     -17.362  -0.717  36.371  1.00  0.00     0.006 C 
BRANCH   7   8
ATOM      8  C   UNL     1     -18.290   0.048  37.324  1.00  0.00     0.053 C 
BRANCH   8   9
ATOM      9  C   UNL     1     -18.022   1.518  37.246  1.00  0.00     0.041 C 
ATOM     10  O   UNL     1     -17.792   2.178  38.294  1.00  0.00    -0.550 OA
ATOM     11  O   UNL     1     -17.981   2.154  36.010  1.00  0.00    -0.550 OA
ENDBRANCH   8   9
ENDBRANCH   7   8
ENDBRANCH   6   7
ENDBRANCH   5   6
ENDBRANCH   4   5
ENDBRANCH   3   4
ENDBRANCH   2   3
ENDBRANCH   1   2
BRANCH   1  12
ATOM     12  C   UNL     1     -14.982  -5.972  32.433  1.00  0.00     0.000 C 
BRANCH  12  13
ATOM     13  C   UNL     1     -13.502  -5.919  32.849  1.00  0.00    -0.000 C 
BRANCH  13  14
ATOM     14  C   UNL     1     -12.907  -4.502  32.711  1.00  0.00    -0.000 C 
BRANCH  14  15
ATOM     15  C   UNL     1     -13.829  -3.508  31.978  1.00  0.00    -0.000 C 
BRANCH  15  16
ATOM     16  C   UNL     1     -14.183  -2.239  32.771  1.00  0.00    -0.000 C 
BRANCH  16  17
ATOM     17  C   UNL     1     -15.666  -1.852  32.648  1.00  0.00    -0.000 C 
BRANCH  17  18
ATOM     18  C   UNL     1     -16.406  -2.667  31.572  1.00  0.00    -0.000 C 
BRANCH  18  19
ATOM     19  C   UNL     1     -17.805  -3.157  31.982  1.00  0.00    -0.003 C 
ATOM     20  C   UNL     1     -18.657  -2.064  32.626  1.00  0.00     0.004 C 
ENDBRANCH  18  19
ENDBRANCH  17  18
ENDBRANCH  16  17
ENDBRANCH  15  16
ENDBRANCH  14  15
ENDBRANCH  13  14
ENDBRANCH  12  13
ENDBRANCH   1  12
TORSDOF 16
ENDMDL
MODEL 9
REMARK VINA RESULT:    -4.069      1.328      2.813
REMARK INTER + INTRA:         -10.811
REMARK INTER:                  -8.123
REMARK INTRA:                  -2.688
REMARK UNBOUND:                -2.936
REMARK SMILES CCCCCCCCCCCCCCCCCC(=O)[O-]
REMARK SMILES IDX 10 1 11 2 12 3 13 4 14 5 15 6 16 7 17 8 18 9 19 10 20 11
REMARK SMILES IDX 9 12 8 13 7 14 6 15 5 16 4 17 3 18 2 19 1 20
REMARK H PARENT
REMARK Flexibility Score: inf
ROOT
ATOM      1  C   UNL     1     -13.062  -4.355  33.742  1.00  0.00     0.000 C 
ENDROOT
BRANCH   1   2
ATOM      2  C   UNL     1     -13.784  -3.006  33.583  1.00  0.00     0.000 C 
BRANCH   2   3
ATOM      3  C   UNL     1     -14.747  -2.990  32.385  1.00  0.00     0.000 C 
BRANCH   3   4
ATOM      4  C   UNL     1     -15.807  -1.884  32.494  1.00  0.00     0.000 C 
BRANCH   4   5
ATOM      5  C   UNL     1     -17.221  -2.483  32.525  1.00  0.00     0.000 C 
BRANCH   5   6
ATOM      6  C   UNL     1     -18.079  -1.937  33.680  1.00  0.00     0.000 C 
BRANCH   6   7
ATOM      7  C   UNL     1     -17.322  -1.713  35.003  1.00  0.00     0.006 C 
BRANCH   7   8
ATOM      8  C   UNL     1     -17.556  -0.318  35.596  1.00  0.00     0.053 C 
BRANCH   8   9
ATOM      9  C   UNL     1     -17.900  -0.418  37.049  1.00  0.00     0.041 C 
ATOM     10  O   UNL     1     -18.892   0.205  37.510  1.00  0.00    -0.550 OA
ATOM     11  O   UNL     1     -17.153  -1.238  37.887  1.00  0.00    -0.550 OA
ENDBRANCH   8   9
ENDBRANCH   7   8
ENDBRANCH   6   7
ENDBRANCH   5   6
ENDBRANCH   4   5
ENDBRANCH   3   4
ENDBRANCH   2   3
ENDBRANCH   1   2
BRANCH   1  12
ATOM     12  C   UNL     1     -13.009  -5.155  32.431  1.00  0.00     0.000 C 
BRANCH  12  13
ATOM     13  C   UNL     1     -13.032  -6.675  32.663  1.00  0.00    -0.000 C 
BRANCH  13  14
ATOM     14  C   UNL     1     -14.029  -7.393  31.727  1.00  0.00    -0.000 C 
BRANCH  14  15
ATOM     15  C   UNL     1     -15.161  -6.484  31.208  1.00  0.00    -0.000 C 
BRANCH  15  16
ATOM     16  C   UNL     1     -16.580  -7.054  31.367  1.00  0.00    -0.000 C 
BRANCH  16  17
ATOM     17  C   UNL     1     -17.044  -7.105  32.833  1.00  0.00    -0.000 C 
BRANCH  17  18
ATOM     18  C   UNL     1     -16.618  -5.861  33.634  1.00  0.00    -0.000 C 
BRANCH  18  19
ATOM     19  C   UNL     1     -15.948  -6.162  34.985  1.00  0.00    -0.003 C 
ATOM     20  C   UNL     1     -15.956  -4.966  35.936  1.00  0.00     0.004 C 
ENDBRANCH  18  19
ENDBRANCH  17  18
ENDBRANCH  16  17
ENDBRANCH  15  16
ENDBRANCH  14  15
ENDBRANCH  13  14
ENDBRANCH  12  13
ENDBRANCH   1  12
TORSDOF 16
ENDMDL
