MODEL 1
REMARK VINA RESULT:    -3.355      0.000      0.000
REMARK INTER + INTRA:          -4.002
REMARK INTER:                  -3.944
REMARK INTRA:                  -0.058
REMARK UNBOUND:                -0.058
REMARK SMILES CCCCC(=O)[O-]
REMARK SMILES IDX 4 1 5 2 6 3 7 4 3 5 2 6 1 7
REMARK H PARENT
REMARK Flexibility Score: inf
ROOT
ATOM      1  C   UNL     1      29.435  -1.355  45.888  1.00  0.00     0.053 C 
ENDROOT
BRANCH   1   2
ATOM      2  C   UNL     1      30.249  -1.995  44.808  1.00  0.00     0.041 C 
ATOM      3  O   UNL     1      30.149  -1.595  43.618  1.00  0.00    -0.550 OA
ATOM      4  O   UNL     1      31.156  -2.999  45.122  1.00  0.00    -0.550 OA
ENDBRANCH   1   2
BRANCH   1   5
ATOM      5  C   UNL     1      27.997  -1.889  45.860  1.00  0.00     0.006 C 
BRANCH   5   6
ATOM      6  C   UNL     1      27.842  -3.202  46.643  1.00  0.00    -0.003 C 
ATOM      7  C   UNL     1      26.557  -3.250  47.470  1.00  0.00     0.004 C 
ENDBRANCH   5   6
ENDBRANCH   1   5
TORSDOF 3
ENDMDL
MODEL 2
REMARK VINA RESULT:    -3.324      0.178      1.232
REMARK INTER + INTRA:          -3.965
REMARK INTER:                  -3.915
REMARK INTRA:                  -0.050
REMARK UNBOUND:                -0.058
REMARK SMILES CCCCC(=O)[O-]
REMARK SMILES IDX 4 1 5 2 6 3 7 4 3 5 2 6 1 7
REMARK H PARENT
REMARK Flexibility Score: inf
ROOT
ATOM      1  C   UNL     1      29.475  -1.511  45.979  1.00  0.00     0.053 C 
ENDROOT
BRANCH   1   2
ATOM      2  C   UNL     1      30.384  -2.046  44.917  1.00  0.00     0.041 C 
ATOM      3  O   UNL     1      31.122  -3.038  45.155  1.00  0.00    -0.550 OA
ATOM      4  O   UNL     1      30.380  -1.480  43.648  1.00  0.00    -0.550 OA
ENDBRANCH   1   2
BRANCH   1   5
ATOM      5  C   UNL     1      28.070  -2.108  45.830  1.00  0.00     0.006 C 
BRANCH   5   6
ATOM      6  C   UNL     1      27.859  -3.344  46.718  1.00  0.00    -0.003 C 
ATOM      7  C   UNL     1      26.550  -3.290  47.506  1.00  0.00     0.004 C 
ENDBRANCH   5   6
ENDBRANCH   1   5
TORSDOF 3
ENDMDL
MODEL 3
REMARK VINA RESULT:    -3.151      2.603      4.034
REMARK INTER + INTRA:          -3.762
REMARK INTER:                  -3.734
REMARK INTRA:                  -0.028
REMARK UNBOUND:                -0.058
REMARK SMILES CCCCC(=O)[O-]
REMARK SMILES IDX 4 1 5 2 6 3 7 4 3 5 2 6 1 7
REMARK H PARENT
REMARK Flexibility Score: inf
ROOT
ATOM      1  C   UNL     1      28.517  -3.100  46.047  1.00  0.00     0.053 C 
ENDROOT
BRANCH   1   2
ATOM      2  C   UNL     1      27.304  -2.331  46.466  1.00  0.00     0.041 C 
ATOM      3  O   UNL     1      26.414  -2.882  47.167  1.00  0.00    -0.550 OA
ATOM      4  O   UNL     1      27.178  -0.990  46.124  1.00  0.00    -0.550 OA
ENDBRANCH   1   2
BRANCH   1   5
ATOM      5  C   UNL     1      29.782  -2.256  46.251  1.00  0.00     0.006 C 
BRANCH   5   6
ATOM      6  C   UNL     1      30.902  -2.628  45.268  1.00  0.00    -0.003 C 
ATOM      7  C   UNL     1      31.104  -1.577  44.175  1.00  0.00     0.004 C 
ENDBRANCH   5   6
ENDBRANCH   1   5
TORSDOF 3
ENDMDL
MODEL 4
REMARK VINA RESULT:    -3.136      1.989      3.547
REMARK INTER + INTRA:          -3.744
REMARK INTER:                  -3.694
REMARK INTRA:                  -0.051
REMARK UNBOUND:                -0.058
REMARK SMILES CCCCC(=O)[O-]
REMARK SMILES IDX 4 1 5 2 6 3 7 4 3 5 2 6 1 7
REMARK H PARENT
REMARK Flexibility Score: inf
ROOT
ATOM      1  C   UNL     1      28.367  -1.739  45.666  1.00  0.00     0.053 C 
ENDROOT
BRANCH   1   2
ATOM      2  C   UNL     1      28.207  -3.150  46.138  1.00  0.00     0.041 C 
ATOM      3  O   UNL     1      27.453  -3.411  47.113  1.00  0.00    -0.550 OA
ATOM      4  O   UNL     1      28.850  -4.185  45.470  1.00  0.00    -0.550 OA
ENDBRANCH   1   2
BRANCH   1   5
ATOM      5  C   UNL     1      29.693  -1.155  46.169  1.00  0.00     0.006 C 
BRANCH   5   6
ATOM      6  C   UNL     1      30.875  -1.503  45.252  1.00  0.00    -0.003 C 
ATOM      7  C   UNL     1      30.498  -1.491  43.770  1.00  0.00     0.004 C 
ENDBRANCH   5   6
ENDBRANCH   1   5
TORSDOF 3
ENDMDL
MODEL 5
REMARK VINA RESULT:    -3.117      2.181      3.100
REMARK INTER + INTRA:          -3.722
REMARK INTER:                  -3.624
REMARK INTRA:                  -0.097
REMARK UNBOUND:                -0.058
REMARK SMILES CCCCC(=O)[O-]
REMARK SMILES IDX 4 1 5 2 6 3 7 4 3 5 2 6 1 7
REMARK H PARENT
REMARK Flexibility Score: inf
ROOT
ATOM      1  C   UNL     1      28.585  -2.103  43.981  1.00  0.00     0.053 C 
ENDROOT
BRANCH   1   2
ATOM      2  C   UNL     1      28.941  -1.170  42.866  1.00  0.00     0.041 C 
ATOM      3  O   UNL     1      30.120  -1.130  42.425  1.00  0.00    -0.550 OA
ATOM      4  O   UNL     1      27.960  -0.380  42.280  1.00  0.00    -0.550 OA
ENDBRANCH   1   2
BRANCH   1   5
ATOM      5  C   UNL     1      28.358  -1.320  45.280  1.00  0.00     0.006 C 
BRANCH   5   6
ATOM      6  C   UNL     1      29.663  -1.069  46.051  1.00  0.00    -0.003 C 
ATOM      7  C   UNL     1      30.664  -2.215  45.910  1.00  0.00     0.004 C 
ENDBRANCH   5   6
ENDBRANCH   1   5
TORSDOF 3
ENDMDL
MODEL 6
REMARK VINA RESULT:    -2.871     12.941     14.131
REMARK INTER + INTRA:          -3.432
REMARK INTER:                  -3.321
REMARK INTRA:                  -0.111
REMARK UNBOUND:                -0.058
REMARK SMILES CCCCC(=O)[O-]
REMARK SMILES IDX 4 1 5 2 6 3 7 4 3 5 2 6 1 7
REMARK H PARENT
REMARK Flexibility Score: inf
ROOT
ATOM      1  C   UNL     1      20.385 -13.493  44.278  1.00  0.00     0.053 C 
ENDROOT
BRANCH   1   2
ATOM      2  C   UNL     1      20.400 -14.237  45.576  1.00  0.00     0.041 C 
ATOM      3  O   UNL     1      20.389 -13.609  46.668  1.00  0.00    -0.550 OA
ATOM      4  O   UNL     1      20.377 -15.626  45.582  1.00  0.00    -0.550 OA
ENDBRANCH   1   2
BRANCH   1   5
ATOM      5  C   UNL     1      21.750 -13.597  43.586  1.00  0.00     0.006 C 
BRANCH   5   6
ATOM      6  C   UNL     1      22.792 -12.646  44.193  1.00  0.00    -0.003 C 
ATOM      7  C   UNL     1      22.236 -11.245  44.449  1.00  0.00     0.004 C 
ENDBRANCH   5   6
ENDBRANCH   1   5
TORSDOF 3
ENDMDL
MODEL 7
REMARK VINA RESULT:    -2.832      2.392      3.495
REMARK INTER + INTRA:          -3.387
REMARK INTER:                  -3.274
REMARK INTRA:                  -0.113
REMARK UNBOUND:                -0.058
REMARK SMILES CCCCC(=O)[O-]
REMARK SMILES IDX 4 1 5 2 6 3 7 4 3 5 2 6 1 7
REMARK H PARENT
REMARK Flexibility Score: inf
ROOT
ATOM      1  C   UNL     1      29.615  -1.912  45.594  1.00  0.00     0.053 C 
ENDROOT
BRANCH   1   2
ATOM      2  C   UNL     1      28.784  -3.135  45.826  1.00  0.00     0.041 C 
ATOM      3  O   UNL     1      29.081  -4.220  45.260  1.00  0.00    -0.550 OA
ATOM      4  O   UNL     1      27.710  -3.089  46.706  1.00  0.00    -0.550 OA
ENDBRANCH   1   2
BRANCH   1   5
ATOM      5  C   UNL     1      29.809  -1.676  44.090  1.00  0.00     0.006 C 
BRANCH   5   6
ATOM      6  C   UNL     1      28.527  -1.185  43.401  1.00  0.00    -0.003 C 
ATOM      7  C   UNL     1      28.266  -1.886  42.067  1.00  0.00     0.004 C 
ENDBRANCH   5   6
ENDBRANCH   1   5
TORSDOF 3
ENDMDL
MODEL 8
REMARK VINA RESULT:    -2.778     12.036     13.091
REMARK INTER + INTRA:          -3.323
REMARK INTER:                  -3.203
REMARK INTRA:                  -0.120
REMARK UNBOUND:                -0.058
REMARK SMILES CCCCC(=O)[O-]
REMARK SMILES IDX 4 1 5 2 6 3 7 4 3 5 2 6 1 7
REMARK H PARENT
REMARK Flexibility Score: inf
ROOT
ATOM      1  C   UNL     1      22.634 -12.862  44.112  1.00  0.00     0.053 C 
ENDROOT
BRANCH   1   2
ATOM      2  C   UNL     1      22.089 -11.622  44.749  1.00  0.00     0.041 C 
ATOM      3  O   UNL     1      21.853 -11.595  45.985  1.00  0.00    -0.550 OA
ATOM      4  O   UNL     1      21.888 -10.480  43.985  1.00  0.00    -0.550 OA
ENDBRANCH   1   2
BRANCH   1   5
ATOM      5  C   UNL     1      21.621 -13.441  43.116  1.00  0.00     0.006 C 
BRANCH   5   6
ATOM      6  C   UNL     1      20.273 -13.775  43.774  1.00  0.00    -0.003 C 
ATOM      7  C   UNL     1      20.371 -14.929  44.771  1.00  0.00     0.004 C 
ENDBRANCH   5   6
ENDBRANCH   1   5
TORSDOF 3
ENDMDL
MODEL 9
REMARK VINA RESULT:    -2.766     12.063     13.121
REMARK INTER + INTRA:          -3.309
REMARK INTER:                  -3.241
REMARK INTRA:                  -0.069
REMARK UNBOUND:                -0.058
REMARK SMILES CCCCC(=O)[O-]
REMARK SMILES IDX 4 1 5 2 6 3 7 4 3 5 2 6 1 7
REMARK H PARENT
REMARK Flexibility Score: inf
ROOT
ATOM      1  C   UNL     1      22.452 -12.824  44.077  1.00  0.00     0.053 C 
ENDROOT
BRANCH   1   2
ATOM      2  C   UNL     1      21.567 -13.779  43.338  1.00  0.00     0.041 C 
ATOM      3  O   UNL     1      21.610 -13.841  42.081  1.00  0.00    -0.550 OA
ATOM      4  O   UNL     1      20.729 -14.636  44.040  1.00  0.00    -0.550 OA
ENDBRANCH   1   2
BRANCH   1   5
ATOM      5  C   UNL     1      21.871 -12.522  45.464  1.00  0.00     0.006 C 
BRANCH   5   6
ATOM      6  C   UNL     1      21.398 -11.066  45.599  1.00  0.00    -0.003 C 
ATOM      7  C   UNL     1      21.859 -10.184  44.439  1.00  0.00     0.004 C 
ENDBRANCH   5   6
ENDBRANCH   1   5
TORSDOF 3
ENDMDL
