MODEL 1
REMARK VINA RESULT:    -4.351      0.000      0.000
REMARK INTER + INTRA:          -5.483
REMARK INTER:                  -5.241
REMARK INTRA:                  -0.242
REMARK UNBOUND:                -0.242
REMARK SMILES NC(=O)C[C@H]([NH3+])C(=O)[O-]
REMARK SMILES IDX 4 1 5 2 6 3 7 7 8 8 9 9 2 10 3 11 1 12
REMARK H PARENT 6 4 6 5 6 6 1 13 1 14
REMARK Flexibility Score: inf
ROOT
ATOM      1  C   UNL     1     157.497 167.179 231.245  1.00  0.00     0.171 C 
ENDROOT
BRANCH   1   2
ATOM      2  C   UNL     1     157.039 166.860 229.805  1.00  0.00     0.237 C 
BRANCH   2   3
ATOM      3  N   UNL     1     155.694 167.386 229.532  1.00  0.00    -0.350 N 
ATOM      4  H   UNL     1     155.435 168.084 230.268  1.00  0.00     0.345 HD
ATOM      5  H   UNL     1     154.997 166.608 229.560  1.00  0.00     0.345 HD
ATOM      6  H   UNL     1     155.652 167.851 228.596  1.00  0.00     0.345 HD
ENDBRANCH   2   3
BRANCH   2   7
ATOM      7  C   UNL     1     157.114 165.382 229.519  1.00  0.00     0.100 C 
ATOM      8  O   UNL     1     156.058 164.697 229.473  1.00  0.00    -0.544 OA
ATOM      9  O   UNL     1     158.335 164.773 229.254  1.00  0.00    -0.544 OA
ENDBRANCH   2   7
ENDBRANCH   1   2
BRANCH   1  10
ATOM     10  C   UNL     1     158.947 167.570 231.334  1.00  0.00     0.223 C 
ATOM     11  O   UNL     1     159.400 168.058 232.404  1.00  0.00    -0.275 OA
ATOM     12  N   UNL     1     159.812 167.409 230.209  1.00  0.00    -0.369 N 
ATOM     13  H   UNL     1     159.452 167.014 229.313  1.00  0.00     0.159 HD
ATOM     14  H   UNL     1     160.815 167.690 230.272  1.00  0.00     0.159 HD
ENDBRANCH   1  10
TORSDOF 4
ENDMDL
MODEL 2
REMARK VINA RESULT:    -4.347     13.925     14.960
REMARK INTER + INTRA:          -5.479
REMARK INTER:                  -5.060
REMARK INTRA:                  -0.419
REMARK UNBOUND:                -0.242
REMARK SMILES NC(=O)C[C@H]([NH3+])C(=O)[O-]
REMARK SMILES IDX 4 1 5 2 6 3 7 7 8 8 9 9 2 10 3 11 1 12
REMARK H PARENT 6 4 6 5 6 6 1 13 1 14
REMARK Flexibility Score: inf
ROOT
ATOM      1  C   UNL     1     160.840 151.191 230.914  1.00  0.00     0.171 C 
ENDROOT
BRANCH   1   2
ATOM      2  C   UNL     1     159.354 151.608 230.884  1.00  0.00     0.237 C 
BRANCH   2   3
ATOM      3  N   UNL     1     158.574 150.777 229.954  1.00  0.00    -0.350 N 
ATOM      4  H   UNL     1     158.461 151.282 229.045  1.00  0.00     0.345 HD
ATOM      5  H   UNL     1     157.623 150.601 230.350  1.00  0.00     0.345 HD
ATOM      6  H   UNL     1     159.047 149.861 229.777  1.00  0.00     0.345 HD
ENDBRANCH   2   3
BRANCH   2   7
ATOM      7  C   UNL     1     159.200 153.073 230.565  1.00  0.00     0.100 C 
ATOM      8  O   UNL     1     158.583 153.428 229.526  1.00  0.00    -0.544 OA
ATOM      9  O   UNL     1     159.689 154.043 231.432  1.00  0.00    -0.544 OA
ENDBRANCH   2   7
ENDBRANCH   1   2
BRANCH   1  10
ATOM     10  C   UNL     1     161.572 151.506 229.639  1.00  0.00     0.223 C 
ATOM     11  O   UNL     1     161.219 150.954 228.562  1.00  0.00    -0.275 OA
ATOM     12  N   UNL     1     162.674 152.413 229.640  1.00  0.00    -0.369 N 
ATOM     13  H   UNL     1     162.985 152.873 230.524  1.00  0.00     0.159 HD
ATOM     14  H   UNL     1     163.185 152.622 228.754  1.00  0.00     0.159 HD
ENDBRANCH   1  10
TORSDOF 4
ENDMDL
MODEL 3
REMARK VINA RESULT:    -4.344      1.969      3.266
REMARK INTER + INTRA:          -5.475
REMARK INTER:                  -5.055
REMARK INTRA:                  -0.420
REMARK UNBOUND:                -0.242
REMARK SMILES NC(=O)C[C@H]([NH3+])C(=O)[O-]
REMARK SMILES IDX 4 1 5 2 6 3 7 7 8 8 9 9 2 10 3 11 1 12
REMARK H PARENT 6 4 6 5 6 6 1 13 1 14
REMARK Flexibility Score: inf
ROOT
ATOM      1  C   UNL     1     157.170 166.835 230.936  1.00  0.00     0.171 C 
ENDROOT
BRANCH   1   2
ATOM      2  C   UNL     1     158.652 166.400 230.938  1.00  0.00     0.237 C 
BRANCH   2   3
ATOM      3  N   UNL     1     159.463 167.225 230.030  1.00  0.00    -0.350 N 
ATOM      4  H   UNL     1     159.185 168.229 230.128  1.00  0.00     0.345 HD
ATOM      5  H   UNL     1     159.293 166.934 229.041  1.00  0.00     0.345 HD
ATOM      6  H   UNL     1     160.482 167.134 230.245  1.00  0.00     0.345 HD
ENDBRANCH   2   3
BRANCH   2   7
ATOM      7  C   UNL     1     158.795 164.935 230.616  1.00  0.00     0.100 C 
ATOM      8  O   UNL     1     159.449 164.575 229.601  1.00  0.00    -0.544 OA
ATOM      9  O   UNL     1     158.256 163.968 231.457  1.00  0.00    -0.544 OA
ENDBRANCH   2   7
ENDBRANCH   1   2
BRANCH   1  10
ATOM     10  C   UNL     1     156.458 166.512 229.652  1.00  0.00     0.223 C 
ATOM     11  O   UNL     1     156.832 167.051 228.575  1.00  0.00    -0.275 OA
ATOM     12  N   UNL     1     155.349 165.613 229.643  1.00  0.00    -0.369 N 
ATOM     13  H   UNL     1     155.021 165.163 230.526  1.00  0.00     0.159 HD
ATOM     14  H   UNL     1     154.851 165.398 228.751  1.00  0.00     0.159 HD
ENDBRANCH   1  10
TORSDOF 4
ENDMDL
MODEL 4
REMARK VINA RESULT:    -4.328      2.014      2.307
REMARK INTER + INTRA:          -5.456
REMARK INTER:                  -5.356
REMARK INTRA:                  -0.100
REMARK UNBOUND:                -0.242
REMARK SMILES NC(=O)C[C@H]([NH3+])C(=O)[O-]
REMARK SMILES IDX 4 1 5 2 6 3 7 7 8 8 9 9 2 10 3 11 1 12
REMARK H PARENT 6 4 6 5 6 6 1 13 1 14
REMARK Flexibility Score: inf
ROOT
ATOM      1  C   UNL     1     157.453 165.994 230.434  1.00  0.00     0.171 C 
ENDROOT
BRANCH   1   2
ATOM      2  C   UNL     1     156.446 165.184 229.589  1.00  0.00     0.237 C 
BRANCH   2   3
ATOM      3  N   UNL     1     155.098 165.770 229.639  1.00  0.00    -0.350 N 
ATOM      4  H   UNL     1     154.414 165.110 229.202  1.00  0.00     0.345 HD
ATOM      5  H   UNL     1     155.080 166.664 229.098  1.00  0.00     0.345 HD
ATOM      6  H   UNL     1     154.804 165.960 230.624  1.00  0.00     0.345 HD
ENDBRANCH   2   3
BRANCH   2   7
ATOM      7  C   UNL     1     156.424 163.734 229.999  1.00  0.00     0.100 C 
ATOM      8  O   UNL     1     156.110 162.849 229.160  1.00  0.00    -0.544 OA
ATOM      9  O   UNL     1     156.798 163.355 231.283  1.00  0.00    -0.544 OA
ENDBRANCH   2   7
ENDBRANCH   1   2
BRANCH   1  10
ATOM     10  C   UNL     1     158.696 166.371 229.675  1.00  0.00     0.223 C 
ATOM     11  O   UNL     1     158.947 165.820 228.570  1.00  0.00    -0.275 OA
ATOM     12  N   UNL     1     159.604 167.336 230.205  1.00  0.00    -0.369 N 
ATOM     13  H   UNL     1     159.417 167.798 231.123  1.00  0.00     0.159 HD
ATOM     14  H   UNL     1     160.471 167.589 229.680  1.00  0.00     0.159 HD
ENDBRANCH   1  10
TORSDOF 4
ENDMDL
MODEL 5
REMARK VINA RESULT:    -4.317      1.989      3.786
REMARK INTER + INTRA:          -5.442
REMARK INTER:                  -5.371
REMARK INTRA:                  -0.071
REMARK UNBOUND:                -0.242
REMARK SMILES NC(=O)C[C@H]([NH3+])C(=O)[O-]
REMARK SMILES IDX 4 1 5 2 6 3 7 7 8 8 9 9 2 10 3 11 1 12
REMARK H PARENT 6 4 6 5 6 6 1 13 1 14
REMARK Flexibility Score: inf
ROOT
ATOM      1  C   UNL     1     157.212 165.119 229.226  1.00  0.00     0.171 C 
ENDROOT
BRANCH   1   2
ATOM      2  C   UNL     1     156.765 166.478 229.806  1.00  0.00     0.237 C 
BRANCH   2   3
ATOM      3  N   UNL     1     156.033 167.279 228.814  1.00  0.00    -0.350 N 
ATOM      4  H   UNL     1     155.187 166.752 228.494  1.00  0.00     0.345 HD
ATOM      5  H   UNL     1     156.641 167.456 227.982  1.00  0.00     0.345 HD
ATOM      6  H   UNL     1     155.728 168.195 229.217  1.00  0.00     0.345 HD
ENDBRANCH   2   3
BRANCH   2   7
ATOM      7  C   UNL     1     157.932 167.245 230.371  1.00  0.00     0.100 C 
ATOM      8  O   UNL     1     157.758 168.026 231.344  1.00  0.00    -0.544 OA
ATOM      9  O   UNL     1     159.213 167.064 229.864  1.00  0.00    -0.544 OA
ENDBRANCH   2   7
ENDBRANCH   1   2
BRANCH   1  10
ATOM     10  C   UNL     1     156.367 163.966 229.694  1.00  0.00     0.223 C 
ATOM     11  O   UNL     1     156.435 163.586 230.894  1.00  0.00    -0.275 OA
ATOM     12  N   UNL     1     155.500 163.287 228.786  1.00  0.00    -0.369 N 
ATOM     13  H   UNL     1     155.437 163.583 227.787  1.00  0.00     0.159 HD
ATOM     14  H   UNL     1     154.922 162.481 229.113  1.00  0.00     0.159 HD
ENDBRANCH   1  10
TORSDOF 4
ENDMDL
MODEL 6
REMARK VINA RESULT:    -4.316     13.665     14.893
REMARK INTER + INTRA:          -5.441
REMARK INTER:                  -5.362
REMARK INTRA:                  -0.079
REMARK UNBOUND:                -0.242
REMARK SMILES NC(=O)C[C@H]([NH3+])C(=O)[O-]
REMARK SMILES IDX 4 1 5 2 6 3 7 7 8 8 9 9 2 10 3 11 1 12
REMARK H PARENT 6 4 6 5 6 6 1 13 1 14
REMARK Flexibility Score: inf
ROOT
ATOM      1  C   UNL     1     160.672 152.158 230.906  1.00  0.00     0.171 C 
ENDROOT
BRANCH   1   2
ATOM      2  C   UNL     1     161.442 152.881 229.781  1.00  0.00     0.237 C 
BRANCH   2   3
ATOM      3  N   UNL     1     162.749 152.257 229.525  1.00  0.00    -0.350 N 
ATOM      4  H   UNL     1     162.643 151.507 228.804  1.00  0.00     0.345 HD
ATOM      5  H   UNL     1     163.109 151.818 230.403  1.00  0.00     0.345 HD
ATOM      6  H   UNL     1     163.444 152.960 229.183  1.00  0.00     0.345 HD
ENDBRANCH   2   3
BRANCH   2   7
ATOM      7  C   UNL     1     161.590 154.353 230.073  1.00  0.00     0.100 C 
ATOM      8  O   UNL     1     161.906 155.148 229.149  1.00  0.00    -0.544 OA
ATOM      9  O   UNL     1     161.331 154.852 231.344  1.00  0.00    -0.544 OA
ENDBRANCH   2   7
ENDBRANCH   1   2
BRANCH   1  10
ATOM     10  C   UNL     1     159.886 150.971 230.419  1.00  0.00     0.223 C 
ATOM     11  O   UNL     1     159.025 151.120 229.511  1.00  0.00    -0.275 OA
ATOM     12  N   UNL     1     160.095 149.680 230.991  1.00  0.00    -0.369 N 
ATOM     13  H   UNL     1     160.798 149.539 231.749  1.00  0.00     0.159 HD
ATOM     14  H   UNL     1     159.541 148.860 230.657  1.00  0.00     0.159 HD
ENDBRANCH   1  10
TORSDOF 4
ENDMDL
MODEL 7
REMARK VINA RESULT:    -4.275     13.417     14.510
REMARK INTER + INTRA:          -5.392
REMARK INTER:                  -5.193
REMARK INTRA:                  -0.199
REMARK UNBOUND:                -0.242
REMARK SMILES NC(=O)C[C@H]([NH3+])C(=O)[O-]
REMARK SMILES IDX 4 1 5 2 6 3 7 7 8 8 9 9 2 10 3 11 1 12
REMARK H PARENT 6 4 6 5 6 6 1 13 1 14
REMARK Flexibility Score: inf
ROOT
ATOM      1  C   UNL     1     159.441 151.957 229.131  1.00  0.00     0.171 C 
ENDROOT
BRANCH   1   2
ATOM      2  C   UNL     1     159.247 153.197 230.029  1.00  0.00     0.237 C 
BRANCH   2   3
ATOM      3  N   UNL     1     158.309 154.160 229.433  1.00  0.00    -0.350 N 
ATOM      4  H   UNL     1     158.230 153.981 228.405  1.00  0.00     0.345 HD
ATOM      5  H   UNL     1     158.667 155.133 229.568  1.00  0.00     0.345 HD
ATOM      6  H   UNL     1     157.360 154.081 229.865  1.00  0.00     0.345 HD
ENDBRANCH   2   3
BRANCH   2   7
ATOM      7  C   UNL     1     160.565 153.851 230.356  1.00  0.00     0.100 C 
ATOM      8  O   UNL     1     160.888 154.045 231.558  1.00  0.00    -0.544 OA
ATOM      9  O   UNL     1     161.454 154.199 229.346  1.00  0.00    -0.544 OA
ENDBRANCH   2   7
ENDBRANCH   1   2
BRANCH   1  10
ATOM     10  C   UNL     1     160.520 151.032 229.621  1.00  0.00     0.223 C 
ATOM     11  O   UNL     1     160.342 150.363 230.675  1.00  0.00    -0.275 OA
ATOM     12  N   UNL     1     161.755 150.918 228.913  1.00  0.00    -0.369 N 
ATOM     13  H   UNL     1     161.923 151.469 228.043  1.00  0.00     0.159 HD
ATOM     14  H   UNL     1     162.506 150.282 229.262  1.00  0.00     0.159 HD
ENDBRANCH   1  10
TORSDOF 4
ENDMDL
MODEL 8
REMARK VINA RESULT:    -4.225     14.120     14.806
REMARK INTER + INTRA:          -5.332
REMARK INTER:                  -5.152
REMARK INTRA:                  -0.180
REMARK UNBOUND:                -0.242
REMARK SMILES NC(=O)C[C@H]([NH3+])C(=O)[O-]
REMARK SMILES IDX 4 1 5 2 6 3 7 7 8 8 9 9 2 10 3 11 1 12
REMARK H PARENT 6 4 6 5 6 6 1 13 1 14
REMARK Flexibility Score: inf
ROOT
ATOM      1  C   UNL     1     160.182 152.378 229.243  1.00  0.00     0.171 C 
ENDROOT
BRANCH   1   2
ATOM      2  C   UNL     1     159.794 151.322 230.301  1.00  0.00     0.237 C 
BRANCH   2   3
ATOM      3  N   UNL     1     158.471 150.741 230.032  1.00  0.00    -0.350 N 
ATOM      4  H   UNL     1     158.223 150.886 229.025  1.00  0.00     0.345 HD
ATOM      5  H   UNL     1     157.748 151.217 230.618  1.00  0.00     0.345 HD
ATOM      6  H   UNL     1     158.459 149.715 230.238  1.00  0.00     0.345 HD
ENDBRANCH   2   3
BRANCH   2   7
ATOM      7  C   UNL     1     159.866 151.889 231.696  1.00  0.00     0.100 C 
ATOM      8  O   UNL     1     160.730 151.459 232.505  1.00  0.00    -0.544 OA
ATOM      9  O   UNL     1     159.020 152.921 232.087  1.00  0.00    -0.544 OA
ENDBRANCH   2   7
ENDBRANCH   1   2
BRANCH   1  10
ATOM     10  C   UNL     1     161.495 153.052 229.531  1.00  0.00     0.223 C 
ATOM     11  O   UNL     1     161.528 154.293 229.746  1.00  0.00    -0.275 OA
ATOM     12  N   UNL     1     162.709 152.300 229.543  1.00  0.00    -0.369 N 
ATOM     13  H   UNL     1     162.701 151.273 229.358  1.00  0.00     0.159 HD
ATOM     14  H   UNL     1     163.620 152.773 229.733  1.00  0.00     0.159 HD
ENDBRANCH   1  10
TORSDOF 4
ENDMDL
MODEL 9
REMARK VINA RESULT:    -4.195      1.646      3.872
REMARK INTER + INTRA:          -5.295
REMARK INTER:                  -5.107
REMARK INTRA:                  -0.188
REMARK UNBOUND:                -0.242
REMARK SMILES NC(=O)C[C@H]([NH3+])C(=O)[O-]
REMARK SMILES IDX 4 1 5 2 6 3 7 7 8 8 9 9 2 10 3 11 1 12
REMARK H PARENT 6 4 6 5 6 6 1 13 1 14
REMARK Flexibility Score: inf
ROOT
ATOM      1  C   UNL     1     157.817 165.637 229.214  1.00  0.00     0.171 C 
ENDROOT
BRANCH   1   2
ATOM      2  C   UNL     1     158.230 166.668 230.286  1.00  0.00     0.237 C 
BRANCH   2   3
ATOM      3  N   UNL     1     159.553 167.247 230.005  1.00  0.00    -0.350 N 
ATOM      4  H   UNL     1     160.271 166.789 230.613  1.00  0.00     0.345 HD
ATOM      5  H   UNL     1     159.546 168.269 230.221  1.00  0.00     0.345 HD
ATOM      6  H   UNL     1     159.820 167.110 229.003  1.00  0.00     0.345 HD
ENDBRANCH   2   3
BRANCH   2   7
ATOM      7  C   UNL     1     158.180 166.073 231.670  1.00  0.00     0.100 C 
ATOM      8  O   UNL     1     159.025 165.204 232.011  1.00  0.00    -0.544 OA
ATOM      9  O   UNL     1     157.240 166.510 232.596  1.00  0.00    -0.544 OA
ENDBRANCH   2   7
ENDBRANCH   1   2
BRANCH   1  10
ATOM     10  C   UNL     1     156.505 164.965 229.512  1.00  0.00     0.223 C 
ATOM     11  O   UNL     1     156.471 163.723 229.724  1.00  0.00    -0.275 OA
ATOM     12  N   UNL     1     155.293 165.719 229.539  1.00  0.00    -0.369 N 
ATOM     13  H   UNL     1     155.301 166.747 229.358  1.00  0.00     0.159 HD
ATOM     14  H   UNL     1     154.383 165.247 229.736  1.00  0.00     0.159 HD
ENDBRANCH   1  10
TORSDOF 4
ENDMDL
