MODEL 1
REMARK VINA RESULT:    -3.293      0.000      0.000
REMARK INTER + INTRA:          -5.230
REMARK INTER:                  -5.025
REMARK INTRA:                  -0.204
REMARK UNBOUND:                -0.204
REMARK SMILES CC1=CCC[C@@H](C)C(=O)C[C@@H](C(C)C)C(=O)C1
REMARK SMILES IDX 8 1 9 2 6 3 7 4 5 5 4 6 3 7 2 8 1 9 10 11 11 12 15 13 16 14
REMARK SMILES IDX 17 15 12 17 13 18 14 19
REMARK H PARENT
REMARK Flexibility Score: 70.00
ROOT
ATOM      1  C   UNL     1     120.937 125.220 107.743  1.00  0.00     0.136 C 
ATOM      2  O   UNL     1     122.077 125.405 108.143  1.00  0.00    -0.299 OA
ENDROOT
BRANCH   1   3
ATOM      3  C   UNL     1     120.005 126.406 107.564  1.00  0.00     0.053 C 
ATOM      4  C   UNL     1     120.800 127.718 107.554  1.00  0.00     0.016 C 
BRANCH   3   5
ATOM      5  C   UNL     1     118.936 126.417 108.679  1.00  0.00     0.015 C 
BRANCH   5   6
ATOM      6  C   UNL     1     117.509 126.250 108.117  1.00  0.00     0.028 C 
BRANCH   6   7
ATOM      7  C   UNL     1     116.821 125.066 108.748  1.00  0.00    -0.028 C 
ATOM      8  C   UNL     1     116.603 123.881 108.131  1.00  0.00    -0.070 CG0
ATOM      9  C   UNL     1     115.976 122.769 108.933  1.00  0.00     0.039 C 
ATOM     10  G   UNL     1     116.942 123.639 106.668  1.00  0.00     0.000 G0
ENDBRANCH   6   7
ENDBRANCH   5   6
ENDBRANCH   3   5
ENDBRANCH   1   3
BRANCH   1  11
ATOM     11  C   UNL     1     120.475 123.812 107.440  1.00  0.00     0.087 C 
BRANCH  11  12
ATOM     12  C   UNL     1     119.536 123.672 106.200  1.00  0.00     0.066 C 
BRANCH  12  13
ATOM     13  C   UNL     1     118.251 122.895 106.478  1.00  0.00     0.140 C 
ATOM     14  O   UNL     1     118.262 121.673 106.494  1.00  0.00    -0.299 OA
BRANCH  13  15
ATOM     15  C   UNL     1     116.938 123.620 106.653  1.00  0.00     0.106 CG0
ATOM     16  G   UNL     1     116.615 123.889 108.115  1.00  0.00     0.000 G0
ENDBRANCH  13  15
ENDBRANCH  12  13
BRANCH  12  17
ATOM     17  C   UNL     1     120.279 123.211 104.906  1.00  0.00    -0.006 C 
ATOM     18  C   UNL     1     119.414 123.214 103.634  1.00  0.00     0.008 C 
ATOM     19  C   UNL     1     121.564 124.024 104.674  1.00  0.00     0.008 C 
ENDBRANCH  12  17
ENDBRANCH  11  12
ENDBRANCH   1  11
TORSDOF 1
ENDMDL
MODEL 2
REMARK VINA RESULT:    -3.256      2.502      4.263
REMARK INTER + INTRA:          -5.174
REMARK INTER:                  -5.079
REMARK INTRA:                  -0.095
REMARK UNBOUND:                -0.204
REMARK SMILES CC1=CCC[C@@H](C)C(=O)C[C@@H](C(C)C)C(=O)C1
REMARK SMILES IDX 8 1 9 2 6 3 7 4 5 5 4 6 3 7 2 8 1 9 10 11 11 12 15 13 16 14
REMARK SMILES IDX 17 15 12 17 13 18 14 19
REMARK H PARENT
REMARK Flexibility Score: 70.00
ROOT
ATOM      1  C   UNL     1     116.115 126.935 108.947  1.00  0.00     0.136 C 
ATOM      2  O   UNL     1     115.608 127.993 109.288  1.00  0.00    -0.299 OA
ENDROOT
BRANCH   1   3
ATOM      3  C   UNL     1     115.270 125.898 108.226  1.00  0.00     0.053 C 
ATOM      4  C   UNL     1     114.068 126.564 107.543  1.00  0.00     0.016 C 
BRANCH   3   5
ATOM      5  C   UNL     1     114.807 124.805 109.215  1.00  0.00     0.015 C 
BRANCH   5   6
ATOM      6  C   UNL     1     115.407 123.425 108.878  1.00  0.00     0.028 C 
BRANCH   6   7
ATOM      7  C   UNL     1     116.228 122.902 110.030  1.00  0.00    -0.028 C 
ATOM      8  C   UNL     1     117.579 122.828 110.043  1.00  0.00    -0.070 CG0
ATOM      9  C   UNL     1     118.251 122.359 111.309  1.00  0.00     0.039 C 
ATOM     10  G   UNL     1     118.436 123.172 108.834  1.00  0.00     0.000 G0
ENDBRANCH   6   7
ENDBRANCH   5   6
ENDBRANCH   3   5
ENDBRANCH   1   3
BRANCH   1  11
ATOM     11  C   UNL     1     117.573 126.675 109.255  1.00  0.00     0.087 C 
BRANCH  11  12
ATOM     12  C   UNL     1     118.311 125.742 108.245  1.00  0.00     0.066 C 
BRANCH  12  13
ATOM     13  C   UNL     1     119.038 124.568 108.898  1.00  0.00     0.140 C 
ATOM     14  O   UNL     1     120.132 124.733 109.417  1.00  0.00    -0.299 OA
BRANCH  13  15
ATOM     15  C   UNL     1     118.454 123.176 108.840  1.00  0.00     0.106 CG0
ATOM     16  G   UNL     1     117.587 122.860 110.049  1.00  0.00     0.000 G0
ENDBRANCH  13  15
ENDBRANCH  12  13
BRANCH  12  17
ATOM     17  C   UNL     1     119.182 126.517 107.204  1.00  0.00    -0.006 C 
ATOM     18  C   UNL     1     120.276 127.405 107.821  1.00  0.00     0.008 C 
ATOM     19  C   UNL     1     119.795 125.567 106.163  1.00  0.00     0.008 C 
ENDBRANCH  12  17
ENDBRANCH  11  12
ENDBRANCH   1  11
TORSDOF 1
ENDMDL
MODEL 3
REMARK VINA RESULT:    -3.230     11.878     14.880
REMARK INTER + INTRA:          -5.133
REMARK INTER:                  -4.917
REMARK INTRA:                  -0.217
REMARK UNBOUND:                -0.204
REMARK SMILES CC1=CCC[C@@H](C)C(=O)C[C@@H](C(C)C)C(=O)C1
REMARK SMILES IDX 8 1 9 2 6 3 7 4 5 5 4 6 3 7 2 8 1 9 10 11 11 12 15 13 16 14
REMARK SMILES IDX 17 15 12 17 13 18 14 19
REMARK H PARENT
REMARK Flexibility Score: 70.00
ROOT
ATOM      1  C   UNL     1     129.804 124.046  98.159  1.00  0.00     0.136 C 
ATOM      2  O   UNL     1     129.316 124.814  97.343  1.00  0.00    -0.299 OA
ENDROOT
BRANCH   1   3
ATOM      3  C   UNL     1     131.199 124.314  98.698  1.00  0.00     0.053 C 
ATOM      4  C   UNL     1     131.609 125.768  98.430  1.00  0.00     0.016 C 
BRANCH   3   5
ATOM      5  C   UNL     1     132.211 123.331  98.072  1.00  0.00     0.015 C 
BRANCH   5   6
ATOM      6  C   UNL     1     132.953 122.501  99.140  1.00  0.00     0.028 C 
BRANCH   6   7
ATOM      7  C   UNL     1     133.025 121.050  98.735  1.00  0.00    -0.028 C 
ATOM      8  C   UNL     1     132.240 120.069  99.238  1.00  0.00    -0.070 CG0
ATOM      9  C   UNL     1     132.383 118.682  98.664  1.00  0.00     0.039 C 
ATOM     10  G   UNL     1     131.247 120.304 100.366  1.00  0.00     0.000 G0
ENDBRANCH   6   7
ENDBRANCH   5   6
ENDBRANCH   3   5
ENDBRANCH   1   3
BRANCH   1  11
ATOM     11  C   UNL     1     129.012 122.840  98.611  1.00  0.00     0.087 C 
BRANCH  11  12
ATOM     12  C   UNL     1     129.471 122.211  99.964  1.00  0.00     0.066 C 
BRANCH  12  13
ATOM     13  C   UNL     1     129.876 120.742  99.862  1.00  0.00     0.140 C 
ATOM     14  O   UNL     1     129.087 119.914  99.430  1.00  0.00    -0.299 OA
BRANCH  13  15
ATOM     15  C   UNL     1     131.222 120.280 100.369  1.00  0.00     0.106 CG0
ATOM     16  G   UNL     1     132.227 120.083  99.245  1.00  0.00     0.000 G0
ENDBRANCH  13  15
ENDBRANCH  12  13
BRANCH  12  17
ATOM     17  C   UNL     1     128.499 122.511 101.151  1.00  0.00    -0.006 C 
ATOM     18  C   UNL     1     128.750 123.854 101.858  1.00  0.00     0.008 C 
ATOM     19  C   UNL     1     127.029 122.409 100.715  1.00  0.00     0.008 C 
ENDBRANCH  12  17
ENDBRANCH  11  12
ENDBRANCH   1  11
TORSDOF 1
ENDMDL
MODEL 4
REMARK VINA RESULT:    -3.200      2.819      5.210
REMARK INTER + INTRA:          -5.088
REMARK INTER:                  -4.628
REMARK INTRA:                  -0.460
REMARK UNBOUND:                -0.204
REMARK SMILES CC1=CCC[C@@H](C)C(=O)C[C@@H](C(C)C)C(=O)C1
REMARK SMILES IDX 8 1 9 2 6 3 7 4 5 5 4 6 3 7 2 8 1 9 10 11 11 12 15 13 16 14
REMARK SMILES IDX 17 15 12 17 13 18 14 19
REMARK H PARENT
REMARK Flexibility Score: 70.00
ROOT
ATOM      1  C   UNL     1     120.951 120.308 104.242  1.00  0.00     0.136 C 
ATOM      2  O   UNL     1     122.132 120.098 104.009  1.00  0.00    -0.299 OA
ENDROOT
BRANCH   1   3
ATOM      3  C   UNL     1     120.073 120.920 103.164  1.00  0.00     0.053 C 
ATOM      4  C   UNL     1     120.255 120.175 101.834  1.00  0.00     0.016 C 
BRANCH   3   5
ATOM      5  C   UNL     1     120.393 122.422 103.002  1.00  0.00     0.015 C 
BRANCH   5   6
ATOM      6  C   UNL     1     119.258 123.319 103.538  1.00  0.00     0.028 C 
BRANCH   6   7
ATOM      7  C   UNL     1     119.663 123.979 104.831  1.00  0.00    -0.028 C 
ATOM      8  C   UNL     1     119.162 123.661 106.048  1.00  0.00    -0.070 CG0
ATOM      9  C   UNL     1     119.737 124.359 107.255  1.00  0.00     0.039 C 
ATOM     10  G   UNL     1     118.038 122.655 106.241  1.00  0.00     0.000 G0
ENDBRANCH   6   7
ENDBRANCH   5   6
ENDBRANCH   3   5
ENDBRANCH   1   3
BRANCH   1  11
ATOM     11  C   UNL     1     120.388 119.960 105.602  1.00  0.00     0.087 C 
BRANCH  11  12
ATOM     12  C   UNL     1     118.853 120.193 105.766  1.00  0.00     0.066 C 
BRANCH  12  13
ATOM     13  C   UNL     1     118.494 121.303 106.751  1.00  0.00     0.140 C 
ATOM     14  O   UNL     1     118.523 121.092 107.954  1.00  0.00    -0.299 OA
BRANCH  13  15
ATOM     15  C   UNL     1     118.021 122.648 106.252  1.00  0.00     0.106 CG0
ATOM     16  G   UNL     1     119.168 123.623 106.038  1.00  0.00     0.000 G0
ENDBRANCH  13  15
ENDBRANCH  12  13
BRANCH  12  17
ATOM     17  C   UNL     1     118.045 118.874 105.987  1.00  0.00    -0.006 C 
ATOM     18  C   UNL     1     116.520 119.063 106.064  1.00  0.00     0.008 C 
ATOM     19  C   UNL     1     118.395 117.814 104.930  1.00  0.00     0.008 C 
ENDBRANCH  12  17
ENDBRANCH  11  12
ENDBRANCH   1  11
TORSDOF 1
ENDMDL
MODEL 5
REMARK VINA RESULT:    -3.197      2.648      4.471
REMARK INTER + INTRA:          -5.084
REMARK INTER:                  -4.788
REMARK INTRA:                  -0.295
REMARK UNBOUND:                -0.204
REMARK SMILES CC1=CCC[C@@H](C)C(=O)C[C@@H](C(C)C)C(=O)C1
REMARK SMILES IDX 8 1 9 2 6 3 7 4 5 5 4 6 3 7 2 8 1 9 10 11 11 12 15 13 16 14
REMARK SMILES IDX 17 15 12 17 13 18 14 19
REMARK H PARENT
REMARK Flexibility Score: 70.00
ROOT
ATOM      1  C   UNL     1     118.203 125.646 107.251  1.00  0.00     0.136 C 
ATOM      2  O   UNL     1     118.596 125.241 106.167  1.00  0.00    -0.299 OA
ENDROOT
BRANCH   1   3
ATOM      3  C   UNL     1     119.213 125.998 108.330  1.00  0.00     0.053 C 
ATOM      4  C   UNL     1     120.145 127.119 107.849  1.00  0.00     0.016 C 
BRANCH   3   5
ATOM      5  C   UNL     1     120.020 124.746 108.735  1.00  0.00     0.015 C 
BRANCH   5   6
ATOM      6  C   UNL     1     119.426 124.048 109.976  1.00  0.00     0.028 C 
BRANCH   6   7
ATOM      7  C   UNL     1     118.916 122.673 109.624  1.00  0.00    -0.028 C 
ATOM      8  C   UNL     1     117.619 122.291 109.695  1.00  0.00    -0.070 CG0
ATOM      9  C   UNL     1     117.263 120.903 109.224  1.00  0.00     0.039 C 
ATOM     10  G   UNL     1     116.523 123.189 110.247  1.00  0.00     0.000 G0
ENDBRANCH   6   7
ENDBRANCH   5   6
ENDBRANCH   3   5
ENDBRANCH   1   3
BRANCH   1  11
ATOM     11  C   UNL     1     116.717 125.781 107.501  1.00  0.00     0.087 C 
BRANCH  11  12
ATOM     12  C   UNL     1     116.255 125.468 108.959  1.00  0.00     0.066 C 
BRANCH  12  13
ATOM     13  C   UNL     1     115.845 124.014 109.182  1.00  0.00     0.140 C 
ATOM     14  O   UNL     1     114.926 123.527 108.540  1.00  0.00    -0.299 OA
BRANCH  13  15
ATOM     15  C   UNL     1     116.512 123.185 110.254  1.00  0.00     0.106 CG0
ATOM     16  G   UNL     1     117.603 122.285 109.696  1.00  0.00     0.000 G0
ENDBRANCH  13  15
ENDBRANCH  12  13
BRANCH  12  17
ATOM     17  C   UNL     1     115.228 126.502 109.522  1.00  0.00    -0.006 C 
ATOM     18  C   UNL     1     115.861 127.707 110.238  1.00  0.00     0.008 C 
ATOM     19  C   UNL     1     114.257 126.983 108.431  1.00  0.00     0.008 C 
ENDBRANCH  12  17
ENDBRANCH  11  12
ENDBRANCH   1  11
TORSDOF 1
ENDMDL
MODEL 6
REMARK VINA RESULT:    -3.152     10.617     13.618
REMARK INTER + INTRA:          -5.015
REMARK INTER:                  -5.118
REMARK INTRA:                   0.103
REMARK UNBOUND:                -0.204
REMARK SMILES CC1=CCC[C@@H](C)C(=O)C[C@@H](C(C)C)C(=O)C1
REMARK SMILES IDX 8 1 9 2 6 3 7 4 5 5 4 6 3 7 2 8 1 9 10 11 11 12 15 13 16 14
REMARK SMILES IDX 17 15 12 17 13 18 14 19
REMARK H PARENT
REMARK Flexibility Score: 70.00
ROOT
ATOM      1  C   UNL     1     129.204 123.851 100.468  1.00  0.00     0.136 C 
ATOM      2  O   UNL     1     129.346 124.056 101.665  1.00  0.00    -0.299 OA
ENDROOT
BRANCH   1   3
ATOM      3  C   UNL     1     130.154 124.503  99.479  1.00  0.00     0.053 C 
ATOM      4  C   UNL     1     129.544 124.510  98.071  1.00  0.00     0.016 C 
BRANCH   3   5
ATOM      5  C   UNL     1     131.516 123.774  99.486  1.00  0.00     0.015 C 
BRANCH   5   6
ATOM      6  C   UNL     1     131.632 122.748  98.341  1.00  0.00     0.028 C 
BRANCH   6   7
ATOM      7  C   UNL     1     131.897 121.367  98.885  1.00  0.00    -0.028 C 
ATOM      8  C   UNL     1     130.954 120.409  99.051  1.00  0.00    -0.070 CG0
ATOM      9  C   UNL     1     131.401 119.050  99.527  1.00  0.00     0.039 C 
ATOM     10  G   UNL     1     129.475 120.656  98.800  1.00  0.00     0.000 G0
ENDBRANCH   6   7
ENDBRANCH   5   6
ENDBRANCH   3   5
ENDBRANCH   1   3
BRANCH   1  11
ATOM     11  C   UNL     1     128.080 122.957  99.995  1.00  0.00     0.087 C 
BRANCH  11  12
ATOM     12  C   UNL     1     127.951 121.594 100.746  1.00  0.00     0.066 C 
BRANCH  12  13
ATOM     13  C   UNL     1     128.605 120.420 100.021  1.00  0.00     0.140 C 
ATOM     14  O   UNL     1     128.500 119.286 100.464  1.00  0.00    -0.299 OA
BRANCH  13  15
ATOM     15  C   UNL     1     129.459 120.654  98.796  1.00  0.00     0.106 CG0
ATOM     16  G   UNL     1     130.937 120.417  99.066  1.00  0.00     0.000 G0
ENDBRANCH  13  15
ENDBRANCH  12  13
BRANCH  12  17
ATOM     17  C   UNL     1     126.502 121.293 101.245  1.00  0.00    -0.006 C 
ATOM     18  C   UNL     1     126.193 121.805 102.662  1.00  0.00     0.008 C 
ATOM     19  C   UNL     1     125.446 121.808 100.254  1.00  0.00     0.008 C 
ENDBRANCH  12  17
ENDBRANCH  11  12
ENDBRANCH   1  11
TORSDOF 1
ENDMDL
MODEL 7
REMARK VINA RESULT:    -3.143      2.007      4.349
REMARK INTER + INTRA:          -5.001
REMARK INTER:                  -5.133
REMARK INTRA:                   0.132
REMARK UNBOUND:                -0.204
REMARK SMILES CC1=CCC[C@@H](C)C(=O)C[C@@H](C(C)C)C(=O)C1
REMARK SMILES IDX 8 1 9 2 6 3 7 4 5 5 4 6 3 7 2 8 1 9 10 11 11 12 15 13 16 14
REMARK SMILES IDX 17 15 12 17 13 18 14 19
REMARK H PARENT
REMARK Flexibility Score: 70.00
ROOT
ATOM      1  C   UNL     1     119.622 125.807 109.134  1.00  0.00     0.136 C 
ATOM      2  O   UNL     1     119.973 125.399 110.230  1.00  0.00    -0.299 OA
ENDROOT
BRANCH   1   3
ATOM      3  C   UNL     1     120.282 125.255 107.882  1.00  0.00     0.053 C 
ATOM      4  C   UNL     1     120.313 126.318 106.776  1.00  0.00     0.016 C 
BRANCH   3   5
ATOM      5  C   UNL     1     119.545 123.984 107.405  1.00  0.00     0.015 C 
BRANCH   5   6
ATOM      6  C   UNL     1     118.647 124.258 106.181  1.00  0.00     0.028 C 
BRANCH   6   7
ATOM      7  C   UNL     1     117.366 123.468 106.270  1.00  0.00    -0.028 C 
ATOM      8  C   UNL     1     116.216 123.924 106.820  1.00  0.00    -0.070 CG0
ATOM      9  C   UNL     1     114.998 123.037 106.752  1.00  0.00     0.039 C 
ATOM     10  G   UNL     1     116.112 125.271 107.518  1.00  0.00     0.000 G0
ENDBRANCH   6   7
ENDBRANCH   5   6
ENDBRANCH   3   5
ENDBRANCH   1   3
BRANCH   1  11
ATOM     11  C   UNL     1     118.540 126.861 109.044  1.00  0.00     0.087 C 
BRANCH  11  12
ATOM     12  C   UNL     1     117.156 126.446 109.635  1.00  0.00     0.066 C 
BRANCH  12  13
ATOM     13  C   UNL     1     116.538 125.218 108.969  1.00  0.00     0.140 C 
ATOM     14  O   UNL     1     116.472 124.158 109.573  1.00  0.00    -0.299 OA
BRANCH  13  15
ATOM     15  C   UNL     1     116.079 125.275 107.531  1.00  0.00     0.106 CG0
ATOM     16  G   UNL     1     116.230 123.938 106.822  1.00  0.00     0.000 G0
ENDBRANCH  13  15
ENDBRANCH  12  13
BRANCH  12  17
ATOM     17  C   UNL     1     116.162 127.641 109.790  1.00  0.00    -0.006 C 
ATOM     18  C   UNL     1     114.840 127.288 110.492  1.00  0.00     0.008 C 
ATOM     19  C   UNL     1     116.827 128.841 110.484  1.00  0.00     0.008 C 
ENDBRANCH  12  17
ENDBRANCH  11  12
ENDBRANCH   1  11
TORSDOF 1
ENDMDL
MODEL 8
REMARK VINA RESULT:    -2.991      1.851      4.015
REMARK INTER + INTRA:          -4.769
REMARK INTER:                  -4.523
REMARK INTRA:                  -0.246
REMARK UNBOUND:                -0.204
REMARK SMILES CC1=CCC[C@@H](C)C(=O)C[C@@H](C(C)C)C(=O)C1
REMARK SMILES IDX 8 1 9 2 6 3 7 4 5 5 4 6 3 7 2 8 1 9 10 11 11 12 15 13 16 14
REMARK SMILES IDX 17 15 12 17 13 18 14 19
REMARK H PARENT
REMARK Flexibility Score: 70.00
ROOT
ATOM      1  C   UNL     1     119.334 123.640 105.035  1.00  0.00     0.136 C 
ATOM      2  O   UNL     1     119.114 123.403 103.857  1.00  0.00    -0.299 OA
ENDROOT
BRANCH   1   3
ATOM      3  C   UNL     1     119.147 122.541 106.067  1.00  0.00     0.053 C 
ATOM      4  C   UNL     1     119.255 121.160 105.408  1.00  0.00     0.016 C 
BRANCH   3   5
ATOM      5  C   UNL     1     117.788 122.706 106.782  1.00  0.00     0.015 C 
BRANCH   5   6
ATOM      6  C   UNL     1     117.955 123.016 108.284  1.00  0.00     0.028 C 
BRANCH   6   7
ATOM      7  C   UNL     1     117.374 124.366 108.620  1.00  0.00    -0.028 C 
ATOM      8  C   UNL     1     118.103 125.472 108.897  1.00  0.00    -0.070 CG0
ATOM      9  C   UNL     1     117.366 126.767 109.129  1.00  0.00     0.039 C 
ATOM     10  G   UNL     1     119.620 125.454 109.003  1.00  0.00     0.000 G0
ENDBRANCH   6   7
ENDBRANCH   5   6
ENDBRANCH   3   5
ENDBRANCH   1   3
BRANCH   1  11
ATOM     11  C   UNL     1     119.783 125.025 105.444  1.00  0.00     0.087 C 
BRANCH  11  12
ATOM     12  C   UNL     1     120.755 125.077 106.665  1.00  0.00     0.066 C 
BRANCH  12  13
ATOM     13  C   UNL     1     120.302 126.015 107.782  1.00  0.00     0.140 C 
ATOM     14  O   UNL     1     120.536 127.212 107.713  1.00  0.00    -0.299 OA
BRANCH  13  15
ATOM     15  C   UNL     1     119.633 125.467 109.020  1.00  0.00     0.106 CG0
ATOM     16  G   UNL     1     118.116 125.478 108.913  1.00  0.00     0.000 G0
ENDBRANCH  13  15
ENDBRANCH  12  13
BRANCH  12  17
ATOM     17  C   UNL     1     122.253 125.263 106.260  1.00  0.00    -0.006 C 
ATOM     18  C   UNL     1     123.261 124.613 107.222  1.00  0.00     0.008 C 
ATOM     19  C   UNL     1     122.511 124.787 104.821  1.00  0.00     0.008 C 
ENDBRANCH  12  17
ENDBRANCH  11  12
ENDBRANCH   1  11
TORSDOF 1
ENDMDL
MODEL 9
REMARK VINA RESULT:    -2.856      1.984      4.177
REMARK INTER + INTRA:          -4.563
REMARK INTER:                  -4.079
REMARK INTRA:                  -0.484
REMARK UNBOUND:                -0.204
REMARK SMILES CC1=CCC[C@@H](C)C(=O)C[C@@H](C(C)C)C(=O)C1
REMARK SMILES IDX 8 1 9 2 6 3 7 4 5 5 4 6 3 7 2 8 1 9 10 11 11 12 15 13 16 14
REMARK SMILES IDX 17 15 12 17 13 18 14 19
REMARK H PARENT
REMARK Flexibility Score: 70.00
ROOT
ATOM      1  C   UNL     1     117.702 123.565 106.659  1.00  0.00     0.136 C 
ATOM      2  O   UNL     1     116.646 123.517 106.047  1.00  0.00    -0.299 OA
ENDROOT
BRANCH   1   3
ATOM      3  C   UNL     1     118.050 122.458 107.640  1.00  0.00     0.053 C 
ATOM      4  C   UNL     1     118.092 121.100 106.926  1.00  0.00     0.016 C 
BRANCH   3   5
ATOM      5  C   UNL     1     117.035 122.438 108.804  1.00  0.00     0.015 C 
BRANCH   5   6
ATOM      6  C   UNL     1     117.559 123.189 110.045  1.00  0.00     0.028 C 
BRANCH   6   7
ATOM      7  C   UNL     1     116.935 124.558 110.145  1.00  0.00    -0.028 C 
ATOM      8  C   UNL     1     117.612 125.725 110.030  1.00  0.00    -0.070 CG0
ATOM      9  C   UNL     1     116.823 127.009 110.069  1.00  0.00     0.039 C 
ATOM     10  G   UNL     1     119.125 125.790 109.888  1.00  0.00     0.000 G0
ENDBRANCH   6   7
ENDBRANCH   5   6
ENDBRANCH   3   5
ENDBRANCH   1   3
BRANCH   1  11
ATOM     11  C   UNL     1     118.641 124.729 106.433  1.00  0.00     0.087 C 
BRANCH  11  12
ATOM     12  C   UNL     1     119.776 124.885 107.494  1.00  0.00     0.066 C 
BRANCH  12  13
ATOM     13  C   UNL     1     119.568 126.048 108.461  1.00  0.00     0.140 C 
ATOM     14  O   UNL     1     119.819 127.192 108.112  1.00  0.00    -0.299 OA
BRANCH  13  15
ATOM     15  C   UNL     1     119.130 125.795 109.884  1.00  0.00     0.106 CG0
ATOM     16  G   UNL     1     117.617 125.727 110.022  1.00  0.00     0.000 G0
ENDBRANCH  13  15
ENDBRANCH  12  13
BRANCH  12  17
ATOM     17  C   UNL     1     121.212 124.829 106.881  1.00  0.00    -0.006 C 
ATOM     18  C   UNL     1     122.350 124.814 107.916  1.00  0.00     0.008 C 
ATOM     19  C   UNL     1     121.364 123.647 105.910  1.00  0.00     0.008 C 
ENDBRANCH  12  17
ENDBRANCH  11  12
ENDBRANCH   1  11
TORSDOF 1
ENDMDL
