MODEL 1
REMARK VINA RESULT:    -6.563      0.000      0.000
REMARK INTER + INTRA:          -7.380
REMARK INTER:                  -7.138
REMARK INTRA:                  -0.242
REMARK UNBOUND:                -0.242
REMARK SMILES C[C@@H]1[C@H](C)CC[C@]2(C(=O)[O-])CC[C@@]3(C)C(=CC[C@H]4[C@]5(C)CC[C@@H](O)C(C)(C)[C@@H]5CC[C@]43C)[C@H]12
REMARK SMILES IDX 7 1 6 2 11 3 33 4 5 5 12 6 15 7 2 8 3 9 13 10 16 11 1 12
REMARK SMILES IDX 4 13 14 14 31 15 17 16 18 17 30 18 32 19 19 20 29 21 28 22
REMARK SMILES IDX 21 23 20 24 25 25 22 26 23 27 26 28 27 29 8 30 9 31 10 32
REMARK SMILES IDX 24 33
REMARK H PARENT 24 34
REMARK Flexibility Score: inf
ROOT
ATOM      1  C   UNL     1      21.351  10.239   0.429  1.00  0.00     0.017 C 
ATOM      2  C   UNL     1      21.111   8.694   0.434  1.00  0.00     0.014 C 
ATOM      3  C   UNL     1      20.988  10.810   1.849  1.00  0.00     0.014 C 
ATOM      4  C   UNL     1      20.535  10.920  -0.762  1.00  0.00     0.030 C 
ATOM      5  C   UNL     1      21.091   8.101  -0.975  1.00  0.00     0.004 C 
ATOM      6  C   UNL     1      19.916  11.908   1.878  1.00  0.00     0.013 C 
ATOM      7  C   UNL     1      20.142  12.395  -0.541  1.00  0.00    -0.063 C 
ATOM      8  C   UNL     1      19.380  10.044  -1.355  1.00  0.00    -0.003 C 
ATOM      9  C   UNL     1      19.948   8.671  -1.856  1.00  0.00    -0.011 C 
ATOM     10  C   UNL     1      20.142  13.052   0.840  1.00  0.00    -0.006 C 
ATOM     11  C   UNL     1      19.996  13.177  -1.621  1.00  0.00    -0.027 C 
ATOM     12  C   UNL     1      18.141   9.933  -0.446  1.00  0.00     0.008 C 
ATOM     13  C   UNL     1      18.869   7.609  -2.125  1.00  0.00     0.008 C 
ATOM     14  C   UNL     1      21.575  13.635   1.087  1.00  0.00     0.017 C 
ATOM     15  C   UNL     1      19.004  14.227   0.950  1.00  0.00    -0.020 C 
ATOM     16  C   UNL     1      19.866  14.660  -1.497  1.00  0.00     0.032 C 
ATOM     17  C   UNL     1      18.826  15.079  -0.415  1.00  0.00     0.006 C 
ATOM     18  C   UNL     1      17.629  13.627   1.398  1.00  0.00     0.008 C 
ATOM     19  C   UNL     1      19.427  15.195   2.105  1.00  0.00     0.012 C 
ATOM     20  C   UNL     1      17.344  15.205  -1.008  1.00  0.00    -0.025 C 
ATOM     21  C   UNL     1      16.429  14.581   1.388  1.00  0.00     0.005 C 
ATOM     22  C   UNL     1      16.268  15.485   0.131  1.00  0.00     0.003 C 
ATOM     23  C   UNL     1      17.230  16.317  -2.122  1.00  0.00     0.010 C 
ATOM     24  C   UNL     1      16.968  13.891  -1.771  1.00  0.00     0.012 C 
ATOM     25  C   UNL     1      15.940  17.003   0.512  1.00  0.00    -0.006 C 
ATOM     26  C   UNL     1      17.086  17.746  -1.623  1.00  0.00     0.033 C 
ATOM     27  C   UNL     1      15.826  17.879  -0.766  1.00  0.00     0.120 C 
ATOM     28  C   UNL     1      14.572  17.070   1.249  1.00  0.00     0.014 C 
ATOM     29  C   UNL     1      16.979  17.668   1.459  1.00  0.00     0.014 C 
ENDROOT
BRANCH   1  30
ATOM     30  C   UNL     1      22.866  10.430   0.241  1.00  0.00     0.048 C 
ATOM     31  O   UNL     1      23.670  10.415   1.211  1.00  0.00    -0.550 OA
ATOM     32  O   UNL     1      23.381  10.614  -1.039  1.00  0.00    -0.550 OA
ENDBRANCH   1  30
BRANCH  27  33
ATOM     33  O   UNL     1      14.691  17.516  -1.517  1.00  0.00    -0.393 OA
ATOM     34  H   UNL     1      13.992  17.237  -0.870  1.00  0.00     0.210 HD
ENDBRANCH  27  33
TORSDOF 2
ENDMDL
MODEL 2
REMARK VINA RESULT:    -5.206      1.916      7.548
REMARK INTER + INTRA:          -5.905
REMARK INTER:                  -5.906
REMARK INTRA:                   0.001
REMARK UNBOUND:                -0.242
REMARK SMILES C[C@@H]1[C@H](C)CC[C@]2(C(=O)[O-])CC[C@@]3(C)C(=CC[C@H]4[C@]5(C)CC[C@@H](O)C(C)(C)[C@@H]5CC[C@]43C)[C@H]12
REMARK SMILES IDX 7 1 6 2 11 3 33 4 5 5 12 6 15 7 2 8 3 9 13 10 16 11 1 12
REMARK SMILES IDX 4 13 14 14 31 15 17 16 18 17 30 18 32 19 19 20 29 21 28 22
REMARK SMILES IDX 21 23 20 24 25 25 22 26 23 27 26 28 27 29 8 30 9 31 10 32
REMARK SMILES IDX 24 33
REMARK H PARENT 24 34
REMARK Flexibility Score: inf
ROOT
ATOM      1  C   UNL     1      15.301  16.238  -0.425  1.00  0.00     0.017 C 
ATOM      2  C   UNL     1      14.024  16.387  -1.316  1.00  0.00     0.014 C 
ATOM      3  C   UNL     1      16.544  16.755  -1.238  1.00  0.00     0.014 C 
ATOM      4  C   UNL     1      15.448  14.732   0.081  1.00  0.00     0.030 C 
ATOM      5  C   UNL     1      12.834  15.599  -0.768  1.00  0.00     0.004 C 
ATOM      6  C   UNL     1      17.688  15.748  -1.428  1.00  0.00     0.013 C 
ATOM      7  C   UNL     1      16.886  14.273   0.394  1.00  0.00    -0.063 C 
ATOM      8  C   UNL     1      14.614  13.681  -0.727  1.00  0.00    -0.003 C 
ATOM      9  C   UNL     1      13.095  14.070  -0.712  1.00  0.00    -0.011 C 
ATOM     10  C   UNL     1      18.121  15.015  -0.120  1.00  0.00    -0.006 C 
ATOM     11  C   UNL     1      17.055  13.313   1.315  1.00  0.00    -0.027 C 
ATOM     12  C   UNL     1      15.181  13.364  -2.125  1.00  0.00     0.008 C 
ATOM     13  C   UNL     1      12.248  13.321  -1.753  1.00  0.00     0.008 C 
ATOM     14  C   UNL     1      18.486  16.113   0.937  1.00  0.00     0.017 C 
ATOM     15  C   UNL     1      19.381  13.995  -0.365  1.00  0.00    -0.020 C 
ATOM     16  C   UNL     1      18.407  12.984   1.859  1.00  0.00     0.032 C 
ATOM     17  C   UNL     1      19.476  12.815   0.739  1.00  0.00     0.006 C 
ATOM     18  C   UNL     1      19.329  13.387  -1.807  1.00  0.00     0.008 C 
ATOM     19  C   UNL     1      20.696  14.843  -0.322  1.00  0.00     0.012 C 
ATOM     20  C   UNL     1      19.558  11.312   0.194  1.00  0.00    -0.025 C 
ATOM     21  C   UNL     1      20.352  12.291  -2.125  1.00  0.00     0.005 C 
ATOM     22  C   UNL     1      20.543  11.182  -1.050  1.00  0.00     0.003 C 
ATOM     23  C   UNL     1      19.987  10.284   1.312  1.00  0.00     0.010 C 
ATOM     24  C   UNL     1      18.128  10.822  -0.216  1.00  0.00     0.012 C 
ATOM     25  C   UNL     1      22.085  10.863  -0.770  1.00  0.00    -0.006 C 
ATOM     26  C   UNL     1      21.478  10.196   1.598  1.00  0.00     0.033 C 
ATOM     27  C   UNL     1      22.232   9.780   0.335  1.00  0.00     0.120 C 
ATOM     28  C   UNL     1      22.743  10.304  -2.064  1.00  0.00     0.014 C 
ATOM     29  C   UNL     1      22.931  12.097  -0.348  1.00  0.00     0.014 C 
ENDROOT
BRANCH   1  30
ATOM     30  C   UNL     1      15.104  17.202   0.758  1.00  0.00     0.048 C 
ATOM     31  O   UNL     1      14.206  17.027   1.624  1.00  0.00    -0.550 OA
ATOM     32  O   UNL     1      15.945  18.303   0.895  1.00  0.00    -0.550 OA
ENDBRANCH   1  30
BRANCH  27  33
ATOM     33  O   UNL     1      21.756   8.536  -0.124  1.00  0.00    -0.393 OA
ATOM     34  H   UNL     1      20.787   8.500   0.088  1.00  0.00     0.210 HD
ENDBRANCH  27  33
TORSDOF 2
ENDMDL
MODEL 3
REMARK VINA RESULT:    -3.939      1.831      2.771
REMARK INTER + INTRA:          -4.527
REMARK INTER:                  -4.335
REMARK INTRA:                  -0.191
REMARK UNBOUND:                -0.242
REMARK SMILES C[C@@H]1[C@H](C)CC[C@]2(C(=O)[O-])CC[C@@]3(C)C(=CC[C@H]4[C@]5(C)CC[C@@H](O)C(C)(C)[C@@H]5CC[C@]43C)[C@H]12
REMARK SMILES IDX 7 1 6 2 11 3 33 4 5 5 12 6 15 7 2 8 3 9 13 10 16 11 1 12
REMARK SMILES IDX 4 13 14 14 31 15 17 16 18 17 30 18 32 19 19 20 29 21 28 22
REMARK SMILES IDX 21 23 20 24 25 25 22 26 23 27 26 28 27 29 8 30 9 31 10 32
REMARK SMILES IDX 24 33
REMARK H PARENT 24 34
REMARK Flexibility Score: inf
ROOT
ATOM      1  C   UNL     1      22.052  11.914  -0.086  1.00  0.00     0.017 C 
ATOM      2  C   UNL     1      22.815  11.121   1.026  1.00  0.00     0.014 C 
ATOM      3  C   UNL     1      22.178  13.452   0.218  1.00  0.00     0.014 C 
ATOM      4  C   UNL     1      20.544  11.403  -0.191  1.00  0.00     0.030 C 
ATOM      5  C   UNL     1      22.464   9.632   1.027  1.00  0.00     0.004 C 
ATOM      6  C   UNL     1      20.855  14.216   0.375  1.00  0.00     0.013 C 
ATOM      7  C   UNL     1      19.528  12.435  -0.723  1.00  0.00    -0.063 C 
ATOM      8  C   UNL     1      20.032  10.600   1.052  1.00  0.00    -0.003 C 
ATOM      9  C   UNL     1      20.963   9.366   1.316  1.00  0.00    -0.011 C 
ATOM     10  C   UNL     1      19.816  13.937  -0.755  1.00  0.00    -0.006 C 
ATOM     11  C   UNL     1      18.444  11.977  -1.365  1.00  0.00    -0.027 C 
ATOM     12  C   UNL     1      19.749  11.468   2.293  1.00  0.00     0.008 C 
ATOM     13  C   UNL     1      20.768   8.721   2.699  1.00  0.00     0.008 C 
ATOM     14  C   UNL     1      20.510  14.256  -2.123  1.00  0.00     0.017 C 
ATOM     15  C   UNL     1      18.445  14.818  -0.572  1.00  0.00    -0.020 C 
ATOM     16  C   UNL     1      17.544  12.896  -2.125  1.00  0.00     0.032 C 
ATOM     17  C   UNL     1      17.159  14.166  -1.308  1.00  0.00     0.006 C 
ATOM     18  C   UNL     1      18.139  15.059   0.944  1.00  0.00     0.008 C 
ATOM     19  C   UNL     1      18.709  16.240  -1.170  1.00  0.00     0.012 C 
ATOM     20  C   UNL     1      15.845  13.946  -0.421  1.00  0.00    -0.025 C 
ATOM     21  C   UNL     1      16.801  15.730   1.274  1.00  0.00     0.005 C 
ATOM     22  C   UNL     1      15.548  15.194   0.522  1.00  0.00     0.003 C 
ATOM     23  C   UNL     1      14.569  13.634  -1.295  1.00  0.00     0.010 C 
ATOM     24  C   UNL     1      16.008  12.657   0.453  1.00  0.00     0.012 C 
ATOM     25  C   UNL     1      14.626  16.372  -0.042  1.00  0.00    -0.006 C 
ATOM     26  C   UNL     1      13.875  14.838  -1.913  1.00  0.00     0.033 C 
ATOM     27  C   UNL     1      13.409  15.796  -0.817  1.00  0.00     0.120 C 
ATOM     28  C   UNL     1      14.071  17.211   1.145  1.00  0.00     0.014 C 
ATOM     29  C   UNL     1      15.361  17.373  -0.977  1.00  0.00     0.014 C 
ENDROOT
BRANCH   1  30
ATOM     30  C   UNL     1      22.818  11.649  -1.393  1.00  0.00     0.048 C 
ATOM     31  O   UNL     1      22.586  10.644  -2.116  1.00  0.00    -0.550 OA
ATOM     32  O   UNL     1      23.796  12.548  -1.811  1.00  0.00    -0.550 OA
ENDBRANCH   1  30
BRANCH  27  33
ATOM     33  O   UNL     1      12.529  15.135   0.061  1.00  0.00    -0.393 OA
ATOM     34  H   UNL     1      12.979  15.092   0.945  1.00  0.00     0.210 HD
ENDBRANCH  27  33
TORSDOF 2
ENDMDL
