MODEL 1
REMARK VINA RESULT:    -3.748      0.000      0.000
REMARK INTER + INTRA:          -6.412
REMARK INTER:                  -5.720
REMARK INTRA:                  -0.692
REMARK UNBOUND:                -0.692
REMARK SMILES CCCCCCCCCC=CC(=O)[O-]
REMARK SMILES IDX 7 1 8 2 9 3 10 4 11 5 12 6 13 7 14 8 6 9 5 10 4 11 3 12 2 13
REMARK SMILES IDX 1 14
REMARK H PARENT
REMARK Flexibility Score: inf
ROOT
ATOM      1  C   UNL     1      58.244  29.548  51.071  1.00  0.00     0.000 C 
ENDROOT
BRANCH   1   2
ATOM      2  C   UNL     1      58.468  29.486  49.545  1.00  0.00     0.004 C 
BRANCH   2   3
ATOM      3  C   UNL     1      59.507  28.444  49.095  1.00  0.00     0.027 C 
BRANCH   3   4
ATOM      4  C   UNL     1      59.154  27.050  49.530  1.00  0.00    -0.025 C 
ATOM      5  C   UNL     1      60.082  26.204  49.991  1.00  0.00     0.020 C 
BRANCH   5   6
ATOM      6  C   UNL     1      59.756  24.837  50.427  1.00  0.00     0.064 C 
ATOM      7  O   UNL     1      60.327  23.837  49.916  1.00  0.00    -0.545 OA
ATOM      8  O   UNL     1      58.802  24.645  51.418  1.00  0.00    -0.545 OA
ENDBRANCH   5   6
ENDBRANCH   3   4
ENDBRANCH   2   3
ENDBRANCH   1   2
BRANCH   1   9
ATOM      9  C   UNL     1      56.784  29.358  51.518  1.00  0.00     0.000 C 
BRANCH   9  10
ATOM     10  C   UNL     1      55.930  28.625  50.469  1.00  0.00     0.000 C 
BRANCH  10  11
ATOM     11  C   UNL     1      54.476  29.122  50.435  1.00  0.00    -0.000 C 
BRANCH  11  12
ATOM     12  C   UNL     1      53.500  28.051  49.917  1.00  0.00    -0.000 C 
BRANCH  12  13
ATOM     13  C   UNL     1      53.985  26.622  50.209  1.00  0.00    -0.003 C 
ATOM     14  C   UNL     1      53.867  25.697  48.997  1.00  0.00     0.004 C 
ENDBRANCH  12  13
ENDBRANCH  11  12
ENDBRANCH  10  11
ENDBRANCH   9  10
ENDBRANCH   1   9
TORSDOF 9
ENDMDL
MODEL 2
REMARK VINA RESULT:    -3.667      2.518      4.926
REMARK INTER + INTRA:          -6.289
REMARK INTER:                  -4.980
REMARK INTRA:                  -1.309
REMARK UNBOUND:                -0.692
REMARK SMILES CCCCCCCCCC=CC(=O)[O-]
REMARK SMILES IDX 7 1 8 2 9 3 10 4 11 5 12 6 13 7 14 8 6 9 5 10 4 11 3 12 2 13
REMARK SMILES IDX 1 14
REMARK H PARENT
REMARK Flexibility Score: inf
ROOT
ATOM      1  C   UNL     1      57.112  29.153  52.303  1.00  0.00     0.000 C 
ENDROOT
BRANCH   1   2
ATOM      2  C   UNL     1      55.715  28.601  51.952  1.00  0.00     0.004 C 
BRANCH   2   3
ATOM      3  C   UNL     1      55.177  29.049  50.581  1.00  0.00     0.027 C 
BRANCH   3   4
ATOM      4  C   UNL     1      54.213  28.061  49.988  1.00  0.00    -0.025 C 
ATOM      5  C   UNL     1      54.529  26.768  49.856  1.00  0.00     0.020 C 
BRANCH   5   6
ATOM      6  C   UNL     1      53.598  25.783  49.282  1.00  0.00     0.064 C 
ATOM      7  O   UNL     1      52.911  26.055  48.262  1.00  0.00    -0.545 OA
ATOM      8  O   UNL     1      53.474  24.534  49.875  1.00  0.00    -0.545 OA
ENDBRANCH   5   6
ENDBRANCH   3   4
ENDBRANCH   2   3
ENDBRANCH   1   2
BRANCH   1   9
ATOM      9  C   UNL     1      57.808  29.922  51.166  1.00  0.00     0.000 C 
BRANCH   9  10
ATOM     10  C   UNL     1      59.124  29.262  50.719  1.00  0.00     0.000 C 
BRANCH  10  11
ATOM     11  C   UNL     1      59.017  28.602  49.335  1.00  0.00    -0.000 C 
BRANCH  11  12
ATOM     12  C   UNL     1      59.305  27.091  49.380  1.00  0.00    -0.000 C 
BRANCH  12  13
ATOM     13  C   UNL     1      58.091  26.275  49.850  1.00  0.00    -0.003 C 
ATOM     14  C   UNL     1      58.290  25.661  51.236  1.00  0.00     0.004 C 
ENDBRANCH  12  13
ENDBRANCH  11  12
ENDBRANCH  10  11
ENDBRANCH   9  10
ENDBRANCH   1   9
TORSDOF 9
ENDMDL
MODEL 3
REMARK VINA RESULT:    -3.619      1.318      4.098
REMARK INTER + INTRA:          -6.215
REMARK INTER:                  -4.833
REMARK INTRA:                  -1.382
REMARK UNBOUND:                -0.692
REMARK SMILES CCCCCCCCCC=CC(=O)[O-]
REMARK SMILES IDX 7 1 8 2 9 3 10 4 11 5 12 6 13 7 14 8 6 9 5 10 4 11 3 12 2 13
REMARK SMILES IDX 1 14
REMARK H PARENT
REMARK Flexibility Score: inf
ROOT
ATOM      1  C   UNL     1      54.549  28.668  51.333  1.00  0.00     0.000 C 
ENDROOT
BRANCH   1   2
ATOM      2  C   UNL     1      54.140  28.141  49.942  1.00  0.00     0.004 C 
BRANCH   2   3
ATOM      3  C   UNL     1      54.512  26.670  49.682  1.00  0.00     0.027 C 
BRANCH   3   4
ATOM      4  C   UNL     1      55.644  26.198  50.549  1.00  0.00    -0.025 C 
ATOM      5  C   UNL     1      56.899  26.139  50.091  1.00  0.00     0.020 C 
BRANCH   5   6
ATOM      6  C   UNL     1      58.023  25.685  50.925  1.00  0.00     0.064 C 
ATOM      7  O   UNL     1      57.977  25.771  52.181  1.00  0.00    -0.545 OA
ATOM      8  O   UNL     1      59.153  25.153  50.318  1.00  0.00    -0.545 OA
ENDBRANCH   5   6
ENDBRANCH   3   4
ENDBRANCH   2   3
ENDBRANCH   1   2
BRANCH   1   9
ATOM      9  C   UNL     1      55.649  29.744  51.319  1.00  0.00     0.000 C 
BRANCH   9  10
ATOM     10  C   UNL     1      56.913  29.313  52.083  1.00  0.00     0.000 C 
BRANCH  10  11
ATOM     11  C   UNL     1      58.206  29.599  51.301  1.00  0.00    -0.000 C 
BRANCH  11  12
ATOM     12  C   UNL     1      58.004  29.511  49.779  1.00  0.00    -0.000 C 
BRANCH  12  13
ATOM     13  C   UNL     1      59.233  28.939  49.054  1.00  0.00    -0.003 C 
ATOM     14  C   UNL     1      60.314  28.449  50.019  1.00  0.00     0.004 C 
ENDBRANCH  12  13
ENDBRANCH  11  12
ENDBRANCH  10  11
ENDBRANCH   9  10
ENDBRANCH   1   9
TORSDOF 9
ENDMDL
MODEL 4
REMARK VINA RESULT:    -3.617      2.114      2.482
REMARK INTER + INTRA:          -6.212
REMARK INTER:                  -5.369
REMARK INTRA:                  -0.843
REMARK UNBOUND:                -0.692
REMARK SMILES CCCCCCCCCC=CC(=O)[O-]
REMARK SMILES IDX 7 1 8 2 9 3 10 4 11 5 12 6 13 7 14 8 6 9 5 10 4 11 3 12 2 13
REMARK SMILES IDX 1 14
REMARK H PARENT
REMARK Flexibility Score: inf
ROOT
ATOM      1  C   UNL     1      57.981  29.690  50.715  1.00  0.00     0.000 C 
ENDROOT
BRANCH   1   2
ATOM      2  C   UNL     1      58.485  28.870  49.509  1.00  0.00     0.004 C 
BRANCH   2   3
ATOM      3  C   UNL     1      58.705  27.376  49.801  1.00  0.00     0.027 C 
BRANCH   3   4
ATOM      4  C   UNL     1      60.149  26.971  49.691  1.00  0.00    -0.025 C 
ATOM      5  C   UNL     1      61.126  27.881  49.618  1.00  0.00     0.020 C 
BRANCH   5   6
ATOM      6  C   UNL     1      62.545  27.506  49.515  1.00  0.00     0.064 C 
ATOM      7  O   UNL     1      62.996  26.493  50.113  1.00  0.00    -0.545 OA
ATOM      8  O   UNL     1      63.403  28.281  48.746  1.00  0.00    -0.545 OA
ENDBRANCH   5   6
ENDBRANCH   3   4
ENDBRANCH   2   3
ENDBRANCH   1   2
BRANCH   1   9
ATOM      9  C   UNL     1      56.836  29.037  51.508  1.00  0.00     0.000 C 
BRANCH   9  10
ATOM     10  C   UNL     1      55.454  29.600  51.131  1.00  0.00     0.000 C 
BRANCH  10  11
ATOM     11  C   UNL     1      54.622  28.616  50.292  1.00  0.00    -0.000 C 
BRANCH  11  12
ATOM     12  C   UNL     1      54.797  27.158  50.749  1.00  0.00    -0.000 C 
BRANCH  12  13
ATOM     13  C   UNL     1      54.989  26.191  49.570  1.00  0.00    -0.003 C 
ATOM     14  C   UNL     1      53.665  25.663  49.015  1.00  0.00     0.004 C 
ENDBRANCH  12  13
ENDBRANCH  11  12
ENDBRANCH  10  11
ENDBRANCH   9  10
ENDBRANCH   1   9
TORSDOF 9
ENDMDL
MODEL 5
REMARK VINA RESULT:    -3.560      2.864      6.111
REMARK INTER + INTRA:          -6.125
REMARK INTER:                  -5.482
REMARK INTRA:                  -0.643
REMARK UNBOUND:                -0.692
REMARK SMILES CCCCCCCCCC=CC(=O)[O-]
REMARK SMILES IDX 7 1 8 2 9 3 10 4 11 5 12 6 13 7 14 8 6 9 5 10 4 11 3 12 2 13
REMARK SMILES IDX 1 14
REMARK H PARENT
REMARK Flexibility Score: inf
ROOT
ATOM      1  C   UNL     1      57.881  29.488  50.404  1.00  0.00     0.000 C 
ENDROOT
BRANCH   1   2
ATOM      2  C   UNL     1      56.783  28.410  50.514  1.00  0.00     0.004 C 
BRANCH   2   3
ATOM      3  C   UNL     1      55.349  28.965  50.583  1.00  0.00     0.027 C 
BRANCH   3   4
ATOM      4  C   UNL     1      54.335  28.019  50.005  1.00  0.00    -0.025 C 
ATOM      5  C   UNL     1      54.611  26.723  49.823  1.00  0.00     0.020 C 
BRANCH   5   6
ATOM      6  C   UNL     1      53.630  25.779  49.264  1.00  0.00     0.064 C 
ATOM      7  O   UNL     1      52.958  26.069  48.239  1.00  0.00    -0.545 OA
ATOM      8  O   UNL     1      53.441  24.548  49.878  1.00  0.00    -0.545 OA
ENDBRANCH   5   6
ENDBRANCH   3   4
ENDBRANCH   2   3
ENDBRANCH   1   2
BRANCH   1   9
ATOM      9  C   UNL     1      58.856  29.299  49.228  1.00  0.00     0.000 C 
BRANCH   9  10
ATOM     10  C   UNL     1      59.485  27.895  49.195  1.00  0.00     0.000 C 
BRANCH  10  11
ATOM     11  C   UNL     1      60.695  27.765  50.134  1.00  0.00    -0.000 C 
BRANCH  11  12
ATOM     12  C   UNL     1      62.028  28.040  49.417  1.00  0.00    -0.000 C 
BRANCH  12  13
ATOM     13  C   UNL     1      62.690  29.345  49.886  1.00  0.00    -0.003 C 
ATOM     14  C   UNL     1      62.003  29.951  51.110  1.00  0.00     0.004 C 
ENDBRANCH  12  13
ENDBRANCH  11  12
ENDBRANCH  10  11
ENDBRANCH   9  10
ENDBRANCH   1   9
TORSDOF 9
ENDMDL
MODEL 6
REMARK VINA RESULT:    -3.539      2.476      5.558
REMARK INTER + INTRA:          -6.094
REMARK INTER:                  -5.524
REMARK INTRA:                  -0.570
REMARK UNBOUND:                -0.692
REMARK SMILES CCCCCCCCCC=CC(=O)[O-]
REMARK SMILES IDX 7 1 8 2 9 3 10 4 11 5 12 6 13 7 14 8 6 9 5 10 4 11 3 12 2 13
REMARK SMILES IDX 1 14
REMARK H PARENT
REMARK Flexibility Score: inf
ROOT
ATOM      1  C   UNL     1      58.086  29.392  50.010  1.00  0.00     0.000 C 
ENDROOT
BRANCH   1   2
ATOM      2  C   UNL     1      57.004  28.442  50.564  1.00  0.00     0.004 C 
BRANCH   2   3
ATOM      3  C   UNL     1      55.583  29.033  50.578  1.00  0.00     0.027 C 
BRANCH   3   4
ATOM      4  C   UNL     1      54.545  28.051  50.113  1.00  0.00    -0.025 C 
ATOM      5  C   UNL     1      54.826  26.752  49.965  1.00  0.00     0.020 C 
BRANCH   5   6
ATOM      6  C   UNL     1      53.822  25.775  49.516  1.00  0.00     0.064 C 
ATOM      7  O   UNL     1      53.302  25.855  48.372  1.00  0.00    -0.545 OA
ATOM      8  O   UNL     1      53.442  24.746  50.368  1.00  0.00    -0.545 OA
ENDBRANCH   5   6
ENDBRANCH   3   4
ENDBRANCH   2   3
ENDBRANCH   1   2
BRANCH   1   9
ATOM      9  C   UNL     1      59.242  28.695  49.270  1.00  0.00     0.000 C 
BRANCH   9  10
ATOM     10  C   UNL     1      59.103  27.162  49.260  1.00  0.00     0.000 C 
BRANCH  10  11
ATOM     11  C   UNL     1      60.219  26.460  50.051  1.00  0.00    -0.000 C 
BRANCH  11  12
ATOM     12  C   UNL     1      59.775  25.099  50.612  1.00  0.00    -0.000 C 
BRANCH  12  13
ATOM     13  C   UNL     1      60.571  23.928  50.015  1.00  0.00    -0.003 C 
ATOM     14  C   UNL     1      61.862  23.637  50.782  1.00  0.00     0.004 C 
ENDBRANCH  12  13
ENDBRANCH  11  12
ENDBRANCH  10  11
ENDBRANCH   9  10
ENDBRANCH   1   9
TORSDOF 9
ENDMDL
MODEL 7
REMARK VINA RESULT:    -3.501      2.744      5.040
REMARK INTER + INTRA:          -6.036
REMARK INTER:                  -4.611
REMARK INTRA:                  -1.425
REMARK UNBOUND:                -0.692
REMARK SMILES CCCCCCCCCC=CC(=O)[O-]
REMARK SMILES IDX 7 1 8 2 9 3 10 4 11 5 12 6 13 7 14 8 6 9 5 10 4 11 3 12 2 13
REMARK SMILES IDX 1 14
REMARK H PARENT
REMARK Flexibility Score: inf
ROOT
ATOM      1  C   UNL     1      59.764  25.768  51.094  1.00  0.00     0.000 C 
ENDROOT
BRANCH   1   2
ATOM      2  C   UNL     1      58.269  25.478  50.848  1.00  0.00     0.004 C 
BRANCH   2   3
ATOM      3  C   UNL     1      57.324  26.046  51.920  1.00  0.00     0.027 C 
BRANCH   3   4
ATOM      4  C   UNL     1      55.976  26.414  51.367  1.00  0.00    -0.025 C 
ATOM      5  C   UNL     1      55.691  26.274  50.068  1.00  0.00     0.020 C 
BRANCH   5   6
ATOM      6  C   UNL     1      54.376  26.623  49.507  1.00  0.00     0.064 C 
ATOM      7  O   UNL     1      53.884  27.772  49.667  1.00  0.00    -0.545 OA
ATOM      8  O   UNL     1      53.665  25.670  48.789  1.00  0.00    -0.545 OA
ENDBRANCH   5   6
ENDBRANCH   3   4
ENDBRANCH   2   3
ENDBRANCH   1   2
BRANCH   1   9
ATOM      9  C   UNL     1      60.255  27.128  50.567  1.00  0.00     0.000 C 
BRANCH   9  10
ATOM     10  C   UNL     1      59.528  27.566  49.284  1.00  0.00     0.000 C 
BRANCH  10  11
ATOM     11  C   UNL     1      59.139  29.054  49.301  1.00  0.00    -0.000 C 
BRANCH  11  12
ATOM     12  C   UNL     1      57.850  29.316  50.097  1.00  0.00    -0.000 C 
BRANCH  12  13
ATOM     13  C   UNL     1      58.127  29.930  51.479  1.00  0.00    -0.003 C 
ATOM     14  C   UNL     1      56.902  29.905  52.394  1.00  0.00     0.004 C 
ENDBRANCH  12  13
ENDBRANCH  11  12
ENDBRANCH  10  11
ENDBRANCH   9  10
ENDBRANCH   1   9
TORSDOF 9
ENDMDL
MODEL 8
REMARK VINA RESULT:    -3.490      2.883      4.403
REMARK INTER + INTRA:          -6.019
REMARK INTER:                  -4.723
REMARK INTRA:                  -1.296
REMARK UNBOUND:                -0.692
REMARK SMILES CCCCCCCCCC=CC(=O)[O-]
REMARK SMILES IDX 7 1 8 2 9 3 10 4 11 5 12 6 13 7 14 8 6 9 5 10 4 11 3 12 2 13
REMARK SMILES IDX 1 14
REMARK H PARENT
REMARK Flexibility Score: inf
ROOT
ATOM      1  C   UNL     1      60.769  27.154  49.914  1.00  0.00     0.000 C 
ENDROOT
BRANCH   1   2
ATOM      2  C   UNL     1      60.502  28.653  49.666  1.00  0.00     0.004 C 
BRANCH   2   3
ATOM      3  C   UNL     1      59.135  28.961  49.030  1.00  0.00     0.027 C 
BRANCH   3   4
ATOM      4  C   UNL     1      58.186  29.619  49.991  1.00  0.00    -0.025 C 
ATOM      5  C   UNL     1      58.506  29.802  51.276  1.00  0.00     0.020 C 
BRANCH   5   6
ATOM      6  C   UNL     1      57.592  30.449  52.232  1.00  0.00     0.064 C 
ATOM      7  O   UNL     1      56.371  30.143  52.273  1.00  0.00    -0.545 OA
ATOM      8  O   UNL     1      58.085  31.411  53.103  1.00  0.00    -0.545 OA
ENDBRANCH   5   6
ENDBRANCH   3   4
ENDBRANCH   2   3
ENDBRANCH   1   2
BRANCH   1   9
ATOM      9  C   UNL     1      59.582  26.226  49.604  1.00  0.00     0.000 C 
BRANCH   9  10
ATOM     10  C   UNL     1      59.028  25.529  50.859  1.00  0.00     0.000 C 
BRANCH  10  11
ATOM     11  C   UNL     1      57.589  25.958  51.189  1.00  0.00    -0.000 C 
BRANCH  11  12
ATOM     12  C   UNL     1      56.755  26.240  49.927  1.00  0.00    -0.000 C 
BRANCH  12  13
ATOM     13  C   UNL     1      55.486  27.053  50.230  1.00  0.00    -0.003 C 
ATOM     14  C   UNL     1      54.241  26.486  49.547  1.00  0.00     0.004 C 
ENDBRANCH  12  13
ENDBRANCH  11  12
ENDBRANCH  10  11
ENDBRANCH   9  10
ENDBRANCH   1   9
TORSDOF 9
ENDMDL
MODEL 9
REMARK VINA RESULT:    -3.395      2.479      4.043
REMARK INTER + INTRA:          -5.874
REMARK INTER:                  -4.384
REMARK INTRA:                  -1.490
REMARK UNBOUND:                -0.692
REMARK SMILES CCCCCCCCCC=CC(=O)[O-]
REMARK SMILES IDX 7 1 8 2 9 3 10 4 11 5 12 6 13 7 14 8 6 9 5 10 4 11 3 12 2 13
REMARK SMILES IDX 1 14
REMARK H PARENT
REMARK Flexibility Score: inf
ROOT
ATOM      1  C   UNL     1      53.571  27.210  50.432  1.00  0.00     0.000 C 
ENDROOT
BRANCH   1   2
ATOM      2  C   UNL     1      54.804  26.659  49.685  1.00  0.00     0.004 C 
BRANCH   2   3
ATOM      3  C   UNL     1      55.987  26.286  50.596  1.00  0.00     0.027 C 
BRANCH   3   4
ATOM      4  C   UNL     1      57.307  26.755  50.051  1.00  0.00    -0.025 C 
ATOM      5  C   UNL     1      57.639  28.050  50.043  1.00  0.00     0.020 C 
BRANCH   5   6
ATOM      6  C   UNL     1      58.928  28.530  49.519  1.00  0.00     0.064 C 
ATOM      7  O   UNL     1      59.875  27.731  49.289  1.00  0.00    -0.545 OA
ATOM      8  O   UNL     1      59.104  29.885  49.274  1.00  0.00    -0.545 OA
ENDBRANCH   5   6
ENDBRANCH   3   4
ENDBRANCH   2   3
ENDBRANCH   1   2
BRANCH   1   9
ATOM      9  C   UNL     1      53.210  28.668  50.096  1.00  0.00     0.000 C 
BRANCH   9  10
ATOM     10  C   UNL     1      54.359  29.649  50.391  1.00  0.00     0.000 C 
BRANCH  10  11
ATOM     11  C   UNL     1      54.337  30.172  51.836  1.00  0.00    -0.000 C 
BRANCH  11  12
ATOM     12  C   UNL     1      55.627  29.837  52.604  1.00  0.00    -0.000 C 
BRANCH  12  13
ATOM     13  C   UNL     1      55.513  28.530  53.403  1.00  0.00    -0.003 C 
ATOM     14  C   UNL     1      54.103  28.285  53.941  1.00  0.00     0.004 C 
ENDBRANCH  12  13
ENDBRANCH  11  12
ENDBRANCH  10  11
ENDBRANCH   9  10
ENDBRANCH   1   9
TORSDOF 9
ENDMDL
