MODEL 1
REMARK VINA RESULT:    -4.853      0.000      0.000
REMARK INTER + INTRA:          -7.742
REMARK INTER:                  -7.407
REMARK INTRA:                  -0.335
REMARK UNBOUND:                -0.335
REMARK SMILES O=C([O-])CCCCCCCCC(=O)[O-]
REMARK SMILES IDX 7 1 6 2 5 3 4 4 2 5 1 6 3 7 8 8 9 9 10 10 11 11 12 12 13 13
REMARK SMILES IDX 14 14
REMARK H PARENT
REMARK Flexibility Score: inf
ROOT
ATOM      1  C   UNL     1      16.571   1.314  40.619  1.00  0.00     0.000 C 
ENDROOT
BRANCH   1   2
ATOM      2  C   UNL     1      16.837   2.704  41.215  1.00  0.00     0.000 C 
BRANCH   2   3
ATOM      3  C   UNL     1      18.227   2.814  41.866  1.00  0.00     0.006 C 
BRANCH   3   4
ATOM      4  C   UNL     1      19.354   2.808  40.825  1.00  0.00     0.053 C 
BRANCH   4   5
ATOM      5  C   UNL     1      20.676   3.153  41.438  1.00  0.00     0.041 C 
ATOM      6  O   UNL     1      21.563   2.268  41.570  1.00  0.00    -0.550 OA
ATOM      7  O   UNL     1      20.917   4.442  41.894  1.00  0.00    -0.550 OA
ENDBRANCH   4   5
ENDBRANCH   3   4
ENDBRANCH   2   3
ENDBRANCH   1   2
BRANCH   1   8
ATOM      8  C   UNL     1      15.166   0.786  40.949  1.00  0.00     0.000 C 
BRANCH   8   9
ATOM      9  C   UNL     1      15.139  -0.746  40.943  1.00  0.00     0.000 C 
BRANCH   9  10
ATOM     10  C   UNL     1      14.038  -1.273  40.011  1.00  0.00     0.006 C 
BRANCH  10  11
ATOM     11  C   UNL     1      12.901  -0.260  39.823  1.00  0.00     0.053 C 
BRANCH  11  12
ATOM     12  C   UNL     1      11.696  -0.619  40.638  1.00  0.00     0.041 C 
ATOM     13  O   UNL     1      11.534  -0.118  41.782  1.00  0.00    -0.550 OA
ATOM     14  O   UNL     1      10.769  -1.531  40.147  1.00  0.00    -0.550 OA
ENDBRANCH  11  12
ENDBRANCH  10  11
ENDBRANCH   9  10
ENDBRANCH   8   9
ENDBRANCH   1   8
TORSDOF 9
ENDMDL
MODEL 2
REMARK VINA RESULT:    -4.627      2.664      3.514
REMARK INTER + INTRA:          -7.397
REMARK INTER:                  -7.056
REMARK INTRA:                  -0.342
REMARK UNBOUND:                -0.335
REMARK SMILES O=C([O-])CCCCCCCCC(=O)[O-]
REMARK SMILES IDX 7 1 6 2 5 3 4 4 2 5 1 6 3 7 8 8 9 9 10 10 11 11 12 12 13 13
REMARK SMILES IDX 14 14
REMARK H PARENT
REMARK Flexibility Score: inf
ROOT
ATOM      1  C   UNL     1      16.435   1.045  40.632  1.00  0.00     0.000 C 
ENDROOT
BRANCH   1   2
ATOM      2  C   UNL     1      17.027   2.273  41.341  1.00  0.00     0.000 C 
BRANCH   2   3
ATOM      3  C   UNL     1      17.200   3.475  40.395  1.00  0.00     0.006 C 
BRANCH   3   4
ATOM      4  C   UNL     1      16.102   4.528  40.592  1.00  0.00     0.053 C 
BRANCH   4   5
ATOM      5  C   UNL     1      16.668   5.845  41.028  1.00  0.00     0.041 C 
ATOM      6  O   UNL     1      16.256   6.915  40.507  1.00  0.00    -0.550 OA
ATOM      7  O   UNL     1      17.675   5.887  41.983  1.00  0.00    -0.550 OA
ENDBRANCH   4   5
ENDBRANCH   3   4
ENDBRANCH   2   3
ENDBRANCH   1   2
BRANCH   1   8
ATOM      8  C   UNL     1      14.977   0.775  41.035  1.00  0.00     0.000 C 
BRANCH   8   9
ATOM      9  C   UNL     1      14.359  -0.319  40.156  1.00  0.00     0.000 C 
BRANCH   9  10
ATOM     10  C   UNL     1      13.812  -1.470  41.014  1.00  0.00     0.006 C 
BRANCH  10  11
ATOM     11  C   UNL     1      14.541  -2.793  40.745  1.00  0.00     0.053 C 
BRANCH  11  12
ATOM     12  C   UNL     1      13.777  -3.666  39.796  1.00  0.00     0.041 C 
ATOM     13  O   UNL     1      14.366  -4.584  39.168  1.00  0.00    -0.550 OA
ATOM     14  O   UNL     1      12.422  -3.444  39.582  1.00  0.00    -0.550 OA
ENDBRANCH  11  12
ENDBRANCH  10  11
ENDBRANCH   9  10
ENDBRANCH   8   9
ENDBRANCH   1   8
TORSDOF 9
ENDMDL
MODEL 3
REMARK VINA RESULT:    -4.622      2.740      7.347
REMARK INTER + INTRA:          -7.390
REMARK INTER:                  -7.083
REMARK INTRA:                  -0.306
REMARK UNBOUND:                -0.335
REMARK SMILES O=C([O-])CCCCCCCCC(=O)[O-]
REMARK SMILES IDX 7 1 6 2 5 3 4 4 2 5 1 6 3 7 8 8 9 9 10 10 11 11 12 12 13 13
REMARK SMILES IDX 14 14
REMARK H PARENT
REMARK Flexibility Score: inf
ROOT
ATOM      1  C   UNL     1      15.561   0.090  40.982  1.00  0.00     0.000 C 
ENDROOT
BRANCH   1   2
ATOM      2  C   UNL     1      14.256  -0.315  40.281  1.00  0.00     0.000 C 
BRANCH   2   3
ATOM      3  C   UNL     1      13.575  -1.521  40.951  1.00  0.00     0.006 C 
BRANCH   3   4
ATOM      4  C   UNL     1      14.382  -2.813  40.773  1.00  0.00     0.053 C 
BRANCH   4   5
ATOM      5  C   UNL     1      13.740  -3.736  39.783  1.00  0.00     0.041 C 
ATOM      6  O   UNL     1      12.504  -3.657  39.551  1.00  0.00    -0.550 OA
ATOM      7  O   UNL     1      14.499  -4.706  39.142  1.00  0.00    -0.550 OA
ENDBRANCH   4   5
ENDBRANCH   3   4
ENDBRANCH   2   3
ENDBRANCH   1   2
BRANCH   1   8
ATOM      8  C   UNL     1      15.791   1.610  40.974  1.00  0.00     0.000 C 
BRANCH   8   9
ATOM      9  C   UNL     1      17.219   1.947  40.531  1.00  0.00     0.000 C 
BRANCH   9  10
ATOM     10  C   UNL     1      17.830   3.036  41.426  1.00  0.00     0.006 C 
BRANCH  10  11
ATOM     11  C   UNL     1      16.757   3.872  42.138  1.00  0.00     0.053 C 
BRANCH  11  12
ATOM     12  C   UNL     1      16.398   5.099  41.357  1.00  0.00     0.041 C 
ATOM     13  O   UNL     1      15.336   5.132  40.683  1.00  0.00    -0.550 OA
ATOM     14  O   UNL     1      17.254   6.194  41.349  1.00  0.00    -0.550 OA
ENDBRANCH  11  12
ENDBRANCH  10  11
ENDBRANCH   9  10
ENDBRANCH   8   9
ENDBRANCH   1   8
TORSDOF 9
ENDMDL
MODEL 4
REMARK VINA RESULT:    -4.566      5.515      8.371
REMARK INTER + INTRA:          -7.304
REMARK INTER:                  -6.672
REMARK INTRA:                  -0.632
REMARK UNBOUND:                -0.335
REMARK SMILES O=C([O-])CCCCCCCCC(=O)[O-]
REMARK SMILES IDX 7 1 6 2 5 3 4 4 2 5 1 6 3 7 8 8 9 9 10 10 11 11 12 12 13 13
REMARK SMILES IDX 14 14
REMARK H PARENT
REMARK Flexibility Score: inf
ROOT
ATOM      1  C   UNL     1      11.594  -0.066  41.677  1.00  0.00     0.000 C 
ENDROOT
BRANCH   1   2
ATOM      2  C   UNL     1      10.374  -0.105  40.745  1.00  0.00     0.000 C 
BRANCH   2   3
ATOM      3  C   UNL     1       9.891  -1.539  40.463  1.00  0.00     0.006 C 
BRANCH   3   4
ATOM      4  C   UNL     1       8.378  -1.689  40.666  1.00  0.00     0.053 C 
BRANCH   4   5
ATOM      5  C   UNL     1       7.973  -1.368  42.072  1.00  0.00     0.041 C 
ATOM      6  O   UNL     1       7.067  -0.521  42.293  1.00  0.00    -0.550 OA
ATOM      7  O   UNL     1       8.619  -1.978  43.139  1.00  0.00    -0.550 OA
ENDBRANCH   4   5
ENDBRANCH   3   4
ENDBRANCH   2   3
ENDBRANCH   1   2
BRANCH   1   8
ATOM      8  C   UNL     1      12.847   0.497  40.989  1.00  0.00     0.000 C 
BRANCH   8   9
ATOM      9  C   UNL     1      14.034  -0.461  41.143  1.00  0.00     0.000 C 
BRANCH   9  10
ATOM     10  C   UNL     1      14.043  -1.512  40.023  1.00  0.00     0.006 C 
BRANCH  10  11
ATOM     11  C   UNL     1      14.153  -2.942  40.568  1.00  0.00     0.053 C 
BRANCH  11  12
ATOM     12  C   UNL     1      13.579  -3.947  39.616  1.00  0.00     0.041 C 
ATOM     13  O   UNL     1      14.341  -4.685  38.940  1.00  0.00    -0.550 OA
ATOM     14  O   UNL     1      12.202  -4.043  39.452  1.00  0.00    -0.550 OA
ENDBRANCH  11  12
ENDBRANCH  10  11
ENDBRANCH   9  10
ENDBRANCH   8   9
ENDBRANCH   1   8
TORSDOF 9
ENDMDL
MODEL 5
REMARK VINA RESULT:    -4.506      4.891      6.502
REMARK INTER + INTRA:          -7.211
REMARK INTER:                  -6.461
REMARK INTRA:                  -0.750
REMARK UNBOUND:                -0.335
REMARK SMILES O=C([O-])CCCCCCCCC(=O)[O-]
REMARK SMILES IDX 7 1 6 2 5 3 4 4 2 5 1 6 3 7 8 8 9 9 10 10 11 11 12 12 13 13
REMARK SMILES IDX 14 14
REMARK H PARENT
REMARK Flexibility Score: inf
ROOT
ATOM      1  C   UNL     1      16.162   4.064  41.678  1.00  0.00     0.000 C 
ENDROOT
BRANCH   1   2
ATOM      2  C   UNL     1      15.830   5.264  40.778  1.00  0.00     0.000 C 
BRANCH   2   3
ATOM      3  C   UNL     1      16.694   6.498  41.095  1.00  0.00     0.006 C 
BRANCH   3   4
ATOM      4  C   UNL     1      17.751   6.203  42.167  1.00  0.00     0.053 C 
BRANCH   4   5
ATOM      5  C   UNL     1      18.497   7.439  42.566  1.00  0.00     0.041 C 
ATOM      6  O   UNL     1      19.579   7.349  43.204  1.00  0.00    -0.550 OA
ATOM      7  O   UNL     1      17.979   8.692  42.263  1.00  0.00    -0.550 OA
ENDBRANCH   4   5
ENDBRANCH   3   4
ENDBRANCH   2   3
ENDBRANCH   1   2
BRANCH   1   8
ATOM      8  C   UNL     1      15.912   2.717  40.984  1.00  0.00     0.000 C 
BRANCH   8   9
ATOM      9  C   UNL     1      17.234   2.022  40.642  1.00  0.00     0.000 C 
BRANCH   9  10
ATOM     10  C   UNL     1      18.390   2.597  41.475  1.00  0.00     0.006 C 
BRANCH  10  11
ATOM     11  C   UNL     1      19.687   2.719  40.664  1.00  0.00     0.053 C 
BRANCH  11  12
ATOM     12  C   UNL     1      20.826   3.209  41.506  1.00  0.00     0.041 C 
ATOM     13  O   UNL     1      21.750   2.422  41.841  1.00  0.00    -0.550 OA
ATOM     14  O   UNL     1      20.848   4.526  41.948  1.00  0.00    -0.550 OA
ENDBRANCH  11  12
ENDBRANCH  10  11
ENDBRANCH   9  10
ENDBRANCH   8   9
ENDBRANCH   1   8
TORSDOF 9
ENDMDL
MODEL 6
REMARK VINA RESULT:    -4.497      2.368      2.832
REMARK INTER + INTRA:          -7.199
REMARK INTER:                  -6.825
REMARK INTRA:                  -0.374
REMARK UNBOUND:                -0.335
REMARK SMILES O=C([O-])CCCCCCCCC(=O)[O-]
REMARK SMILES IDX 7 1 6 2 5 3 4 4 2 5 1 6 3 7 8 8 9 9 10 10 11 11 12 12 13 13
REMARK SMILES IDX 14 14
REMARK H PARENT
REMARK Flexibility Score: inf
ROOT
ATOM      1  C   UNL     1      15.760   1.485  40.805  1.00  0.00     0.000 C 
ENDROOT
BRANCH   1   2
ATOM      2  C   UNL     1      17.237   1.821  40.556  1.00  0.00     0.000 C 
BRANCH   2   3
ATOM      3  C   UNL     1      17.463   3.317  40.271  1.00  0.00     0.006 C 
BRANCH   3   4
ATOM      4  C   UNL     1      16.271   4.176  40.713  1.00  0.00     0.053 C 
BRANCH   4   5
ATOM      5  C   UNL     1      16.706   5.533  41.174  1.00  0.00     0.041 C 
ATOM      6  O   UNL     1      17.183   5.686  42.329  1.00  0.00    -0.550 OA
ATOM      7  O   UNL     1      16.551   6.633  40.341  1.00  0.00    -0.550 OA
ENDBRANCH   4   5
ENDBRANCH   3   4
ENDBRANCH   2   3
ENDBRANCH   1   2
BRANCH   1   8
ATOM      8  C   UNL     1      15.514  -0.024  40.956  1.00  0.00     0.000 C 
BRANCH   8   9
ATOM      9  C   UNL     1      14.151  -0.419  40.377  1.00  0.00     0.000 C 
BRANCH   9  10
ATOM     10  C   UNL     1      13.174  -0.822  41.492  1.00  0.00     0.006 C 
BRANCH  10  11
ATOM     11  C   UNL     1      11.982   0.139  41.596  1.00  0.00     0.053 C 
BRANCH  11  12
ATOM     12  C   UNL     1      10.974  -0.105  40.515  1.00  0.00     0.041 C 
ATOM     13  O   UNL     1      10.558   0.851  39.810  1.00  0.00    -0.550 OA
ATOM     14  O   UNL     1      10.471  -1.384  40.307  1.00  0.00    -0.550 OA
ENDBRANCH  11  12
ENDBRANCH  10  11
ENDBRANCH   9  10
ENDBRANCH   8   9
ENDBRANCH   1   8
TORSDOF 9
ENDMDL
MODEL 7
REMARK VINA RESULT:    -4.489      4.806      5.894
REMARK INTER + INTRA:          -7.185
REMARK INTER:                  -6.580
REMARK INTRA:                  -0.605
REMARK UNBOUND:                -0.335
REMARK SMILES O=C([O-])CCCCCCCCC(=O)[O-]
REMARK SMILES IDX 7 1 6 2 5 3 4 4 2 5 1 6 3 7 8 8 9 9 10 10 11 11 12 12 13 13
REMARK SMILES IDX 14 14
REMARK H PARENT
REMARK Flexibility Score: inf
ROOT
ATOM      1  C   UNL     1      16.844   2.594  41.360  1.00  0.00     0.000 C 
ENDROOT
BRANCH   1   2
ATOM      2  C   UNL     1      17.726   1.837  40.356  1.00  0.00     0.000 C 
BRANCH   2   3
ATOM      3  C   UNL     1      19.151   2.412  40.268  1.00  0.00     0.006 C 
BRANCH   3   4
ATOM      4  C   UNL     1      19.533   3.202  41.526  1.00  0.00     0.053 C 
BRANCH   4   5
ATOM      5  C   UNL     1      21.016   3.221  41.740  1.00  0.00     0.041 C 
ATOM      6  O   UNL     1      21.709   2.207  41.461  1.00  0.00    -0.550 OA
ATOM      7  O   UNL     1      21.627   4.345  42.279  1.00  0.00    -0.550 OA
ENDBRANCH   4   5
ENDBRANCH   3   4
ENDBRANCH   2   3
ENDBRANCH   1   2
BRANCH   1   8
ATOM      8  C   UNL     1      16.231   3.871  40.765  1.00  0.00     0.000 C 
BRANCH   8   9
ATOM      9  C   UNL     1      15.463   4.660  41.831  1.00  0.00     0.000 C 
BRANCH   9  10
ATOM     10  C   UNL     1      16.423   5.478  42.708  1.00  0.00     0.006 C 
BRANCH  10  11
ATOM     11  C   UNL     1      17.421   6.293  41.874  1.00  0.00     0.053 C 
BRANCH  11  12
ATOM     12  C   UNL     1      16.757   7.441  41.176  1.00  0.00     0.041 C 
ATOM     13  O   UNL     1      17.062   7.721  39.987  1.00  0.00    -0.550 OA
ATOM     14  O   UNL     1      15.825   8.220  41.850  1.00  0.00    -0.550 OA
ENDBRANCH  11  12
ENDBRANCH  10  11
ENDBRANCH   9  10
ENDBRANCH   8   9
ENDBRANCH   1   8
TORSDOF 9
ENDMDL
MODEL 8
REMARK VINA RESULT:    -4.404      2.789      3.479
REMARK INTER + INTRA:          -7.057
REMARK INTER:                  -6.698
REMARK INTRA:                  -0.359
REMARK UNBOUND:                -0.335
REMARK SMILES O=C([O-])CCCCCCCCC(=O)[O-]
REMARK SMILES IDX 7 1 6 2 5 3 4 4 2 5 1 6 3 7 8 8 9 9 10 10 11 11 12 12 13 13
REMARK SMILES IDX 14 14
REMARK H PARENT
REMARK Flexibility Score: inf
ROOT
ATOM      1  C   UNL     1      17.013   2.904  40.335  1.00  0.00     0.000 C 
ENDROOT
BRANCH   1   2
ATOM      2  C   UNL     1      17.569   3.678  41.540  1.00  0.00     0.000 C 
BRANCH   2   3
ATOM      3  C   UNL     1      16.724   4.916  41.889  1.00  0.00     0.006 C 
BRANCH   3   4
ATOM      4  C   UNL     1      16.381   5.750  40.649  1.00  0.00     0.053 C 
BRANCH   4   5
ATOM      5  C   UNL     1      16.590   7.214  40.889  1.00  0.00     0.041 C 
ATOM      6  O   UNL     1      16.136   7.756  41.931  1.00  0.00    -0.550 OA
ATOM      7  O   UNL     1      17.256   7.985  39.946  1.00  0.00    -0.550 OA
ENDBRANCH   4   5
ENDBRANCH   3   4
ENDBRANCH   2   3
ENDBRANCH   1   2
BRANCH   1   8
ATOM      8  C   UNL     1      16.838   1.405  40.624  1.00  0.00     0.000 C 
BRANCH   8   9
ATOM      9  C   UNL     1      15.385   1.082  40.989  1.00  0.00     0.000 C 
BRANCH   9  10
ATOM     10  C   UNL     1      15.083  -0.409  40.778  1.00  0.00     0.006 C 
BRANCH  10  11
ATOM     11  C   UNL     1      13.898  -0.888  41.628  1.00  0.00     0.053 C 
BRANCH  11  12
ATOM     12  C   UNL     1      12.598  -0.332  41.133  1.00  0.00     0.041 C 
ATOM     13  O   UNL     1      11.939   0.469  41.847  1.00  0.00    -0.550 OA
ATOM     14  O   UNL     1      12.098  -0.724  39.898  1.00  0.00    -0.550 OA
ENDBRANCH  11  12
ENDBRANCH  10  11
ENDBRANCH   9  10
ENDBRANCH   8   9
ENDBRANCH   1   8
TORSDOF 9
ENDMDL
MODEL 9
REMARK VINA RESULT:    -4.376      2.863      7.239
REMARK INTER + INTRA:          -7.014
REMARK INTER:                  -6.625
REMARK INTRA:                  -0.388
REMARK UNBOUND:                -0.335
REMARK SMILES O=C([O-])CCCCCCCCC(=O)[O-]
REMARK SMILES IDX 7 1 6 2 5 3 4 4 2 5 1 6 3 7 8 8 9 9 10 10 11 11 12 12 13 13
REMARK SMILES IDX 14 14
REMARK H PARENT
REMARK Flexibility Score: inf
ROOT
ATOM      1  C   UNL     1      15.738   1.400  40.609  1.00  0.00     0.000 C 
ENDROOT
BRANCH   1   2
ATOM      2  C   UNL     1      15.411  -0.060  40.959  1.00  0.00     0.000 C 
BRANCH   2   3
ATOM      3  C   UNL     1      14.007  -0.481  40.488  1.00  0.00     0.006 C 
BRANCH   3   4
ATOM      4  C   UNL     1      13.005  -0.547  41.647  1.00  0.00     0.053 C 
BRANCH   4   5
ATOM      5  C   UNL     1      11.803   0.310  41.391  1.00  0.00     0.041 C 
ATOM      6  O   UNL     1      10.781  -0.180  40.843  1.00  0.00    -0.550 OA
ATOM      7  O   UNL     1      11.826   1.657  41.724  1.00  0.00    -0.550 OA
ENDBRANCH   4   5
ENDBRANCH   3   4
ENDBRANCH   2   3
ENDBRANCH   1   2
BRANCH   1   8
ATOM      8  C   UNL     1      17.238   1.714  40.721  1.00  0.00     0.000 C 
BRANCH   8   9
ATOM      9  C   UNL     1      17.464   3.176  41.122  1.00  0.00     0.000 C 
BRANCH   9  10
ATOM     10  C   UNL     1      16.272   4.052  40.706  1.00  0.00     0.006 C 
BRANCH  10  11
ATOM     11  C   UNL     1      16.091   5.265  41.629  1.00  0.00     0.053 C 
BRANCH  11  12
ATOM     12  C   UNL     1      15.766   6.507  40.857  1.00  0.00     0.041 C 
ATOM     13  O   UNL     1      16.635   7.039  40.117  1.00  0.00    -0.550 OA
ATOM     14  O   UNL     1      14.513   7.095  40.980  1.00  0.00    -0.550 OA
ENDBRANCH  11  12
ENDBRANCH  10  11
ENDBRANCH   9  10
ENDBRANCH   8   9
ENDBRANCH   1   8
TORSDOF 9
ENDMDL
