MODEL 1
REMARK VINA RESULT:    -4.327      0.000      0.000
REMARK INTER + INTRA:          -4.454
REMARK INTER:                  -4.454
REMARK INTRA:                   0.000
REMARK UNBOUND:                 0.000
REMARK SMILES Cc1cccc(O)c1C
REMARK SMILES IDX 1 1 2 2 8 3 6 4 5 5 4 6 3 7 9 8 7 9
REMARK H PARENT 7 10
REMARK Flexibility Score: inf
ROOT
ATOM      1  C   UNL     1     174.433 177.920 150.271  1.00  0.00     0.045 C 
ATOM      2  C   UNL     1     174.539 177.931 151.775  1.00  0.00    -0.045 A 
ATOM      3  C   UNL     1     173.390 177.947 152.614  1.00  0.00    -0.006 A 
ATOM      4  C   UNL     1     173.565 177.959 154.021  1.00  0.00     0.118 A 
ATOM      5  C   UNL     1     174.852 177.953 154.567  1.00  0.00     0.046 A 
ATOM      6  C   UNL     1     175.972 177.937 153.741  1.00  0.00     0.004 A 
ATOM      7  C   UNL     1     175.819 177.927 152.356  1.00  0.00     0.004 A 
ATOM      8  C   UNL     1     171.989 177.955 152.045  1.00  0.00     0.048 C 
ENDROOT
BRANCH   4   9
ATOM      9  O   UNL     1     172.484 177.975 154.905  1.00  0.00    -0.508 OA
ATOM     10  H   UNL     1     172.298 177.239 155.574  1.00  0.00     0.293 HD
ENDBRANCH   4   9
TORSDOF 1
ENDMDL
MODEL 2
REMARK VINA RESULT:    -4.185     10.766     12.490
REMARK INTER + INTRA:          -4.307
REMARK INTER:                  -4.307
REMARK INTRA:                   0.000
REMARK UNBOUND:                 0.000
REMARK SMILES Cc1cccc(O)c1C
REMARK SMILES IDX 1 1 2 2 8 3 6 4 5 5 4 6 3 7 9 8 7 9
REMARK H PARENT 7 10
REMARK Flexibility Score: inf
ROOT
ATOM      1  C   UNL     1     160.661 177.435 150.324  1.00  0.00     0.045 C 
ATOM      2  C   UNL     1     161.107 177.650 151.747  1.00  0.00    -0.045 A 
ATOM      3  C   UNL     1     162.477 177.589 152.128  1.00  0.00    -0.006 A 
ATOM      4  C   UNL     1     162.824 177.800 153.486  1.00  0.00     0.118 A 
ATOM      5  C   UNL     1     161.828 178.065 154.431  1.00  0.00     0.046 A 
ATOM      6  C   UNL     1     160.491 178.124 154.053  1.00  0.00     0.004 A 
ATOM      7  C   UNL     1     160.131 177.918 152.722  1.00  0.00     0.004 A 
ATOM      8  C   UNL     1     163.570 177.303 151.123  1.00  0.00     0.048 C 
ENDROOT
BRANCH   4   9
ATOM      9  O   UNL     1     164.148 177.755 153.931  1.00  0.00    -0.508 OA
ATOM     10  H   UNL     1     164.439 177.271 154.772  1.00  0.00     0.293 HD
ENDBRANCH   4   9
TORSDOF 1
ENDMDL
MODEL 3
REMARK VINA RESULT:    -4.139     12.639     13.513
REMARK INTER + INTRA:          -4.260
REMARK INTER:                  -4.260
REMARK INTRA:                   0.000
REMARK UNBOUND:                 0.000
REMARK SMILES Cc1cccc(O)c1C
REMARK SMILES IDX 1 1 2 2 8 3 6 4 5 5 4 6 3 7 9 8 7 9
REMARK H PARENT 7 10
REMARK Flexibility Score: inf
ROOT
ATOM      1  C   UNL     1     160.705 176.873 150.212  1.00  0.00     0.045 C 
ATOM      2  C   UNL     1     160.881 176.958 151.706  1.00  0.00    -0.045 A 
ATOM      3  C   UNL     1     160.282 176.021 152.593  1.00  0.00    -0.006 A 
ATOM      4  C   UNL     1     160.489 176.163 153.989  1.00  0.00     0.118 A 
ATOM      5  C   UNL     1     161.274 177.212 154.477  1.00  0.00     0.046 A 
ATOM      6  C   UNL     1     161.858 178.125 153.605  1.00  0.00     0.004 A 
ATOM      7  C   UNL     1     161.664 178.001 152.230  1.00  0.00     0.004 A 
ATOM      8  C   UNL     1     159.428 174.879 152.088  1.00  0.00     0.048 C 
ENDROOT
BRANCH   4   9
ATOM      9  O   UNL     1     159.932 175.282 154.918  1.00  0.00    -0.508 OA
ATOM     10  H   UNL     1     159.200 174.620 154.691  1.00  0.00     0.293 HD
ENDBRANCH   4   9
TORSDOF 1
ENDMDL
MODEL 4
REMARK VINA RESULT:    -3.981     10.420     12.591
REMARK INTER + INTRA:          -4.098
REMARK INTER:                  -4.098
REMARK INTRA:                   0.000
REMARK UNBOUND:                 0.000
REMARK SMILES Cc1cccc(O)c1C
REMARK SMILES IDX 1 1 2 2 8 3 6 4 5 5 4 6 3 7 9 8 7 9
REMARK H PARENT 7 10
REMARK Flexibility Score: inf
ROOT
ATOM      1  C   UNL     1     164.397 177.266 151.965  1.00  0.00     0.045 C 
ATOM      2  C   UNL     1     162.902 177.449 151.980  1.00  0.00    -0.045 A 
ATOM      3  C   UNL     1     162.183 177.707 153.180  1.00  0.00    -0.006 A 
ATOM      4  C   UNL     1     160.776 177.868 153.120  1.00  0.00     0.118 A 
ATOM      5  C   UNL     1     160.112 177.774 151.893  1.00  0.00     0.046 A 
ATOM      6  C   UNL     1     160.820 177.521 150.722  1.00  0.00     0.004 A 
ATOM      7  C   UNL     1     162.204 177.360 150.763  1.00  0.00     0.004 A 
ATOM      8  C   UNL     1     162.881 177.813 154.518  1.00  0.00     0.048 C 
ENDROOT
BRANCH   4   9
ATOM      9  O   UNL     1     160.006 178.123 154.257  1.00  0.00    -0.508 OA
ATOM     10  H   UNL     1     159.701 177.402 154.899  1.00  0.00     0.293 HD
ENDBRANCH   4   9
TORSDOF 1
ENDMDL
MODEL 5
REMARK VINA RESULT:    -3.876      2.504      2.966
REMARK INTER + INTRA:          -3.989
REMARK INTER:                  -3.989
REMARK INTRA:                   0.000
REMARK UNBOUND:                 0.000
REMARK SMILES Cc1cccc(O)c1C
REMARK SMILES IDX 1 1 2 2 8 3 6 4 5 5 4 6 3 7 9 8 7 9
REMARK H PARENT 7 10
REMARK Flexibility Score: inf
ROOT
ATOM      1  C   UNL     1     174.691 177.482 150.365  1.00  0.00     0.045 C 
ATOM      2  C   UNL     1     175.108 177.117 151.766  1.00  0.00    -0.045 A 
ATOM      3  C   UNL     1     175.486 175.792 152.122  1.00  0.00    -0.006 A 
ATOM      4  C   UNL     1     175.866 175.520 153.461  1.00  0.00     0.118 A 
ATOM      5  C   UNL     1     175.867 176.546 154.410  1.00  0.00     0.046 A 
ATOM      6  C   UNL     1     175.497 177.840 154.056  1.00  0.00     0.004 A 
ATOM      7  C   UNL     1     175.120 178.125 152.746  1.00  0.00     0.004 A 
ATOM      8  C   UNL     1     175.491 174.667 151.111  1.00  0.00     0.048 C 
ENDROOT
BRANCH   4   9
ATOM      9  O   UNL     1     176.248 174.244 153.881  1.00  0.00    -0.508 OA
ATOM     10  H   UNL     1     176.255 173.954 154.851  1.00  0.00     0.293 HD
ENDBRANCH   4   9
TORSDOF 1
ENDMDL
MODEL 6
REMARK VINA RESULT:    -3.852     11.596     13.055
REMARK INTER + INTRA:          -3.964
REMARK INTER:                  -3.964
REMARK INTRA:                   0.000
REMARK UNBOUND:                 0.000
REMARK SMILES Cc1cccc(O)c1C
REMARK SMILES IDX 1 1 2 2 8 3 6 4 5 5 4 6 3 7 9 8 7 9
REMARK H PARENT 7 10
REMARK Flexibility Score: inf
ROOT
ATOM      1  C   UNL     1     163.578 175.131 150.723  1.00  0.00     0.045 C 
ATOM      2  C   UNL     1     162.373 175.822 151.306  1.00  0.00    -0.045 A 
ATOM      3  C   UNL     1     161.668 175.298 152.426  1.00  0.00    -0.006 A 
ATOM      4  C   UNL     1     160.541 176.002 152.921  1.00  0.00     0.118 A 
ATOM      5  C   UNL     1     160.137 177.194 152.312  1.00  0.00     0.046 A 
ATOM      6  C   UNL     1     160.830 177.701 151.219  1.00  0.00     0.004 A 
ATOM      7  C   UNL     1     161.939 177.023 150.718  1.00  0.00     0.004 A 
ATOM      8  C   UNL     1     162.087 174.011 153.099  1.00  0.00     0.048 C 
ENDROOT
BRANCH   4   9
ATOM      9  O   UNL     1     159.802 175.547 154.016  1.00  0.00    -0.508 OA
ATOM     10  H   UNL     1     159.848 175.968 154.935  1.00  0.00     0.293 HD
ENDBRANCH   4   9
TORSDOF 1
ENDMDL
MODEL 7
REMARK VINA RESULT:    -3.798     21.707     22.673
REMARK INTER + INTRA:          -3.909
REMARK INTER:                  -3.909
REMARK INTRA:                   0.000
REMARK UNBOUND:                 0.000
REMARK SMILES Cc1cccc(O)c1C
REMARK SMILES IDX 1 1 2 2 8 3 6 4 5 5 4 6 3 7 9 8 7 9
REMARK H PARENT 7 10
REMARK Flexibility Score: inf
ROOT
ATOM      1  C   UNL     1     174.279 161.080 165.363  1.00  0.00     0.045 C 
ATOM      2  C   UNL     1     175.377 160.081 165.623  1.00  0.00    -0.045 A 
ATOM      3  C   UNL     1     176.098 159.458 164.566  1.00  0.00    -0.006 A 
ATOM      4  C   UNL     1     177.119 158.526 164.884  1.00  0.00     0.118 A 
ATOM      5  C   UNL     1     177.406 158.231 166.220  1.00  0.00     0.046 A 
ATOM      6  C   UNL     1     176.698 158.843 167.249  1.00  0.00     0.004 A 
ATOM      7  C   UNL     1     175.691 159.761 166.955  1.00  0.00     0.004 A 
ATOM      8  C   UNL     1     175.804 159.762 163.114  1.00  0.00     0.048 C 
ENDROOT
BRANCH   4   9
ATOM      9  O   UNL     1     177.867 157.877 163.899  1.00  0.00    -0.508 OA
ATOM     10  H   UNL     1     178.088 156.889 163.925  1.00  0.00     0.293 HD
ENDBRANCH   4   9
TORSDOF 1
ENDMDL
MODEL 8
REMARK VINA RESULT:    -3.776      2.505      3.255
REMARK INTER + INTRA:          -3.887
REMARK INTER:                  -3.887
REMARK INTRA:                   0.000
REMARK UNBOUND:                 0.000
REMARK SMILES Cc1cccc(O)c1C
REMARK SMILES IDX 1 1 2 2 8 3 6 4 5 5 4 6 3 7 9 8 7 9
REMARK H PARENT 7 10
REMARK Flexibility Score: inf
ROOT
ATOM      1  C   UNL     1     173.624 174.445 150.752  1.00  0.00     0.045 C 
ATOM      2  C   UNL     1     174.275 175.698 151.279  1.00  0.00    -0.045 A 
ATOM      3  C   UNL     1     175.015 175.712 152.494  1.00  0.00    -0.006 A 
ATOM      4  C   UNL     1     175.600 176.928 152.930  1.00  0.00     0.118 A 
ATOM      5  C   UNL     1     175.446 178.091 152.169  1.00  0.00     0.046 A 
ATOM      6  C   UNL     1     174.722 178.071 150.982  1.00  0.00     0.004 A 
ATOM      7  C   UNL     1     174.139 176.885 150.539  1.00  0.00     0.004 A 
ATOM      8  C   UNL     1     175.193 174.466 153.332  1.00  0.00     0.048 C 
ENDROOT
BRANCH   4   9
ATOM      9  O   UNL     1     176.339 177.016 154.112  1.00  0.00    -0.508 OA
ATOM     10  H   UNL     1     176.395 176.270 154.794  1.00  0.00     0.293 HD
ENDBRANCH   4   9
TORSDOF 1
ENDMDL
MODEL 9
REMARK VINA RESULT:    -3.704     10.091     11.693
REMARK INTER + INTRA:          -3.812
REMARK INTER:                  -3.812
REMARK INTRA:                   0.000
REMARK UNBOUND:                 0.000
REMARK SMILES Cc1cccc(O)c1C
REMARK SMILES IDX 1 1 2 2 8 3 6 4 5 5 4 6 3 7 9 8 7 9
REMARK H PARENT 7 10
REMARK Flexibility Score: inf
ROOT
ATOM      1  C   UNL     1     160.808 177.406 150.330  1.00  0.00     0.045 C 
ATOM      2  C   UNL     1     161.983 177.408 151.273  1.00  0.00    -0.045 A 
ATOM      3  C   UNL     1     161.849 177.745 152.649  1.00  0.00    -0.006 A 
ATOM      4  C   UNL     1     162.998 177.727 153.479  1.00  0.00     0.118 A 
ATOM      5  C   UNL     1     164.242 177.379 152.944  1.00  0.00     0.046 A 
ATOM      6  C   UNL     1     164.368 177.050 151.598  1.00  0.00     0.004 A 
ATOM      7  C   UNL     1     163.249 177.063 150.768  1.00  0.00     0.004 A 
ATOM      8  C   UNL     1     160.513 178.125 153.248  1.00  0.00     0.048 C 
ENDROOT
BRANCH   4   9
ATOM      9  O   UNL     1     162.941 178.047 154.837  1.00  0.00    -0.508 OA
ATOM     10  H   UNL     1     163.224 178.944 155.213  1.00  0.00     0.293 HD
ENDBRANCH   4   9
TORSDOF 1
ENDMDL
