MODEL 1
REMARK VINA RESULT:    -5.412      0.000      0.000
REMARK INTER + INTRA:          -6.266
REMARK INTER:                  -6.045
REMARK INTRA:                  -0.221
REMARK UNBOUND:                -0.221
REMARK SMILES CC(C)c1ccc(C(=O)[O-])cc1
REMARK SMILES IDX 7 1 6 2 11 3 5 4 12 5 4 6 8 7 9 8 10 9 2 10 1 11 3 12
REMARK H PARENT
REMARK Flexibility Score: inf
ROOT
ATOM      1  C   UNL     1      36.739  19.423   8.025  1.00  0.00    -0.003 A 
ATOM      2  C   UNL     1      38.109  19.218   8.268  1.00  0.00     0.010 A 
ATOM      3  C   UNL     1      35.819  19.161   9.054  1.00  0.00     0.010 A 
ATOM      4  C   UNL     1      38.547  18.759   9.513  1.00  0.00     0.004 A 
ATOM      5  C   UNL     1      36.257  18.703  10.299  1.00  0.00     0.004 A 
ATOM      6  C   UNL     1      37.628  18.497  10.543  1.00  0.00    -0.045 A 
ENDROOT
BRANCH   1   7
ATOM      7  C   UNL     1      36.271  19.909   6.708  1.00  0.00     0.071 C 
ATOM      8  O   UNL     1      37.056  19.950   5.724  1.00  0.00    -0.545 OA
ATOM      9  O   UNL     1      34.956  20.327   6.538  1.00  0.00    -0.545 OA
ENDBRANCH   1   7
BRANCH   6  10
ATOM     10  C   UNL     1      38.118  18.000  11.890  1.00  0.00     0.013 C 
ATOM     11  C   UNL     1      39.628  18.217  12.045  1.00  0.00     0.012 C 
ATOM     12  C   UNL     1      37.344  18.661  13.037  1.00  0.00     0.012 C 
ENDBRANCH   6  10
TORSDOF 2
ENDMDL
MODEL 2
REMARK VINA RESULT:    -5.216      2.862      5.053
REMARK INTER + INTRA:          -6.046
REMARK INTER:                  -5.825
REMARK INTRA:                  -0.221
REMARK UNBOUND:                -0.221
REMARK SMILES CC(C)c1ccc(C(=O)[O-])cc1
REMARK SMILES IDX 7 1 6 2 11 3 5 4 12 5 4 6 8 7 9 8 10 9 2 10 1 11 3 12
REMARK H PARENT
REMARK Flexibility Score: inf
ROOT
ATOM      1  C   UNL     1      37.963  18.696   9.795  1.00  0.00    -0.003 A 
ATOM      2  C   UNL     1      38.565  19.103   8.591  1.00  0.00     0.010 A 
ATOM      3  C   UNL     1      36.561  18.663   9.877  1.00  0.00     0.010 A 
ATOM      4  C   UNL     1      37.780  19.468   7.494  1.00  0.00     0.004 A 
ATOM      5  C   UNL     1      35.777  19.028   8.780  1.00  0.00     0.004 A 
ATOM      6  C   UNL     1      36.378  19.435   7.575  1.00  0.00    -0.045 A 
ENDROOT
BRANCH   1   7
ATOM      7  C   UNL     1      38.790  18.308  10.959  1.00  0.00     0.071 C 
ATOM      8  O   UNL     1      38.249  17.977  12.048  1.00  0.00    -0.545 OA
ATOM      9  O   UNL     1      40.177  18.302  10.867  1.00  0.00    -0.545 OA
ENDBRANCH   1   7
BRANCH   6  10
ATOM     10  C   UNL     1      35.538  19.834   6.376  1.00  0.00     0.013 C 
ATOM     11  C   UNL     1      36.395  19.934   5.108  1.00  0.00     0.012 C 
ATOM     12  C   UNL     1      34.367  18.866   6.175  1.00  0.00     0.012 C 
ENDBRANCH   6  10
TORSDOF 2
ENDMDL
MODEL 3
REMARK VINA RESULT:    -5.190      9.586     11.105
REMARK INTER + INTRA:          -6.018
REMARK INTER:                  -5.809
REMARK INTRA:                  -0.209
REMARK UNBOUND:                -0.221
REMARK SMILES CC(C)c1ccc(C(=O)[O-])cc1
REMARK SMILES IDX 7 1 6 2 11 3 5 4 12 5 4 6 8 7 9 8 10 9 2 10 1 11 3 12
REMARK H PARENT
REMARK Flexibility Score: inf
ROOT
ATOM      1  C   UNL     1      32.672  13.668  15.487  1.00  0.00    -0.003 A 
ATOM      2  C   UNL     1      31.468  14.340  15.764  1.00  0.00     0.010 A 
ATOM      3  C   UNL     1      32.619  12.368  14.958  1.00  0.00     0.010 A 
ATOM      4  C   UNL     1      30.239  13.723  15.517  1.00  0.00     0.004 A 
ATOM      5  C   UNL     1      31.390  11.751  14.711  1.00  0.00     0.004 A 
ATOM      6  C   UNL     1      30.184  12.423  14.988  1.00  0.00    -0.045 A 
ENDROOT
BRANCH   1   7
ATOM      7  C   UNL     1      33.976  14.318  15.747  1.00  0.00     0.071 C 
ATOM      8  O   UNL     1      34.982  14.042  15.040  1.00  0.00    -0.545 OA
ATOM      9  O   UNL     1      34.109  15.244  16.775  1.00  0.00    -0.545 OA
ENDBRANCH   1   7
BRANCH   6  10
ATOM     10  C   UNL     1      28.843  11.765  14.725  1.00  0.00     0.013 C 
ATOM     11  C   UNL     1      27.936  11.843  15.959  1.00  0.00     0.012 C 
ATOM     12  C   UNL     1      28.158  12.378  13.497  1.00  0.00     0.012 C 
ENDBRANCH   6  10
TORSDOF 2
ENDMDL
MODEL 4
REMARK VINA RESULT:    -5.188      2.848      5.172
REMARK INTER + INTRA:          -6.015
REMARK INTER:                  -5.794
REMARK INTRA:                  -0.221
REMARK UNBOUND:                -0.221
REMARK SMILES CC(C)c1ccc(C(=O)[O-])cc1
REMARK SMILES IDX 7 1 6 2 11 3 5 4 12 5 4 6 8 7 9 8 10 9 2 10 1 11 3 12
REMARK H PARENT
REMARK Flexibility Score: inf
ROOT
ATOM      1  C   UNL     1      37.946  18.725   9.720  1.00  0.00    -0.003 A 
ATOM      2  C   UNL     1      36.541  18.730   9.787  1.00  0.00     0.010 A 
ATOM      3  C   UNL     1      38.571  19.101   8.520  1.00  0.00     0.010 A 
ATOM      4  C   UNL     1      35.780  19.103   8.676  1.00  0.00     0.004 A 
ATOM      5  C   UNL     1      37.809  19.474   7.409  1.00  0.00     0.004 A 
ATOM      6  C   UNL     1      36.403  19.479   7.475  1.00  0.00    -0.045 A 
ENDROOT
BRANCH   1   7
ATOM      7  C   UNL     1      38.756  18.332  10.894  1.00  0.00     0.071 C 
ATOM      8  O   UNL     1      40.014  18.307  10.826  1.00  0.00    -0.545 OA
ATOM      9  O   UNL     1      38.139  17.985  12.091  1.00  0.00    -0.545 OA
ENDBRANCH   1   7
BRANCH   6  10
ATOM     10  C   UNL     1      35.564  19.881   6.276  1.00  0.00     0.013 C 
ATOM     11  C   UNL     1      36.409  19.920   4.997  1.00  0.00     0.012 C 
ATOM     12  C   UNL     1      34.355  18.953   6.111  1.00  0.00     0.012 C 
ENDBRANCH   6  10
TORSDOF 2
ENDMDL
MODEL 5
REMARK VINA RESULT:    -5.124      2.454      3.865
REMARK INTER + INTRA:          -5.944
REMARK INTER:                  -5.725
REMARK INTRA:                  -0.219
REMARK UNBOUND:                -0.221
REMARK SMILES CC(C)c1ccc(C(=O)[O-])cc1
REMARK SMILES IDX 7 1 6 2 11 3 5 4 12 5 4 6 8 7 9 8 10 9 2 10 1 11 3 12
REMARK H PARENT
REMARK Flexibility Score: inf
ROOT
ATOM      1  C   UNL     1      34.706  19.573   5.029  1.00  0.00    -0.003 A 
ATOM      2  C   UNL     1      36.062  19.939   4.947  1.00  0.00     0.010 A 
ATOM      3  C   UNL     1      34.181  19.185   6.273  1.00  0.00     0.010 A 
ATOM      4  C   UNL     1      36.873  19.917   6.084  1.00  0.00     0.004 A 
ATOM      5  C   UNL     1      34.993  19.162   7.410  1.00  0.00     0.004 A 
ATOM      6  C   UNL     1      36.349  19.529   7.329  1.00  0.00    -0.045 A 
ENDROOT
BRANCH   1   7
ATOM      7  C   UNL     1      33.844  19.596   3.827  1.00  0.00     0.071 C 
ATOM      8  O   UNL     1      34.075  20.402   2.887  1.00  0.00    -0.545 OA
ATOM      9  O   UNL     1      32.765  18.726   3.718  1.00  0.00    -0.545 OA
ENDBRANCH   1   7
BRANCH   6  10
ATOM     10  C   UNL     1      37.241  19.509   8.556  1.00  0.00     0.013 C 
ATOM     11  C   UNL     1      36.613  18.680   9.683  1.00  0.00     0.012 C 
ATOM     12  C   UNL     1      38.645  18.998   8.211  1.00  0.00     0.012 C 
ENDBRANCH   6  10
TORSDOF 2
ENDMDL
MODEL 6
REMARK VINA RESULT:    -5.073      3.175      4.461
REMARK INTER + INTRA:          -5.886
REMARK INTER:                  -5.677
REMARK INTRA:                  -0.210
REMARK UNBOUND:                -0.221
REMARK SMILES CC(C)c1ccc(C(=O)[O-])cc1
REMARK SMILES IDX 7 1 6 2 11 3 5 4 12 5 4 6 8 7 9 8 10 9 2 10 1 11 3 12
REMARK H PARENT
REMARK Flexibility Score: inf
ROOT
ATOM      1  C   UNL     1      39.809  18.299  10.636  1.00  0.00    -0.003 A 
ATOM      2  C   UNL     1      38.636  18.337   9.860  1.00  0.00     0.010 A 
ATOM      3  C   UNL     1      39.698  18.311  12.036  1.00  0.00     0.010 A 
ATOM      4  C   UNL     1      37.382  18.386  10.473  1.00  0.00     0.004 A 
ATOM      5  C   UNL     1      38.443  18.360  12.649  1.00  0.00     0.004 A 
ATOM      6  C   UNL     1      37.270  18.398  11.873  1.00  0.00    -0.045 A 
ENDROOT
BRANCH   1   7
ATOM      7  C   UNL     1      41.139  18.247   9.991  1.00  0.00     0.071 C 
ATOM      8  O   UNL     1      41.264  17.817   8.813  1.00  0.00    -0.545 OA
ATOM      9  O   UNL     1      42.272  18.673  10.676  1.00  0.00    -0.545 OA
ENDBRANCH   1   7
BRANCH   6  10
ATOM     10  C   UNL     1      35.901  18.451  12.526  1.00  0.00     0.013 C 
ATOM     11  C   UNL     1      35.035  19.555  11.907  1.00  0.00     0.012 C 
ATOM     12  C   UNL     1      35.198  17.090  12.448  1.00  0.00     0.012 C 
ENDBRANCH   6  10
TORSDOF 2
ENDMDL
MODEL 7
REMARK VINA RESULT:    -5.055      3.219      4.467
REMARK INTER + INTRA:          -5.866
REMARK INTER:                  -5.659
REMARK INTRA:                  -0.207
REMARK UNBOUND:                -0.221
REMARK SMILES CC(C)c1ccc(C(=O)[O-])cc1
REMARK SMILES IDX 7 1 6 2 11 3 5 4 12 5 4 6 8 7 9 8 10 9 2 10 1 11 3 12
REMARK H PARENT
REMARK Flexibility Score: inf
ROOT
ATOM      1  C   UNL     1      39.886  18.348  10.664  1.00  0.00    -0.003 A 
ATOM      2  C   UNL     1      39.747  18.362  12.063  1.00  0.00     0.010 A 
ATOM      3  C   UNL     1      38.730  18.349   9.866  1.00  0.00     0.010 A 
ATOM      4  C   UNL     1      38.479  18.376  12.650  1.00  0.00     0.004 A 
ATOM      5  C   UNL     1      37.462  18.362  10.453  1.00  0.00     0.004 A 
ATOM      6  C   UNL     1      37.323  18.376  11.853  1.00  0.00    -0.045 A 
ENDROOT
BRANCH   1   7
ATOM      7  C   UNL     1      41.227  18.335  10.039  1.00  0.00     0.071 C 
ATOM      8  O   UNL     1      41.386  17.884   8.873  1.00  0.00    -0.545 OA
ATOM      9  O   UNL     1      42.331  18.821  10.729  1.00  0.00    -0.545 OA
ENDBRANCH   1   7
BRANCH   6  10
ATOM     10  C   UNL     1      35.952  18.391  12.504  1.00  0.00     0.013 C 
ATOM     11  C   UNL     1      35.069  19.496  11.910  1.00  0.00     0.012 C 
ATOM     12  C   UNL     1      35.272  17.022  12.392  1.00  0.00     0.012 C 
ENDBRANCH   6  10
TORSDOF 2
ENDMDL
MODEL 8
REMARK VINA RESULT:    -5.040      3.038      4.372
REMARK INTER + INTRA:          -5.850
REMARK INTER:                  -5.638
REMARK INTRA:                  -0.212
REMARK UNBOUND:                -0.221
REMARK SMILES CC(C)c1ccc(C(=O)[O-])cc1
REMARK SMILES IDX 7 1 6 2 11 3 5 4 12 5 4 6 8 7 9 8 10 9 2 10 1 11 3 12
REMARK H PARENT
REMARK Flexibility Score: inf
ROOT
ATOM      1  C   UNL     1      36.747  18.365  11.626  1.00  0.00    -0.003 A 
ATOM      2  C   UNL     1      36.922  18.313  10.232  1.00  0.00     0.010 A 
ATOM      3  C   UNL     1      37.882  18.365  12.455  1.00  0.00     0.010 A 
ATOM      4  C   UNL     1      38.204  18.262   9.680  1.00  0.00     0.004 A 
ATOM      5  C   UNL     1      39.164  18.313  11.902  1.00  0.00     0.004 A 
ATOM      6  C   UNL     1      39.340  18.261  10.507  1.00  0.00    -0.045 A 
ENDROOT
BRANCH   1   7
ATOM      7  C   UNL     1      35.391  18.421  12.215  1.00  0.00     0.071 C 
ATOM      8  O   UNL     1      34.721  19.488  12.183  1.00  0.00    -0.545 OA
ATOM      9  O   UNL     1      34.836  17.295  12.812  1.00  0.00    -0.545 OA
ENDBRANCH   1   7
BRANCH   6  10
ATOM     10  C   UNL     1      40.727  18.205   9.894  1.00  0.00     0.013 C 
ATOM     11  C   UNL     1      40.820  19.099   8.652  1.00  0.00     0.012 C 
ATOM     12  C   UNL     1      41.801  18.576  10.923  1.00  0.00     0.012 C 
ENDBRANCH   6  10
TORSDOF 2
ENDMDL
MODEL 9
REMARK VINA RESULT:    -4.927      2.496      3.779
REMARK INTER + INTRA:          -5.724
REMARK INTER:                  -5.506
REMARK INTRA:                  -0.218
REMARK UNBOUND:                -0.221
REMARK SMILES CC(C)c1ccc(C(=O)[O-])cc1
REMARK SMILES IDX 7 1 6 2 11 3 5 4 12 5 4 6 8 7 9 8 10 9 2 10 1 11 3 12
REMARK H PARENT
REMARK Flexibility Score: inf
ROOT
ATOM      1  C   UNL     1      35.079  20.189   6.746  1.00  0.00    -0.003 A 
ATOM      2  C   UNL     1      34.048  21.010   7.237  1.00  0.00     0.010 A 
ATOM      3  C   UNL     1      35.940  19.559   7.659  1.00  0.00     0.010 A 
ATOM      4  C   UNL     1      33.884  21.196   8.612  1.00  0.00     0.004 A 
ATOM      5  C   UNL     1      35.776  19.745   9.034  1.00  0.00     0.004 A 
ATOM      6  C   UNL     1      34.744  20.566   9.526  1.00  0.00    -0.045 A 
ENDROOT
BRANCH   1   7
ATOM      7  C   UNL     1      35.257  19.989   5.290  1.00  0.00     0.071 C 
ATOM      8  O   UNL     1      34.257  19.926   4.525  1.00  0.00    -0.545 OA
ATOM      9  O   UNL     1      36.530  19.870   4.746  1.00  0.00    -0.545 OA
ENDBRANCH   1   7
BRANCH   6  10
ATOM     10  C   UNL     1      34.554  20.776  11.017  1.00  0.00     0.013 C 
ATOM     11  C   UNL     1      33.092  21.096  11.349  1.00  0.00     0.012 C 
ATOM     12  C   UNL     1      35.048  19.563  11.814  1.00  0.00     0.012 C 
ENDBRANCH   6  10
TORSDOF 2
ENDMDL
