MODEL 1
REMARK VINA RESULT:    -3.053      0.000      0.000
REMARK INTER + INTRA:          -3.881
REMARK INTER:                  -3.767
REMARK INTRA:                  -0.115
REMARK UNBOUND:                -0.115
REMARK SMILES CCCCCC(=O)[O-]
REMARK SMILES IDX 4 1 5 2 6 3 7 4 8 5 3 6 2 7 1 8
REMARK H PARENT
REMARK Flexibility Score: inf
ROOT
ATOM      1  C   UNL     1      -9.081   4.004   7.918  1.00  0.00     0.006 C 
ENDROOT
BRANCH   1   2
ATOM      2  C   UNL     1      -8.937   3.204   6.620  1.00  0.00     0.053 C 
BRANCH   2   3
ATOM      3  C   UNL     1      -9.536   1.842   6.775  1.00  0.00     0.041 C 
ATOM      4  O   UNL     1     -10.124   1.527   7.843  1.00  0.00    -0.550 OA
ATOM      5  O   UNL     1      -9.403   0.903   5.760  1.00  0.00    -0.550 OA
ENDBRANCH   2   3
ENDBRANCH   1   2
BRANCH   1   6
ATOM      6  C   UNL     1     -10.021   5.200   7.725  1.00  0.00     0.000 C 
BRANCH   6   7
ATOM      7  C   UNL     1     -10.013   6.109   8.960  1.00  0.00    -0.003 C 
ATOM      8  C   UNL     1      -9.009   5.619   9.999  1.00  0.00     0.004 C 
ENDBRANCH   6   7
ENDBRANCH   1   6
TORSDOF 4
ENDMDL
MODEL 2
REMARK VINA RESULT:    -3.025     19.741     20.613
REMARK INTER + INTRA:          -3.847
REMARK INTER:                  -3.739
REMARK INTRA:                  -0.108
REMARK UNBOUND:                -0.115
REMARK SMILES CCCCCC(=O)[O-]
REMARK SMILES IDX 4 1 5 2 6 3 7 4 8 5 3 6 2 7 1 8
REMARK H PARENT
REMARK Flexibility Score: inf
ROOT
ATOM      1  C   UNL     1       8.846  -4.039   7.864  1.00  0.00     0.006 C 
ENDROOT
BRANCH   1   2
ATOM      2  C   UNL     1       8.634  -3.156   6.632  1.00  0.00     0.053 C 
BRANCH   2   3
ATOM      3  C   UNL     1       9.381  -1.868   6.775  1.00  0.00     0.041 C 
ATOM      4  O   UNL     1       9.376  -1.025   5.840  1.00  0.00    -0.550 OA
ATOM      5  O   UNL     1      10.123  -1.618   7.923  1.00  0.00    -0.550 OA
ENDBRANCH   2   3
ENDBRANCH   1   2
BRANCH   1   6
ATOM      6  C   UNL     1       9.909  -5.111   7.596  1.00  0.00     0.000 C 
BRANCH   6   7
ATOM      7  C   UNL     1       9.968  -6.127   8.744  1.00  0.00    -0.003 C 
ATOM      8  C   UNL     1       9.147  -5.654   9.940  1.00  0.00     0.004 C 
ENDBRANCH   6   7
ENDBRANCH   1   6
TORSDOF 4
ENDMDL
MODEL 3
REMARK VINA RESULT:    -2.995      2.568      4.200
REMARK INTER + INTRA:          -3.811
REMARK INTER:                  -3.636
REMARK INTRA:                  -0.174
REMARK UNBOUND:                -0.115
REMARK SMILES CCCCCC(=O)[O-]
REMARK SMILES IDX 4 1 5 2 6 3 7 4 8 5 3 6 2 7 1 8
REMARK H PARENT
REMARK Flexibility Score: inf
ROOT
ATOM      1  C   UNL     1      -8.900   4.309   6.688  1.00  0.00     0.006 C 
ENDROOT
BRANCH   1   2
ATOM      2  C   UNL     1      -9.845   5.027   7.655  1.00  0.00     0.053 C 
BRANCH   2   3
ATOM      3  C   UNL     1      -9.235   5.112   9.018  1.00  0.00     0.041 C 
ATOM      4  O   UNL     1      -9.865   4.685  10.021  1.00  0.00    -0.550 OA
ATOM      5  O   UNL     1      -7.991   5.705   9.188  1.00  0.00    -0.550 OA
ENDBRANCH   2   3
ENDBRANCH   1   2
BRANCH   1   6
ATOM      6  C   UNL     1      -8.608   2.880   7.164  1.00  0.00     0.000 C 
BRANCH   6   7
ATOM      7  C   UNL     1      -9.856   1.997   7.053  1.00  0.00    -0.003 C 
ATOM      8  C   UNL     1      -9.730   1.010   5.895  1.00  0.00     0.004 C 
ENDBRANCH   6   7
ENDBRANCH   1   6
TORSDOF 4
ENDMDL
MODEL 4
REMARK VINA RESULT:    -2.993     16.418     17.277
REMARK INTER + INTRA:          -3.808
REMARK INTER:                  -3.671
REMARK INTRA:                  -0.137
REMARK UNBOUND:                -0.115
REMARK SMILES CCCCCC(=O)[O-]
REMARK SMILES IDX 4 1 5 2 6 3 7 4 8 5 3 6 2 7 1 8
REMARK H PARENT
REMARK Flexibility Score: inf
ROOT
ATOM      1  C   UNL     1      -7.166   6.253  -7.801  1.00  0.00     0.006 C 
ENDROOT
BRANCH   1   2
ATOM      2  C   UNL     1      -6.443   6.064  -9.138  1.00  0.00     0.053 C 
BRANCH   2   3
ATOM      3  C   UNL     1      -5.024   6.523  -9.036  1.00  0.00     0.041 C 
ATOM      4  O   UNL     1      -4.129   5.731  -8.642  1.00  0.00    -0.550 OA
ATOM      5  O   UNL     1      -4.696   7.840  -9.330  1.00  0.00    -0.550 OA
ENDBRANCH   2   3
ENDBRANCH   1   2
BRANCH   1   6
ATOM      6  C   UNL     1      -8.082   7.482  -7.840  1.00  0.00     0.000 C 
BRANCH   6   7
ATOM      7  C   UNL     1      -8.905   7.514  -9.133  1.00  0.00    -0.003 C 
ATOM      8  C   UNL     1     -10.039   8.531  -9.039  1.00  0.00     0.004 C 
ENDBRANCH   6   7
ENDBRANCH   1   6
TORSDOF 4
ENDMDL
MODEL 5
REMARK VINA RESULT:    -2.978     15.821     17.417
REMARK INTER + INTRA:          -3.790
REMARK INTER:                  -3.844
REMARK INTRA:                   0.054
REMARK UNBOUND:                -0.115
REMARK SMILES CCCCCC(=O)[O-]
REMARK SMILES IDX 4 1 5 2 6 3 7 4 8 5 3 6 2 7 1 8
REMARK H PARENT
REMARK Flexibility Score: inf
ROOT
ATOM      1  C   UNL     1      -9.421  -4.561  -6.692  1.00  0.00     0.006 C 
ENDROOT
BRANCH   1   2
ATOM      2  C   UNL     1      -9.916  -5.411  -7.866  1.00  0.00     0.053 C 
BRANCH   2   3
ATOM      3  C   UNL     1      -9.034  -5.220  -9.059  1.00  0.00     0.041 C 
ATOM      4  O   UNL     1      -7.887  -5.738  -9.087  1.00  0.00    -0.550 OA
ATOM      5  O   UNL     1      -9.459  -4.431 -10.120  1.00  0.00    -0.550 OA
ENDBRANCH   2   3
ENDBRANCH   1   2
BRANCH   1   6
ATOM      6  C   UNL     1      -8.828  -3.235  -7.184  1.00  0.00     0.000 C 
BRANCH   6   7
ATOM      7  C   UNL     1      -9.895  -2.135  -7.218  1.00  0.00    -0.003 C 
ATOM      8  C   UNL     1      -9.703  -1.145  -6.073  1.00  0.00     0.004 C 
ENDBRANCH   6   7
ENDBRANCH   1   6
TORSDOF 4
ENDMDL
MODEL 6
REMARK VINA RESULT:    -2.920     24.544     26.158
REMARK INTER + INTRA:          -3.717
REMARK INTER:                  -3.603
REMARK INTRA:                  -0.114
REMARK UNBOUND:                -0.115
REMARK SMILES CCCCCC(=O)[O-]
REMARK SMILES IDX 4 1 5 2 6 3 7 4 8 5 3 6 2 7 1 8
REMARK H PARENT
REMARK Flexibility Score: inf
ROOT
ATOM      1  C   UNL     1       8.018  -7.057  -8.328  1.00  0.00     0.006 C 
ENDROOT
BRANCH   1   2
ATOM      2  C   UNL     1       6.848  -6.156  -7.924  1.00  0.00     0.053 C 
BRANCH   2   3
ATOM      3  C   UNL     1       5.581  -6.624  -8.565  1.00  0.00     0.041 C 
ATOM      4  O   UNL     1       4.553  -5.897  -8.543  1.00  0.00    -0.550 OA
ATOM      5  O   UNL     1       5.519  -7.884  -9.146  1.00  0.00    -0.550 OA
ENDBRANCH   2   3
ENDBRANCH   1   2
BRANCH   1   6
ATOM      6  C   UNL     1       8.766  -6.479  -9.536  1.00  0.00     0.000 C 
BRANCH   6   7
ATOM      7  C   UNL     1      10.072  -7.241  -9.790  1.00  0.00    -0.003 C 
ATOM      8  C   UNL     1      10.071  -8.590  -9.076  1.00  0.00     0.004 C 
ENDBRANCH   6   7
ENDBRANCH   1   6
TORSDOF 4
ENDMDL
MODEL 7
REMARK VINA RESULT:    -2.919      8.682      9.964
REMARK INTER + INTRA:          -3.716
REMARK INTER:                  -3.591
REMARK INTRA:                  -0.125
REMARK UNBOUND:                -0.115
REMARK SMILES CCCCCC(=O)[O-]
REMARK SMILES IDX 4 1 5 2 6 3 7 4 8 5 3 6 2 7 1 8
REMARK H PARENT
REMARK Flexibility Score: inf
ROOT
ATOM      1  C   UNL     1      -7.176  -5.000   8.663  1.00  0.00     0.006 C 
ENDROOT
BRANCH   1   2
ATOM      2  C   UNL     1      -7.834  -5.038  10.046  1.00  0.00     0.053 C 
BRANCH   2   3
ATOM      3  C   UNL     1      -9.290  -4.716   9.942  1.00  0.00     0.041 C 
ATOM      4  O   UNL     1     -10.125  -5.628   9.705  1.00  0.00    -0.550 OA
ATOM      5  O   UNL     1      -9.723  -3.401  10.060  1.00  0.00    -0.550 OA
ENDBRANCH   2   3
ENDBRANCH   1   2
BRANCH   1   6
ATOM      6  C   UNL     1      -6.504  -6.339   8.337  1.00  0.00     0.000 C 
BRANCH   6   7
ATOM      7  C   UNL     1      -5.389  -6.654   9.340  1.00  0.00    -0.003 C 
ATOM      8  C   UNL     1      -4.189  -5.733   9.137  1.00  0.00     0.004 C 
ENDBRANCH   6   7
ENDBRANCH   1   6
TORSDOF 4
ENDMDL
MODEL 8
REMARK VINA RESULT:    -2.918     10.386     11.409
REMARK INTER + INTRA:          -3.715
REMARK INTER:                  -3.550
REMARK INTRA:                  -0.165
REMARK UNBOUND:                -0.115
REMARK SMILES CCCCCC(=O)[O-]
REMARK SMILES IDX 4 1 5 2 6 3 7 4 8 5 3 6 2 7 1 8
REMARK H PARENT
REMARK Flexibility Score: inf
ROOT
ATOM      1  C   UNL     1      -7.148  -6.042   7.832  1.00  0.00     0.006 C 
ENDROOT
BRANCH   1   2
ATOM      2  C   UNL     1      -6.414  -5.866   9.165  1.00  0.00     0.053 C 
BRANCH   2   3
ATOM      3  C   UNL     1      -5.020  -6.402   9.070  1.00  0.00     0.041 C 
ATOM      4  O   UNL     1      -4.086  -5.667   8.656  1.00  0.00    -0.550 OA
ATOM      5  O   UNL     1      -4.761  -7.728   9.393  1.00  0.00    -0.550 OA
ENDBRANCH   2   3
ENDBRANCH   1   2
BRANCH   1   6
ATOM      6  C   UNL     1      -7.928  -7.362   7.804  1.00  0.00     0.000 C 
BRANCH   6   7
ATOM      7  C   UNL     1      -8.634  -7.613   9.141  1.00  0.00    -0.003 C 
ATOM      8  C   UNL     1      -9.951  -8.356   8.938  1.00  0.00     0.004 C 
ENDBRANCH   6   7
ENDBRANCH   1   6
TORSDOF 4
ENDMDL
