MODEL 1
REMARK VINA RESULT:    -5.311      0.000      0.000
REMARK INTER + INTRA:          -6.153
REMARK INTER:                  -5.932
REMARK INTRA:                  -0.221
REMARK UNBOUND:                -0.221
REMARK SMILES CC(C)c1ccc(C(=O)[O-])cc1
REMARK SMILES IDX 7 1 6 2 11 3 5 4 12 5 4 6 8 7 9 8 10 9 2 10 1 11 3 12
REMARK H PARENT
REMARK Flexibility Score: inf
ROOT
ATOM      1  C   UNL     1     -15.713  81.029  75.690  1.00  0.00    -0.003 A 
ATOM      2  C   UNL     1     -14.726  81.429  76.605  1.00  0.00     0.010 A 
ATOM      3  C   UNL     1     -16.115  81.927  74.686  1.00  0.00     0.010 A 
ATOM      4  C   UNL     1     -14.151  82.701  76.520  1.00  0.00     0.004 A 
ATOM      5  C   UNL     1     -15.541  83.198  74.600  1.00  0.00     0.004 A 
ATOM      6  C   UNL     1     -14.552  83.599  75.518  1.00  0.00    -0.045 A 
ENDROOT
BRANCH   1   7
ATOM      7  C   UNL     1     -16.318  79.682  75.783  1.00  0.00     0.071 C 
ATOM      8  O   UNL     1     -16.050  78.924  76.753  1.00  0.00    -0.545 OA
ATOM      9  O   UNL     1     -17.194  79.234  74.800  1.00  0.00    -0.545 OA
ENDBRANCH   1   7
BRANCH   6  10
ATOM     10  C   UNL     1     -13.921  84.977  75.437  1.00  0.00     0.013 C 
ATOM     11  C   UNL     1     -13.276  85.369  76.771  1.00  0.00     0.012 C 
ATOM     12  C   UNL     1     -14.944  86.028  74.988  1.00  0.00     0.012 C 
ENDBRANCH   6  10
TORSDOF 2
ENDMDL
MODEL 2
REMARK VINA RESULT:    -5.069     12.421     14.368
REMARK INTER + INTRA:          -5.883
REMARK INTER:                  -5.662
REMARK INTRA:                  -0.220
REMARK UNBOUND:                -0.221
REMARK SMILES CC(C)c1ccc(C(=O)[O-])cc1
REMARK SMILES IDX 7 1 6 2 11 3 5 4 12 5 4 6 8 7 9 8 10 9 2 10 1 11 3 12
REMARK H PARENT
REMARK Flexibility Score: inf
ROOT
ATOM      1  C   UNL     1     -15.780  93.107  85.450  1.00  0.00    -0.003 A 
ATOM      2  C   UNL     1     -16.118  92.153  86.425  1.00  0.00     0.010 A 
ATOM      3  C   UNL     1     -14.807  92.782  84.489  1.00  0.00     0.010 A 
ATOM      4  C   UNL     1     -15.498  90.900  86.438  1.00  0.00     0.004 A 
ATOM      5  C   UNL     1     -14.187  91.530  84.502  1.00  0.00     0.004 A 
ATOM      6  C   UNL     1     -14.526  90.575  85.478  1.00  0.00    -0.045 A 
ENDROOT
BRANCH   1   7
ATOM      7  C   UNL     1     -16.439  94.431  85.439  1.00  0.00     0.071 C 
ATOM      8  O   UNL     1     -15.948  95.386  84.781  1.00  0.00    -0.545 OA
ATOM      9  O   UNL     1     -17.612  94.640  86.156  1.00  0.00    -0.545 OA
ENDBRANCH   1   7
BRANCH   6  10
ATOM     10  C   UNL     1     -13.860  89.212  85.505  1.00  0.00     0.013 C 
ATOM     11  C   UNL     1     -13.187  88.898  84.164  1.00  0.00     0.012 C 
ATOM     12  C   UNL     1     -14.861  88.115  85.890  1.00  0.00     0.012 C 
ENDBRANCH   6  10
TORSDOF 2
ENDMDL
MODEL 3
REMARK VINA RESULT:    -4.893      2.923      5.042
REMARK INTER + INTRA:          -5.686
REMARK INTER:                  -5.465
REMARK INTRA:                  -0.221
REMARK UNBOUND:                -0.221
REMARK SMILES CC(C)c1ccc(C(=O)[O-])cc1
REMARK SMILES IDX 7 1 6 2 11 3 5 4 12 5 4 6 8 7 9 8 10 9 2 10 1 11 3 12
REMARK H PARENT
REMARK Flexibility Score: inf
ROOT
ATOM      1  C   UNL     1     -14.775  83.504  75.510  1.00  0.00    -0.003 A 
ATOM      2  C   UNL     1     -14.393  82.542  76.460  1.00  0.00     0.010 A 
ATOM      3  C   UNL     1     -15.703  83.148  74.516  1.00  0.00     0.010 A 
ATOM      4  C   UNL     1     -14.928  81.250  76.417  1.00  0.00     0.004 A 
ATOM      5  C   UNL     1     -16.237  81.858  74.473  1.00  0.00     0.004 A 
ATOM      6  C   UNL     1     -15.854  80.894  75.424  1.00  0.00    -0.045 A 
ENDROOT
BRANCH   1   7
ATOM      7  C   UNL     1     -14.207  84.869  75.559  1.00  0.00     0.071 C 
ATOM      8  O   UNL     1     -13.270  85.146  76.353  1.00  0.00    -0.545 OA
ATOM      9  O   UNL     1     -14.702  85.867  74.727  1.00  0.00    -0.545 OA
ENDBRANCH   1   7
BRANCH   6  10
ATOM     10  C   UNL     1     -16.426  79.489  75.388  1.00  0.00     0.013 C 
ATOM     11  C   UNL     1     -17.905  79.503  74.984  1.00  0.00     0.012 C 
ATOM     12  C   UNL     1     -16.229  78.778  76.733  1.00  0.00     0.012 C 
ENDBRANCH   6  10
TORSDOF 2
ENDMDL
MODEL 4
REMARK VINA RESULT:    -4.890      9.773     10.438
REMARK INTER + INTRA:          -5.683
REMARK INTER:                  -5.476
REMARK INTRA:                  -0.207
REMARK UNBOUND:                -0.221
REMARK SMILES CC(C)c1ccc(C(=O)[O-])cc1
REMARK SMILES IDX 7 1 6 2 11 3 5 4 12 5 4 6 8 7 9 8 10 9 2 10 1 11 3 12
REMARK H PARENT
REMARK Flexibility Score: inf
ROOT
ATOM      1  C   UNL     1     -24.329  83.828  76.901  1.00  0.00    -0.003 A 
ATOM      2  C   UNL     1     -25.637  84.154  77.295  1.00  0.00     0.010 A 
ATOM      3  C   UNL     1     -23.612  84.737  76.103  1.00  0.00     0.010 A 
ATOM      4  C   UNL     1     -26.218  85.362  76.899  1.00  0.00     0.004 A 
ATOM      5  C   UNL     1     -24.193  85.944  75.707  1.00  0.00     0.004 A 
ATOM      6  C   UNL     1     -25.503  86.270  76.101  1.00  0.00    -0.045 A 
ENDROOT
BRANCH   1   7
ATOM      7  C   UNL     1     -23.718  82.548  77.322  1.00  0.00     0.071 C 
ATOM      8  O   UNL     1     -22.666  82.537  78.014  1.00  0.00    -0.545 OA
ATOM      9  O   UNL     1     -24.298  81.338  76.959  1.00  0.00    -0.545 OA
ENDBRANCH   1   7
BRANCH   6  10
ATOM     10  C   UNL     1     -26.146  87.578  75.679  1.00  0.00     0.013 C 
ATOM     11  C   UNL     1     -25.553  88.762  76.453  1.00  0.00     0.012 C 
ATOM     12  C   UNL     1     -27.671  87.523  75.839  1.00  0.00     0.012 C 
ENDBRANCH   6  10
TORSDOF 2
ENDMDL
MODEL 5
REMARK VINA RESULT:    -4.883     14.886     15.693
REMARK INTER + INTRA:          -5.675
REMARK INTER:                  -5.466
REMARK INTRA:                  -0.209
REMARK UNBOUND:                -0.221
REMARK SMILES CC(C)c1ccc(C(=O)[O-])cc1
REMARK SMILES IDX 7 1 6 2 11 3 5 4 12 5 4 6 8 7 9 8 10 9 2 10 1 11 3 12
REMARK H PARENT
REMARK Flexibility Score: inf
ROOT
ATOM      1  C   UNL     1     -24.403  90.618  84.037  1.00  0.00    -0.003 A 
ATOM      2  C   UNL     1     -25.756  90.379  83.745  1.00  0.00     0.010 A 
ATOM      3  C   UNL     1     -23.647  89.600  84.646  1.00  0.00     0.010 A 
ATOM      4  C   UNL     1     -26.342  89.148  84.054  1.00  0.00     0.004 A 
ATOM      5  C   UNL     1     -24.233  88.370  84.955  1.00  0.00     0.004 A 
ATOM      6  C   UNL     1     -25.589  88.131  84.662  1.00  0.00    -0.045 A 
ENDROOT
BRANCH   1   7
ATOM      7  C   UNL     1     -23.786  91.922  83.709  1.00  0.00     0.071 C 
ATOM      8  O   UNL     1     -24.323  92.998  84.081  1.00  0.00    -0.545 OA
ATOM      9  O   UNL     1     -22.601  91.976  82.983  1.00  0.00    -0.545 OA
ENDBRANCH   1   7
BRANCH   6  10
ATOM     10  C   UNL     1     -26.238  86.800  84.993  1.00  0.00     0.013 C 
ATOM     11  C   UNL     1     -25.780  85.704  84.022  1.00  0.00     0.012 C 
ATOM     12  C   UNL     1     -27.767  86.919  85.008  1.00  0.00     0.012 C 
ENDBRANCH   6  10
TORSDOF 2
ENDMDL
MODEL 6
REMARK VINA RESULT:    -4.745     16.331     17.014
REMARK INTER + INTRA:          -5.521
REMARK INTER:                  -5.306
REMARK INTRA:                  -0.215
REMARK UNBOUND:                -0.221
REMARK SMILES CC(C)c1ccc(C(=O)[O-])cc1
REMARK SMILES IDX 7 1 6 2 11 3 5 4 12 5 4 6 8 7 9 8 10 9 2 10 1 11 3 12
REMARK H PARENT
REMARK Flexibility Score: inf
ROOT
ATOM      1  C   UNL     1     -26.155  90.335  85.767  1.00  0.00    -0.003 A 
ATOM      2  C   UNL     1     -27.383  89.721  86.063  1.00  0.00     0.010 A 
ATOM      3  C   UNL     1     -25.140  89.572  85.162  1.00  0.00     0.010 A 
ATOM      4  C   UNL     1     -27.594  88.372  85.760  1.00  0.00     0.004 A 
ATOM      5  C   UNL     1     -25.351  88.225  84.859  1.00  0.00     0.004 A 
ATOM      6  C   UNL     1     -26.581  87.610  85.155  1.00  0.00    -0.045 A 
ENDROOT
BRANCH   1   7
ATOM      7  C   UNL     1     -25.935  91.762  86.089  1.00  0.00     0.071 C 
ATOM      8  O   UNL     1     -25.580  92.574  85.195  1.00  0.00    -0.545 OA
ATOM      9  O   UNL     1     -26.119  92.227  87.387  1.00  0.00    -0.545 OA
ENDBRANCH   1   7
BRANCH   6  10
ATOM     10  C   UNL     1     -26.824  86.147  84.832  1.00  0.00     0.013 C 
ATOM     11  C   UNL     1     -25.849  85.648  83.759  1.00  0.00     0.012 C 
ATOM     12  C   UNL     1     -28.279  85.908  84.409  1.00  0.00     0.012 C 
ENDBRANCH   6  10
TORSDOF 2
ENDMDL
MODEL 7
REMARK VINA RESULT:    -4.742     12.025     13.762
REMARK INTER + INTRA:          -5.518
REMARK INTER:                  -5.297
REMARK INTRA:                  -0.221
REMARK UNBOUND:                -0.221
REMARK SMILES CC(C)c1ccc(C(=O)[O-])cc1
REMARK SMILES IDX 7 1 6 2 11 3 5 4 12 5 4 6 8 7 9 8 10 9 2 10 1 11 3 12
REMARK H PARENT
REMARK Flexibility Score: inf
ROOT
ATOM      1  C   UNL     1     -14.583  90.552  85.346  1.00  0.00    -0.003 A 
ATOM      2  C   UNL     1     -15.495  90.884  86.361  1.00  0.00     0.010 A 
ATOM      3  C   UNL     1     -14.192  91.546  84.430  1.00  0.00     0.010 A 
ATOM      4  C   UNL     1     -16.006  92.182  86.460  1.00  0.00     0.004 A 
ATOM      5  C   UNL     1     -14.703  92.842  84.529  1.00  0.00     0.004 A 
ATOM      6  C   UNL     1     -15.617  93.175  85.546  1.00  0.00    -0.045 A 
ENDROOT
BRANCH   1   7
ATOM      7  C   UNL     1     -14.043  89.179  85.245  1.00  0.00     0.071 C 
ATOM      8  O   UNL     1     -13.060  88.929  84.498  1.00  0.00    -0.545 OA
ATOM      9  O   UNL     1     -14.616  88.142  85.975  1.00  0.00    -0.545 OA
ENDBRANCH   1   7
BRANCH   6  10
ATOM     10  C   UNL     1     -16.180  94.578  85.665  1.00  0.00     0.013 C 
ATOM     11  C   UNL     1     -17.635  94.552  86.147  1.00  0.00     0.012 C 
ATOM     12  C   UNL     1     -16.052  95.340  84.339  1.00  0.00     0.012 C 
ENDBRANCH   6  10
TORSDOF 2
ENDMDL
MODEL 8
REMARK VINA RESULT:    -4.697     11.932     12.805
REMARK INTER + INTRA:          -5.468
REMARK INTER:                  -5.259
REMARK INTRA:                  -0.209
REMARK UNBOUND:                -0.221
REMARK SMILES CC(C)c1ccc(C(=O)[O-])cc1
REMARK SMILES IDX 7 1 6 2 11 3 5 4 12 5 4 6 8 7 9 8 10 9 2 10 1 11 3 12
REMARK H PARENT
REMARK Flexibility Score: inf
ROOT
ATOM      1  C   UNL     1     -25.672  86.392  75.275  1.00  0.00    -0.003 A 
ATOM      2  C   UNL     1     -27.060  86.178  75.297  1.00  0.00     0.010 A 
ATOM      3  C   UNL     1     -25.157  87.579  75.827  1.00  0.00     0.010 A 
ATOM      4  C   UNL     1     -27.916  87.129  75.860  1.00  0.00     0.004 A 
ATOM      5  C   UNL     1     -26.013  88.529  76.390  1.00  0.00     0.004 A 
ATOM      6  C   UNL     1     -27.403  88.314  76.412  1.00  0.00    -0.045 A 
ENDROOT
BRANCH   1   7
ATOM      7  C   UNL     1     -24.769  85.384  74.678  1.00  0.00     0.071 C 
ATOM      8  O   UNL     1     -23.612  85.203  75.143  1.00  0.00    -0.545 OA
ATOM      9  O   UNL     1     -25.186  84.620  73.594  1.00  0.00    -0.545 OA
ENDBRANCH   1   7
BRANCH   6  10
ATOM     10  C   UNL     1     -28.344  89.338  77.020  1.00  0.00     0.013 C 
ATOM     11  C   UNL     1     -28.601  89.042  78.502  1.00  0.00     0.012 C 
ATOM     12  C   UNL     1     -29.661  89.412  76.236  1.00  0.00     0.012 C 
ENDBRANCH   6  10
TORSDOF 2
ENDMDL
MODEL 9
REMARK VINA RESULT:    -4.690      9.220     10.684
REMARK INTER + INTRA:          -5.459
REMARK INTER:                  -5.244
REMARK INTRA:                  -0.216
REMARK UNBOUND:                -0.221
REMARK SMILES CC(C)c1ccc(C(=O)[O-])cc1
REMARK SMILES IDX 7 1 6 2 11 3 5 4 12 5 4 6 8 7 9 8 10 9 2 10 1 11 3 12
REMARK H PARENT
REMARK Flexibility Score: inf
ROOT
ATOM      1  C   UNL     1     -24.722  85.000  75.508  1.00  0.00    -0.003 A 
ATOM      2  C   UNL     1     -25.599  83.943  75.218  1.00  0.00     0.010 A 
ATOM      3  C   UNL     1     -23.677  84.787  76.425  1.00  0.00     0.010 A 
ATOM      4  C   UNL     1     -25.438  82.697  75.833  1.00  0.00     0.004 A 
ATOM      5  C   UNL     1     -23.516  83.542  77.039  1.00  0.00     0.004 A 
ATOM      6  C   UNL     1     -24.395  82.483  76.749  1.00  0.00    -0.045 A 
ENDROOT
BRANCH   1   7
ATOM      7  C   UNL     1     -24.896  86.317  74.856  1.00  0.00     0.071 C 
ATOM      8  O   UNL     1     -24.134  87.279  75.140  1.00  0.00    -0.545 OA
ATOM      9  O   UNL     1     -25.904  86.510  73.917  1.00  0.00    -0.545 OA
ENDBRANCH   1   7
BRANCH   6  10
ATOM     10  C   UNL     1     -24.232  81.126  77.408  1.00  0.00     0.013 C 
ATOM     11  C   UNL     1     -25.437  80.793  78.295  1.00  0.00     0.012 C 
ATOM     12  C   UNL     1     -22.924  81.053  78.206  1.00  0.00     0.012 C 
ENDBRANCH   6  10
TORSDOF 2
ENDMDL
