MODEL 1
REMARK VINA RESULT:    -6.859      0.000      0.000
REMARK INTER + INTRA:          -7.525
REMARK INTER:                  -7.260
REMARK INTRA:                  -0.265
REMARK UNBOUND:                -0.265
REMARK SMILES O=c1cc(-c2ccccc2)oc2ccccc12
REMARK SMILES IDX 4 1 3 2 2 3 1 4 17 5 16 6 15 7 14 8 13 9 12 10 11 11 5 12
REMARK SMILES IDX 8 13 7 14 9 15 6 16 10 17
REMARK H PARENT
REMARK Flexibility Score: inf
ROOT
ATOM      1  C   UNL     1     102.151 113.962 124.099  1.00  0.00     0.138 A 
ATOM      2  C   UNL     1     102.853 114.208 125.297  1.00  0.00     0.100 A 
ATOM      3  C   UNL     1     102.687 115.428 125.955  1.00  0.00     0.193 A 
ATOM      4  O   UNL     1     103.315 115.648 127.026  1.00  0.00    -0.289 OA
ATOM      5  C   UNL     1     101.825 116.392 125.413  1.00  0.00     0.065 A 
ATOM      6  C   UNL     1     101.613 117.642 126.025  1.00  0.00     0.016 A 
ATOM      7  C   UNL     1     100.742 118.567 125.442  1.00  0.00     0.001 A 
ATOM      8  C   UNL     1     100.078 118.256 124.252  1.00  0.00     0.004 A 
ATOM      9  C   UNL     1     100.283 117.016 123.638  1.00  0.00     0.048 A 
ATOM     10  C   UNL     1     101.153 116.083 124.212  1.00  0.00     0.138 A 
ATOM     11  O   UNL     1     101.341 114.908 123.620  1.00  0.00    -0.456 OA
ENDROOT
BRANCH   1  12
ATOM     12  C   UNL     1     102.272 112.683 123.332  1.00  0.00     0.017 A 
ATOM     13  C   UNL     1     102.572 110.244 121.944  1.00  0.00     0.000 A 
ATOM     14  C   UNL     1     101.600 111.160 121.544  1.00  0.00     0.001 A 
ATOM     15  C   UNL     1     103.395 110.534 123.031  1.00  0.00     0.001 A 
ATOM     16  C   UNL     1     101.447 112.370 122.227  1.00  0.00     0.012 A 
ATOM     17  C   UNL     1     103.248 111.742 123.721  1.00  0.00     0.012 A 
ENDBRANCH   1  12
TORSDOF 1
ENDMDL
MODEL 2
REMARK VINA RESULT:    -6.715      1.646      6.465
REMARK INTER + INTRA:          -7.372
REMARK INTER:                  -7.107
REMARK INTRA:                  -0.265
REMARK UNBOUND:                -0.265
REMARK SMILES O=c1cc(-c2ccccc2)oc2ccccc12
REMARK SMILES IDX 4 1 3 2 2 3 1 4 17 5 16 6 15 7 14 8 13 9 12 10 11 11 5 12
REMARK SMILES IDX 8 13 7 14 9 15 6 16 10 17
REMARK H PARENT
REMARK Flexibility Score: inf
ROOT
ATOM      1  C   UNL     1     102.343 113.461 123.864  1.00  0.00     0.138 A 
ATOM      2  C   UNL     1     101.694 113.052 122.681  1.00  0.00     0.100 A 
ATOM      3  C   UNL     1     101.944 111.780 122.163  1.00  0.00     0.193 A 
ATOM      4  O   UNL     1     101.363 111.414 121.105  1.00  0.00    -0.289 OA
ATOM      5  C   UNL     1     102.838 110.928 122.826  1.00  0.00     0.065 A 
ATOM      6  C   UNL     1     103.134 109.634 122.357  1.00  0.00     0.016 A 
ATOM      7  C   UNL     1     104.034 108.825 123.058  1.00  0.00     0.001 A 
ATOM      8  C   UNL     1     104.641 109.296 124.225  1.00  0.00     0.004 A 
ATOM      9  C   UNL     1     104.352 110.580 124.698  1.00  0.00     0.048 A 
ATOM     10  C   UNL     1     103.453 111.398 124.005  1.00  0.00     0.138 A 
ATOM     11  O   UNL     1     103.186 112.617 124.462  1.00  0.00    -0.456 OA
ENDROOT
BRANCH   1  12
ATOM     12  C   UNL     1     102.132 114.805 124.486  1.00  0.00     0.017 A 
ATOM     13  C   UNL     1     101.786 117.312 125.737  1.00  0.00     0.000 A 
ATOM     14  C   UNL     1     101.211 117.068 124.490  1.00  0.00     0.001 A 
ATOM     15  C   UNL     1     102.534 116.316 126.364  1.00  0.00     0.001 A 
ATOM     16  C   UNL     1     101.378 115.828 123.866  1.00  0.00     0.012 A 
ATOM     17  C   UNL     1     102.706 115.073 125.746  1.00  0.00     0.012 A 
ENDBRANCH   1  12
TORSDOF 1
ENDMDL
MODEL 3
REMARK VINA RESULT:    -6.714      1.348      6.020
REMARK INTER + INTRA:          -7.372
REMARK INTER:                  -7.106
REMARK INTRA:                  -0.266
REMARK UNBOUND:                -0.265
REMARK SMILES O=c1cc(-c2ccccc2)oc2ccccc12
REMARK SMILES IDX 4 1 3 2 2 3 1 4 17 5 16 6 15 7 14 8 13 9 12 10 11 11 5 12
REMARK SMILES IDX 8 13 7 14 9 15 6 16 10 17
REMARK H PARENT
REMARK Flexibility Score: inf
ROOT
ATOM      1  C   UNL     1     101.223 117.035 124.404  1.00  0.00     0.138 A 
ATOM      2  C   UNL     1     101.988 116.872 125.577  1.00  0.00     0.100 A 
ATOM      3  C   UNL     1     102.581 115.637 125.845  1.00  0.00     0.193 A 
ATOM      4  O   UNL     1     103.266 115.492 126.895  1.00  0.00    -0.289 OA
ATOM      5  C   UNL     1     102.407 114.577 124.945  1.00  0.00     0.065 A 
ATOM      6  C   UNL     1     102.979 113.308 125.156  1.00  0.00     0.016 A 
ATOM      7  C   UNL     1     102.773 112.285 124.225  1.00  0.00     0.001 A 
ATOM      8  C   UNL     1     102.003 112.518 123.082  1.00  0.00     0.004 A 
ATOM      9  C   UNL     1     101.433 113.776 122.865  1.00  0.00     0.048 A 
ATOM     10  C   UNL     1     101.631 114.807 123.790  1.00  0.00     0.138 A 
ATOM     11  O   UNL     1     101.084 115.999 123.574  1.00  0.00    -0.456 OA
ENDROOT
BRANCH   1  12
ATOM     12  C   UNL     1     100.553 118.323 124.040  1.00  0.00     0.017 A 
ATOM     13  C   UNL     1      99.266 120.713 123.268  1.00  0.00     0.000 A 
ATOM     14  C   UNL     1      99.888 120.625 124.513  1.00  0.00     0.001 A 
ATOM     15  C   UNL     1      99.280 119.618 122.405  1.00  0.00     0.001 A 
ATOM     16  C   UNL     1     100.528 119.444 124.901  1.00  0.00     0.012 A 
ATOM     17  C   UNL     1      99.917 118.433 122.785  1.00  0.00     0.012 A 
ENDBRANCH   1  12
TORSDOF 1
ENDMDL
MODEL 4
REMARK VINA RESULT:    -6.611      2.838      5.081
REMARK INTER + INTRA:          -7.263
REMARK INTER:                  -7.003
REMARK INTRA:                  -0.260
REMARK UNBOUND:                -0.265
REMARK SMILES O=c1cc(-c2ccccc2)oc2ccccc12
REMARK SMILES IDX 4 1 3 2 2 3 1 4 17 5 16 6 15 7 14 8 13 9 12 10 11 11 5 12
REMARK SMILES IDX 8 13 7 14 9 15 6 16 10 17
REMARK H PARENT
REMARK Flexibility Score: inf
ROOT
ATOM      1  C   UNL     1     101.064 116.561 123.269  1.00  0.00     0.138 A 
ATOM      2  C   UNL     1     100.468 117.825 123.462  1.00  0.00     0.100 A 
ATOM      3  C   UNL     1      99.863 118.472 122.384  1.00  0.00     0.193 A 
ATOM      4  O   UNL     1      99.330 119.602 122.557  1.00  0.00    -0.289 OA
ATOM      5  C   UNL     1      99.856 117.857 121.124  1.00  0.00     0.065 A 
ATOM      6  C   UNL     1      99.263 118.455 119.996  1.00  0.00     0.016 A 
ATOM      7  C   UNL     1      99.285 117.797 118.763  1.00  0.00     0.001 A 
ATOM      8  C   UNL     1      99.894 116.544 118.645  1.00  0.00     0.004 A 
ATOM      9  C   UNL     1     100.485 115.943 119.760  1.00  0.00     0.048 A 
ATOM     10  C   UNL     1     100.469 116.592 120.999  1.00  0.00     0.138 A 
ATOM     11  O   UNL     1     101.034 116.013 122.053  1.00  0.00    -0.456 OA
ENDROOT
BRANCH   1  12
ATOM     12  C   UNL     1     101.734 115.800 124.370  1.00  0.00     0.017 A 
ATOM     13  C   UNL     1     102.981 114.281 126.396  1.00  0.00     0.000 A 
ATOM     14  C   UNL     1     102.859 115.663 126.534  1.00  0.00     0.001 A 
ATOM     15  C   UNL     1     102.487 113.651 125.254  1.00  0.00     0.001 A 
ATOM     16  C   UNL     1     102.241 116.421 125.534  1.00  0.00     0.012 A 
ATOM     17  C   UNL     1     101.869 114.401 124.249  1.00  0.00     0.012 A 
ENDBRANCH   1  12
TORSDOF 1
ENDMDL
MODEL 5
REMARK VINA RESULT:    -6.604      3.774      5.400
REMARK INTER + INTRA:          -7.256
REMARK INTER:                  -7.024
REMARK INTRA:                  -0.231
REMARK UNBOUND:                -0.265
REMARK SMILES O=c1cc(-c2ccccc2)oc2ccccc12
REMARK SMILES IDX 4 1 3 2 2 3 1 4 17 5 16 6 15 7 14 8 13 9 12 10 11 11 5 12
REMARK SMILES IDX 8 13 7 14 9 15 6 16 10 17
REMARK H PARENT
REMARK Flexibility Score: inf
ROOT
ATOM      1  C   UNL     1     100.602 117.850 121.499  1.00  0.00     0.138 A 
ATOM      2  C   UNL     1      99.738 118.846 121.999  1.00  0.00     0.100 A 
ATOM      3  C   UNL     1      99.674 119.075 123.374  1.00  0.00     0.193 A 
ATOM      4  O   UNL     1      98.901 119.966 123.821  1.00  0.00    -0.289 OA
ATOM      5  C   UNL     1     100.469 118.310 124.239  1.00  0.00     0.065 A 
ATOM      6  C   UNL     1     100.452 118.490 125.635  1.00  0.00     0.016 A 
ATOM      7  C   UNL     1     101.266 117.699 126.452  1.00  0.00     0.001 A 
ATOM      8  C   UNL     1     102.100 116.729 125.887  1.00  0.00     0.004 A 
ATOM      9  C   UNL     1     102.123 116.545 124.502  1.00  0.00     0.048 A 
ATOM     10  C   UNL     1     101.313 117.330 123.674  1.00  0.00     0.138 A 
ATOM     11  O   UNL     1     101.342 117.146 122.359  1.00  0.00    -0.456 OA
ENDROOT
BRANCH   1  12
ATOM     12  C   UNL     1     100.732 117.540 120.040  1.00  0.00     0.017 A 
ATOM     13  C   UNL     1     101.069 116.986 117.293  1.00  0.00     0.000 A 
ATOM     14  C   UNL     1      99.835 116.767 117.904  1.00  0.00     0.001 A 
ATOM     15  C   UNL     1     102.137 117.478 118.042  1.00  0.00     0.001 A 
ATOM     16  C   UNL     1      99.661 117.041 119.264  1.00  0.00     0.012 A 
ATOM     17  C   UNL     1     101.972 117.753 119.404  1.00  0.00     0.012 A 
ENDBRANCH   1  12
TORSDOF 1
ENDMDL
MODEL 6
REMARK VINA RESULT:    -6.549      2.729      5.230
REMARK INTER + INTRA:          -7.198
REMARK INTER:                  -6.932
REMARK INTRA:                  -0.266
REMARK UNBOUND:                -0.265
REMARK SMILES O=c1cc(-c2ccccc2)oc2ccccc12
REMARK SMILES IDX 4 1 3 2 2 3 1 4 17 5 16 6 15 7 14 8 13 9 12 10 11 11 5 12
REMARK SMILES IDX 8 13 7 14 9 15 6 16 10 17
REMARK H PARENT
REMARK Flexibility Score: inf
ROOT
ATOM      1  C   UNL     1     100.483 117.383 122.764  1.00  0.00     0.138 A 
ATOM      2  C   UNL     1     100.345 118.370 123.763  1.00  0.00     0.100 A 
ATOM      3  C   UNL     1     100.922 118.165 125.017  1.00  0.00     0.193 A 
ATOM      4  O   UNL     1     100.798 119.047 125.910  1.00  0.00    -0.289 OA
ATOM      5  C   UNL     1     101.630 116.981 125.266  1.00  0.00     0.065 A 
ATOM      6  C   UNL     1     102.236 116.713 126.509  1.00  0.00     0.016 A 
ATOM      7  C   UNL     1     102.931 115.516 126.704  1.00  0.00     0.001 A 
ATOM      8  C   UNL     1     103.029 114.582 125.668  1.00  0.00     0.004 A 
ATOM      9  C   UNL     1     102.431 114.841 124.431  1.00  0.00     0.048 A 
ATOM     10  C   UNL     1     101.732 116.036 124.224  1.00  0.00     0.138 A 
ATOM     11  O   UNL     1     101.167 116.272 123.045  1.00  0.00    -0.456 OA
ENDROOT
BRANCH   1  12
ATOM     12  C   UNL     1      99.897 117.523 121.395  1.00  0.00     0.017 A 
ATOM     13  C   UNL     1      98.823 117.695 118.790  1.00  0.00     0.000 A 
ATOM     14  C   UNL     1      98.703 118.772 119.668  1.00  0.00     0.001 A 
ATOM     15  C   UNL     1      99.475 116.533 119.201  1.00  0.00     0.001 A 
ATOM     16  C   UNL     1      99.233 118.693 120.960  1.00  0.00     0.012 A 
ATOM     17  C   UNL     1     100.008 116.445 120.491  1.00  0.00     0.012 A 
ENDBRANCH   1  12
TORSDOF 1
ENDMDL
MODEL 7
REMARK VINA RESULT:    -6.433      1.347      2.912
REMARK INTER + INTRA:          -7.075
REMARK INTER:                  -6.811
REMARK INTRA:                  -0.264
REMARK UNBOUND:                -0.265
REMARK SMILES O=c1cc(-c2ccccc2)oc2ccccc12
REMARK SMILES IDX 4 1 3 2 2 3 1 4 17 5 16 6 15 7 14 8 13 9 12 10 11 11 5 12
REMARK SMILES IDX 8 13 7 14 9 15 6 16 10 17
REMARK H PARENT
REMARK Flexibility Score: inf
ROOT
ATOM      1  C   UNL     1     101.546 115.065 123.390  1.00  0.00     0.138 A 
ATOM      2  C   UNL     1     100.922 115.699 122.296  1.00  0.00     0.100 A 
ATOM      3  C   UNL     1     100.436 117.000 122.441  1.00  0.00     0.193 A 
ATOM      4  O   UNL     1      99.878 117.567 121.462  1.00  0.00    -0.289 OA
ATOM      5  C   UNL     1     100.575 117.656 123.671  1.00  0.00     0.065 A 
ATOM      6  C   UNL     1     100.108 118.967 123.883  1.00  0.00     0.016 A 
ATOM      7  C   UNL     1     100.273 119.575 125.131  1.00  0.00     0.001 A 
ATOM      8  C   UNL     1     100.903 118.886 126.172  1.00  0.00     0.004 A 
ATOM      9  C   UNL     1     101.370 117.584 125.969  1.00  0.00     0.048 A 
ATOM     10  C   UNL     1     101.210 116.966 124.725  1.00  0.00     0.138 A 
ATOM     11  O   UNL     1     101.658 115.728 124.543  1.00  0.00    -0.456 OA
ENDROOT
BRANCH   1  12
ATOM     12  C   UNL     1     102.094 113.674 123.322  1.00  0.00     0.017 A 
ATOM     13  C   UNL     1     103.079 111.037 123.108  1.00  0.00     0.000 A 
ATOM     14  C   UNL     1     103.431 111.828 124.201  1.00  0.00     0.001 A 
ATOM     15  C   UNL     1     102.240 111.551 122.121  1.00  0.00     0.001 A 
ATOM     16  C   UNL     1     102.946 113.135 124.313  1.00  0.00     0.012 A 
ATOM     17  C   UNL     1     101.751 112.857 122.224  1.00  0.00     0.012 A 
ENDBRANCH   1  12
TORSDOF 1
ENDMDL
MODEL 8
REMARK VINA RESULT:    -6.371      1.461      3.146
REMARK INTER + INTRA:          -7.009
REMARK INTER:                  -6.745
REMARK INTRA:                  -0.264
REMARK UNBOUND:                -0.265
REMARK SMILES O=c1cc(-c2ccccc2)oc2ccccc12
REMARK SMILES IDX 4 1 3 2 2 3 1 4 17 5 16 6 15 7 14 8 13 9 12 10 11 11 5 12
REMARK SMILES IDX 8 13 7 14 9 15 6 16 10 17
REMARK H PARENT
REMARK Flexibility Score: inf
ROOT
ATOM      1  C   UNL     1     102.859 112.500 123.611  1.00  0.00     0.138 A 
ATOM      2  C   UNL     1     102.249 113.177 122.535  1.00  0.00     0.100 A 
ATOM      3  C   UNL     1     101.831 114.498 122.701  1.00  0.00     0.193 A 
ATOM      4  O   UNL     1     101.285 115.103 121.738  1.00  0.00    -0.289 OA
ATOM      5  C   UNL     1     102.022 115.133 123.936  1.00  0.00     0.065 A 
ATOM      6  C   UNL     1     101.624 116.463 124.169  1.00  0.00     0.016 A 
ATOM      7  C   UNL     1     101.839 117.048 125.421  1.00  0.00     0.001 A 
ATOM      8  C   UNL     1     102.450 116.317 126.443  1.00  0.00     0.004 A 
ATOM      9  C   UNL     1     102.849 114.996 126.219  1.00  0.00     0.048 A 
ATOM     10  C   UNL     1     102.639 114.400 124.971  1.00  0.00     0.138 A 
ATOM     11  O   UNL     1     103.022 113.144 124.769  1.00  0.00    -0.456 OA
ENDROOT
BRANCH   1  12
ATOM     12  C   UNL     1     103.336 111.085 123.519  1.00  0.00     0.017 A 
ATOM     13  C   UNL     1     104.185 108.405 123.262  1.00  0.00     0.000 A 
ATOM     14  C   UNL     1     104.591 109.164 124.359  1.00  0.00     0.001 A 
ATOM     15  C   UNL     1     103.360 108.972 122.292  1.00  0.00     0.001 A 
ATOM     16  C   UNL     1     104.173 110.492 124.492  1.00  0.00     0.012 A 
ATOM     17  C   UNL     1     102.938 110.299 122.417  1.00  0.00     0.012 A 
ENDBRANCH   1  12
TORSDOF 1
ENDMDL
MODEL 9
REMARK VINA RESULT:    -6.328      1.432      2.419
REMARK INTER + INTRA:          -6.963
REMARK INTER:                  -6.698
REMARK INTRA:                  -0.265
REMARK UNBOUND:                -0.265
REMARK SMILES O=c1cc(-c2ccccc2)oc2ccccc12
REMARK SMILES IDX 4 1 3 2 2 3 1 4 17 5 16 6 15 7 14 8 13 9 12 10 11 11 5 12
REMARK SMILES IDX 8 13 7 14 9 15 6 16 10 17
REMARK H PARENT
REMARK Flexibility Score: inf
ROOT
ATOM      1  C   UNL     1     101.568 115.468 123.890  1.00  0.00     0.138 A 
ATOM      2  C   UNL     1     101.762 116.148 125.109  1.00  0.00     0.100 A 
ATOM      3  C   UNL     1     101.297 117.457 125.249  1.00  0.00     0.193 A 
ATOM      4  O   UNL     1     101.471 118.065 126.340  1.00  0.00    -0.289 OA
ATOM      5  C   UNL     1     100.644 118.076 124.174  1.00  0.00     0.065 A 
ATOM      6  C   UNL     1     100.152 119.393 124.249  1.00  0.00     0.016 A 
ATOM      7  C   UNL     1      99.508 119.962 123.146  1.00  0.00     0.001 A 
ATOM      8  C   UNL     1      99.350 119.228 121.967  1.00  0.00     0.004 A 
ATOM      9  C   UNL     1      99.836 117.920 121.885  1.00  0.00     0.048 A 
ATOM     10  C   UNL     1     100.482 117.340 122.982  1.00  0.00     0.138 A 
ATOM     11  O   UNL     1     100.940 116.096 122.893  1.00  0.00    -0.456 OA
ENDROOT
BRANCH   1  12
ATOM     12  C   UNL     1     102.034 114.065 123.656  1.00  0.00     0.017 A 
ATOM     13  C   UNL     1     102.866 111.420 123.130  1.00  0.00     0.000 A 
ATOM     14  C   UNL     1     103.238 112.045 124.319  1.00  0.00     0.001 A 
ATOM     15  C   UNL     1     102.083 112.103 122.200  1.00  0.00     0.001 A 
ATOM     16  C   UNL     1     102.828 113.356 124.586  1.00  0.00     0.012 A 
ATOM     17  C   UNL     1     101.670 113.414 122.459  1.00  0.00     0.012 A 
ENDBRANCH   1  12
TORSDOF 1
ENDMDL
