MODEL 1
REMARK VINA RESULT:    -5.903      0.000      0.000
REMARK INTER + INTRA:          -7.554
REMARK INTER:                  -6.938
REMARK INTRA:                  -0.616
REMARK UNBOUND:                -0.616
REMARK SMILES C=C(C)[C@H]1CC[C@@]2(CO)CC[C@@]3(C)[C@H](CC[C@@H]4[C@@]5(C)CC[C@H](O)C(C)(C)[C@H]5CC[C@]43C)[C@@H]12
REMARK SMILES IDX 4 1 5 2 6 3 7 4 32 5 14 6 15 7 16 8 17 9 18 10 20 11 21 12
REMARK SMILES IDX 22 13 24 14 27 15 28 16 29 17 30 18 12 19 11 20 10 21 13 22
REMARK SMILES IDX 31 23 25 24 26 25 19 26 2 27 3 28 1 29 8 30 9 31 23 33
REMARK H PARENT 9 32 23 34
REMARK Flexibility Score: inf
ROOT
ATOM      1  C   UNL     1      -6.872  95.066 -10.914  1.00  0.00     0.018 C 
ATOM      2  C   UNL     1      -6.739  93.914  -9.937  1.00  0.00     0.009 C 
ATOM      3  C   UNL     1      -5.238  93.676  -9.827  1.00  0.00     0.010 C 
ATOM      4  C   UNL     1      -4.573  94.198 -11.147  1.00  0.00    -0.003 C 
ATOM      5  C   UNL     1      -5.765  94.819 -11.972  1.00  0.00     0.008 C 
ATOM      6  C   UNL     1      -6.254  94.086 -13.301  1.00  0.00    -0.000 C 
ATOM      7  C   UNL     1      -6.076  95.095 -14.478  1.00  0.00     0.005 C 
ATOM      8  C   UNL     1      -6.413  94.555 -15.866  1.00  0.00     0.005 C 
ATOM      9  C   UNL     1      -5.560  93.303 -16.136  1.00  0.00     0.002 C 
ATOM     10  C   UNL     1      -5.339  92.885 -17.662  1.00  0.00    -0.026 C 
ATOM     11  C   UNL     1      -4.848  94.147 -18.453  1.00  0.00     0.010 C 
ATOM     12  C   UNL     1      -4.242  93.890 -19.840  1.00  0.00     0.033 C 
ATOM     13  C   UNL     1      -3.363  92.628 -19.963  1.00  0.00     0.120 C 
ATOM     14  C   UNL     1      -2.980  91.955 -18.604  1.00  0.00    -0.006 C 
ATOM     15  C   UNL     1      -4.280  91.684 -17.746  1.00  0.00     0.003 C 
ATOM     16  C   UNL     1      -3.932  91.083 -16.356  1.00  0.00     0.005 C 
ATOM     17  C   UNL     1      -5.185  90.850 -15.507  1.00  0.00     0.008 C 
ATOM     18  C   UNL     1      -5.953  92.165 -15.109  1.00  0.00    -0.024 C 
ATOM     19  C   UNL     1      -5.635  92.656 -13.589  1.00  0.00    -0.024 C 
ATOM     20  C   UNL     1      -4.109  92.766 -13.316  1.00  0.00     0.008 C 
ATOM     21  C   UNL     1      -3.744  93.067 -11.859  1.00  0.00     0.010 C 
ATOM     22  C   UNL     1      -6.266  91.623 -12.589  1.00  0.00     0.012 C 
ATOM     23  C   UNL     1      -7.485  91.819 -15.196  1.00  0.00     0.012 C 
ATOM     24  C   UNL     1      -1.939  92.833 -17.848  1.00  0.00     0.014 C 
ATOM     25  C   UNL     1      -2.264  90.615 -18.937  1.00  0.00     0.014 C 
ATOM     26  C   UNL     1      -6.674  92.449 -18.330  1.00  0.00     0.012 C 
ENDROOT
BRANCH   1  27
ATOM     27  C   UNL     1      -8.272  95.380 -11.445  1.00  0.00    -0.077 C 
ATOM     28  C   UNL     1      -9.391  94.366 -11.522  1.00  0.00     0.039 C 
ATOM     29  C   UNL     1      -8.543  96.638 -11.833  1.00  0.00     0.008 C 
ENDBRANCH   1  27
BRANCH   4  30
ATOM     30  C   UNL     1      -3.583  95.349 -10.775  1.00  0.00     0.163 C 
BRANCH  30  31
ATOM     31  O   UNL     1      -2.325  95.137 -11.361  1.00  0.00    -0.396 OA
ATOM     32  H   UNL     1      -1.832  95.994 -11.274  1.00  0.00     0.210 HD
ENDBRANCH  30  31
ENDBRANCH   4  30
BRANCH  13  33
ATOM     33  O   UNL     1      -3.956  91.709 -20.854  1.00  0.00    -0.393 OA
ATOM     34  H   UNL     1      -4.939  91.785 -20.767  1.00  0.00     0.210 HD
ENDBRANCH  13  33
TORSDOF 4
ENDMDL
MODEL 2
REMARK VINA RESULT:    -5.803      2.904      5.195
REMARK INTER + INTRA:          -7.436
REMARK INTER:                  -6.769
REMARK INTRA:                  -0.667
REMARK UNBOUND:                -0.616
REMARK SMILES C=C(C)[C@H]1CC[C@@]2(CO)CC[C@@]3(C)[C@H](CC[C@@H]4[C@@]5(C)CC[C@H](O)C(C)(C)[C@H]5CC[C@]43C)[C@@H]12
REMARK SMILES IDX 4 1 5 2 6 3 7 4 32 5 14 6 15 7 16 8 17 9 18 10 20 11 21 12
REMARK SMILES IDX 22 13 24 14 27 15 28 16 29 17 30 18 12 19 11 20 10 21 13 22
REMARK SMILES IDX 31 23 25 24 26 25 19 26 2 27 3 28 1 29 8 30 9 31 23 33
REMARK H PARENT 9 32 23 34
REMARK Flexibility Score: inf
ROOT
ATOM      1  C   UNL     1      -8.118  88.829 -11.147  1.00  0.00     0.018 C 
ATOM      2  C   UNL     1      -8.905  89.897 -10.415  1.00  0.00     0.009 C 
ATOM      3  C   UNL     1      -9.955  90.356 -11.419  1.00  0.00     0.010 C 
ATOM      4  C   UNL     1      -9.403  90.061 -12.856  1.00  0.00    -0.003 C 
ATOM      5  C   UNL     1      -8.025  89.337 -12.610  1.00  0.00     0.008 C 
ATOM      6  C   UNL     1      -6.671  90.097 -12.975  1.00  0.00    -0.000 C 
ATOM      7  C   UNL     1      -5.929  89.234 -14.042  1.00  0.00     0.005 C 
ATOM      8  C   UNL     1      -4.637  89.834 -14.592  1.00  0.00     0.005 C 
ATOM      9  C   UNL     1      -4.941  91.223 -15.181  1.00  0.00     0.002 C 
ATOM     10  C   UNL     1      -3.910  91.801 -16.256  1.00  0.00    -0.026 C 
ATOM     11  C   UNL     1      -3.674  90.705 -17.353  1.00  0.00     0.010 C 
ATOM     12  C   UNL     1      -3.005  91.173 -18.652  1.00  0.00     0.033 C 
ATOM     13  C   UNL     1      -3.437  92.563 -19.165  1.00  0.00     0.120 C 
ATOM     14  C   UNL     1      -4.693  93.166 -18.457  1.00  0.00    -0.006 C 
ATOM     15  C   UNL     1      -4.491  93.155 -16.888  1.00  0.00     0.003 C 
ATOM     16  C   UNL     1      -5.751  93.680 -16.146  1.00  0.00     0.005 C 
ATOM     17  C   UNL     1      -5.574  93.640 -14.626  1.00  0.00     0.008 C 
ATOM     18  C   UNL     1      -5.425  92.192 -14.028  1.00  0.00    -0.024 C 
ATOM     19  C   UNL     1      -6.804  91.625 -13.370  1.00  0.00    -0.024 C 
ATOM     20  C   UNL     1      -8.006  91.732 -14.349  1.00  0.00     0.008 C 
ATOM     21  C   UNL     1      -9.360  91.366 -13.734  1.00  0.00     0.010 C 
ATOM     22  C   UNL     1      -7.116  92.457 -12.075  1.00  0.00     0.012 C 
ATOM     23  C   UNL     1      -4.351  92.301 -12.884  1.00  0.00     0.012 C 
ATOM     24  C   UNL     1      -5.976  92.399 -18.897  1.00  0.00     0.014 C 
ATOM     25  C   UNL     1      -4.858  94.626 -18.969  1.00  0.00     0.014 C 
ATOM     26  C   UNL     1      -2.520  92.080 -15.617  1.00  0.00     0.012 C 
ENDROOT
BRANCH   1  27
ATOM     27  C   UNL     1      -6.816  88.347 -10.502  1.00  0.00    -0.077 C 
ATOM     28  C   UNL     1      -5.985  89.184  -9.557  1.00  0.00     0.039 C 
ATOM     29  C   UNL     1      -6.399  87.095 -10.758  1.00  0.00     0.008 C 
ENDBRANCH   1  27
BRANCH   4  30
ATOM     30  C   UNL     1     -10.369  89.052 -13.554  1.00  0.00     0.163 C 
BRANCH  30  31
ATOM     31  O   UNL     1      -9.650  88.043 -14.215  1.00  0.00    -0.396 OA
ATOM     32  H   UNL     1     -10.234  87.240 -14.212  1.00  0.00     0.210 HD
ENDBRANCH  30  31
ENDBRANCH   4  30
BRANCH  13  33
ATOM     33  O   UNL     1      -2.342  93.451 -19.137  1.00  0.00    -0.393 OA
ATOM     34  H   UNL     1      -1.908  93.379 -18.251  1.00  0.00     0.210 HD
ENDBRANCH  13  33
TORSDOF 4
ENDMDL
MODEL 3
REMARK VINA RESULT:    -5.790      7.254     10.198
REMARK INTER + INTRA:          -7.421
REMARK INTER:                  -6.746
REMARK INTRA:                  -0.676
REMARK UNBOUND:                -0.616
REMARK SMILES C=C(C)[C@H]1CC[C@@]2(CO)CC[C@@]3(C)[C@H](CC[C@@H]4[C@@]5(C)CC[C@H](O)C(C)(C)[C@H]5CC[C@]43C)[C@@H]12
REMARK SMILES IDX 4 1 5 2 6 3 7 4 32 5 14 6 15 7 16 8 17 9 18 10 20 11 21 12
REMARK SMILES IDX 22 13 24 14 27 15 28 16 29 17 30 18 12 19 11 20 10 21 13 22
REMARK SMILES IDX 31 23 25 24 26 25 19 26 2 27 3 28 1 29 8 30 9 31 23 33
REMARK H PARENT 9 32 23 34
REMARK Flexibility Score: inf
ROOT
ATOM      1  C   UNL     1      -6.126  83.118  -7.693  1.00  0.00     0.018 C 
ATOM      2  C   UNL     1      -6.795  83.194  -6.335  1.00  0.00     0.009 C 
ATOM      3  C   UNL     1      -8.286  83.093  -6.636  1.00  0.00     0.010 C 
ATOM      4  C   UNL     1      -8.513  83.595  -8.103  1.00  0.00    -0.003 C 
ATOM      5  C   UNL     1      -7.065  83.907  -8.643  1.00  0.00     0.008 C 
ATOM      6  C   UNL     1      -6.641  85.423  -8.903  1.00  0.00    -0.000 C 
ATOM      7  C   UNL     1      -6.275  85.549 -10.414  1.00  0.00     0.005 C 
ATOM      8  C   UNL     1      -5.919  86.955 -10.891  1.00  0.00     0.005 C 
ATOM      9  C   UNL     1      -7.088  87.903 -10.569  1.00  0.00     0.002 C 
ATOM     10  C   UNL     1      -7.186  89.254 -11.415  1.00  0.00    -0.026 C 
ATOM     11  C   UNL     1      -7.089  88.892 -12.938  1.00  0.00     0.010 C 
ATOM     12  C   UNL     1      -7.512  89.986 -13.928  1.00  0.00     0.033 C 
ATOM     13  C   UNL     1      -8.732  90.833 -13.509  1.00  0.00     0.120 C 
ATOM     14  C   UNL     1      -9.534  90.276 -12.288  1.00  0.00    -0.006 C 
ATOM     15  C   UNL     1      -8.559  90.009 -11.072  1.00  0.00     0.003 C 
ATOM     16  C   UNL     1      -9.309  89.385  -9.863  1.00  0.00     0.005 C 
ATOM     17  C   UNL     1      -8.363  89.093  -8.696  1.00  0.00     0.008 C 
ATOM     18  C   UNL     1      -7.274  88.000  -9.000  1.00  0.00    -0.024 C 
ATOM     19  C   UNL     1      -7.650  86.535  -8.396  1.00  0.00    -0.024 C 
ATOM     20  C   UNL     1      -9.073  86.075  -8.819  1.00  0.00     0.008 C 
ATOM     21  C   UNL     1      -9.546  84.780  -8.151  1.00  0.00     0.010 C 
ATOM     22  C   UNL     1      -7.574  86.608  -6.829  1.00  0.00     0.012 C 
ATOM     23  C   UNL     1      -5.955  88.490  -8.298  1.00  0.00     0.012 C 
ATOM     24  C   UNL     1     -10.328  89.002 -12.706  1.00  0.00     0.014 C 
ATOM     25  C   UNL     1     -10.596  91.347 -11.904  1.00  0.00     0.014 C 
ATOM     26  C   UNL     1      -5.986  90.198 -11.118  1.00  0.00     0.012 C 
ENDROOT
BRANCH   1  27
ATOM     27  C   UNL     1      -4.635  83.455  -7.763  1.00  0.00    -0.077 C 
ATOM     28  C   UNL     1      -3.929  84.356  -6.776  1.00  0.00     0.039 C 
ATOM     29  C   UNL     1      -3.896  82.893  -8.734  1.00  0.00     0.008 C 
ENDBRANCH   1  27
BRANCH   4  30
ATOM     30  C   UNL     1      -9.104  82.416  -8.939  1.00  0.00     0.163 C 
BRANCH  30  31
ATOM     31  O   UNL     1      -9.012  82.681 -10.316  1.00  0.00    -0.396 OA
ATOM     32  H   UNL     1      -9.943  82.803 -10.636  1.00  0.00     0.210 HD
ENDBRANCH  30  31
ENDBRANCH   4  30
BRANCH  13  33
ATOM     33  O   UNL     1      -8.346  92.175 -13.314  1.00  0.00    -0.393 OA
ATOM     34  H   UNL     1      -9.136  92.682 -12.998  1.00  0.00     0.210 HD
ENDBRANCH  13  33
TORSDOF 4
ENDMDL
MODEL 4
REMARK VINA RESULT:    -5.682      5.622      8.735
REMARK INTER + INTRA:          -7.294
REMARK INTER:                  -6.630
REMARK INTRA:                  -0.664
REMARK UNBOUND:                -0.616
REMARK SMILES C=C(C)[C@H]1CC[C@@]2(CO)CC[C@@]3(C)[C@H](CC[C@@H]4[C@@]5(C)CC[C@H](O)C(C)(C)[C@H]5CC[C@]43C)[C@@H]12
REMARK SMILES IDX 4 1 5 2 6 3 7 4 32 5 14 6 15 7 16 8 17 9 18 10 20 11 21 12
REMARK SMILES IDX 22 13 24 14 27 15 28 16 29 17 30 18 12 19 11 20 10 21 13 22
REMARK SMILES IDX 31 23 25 24 26 25 19 26 2 27 3 28 1 29 8 30 9 31 23 33
REMARK H PARENT 9 32 23 34
REMARK Flexibility Score: inf
ROOT
ATOM      1  C   UNL     1      -7.392  92.309 -12.478  1.00  0.00     0.018 C 
ATOM      2  C   UNL     1      -7.565  93.456 -11.503  1.00  0.00     0.009 C 
ATOM      3  C   UNL     1      -6.162  93.721 -10.970  1.00  0.00     0.010 C 
ATOM      4  C   UNL     1      -5.339  92.395 -11.111  1.00  0.00    -0.003 C 
ATOM      5  C   UNL     1      -6.323  91.393 -11.827  1.00  0.00     0.008 C 
ATOM      6  C   UNL     1      -6.904  90.155 -11.008  1.00  0.00    -0.000 C 
ATOM      7  C   UNL     1      -6.452  88.857 -11.746  1.00  0.00     0.005 C 
ATOM      8  C   UNL     1      -6.840  87.544 -11.069  1.00  0.00     0.005 C 
ATOM      9  C   UNL     1      -6.279  87.536  -9.635  1.00  0.00     0.002 C 
ATOM     10  C   UNL     1      -6.090  86.114  -8.934  1.00  0.00    -0.026 C 
ATOM     11  C   UNL     1      -5.293  85.183  -9.912  1.00  0.00     0.010 C 
ATOM     12  C   UNL     1      -4.700  83.904  -9.304  1.00  0.00     0.033 C 
ATOM     13  C   UNL     1      -4.122  84.044  -7.880  1.00  0.00     0.120 C 
ATOM     14  C   UNL     1      -3.961  85.515  -7.375  1.00  0.00    -0.006 C 
ATOM     15  C   UNL     1      -5.326  86.298  -7.536  1.00  0.00     0.003 C 
ATOM     16  C   UNL     1      -5.185  87.786  -7.112  1.00  0.00     0.005 C 
ATOM     17  C   UNL     1      -6.494  88.557  -7.298  1.00  0.00     0.008 C 
ATOM     18  C   UNL     1      -6.963  88.690  -8.794  1.00  0.00    -0.024 C 
ATOM     19  C   UNL     1      -6.611  90.138  -9.451  1.00  0.00    -0.024 C 
ATOM     20  C   UNL     1      -5.113  90.512  -9.273  1.00  0.00     0.008 C 
ATOM     21  C   UNL     1      -4.755  91.931  -9.726  1.00  0.00     0.010 C 
ATOM     22  C   UNL     1      -7.502  91.229  -8.757  1.00  0.00     0.012 C 
ATOM     23  C   UNL     1      -8.528  88.533  -8.776  1.00  0.00     0.012 C 
ATOM     24  C   UNL     1      -2.784  86.211  -8.122  1.00  0.00     0.014 C 
ATOM     25  C   UNL     1      -3.551  85.448  -5.876  1.00  0.00     0.014 C 
ATOM     26  C   UNL     1      -7.458  85.415  -8.690  1.00  0.00     0.012 C 
ENDROOT
BRANCH   1  27
ATOM     27  C   UNL     1      -8.661  91.626 -12.994  1.00  0.00    -0.077 C 
ATOM     28  C   UNL     1     -10.013  91.751 -12.330  1.00  0.00     0.039 C 
ATOM     29  C   UNL     1      -8.584  90.901 -14.123  1.00  0.00     0.008 C 
ENDBRANCH   1  27
BRANCH   4  30
ATOM     30  C   UNL     1      -4.133  92.666 -12.067  1.00  0.00     0.163 C 
BRANCH  30  31
ATOM     31  O   UNL     1      -3.751  91.493 -12.738  1.00  0.00    -0.396 OA
ATOM     32  H   UNL     1      -4.587  90.983 -12.900  1.00  0.00     0.210 HD
ENDBRANCH  30  31
ENDBRANCH   4  30
BRANCH  13  33
ATOM     33  O   UNL     1      -4.867  83.258  -6.976  1.00  0.00    -0.393 OA
ATOM     34  H   UNL     1      -5.618  82.845  -7.471  1.00  0.00     0.210 HD
ENDBRANCH  13  33
TORSDOF 4
ENDMDL
MODEL 5
REMARK VINA RESULT:    -5.578      2.923      8.225
REMARK INTER + INTRA:          -7.172
REMARK INTER:                  -6.617
REMARK INTRA:                  -0.555
REMARK UNBOUND:                -0.616
REMARK SMILES C=C(C)[C@H]1CC[C@@]2(CO)CC[C@@]3(C)[C@H](CC[C@@H]4[C@@]5(C)CC[C@H](O)C(C)(C)[C@H]5CC[C@]43C)[C@@H]12
REMARK SMILES IDX 4 1 5 2 6 3 7 4 32 5 14 6 15 7 16 8 17 9 18 10 20 11 21 12
REMARK SMILES IDX 22 13 24 14 27 15 28 16 29 17 30 18 12 19 11 20 10 21 13 22
REMARK SMILES IDX 31 23 25 24 26 25 19 26 2 27 3 28 1 29 8 30 9 31 23 33
REMARK H PARENT 9 32 23 34
REMARK Flexibility Score: inf
ROOT
ATOM      1  C   UNL     1      -6.313  90.972 -15.727  1.00  0.00     0.018 C 
ATOM      2  C   UNL     1      -5.266  89.885 -15.588  1.00  0.00     0.009 C 
ATOM      3  C   UNL     1      -5.870  88.895 -14.600  1.00  0.00     0.010 C 
ATOM      4  C   UNL     1      -6.899  89.674 -13.711  1.00  0.00    -0.003 C 
ATOM      5  C   UNL     1      -6.907  91.135 -14.303  1.00  0.00     0.008 C 
ATOM      6  C   UNL     1      -6.282  92.325 -13.445  1.00  0.00    -0.000 C 
ATOM      7  C   UNL     1      -7.418  93.366 -13.201  1.00  0.00     0.005 C 
ATOM      8  C   UNL     1      -7.044  94.555 -12.318  1.00  0.00     0.005 C 
ATOM      9  C   UNL     1      -6.533  94.032 -10.964  1.00  0.00     0.002 C 
ATOM     10  C   UNL     1      -6.589  95.038  -9.725  1.00  0.00    -0.026 C 
ATOM     11  C   UNL     1      -8.033  95.644  -9.645  1.00  0.00     0.010 C 
ATOM     12  C   UNL     1      -8.404  96.353  -8.335  1.00  0.00     0.033 C 
ATOM     13  C   UNL     1      -7.873  95.696  -7.044  1.00  0.00     0.120 C 
ATOM     14  C   UNL     1      -7.285  94.259  -7.229  1.00  0.00    -0.006 C 
ATOM     15  C   UNL     1      -6.199  94.259  -8.378  1.00  0.00     0.003 C 
ATOM     16  C   UNL     1      -5.643  92.832  -8.641  1.00  0.00     0.005 C 
ATOM     17  C   UNL     1      -4.616  92.821  -9.776  1.00  0.00     0.008 C 
ATOM     18  C   UNL     1      -5.201  93.206 -11.185  1.00  0.00    -0.024 C 
ATOM     19  C   UNL     1      -5.501  91.913 -12.129  1.00  0.00    -0.024 C 
ATOM     20  C   UNL     1      -6.373  90.849 -11.406  1.00  0.00     0.008 C 
ATOM     21  C   UNL     1      -6.554  89.542 -12.182  1.00  0.00     0.010 C 
ATOM     22  C   UNL     1      -4.130  91.266 -12.538  1.00  0.00     0.012 C 
ATOM     23  C   UNL     1      -4.099  94.077 -11.892  1.00  0.00     0.012 C 
ATOM     24  C   UNL     1      -8.434  93.241  -7.496  1.00  0.00     0.014 C 
ATOM     25  C   UNL     1      -6.638  93.845  -5.875  1.00  0.00     0.014 C 
ATOM     26  C   UNL     1      -5.625  96.242  -9.927  1.00  0.00     0.012 C 
ENDROOT
BRANCH   1  27
ATOM     27  C   UNL     1      -5.904  92.256 -16.453  1.00  0.00    -0.077 C 
ATOM     28  C   UNL     1      -4.523  92.866 -16.368  1.00  0.00     0.039 C 
ATOM     29  C   UNL     1      -6.806  92.861 -17.242  1.00  0.00     0.008 C 
ENDBRANCH   1  27
BRANCH   4  30
ATOM     30  C   UNL     1      -8.313  89.047 -13.934  1.00  0.00     0.163 C 
BRANCH  30  31
ATOM     31  O   UNL     1      -8.767  88.406 -12.771  1.00  0.00    -0.396 OA
ATOM     32  H   UNL     1      -8.979  89.128 -12.123  1.00  0.00     0.210 HD
ENDBRANCH  30  31
ENDBRANCH   4  30
BRANCH  13  33
ATOM     33  O   UNL     1      -6.959  96.557  -6.403  1.00  0.00    -0.393 OA
ATOM     34  H   UNL     1      -6.447  97.040  -7.099  1.00  0.00     0.210 HD
ENDBRANCH  13  33
TORSDOF 4
ENDMDL
MODEL 6
REMARK VINA RESULT:    -5.534      3.476      5.747
REMARK INTER + INTRA:          -7.121
REMARK INTER:                  -6.477
REMARK INTRA:                  -0.643
REMARK UNBOUND:                -0.616
REMARK SMILES C=C(C)[C@H]1CC[C@@]2(CO)CC[C@@]3(C)[C@H](CC[C@@H]4[C@@]5(C)CC[C@H](O)C(C)(C)[C@H]5CC[C@]43C)[C@@H]12
REMARK SMILES IDX 4 1 5 2 6 3 7 4 32 5 14 6 15 7 16 8 17 9 18 10 20 11 21 12
REMARK SMILES IDX 22 13 24 14 27 15 28 16 29 17 30 18 12 19 11 20 10 21 13 22
REMARK SMILES IDX 31 23 25 24 26 25 19 26 2 27 3 28 1 29 8 30 9 31 23 33
REMARK H PARENT 9 32 23 34
REMARK Flexibility Score: inf
ROOT
ATOM      1  C   UNL     1     -10.296  89.084 -10.786  1.00  0.00     0.018 C 
ATOM      2  C   UNL     1     -11.226  90.190 -10.327  1.00  0.00     0.009 C 
ATOM      3  C   UNL     1     -12.015  90.570 -11.574  1.00  0.00     0.010 C 
ATOM      4  C   UNL     1     -11.148  90.187 -12.823  1.00  0.00    -0.003 C 
ATOM      5  C   UNL     1      -9.867  89.497 -12.218  1.00  0.00     0.008 C 
ATOM      6  C   UNL     1      -8.462  90.246 -12.312  1.00  0.00    -0.000 C 
ATOM      7  C   UNL     1      -7.497  89.324 -13.120  1.00  0.00     0.005 C 
ATOM      8  C   UNL     1      -6.111  89.901 -13.396  1.00  0.00     0.005 C 
ATOM      9  C   UNL     1      -6.266  91.245 -14.131  1.00  0.00     0.002 C 
ATOM     10  C   UNL     1      -5.013  91.763 -14.976  1.00  0.00    -0.026 C 
ATOM     11  C   UNL     1      -4.535  90.600 -15.913  1.00  0.00     0.010 C 
ATOM     12  C   UNL     1      -3.582  90.990 -17.052  1.00  0.00     0.033 C 
ATOM     13  C   UNL     1      -3.880  92.338 -17.742  1.00  0.00     0.120 C 
ATOM     14  C   UNL     1      -5.263  92.972 -17.383  1.00  0.00    -0.006 C 
ATOM     15  C   UNL     1      -5.428  93.066 -15.813  1.00  0.00     0.003 C 
ATOM     16  C   UNL     1      -6.823  93.625 -15.417  1.00  0.00     0.005 C 
ATOM     17  C   UNL     1      -7.001  93.686 -13.898  1.00  0.00     0.008 C 
ATOM     18  C   UNL     1      -6.999  92.282 -13.187  1.00  0.00    -0.024 C 
ATOM     19  C   UNL     1      -8.494  91.744 -12.828  1.00  0.00    -0.024 C 
ATOM     20  C   UNL     1      -9.438  91.773 -14.062  1.00  0.00     0.008 C 
ATOM     21  C   UNL     1     -10.899  91.432 -13.752  1.00  0.00     0.010 C 
ATOM     22  C   UNL     1      -9.093  92.655 -11.697  1.00  0.00     0.012 C 
ATOM     23  C   UNL     1      -6.217  92.478 -11.836  1.00  0.00     0.012 C 
ATOM     24  C   UNL     1      -6.413  92.163 -18.055  1.00  0.00     0.014 C 
ATOM     25  C   UNL     1      -5.300  94.393 -18.016  1.00  0.00     0.014 C 
ATOM     26  C   UNL     1      -3.807  92.099 -14.054  1.00  0.00     0.012 C 
ENDROOT
BRANCH   1  27
ATOM     27  C   UNL     1      -9.180  88.661  -9.828  1.00  0.00    -0.077 C 
ATOM     28  C   UNL     1      -8.358  87.404  -9.998  1.00  0.00     0.039 C 
ATOM     29  C   UNL     1      -8.882  89.466  -8.795  1.00  0.00     0.008 C 
ENDBRANCH   1  27
BRANCH   4  30
ATOM     30  C   UNL     1     -11.932  89.123 -13.656  1.00  0.00     0.163 C 
BRANCH  30  31
ATOM     31  O   UNL     1     -11.231  88.786 -14.826  1.00  0.00    -0.396 OA
ATOM     32  H   UNL     1     -11.327  89.561 -15.438  1.00  0.00     0.210 HD
ENDBRANCH  30  31
ENDBRANCH   4  30
BRANCH  13  33
ATOM     33  O   UNL     1      -2.817  93.239 -17.522  1.00  0.00    -0.393 OA
ATOM     34  H   UNL     1      -3.146  94.155 -17.702  1.00  0.00     0.210 HD
ENDBRANCH  13  33
TORSDOF 4
ENDMDL
MODEL 7
REMARK VINA RESULT:    -5.529      1.904      2.766
REMARK INTER + INTRA:          -7.114
REMARK INTER:                  -6.479
REMARK INTRA:                  -0.636
REMARK UNBOUND:                -0.616
REMARK SMILES C=C(C)[C@H]1CC[C@@]2(CO)CC[C@@]3(C)[C@H](CC[C@@H]4[C@@]5(C)CC[C@H](O)C(C)(C)[C@H]5CC[C@]43C)[C@@H]12
REMARK SMILES IDX 4 1 5 2 6 3 7 4 32 5 14 6 15 7 16 8 17 9 18 10 20 11 21 12
REMARK SMILES IDX 22 13 24 14 27 15 28 16 29 17 30 18 12 19 11 20 10 21 13 22
REMARK SMILES IDX 31 23 25 24 26 25 19 26 2 27 3 28 1 29 8 30 9 31 23 33
REMARK H PARENT 9 32 23 34
REMARK Flexibility Score: inf
ROOT
ATOM      1  C   UNL     1      -5.774  95.868  -9.125  1.00  0.00     0.018 C 
ATOM      2  C   UNL     1      -5.900  94.576  -8.344  1.00  0.00     0.009 C 
ATOM      3  C   UNL     1      -4.700  93.744  -8.783  1.00  0.00     0.010 C 
ATOM      4  C   UNL     1      -4.276  94.235 -10.210  1.00  0.00    -0.003 C 
ATOM      5  C   UNL     1      -5.243  95.440 -10.518  1.00  0.00     0.008 C 
ATOM      6  C   UNL     1      -6.361  95.272 -11.643  1.00  0.00    -0.000 C 
ATOM      7  C   UNL     1      -6.093  96.358 -12.730  1.00  0.00     0.005 C 
ATOM      8  C   UNL     1      -7.012  96.313 -13.948  1.00  0.00     0.005 C 
ATOM      9  C   UNL     1      -6.923  94.917 -14.591  1.00  0.00     0.002 C 
ATOM     10  C   UNL     1      -7.353  94.791 -16.123  1.00  0.00    -0.026 C 
ATOM     11  C   UNL     1      -6.596  95.894 -16.941  1.00  0.00     0.010 C 
ATOM     12  C   UNL     1      -6.589  95.728 -18.468  1.00  0.00     0.033 C 
ATOM     13  C   UNL     1      -6.441  94.281 -18.983  1.00  0.00     0.120 C 
ATOM     14  C   UNL     1      -6.032  93.233 -17.897  1.00  0.00    -0.006 C 
ATOM     15  C   UNL     1      -7.014  93.319 -16.661  1.00  0.00     0.003 C 
ATOM     16  C   UNL     1      -6.595  92.341 -15.528  1.00  0.00     0.005 C 
ATOM     17  C   UNL     1      -7.522  92.444 -14.315  1.00  0.00     0.008 C 
ATOM     18  C   UNL     1      -7.474  93.833 -13.577  1.00  0.00    -0.024 C 
ATOM     19  C   UNL     1      -6.555  93.814 -12.233  1.00  0.00    -0.024 C 
ATOM     20  C   UNL     1      -5.134  93.247 -12.503  1.00  0.00     0.008 C 
ATOM     21  C   UNL     1      -4.279  93.053 -11.248  1.00  0.00     0.010 C 
ATOM     22  C   UNL     1      -7.271  92.924 -11.154  1.00  0.00     0.012 C 
ATOM     23  C   UNL     1      -8.954  94.151 -13.150  1.00  0.00     0.012 C 
ATOM     24  C   UNL     1      -4.542  93.437 -17.490  1.00  0.00     0.014 C 
ATOM     25  C   UNL     1      -6.116  91.826 -18.557  1.00  0.00     0.014 C 
ATOM     26  C   UNL     1      -8.870  95.077 -16.313  1.00  0.00     0.012 C 
ENDROOT
BRANCH   1  27
ATOM     27  C   UNL     1      -6.973  96.820  -9.108  1.00  0.00    -0.077 C 
ATOM     28  C   UNL     1      -8.383  96.391  -8.774  1.00  0.00     0.039 C 
ATOM     29  C   UNL     1      -6.762  98.121  -9.369  1.00  0.00     0.008 C 
ENDBRANCH   1  27
BRANCH   4  30
ATOM     30  C   UNL     1      -2.817  94.787 -10.124  1.00  0.00     0.163 C 
BRANCH  30  31
ATOM     31  O   UNL     1      -2.317  95.086 -11.402  1.00  0.00    -0.396 OA
ATOM     32  H   UNL     1      -2.991  95.676 -11.830  1.00  0.00     0.210 HD
ENDBRANCH  30  31
ENDBRANCH   4  30
BRANCH  13  33
ATOM     33  O   UNL     1      -7.606  93.892 -19.675  1.00  0.00    -0.393 OA
ATOM     34  H   UNL     1      -8.154  94.699 -19.836  1.00  0.00     0.210 HD
ENDBRANCH  13  33
TORSDOF 4
ENDMDL
MODEL 8
REMARK VINA RESULT:    -5.244      4.821      7.502
REMARK INTER + INTRA:          -6.779
REMARK INTER:                  -6.245
REMARK INTRA:                  -0.535
REMARK UNBOUND:                -0.616
REMARK SMILES C=C(C)[C@H]1CC[C@@]2(CO)CC[C@@]3(C)[C@H](CC[C@@H]4[C@@]5(C)CC[C@H](O)C(C)(C)[C@H]5CC[C@]43C)[C@@H]12
REMARK SMILES IDX 4 1 5 2 6 3 7 4 32 5 14 6 15 7 16 8 17 9 18 10 20 11 21 12
REMARK SMILES IDX 22 13 24 14 27 15 28 16 29 17 30 18 12 19 11 20 10 21 13 22
REMARK SMILES IDX 31 23 25 24 26 25 19 26 2 27 3 28 1 29 8 30 9 31 23 33
REMARK H PARENT 9 32 23 34
REMARK Flexibility Score: inf
ROOT
ATOM      1  C   UNL     1      -4.328  93.303  -9.813  1.00  0.00     0.018 C 
ATOM      2  C   UNL     1      -4.514  93.979  -8.468  1.00  0.00     0.009 C 
ATOM      3  C   UNL     1      -4.894  92.848  -7.520  1.00  0.00     0.010 C 
ATOM      4  C   UNL     1      -5.539  91.704  -8.375  1.00  0.00    -0.003 C 
ATOM      5  C   UNL     1      -5.429  92.211  -9.863  1.00  0.00     0.008 C 
ATOM      6  C   UNL     1      -6.756  92.627 -10.643  1.00  0.00    -0.000 C 
ATOM      7  C   UNL     1      -6.866  91.704 -11.896  1.00  0.00     0.005 C 
ATOM      8  C   UNL     1      -8.125  91.887 -12.741  1.00  0.00     0.005 C 
ATOM      9  C   UNL     1      -9.361  91.681 -11.847  1.00  0.00     0.002 C 
ATOM     10  C   UNL     1     -10.731  91.299 -12.574  1.00  0.00    -0.026 C 
ATOM     11  C   UNL     1     -10.460  90.091 -13.536  1.00  0.00     0.010 C 
ATOM     12  C   UNL     1     -11.695  89.344 -14.059  1.00  0.00     0.033 C 
ATOM     13  C   UNL     1     -12.844  89.159 -13.046  1.00  0.00     0.120 C 
ATOM     14  C   UNL     1     -12.478  89.497 -11.564  1.00  0.00    -0.006 C 
ATOM     15  C   UNL     1     -11.844  90.943 -11.476  1.00  0.00     0.003 C 
ATOM     16  C   UNL     1     -11.400  91.286 -10.027  1.00  0.00     0.005 C 
ATOM     17  C   UNL     1     -10.755  92.671  -9.942  1.00  0.00     0.008 C 
ATOM     18  C   UNL     1      -9.404  92.808 -10.737  1.00  0.00    -0.024 C 
ATOM     19  C   UNL     1      -8.087  92.698  -9.785  1.00  0.00    -0.024 C 
ATOM     20  C   UNL     1      -8.114  91.426  -8.894  1.00  0.00     0.008 C 
ATOM     21  C   UNL     1      -6.984  91.349  -7.863  1.00  0.00     0.010 C 
ATOM     22  C   UNL     1      -8.028  93.972  -8.867  1.00  0.00     0.012 C 
ATOM     23  C   UNL     1      -9.419  94.244 -11.380  1.00  0.00     0.012 C 
ATOM     24  C   UNL     1     -11.538  88.399 -10.981  1.00  0.00     0.014 C 
ATOM     25  C   UNL     1     -13.794  89.432 -10.736  1.00  0.00     0.014 C 
ATOM     26  C   UNL     1     -11.241  92.462 -13.473  1.00  0.00     0.012 C 
ENDROOT
BRANCH   1  27
ATOM     27  C   UNL     1      -4.198  94.205 -11.042  1.00  0.00    -0.077 C 
ATOM     28  C   UNL     1      -4.478  95.691 -11.030  1.00  0.00     0.039 C 
ATOM     29  C   UNL     1      -3.775  93.660 -12.195  1.00  0.00     0.008 C 
ENDBRANCH   1  27
BRANCH   4  30
ATOM     30  C   UNL     1      -4.656  90.424  -8.226  1.00  0.00     0.163 C 
BRANCH  30  31
ATOM     31  O   UNL     1      -3.558  90.666  -7.385  1.00  0.00    -0.396 OA
ATOM     32  H   UNL     1      -3.822  90.338  -6.486  1.00  0.00     0.210 HD
ENDBRANCH  30  31
ENDBRANCH   4  30
BRANCH  13  33
ATOM     33  O   UNL     1     -13.988  89.862 -13.477  1.00  0.00    -0.393 OA
ATOM     34  H   UNL     1     -14.656  89.844 -12.746  1.00  0.00     0.210 HD
ENDBRANCH  13  33
TORSDOF 4
ENDMDL
MODEL 9
REMARK VINA RESULT:    -5.169      4.464      6.937
REMARK INTER + INTRA:          -6.691
REMARK INTER:                  -6.123
REMARK INTRA:                  -0.568
REMARK UNBOUND:                -0.616
REMARK SMILES C=C(C)[C@H]1CC[C@@]2(CO)CC[C@@]3(C)[C@H](CC[C@@H]4[C@@]5(C)CC[C@H](O)C(C)(C)[C@H]5CC[C@]43C)[C@@H]12
REMARK SMILES IDX 4 1 5 2 6 3 7 4 32 5 14 6 15 7 16 8 17 9 18 10 20 11 21 12
REMARK SMILES IDX 22 13 24 14 27 15 28 16 29 17 30 18 12 19 11 20 10 21 13 22
REMARK SMILES IDX 31 23 25 24 26 25 19 26 2 27 3 28 1 29 8 30 9 31 23 33
REMARK H PARENT 9 32 23 34
REMARK Flexibility Score: inf
ROOT
ATOM      1  C   UNL     1      -4.934  94.927  -8.909  1.00  0.00     0.018 C 
ATOM      2  C   UNL     1      -3.631  94.335  -9.408  1.00  0.00     0.009 C 
ATOM      3  C   UNL     1      -3.640  94.598 -10.909  1.00  0.00     0.010 C 
ATOM      4  C   UNL     1      -5.134  94.734 -11.362  1.00  0.00    -0.003 C 
ATOM      5  C   UNL     1      -5.964  94.617 -10.027  1.00  0.00     0.008 C 
ATOM      6  C   UNL     1      -6.858  93.319  -9.779  1.00  0.00    -0.000 C 
ATOM      7  C   UNL     1      -8.334  93.798  -9.617  1.00  0.00     0.005 C 
ATOM      8  C   UNL     1      -9.372  92.690  -9.452  1.00  0.00     0.005 C 
ATOM      9  C   UNL     1      -9.276  91.732 -10.653  1.00  0.00     0.002 C 
ATOM     10  C   UNL     1     -10.558  90.838 -10.978  1.00  0.00    -0.026 C 
ATOM     11  C   UNL     1     -11.813  91.777 -11.039  1.00  0.00     0.010 C 
ATOM     12  C   UNL     1     -13.077  91.187 -11.680  1.00  0.00     0.033 C 
ATOM     13  C   UNL     1     -12.845  90.285 -12.910  1.00  0.00     0.120 C 
ATOM     14  C   UNL     1     -11.398  90.332 -13.500  1.00  0.00    -0.006 C 
ATOM     15  C   UNL     1     -10.337  90.056 -12.360  1.00  0.00     0.003 C 
ATOM     16  C   UNL     1      -8.882  90.167 -12.894  1.00  0.00     0.005 C 
ATOM     17  C   UNL     1      -7.850  89.934 -11.788  1.00  0.00     0.008 C 
ATOM     18  C   UNL     1      -7.862  91.021 -10.650  1.00  0.00    -0.024 C 
ATOM     19  C   UNL     1      -6.682  92.132 -10.813  1.00  0.00    -0.024 C 
ATOM     20  C   UNL     1      -6.671  92.770 -12.230  1.00  0.00     0.008 C 
ATOM     21  C   UNL     1      -5.487  93.704 -12.497  1.00  0.00     0.010 C 
ATOM     22  C   UNL     1      -5.300  91.434 -10.550  1.00  0.00     0.012 C 
ATOM     23  C   UNL     1      -7.615  90.245  -9.304  1.00  0.00     0.012 C 
ATOM     24  C   UNL     1     -11.158  91.693 -14.220  1.00  0.00     0.014 C 
ATOM     25  C   UNL     1     -11.309  89.233 -14.598  1.00  0.00     0.014 C 
ATOM     26  C   UNL     1     -10.840  89.814  -9.841  1.00  0.00     0.012 C 
ENDROOT
BRANCH   1  27
ATOM     27  C   UNL     1      -5.354  94.596  -7.475  1.00  0.00    -0.077 C 
ATOM     28  C   UNL     1      -5.042  93.286  -6.788  1.00  0.00     0.039 C 
ATOM     29  C   UNL     1      -6.007  95.532  -6.766  1.00  0.00     0.008 C 
ENDBRANCH   1  27
BRANCH   4  30
ATOM     30  C   UNL     1      -5.341  96.169 -11.943  1.00  0.00     0.163 C 
BRANCH  30  31
ATOM     31  O   UNL     1      -4.111  96.757 -12.281  1.00  0.00    -0.396 OA
ATOM     32  H   UNL     1      -4.034  96.687 -13.267  1.00  0.00     0.210 HD
ENDBRANCH  30  31
ENDBRANCH   4  30
BRANCH  13  33
ATOM     33  O   UNL     1     -13.253  88.965 -12.627  1.00  0.00    -0.393 OA
ATOM     34  H   UNL     1     -13.585  88.937 -11.695  1.00  0.00     0.210 HD
ENDBRANCH  13  33
TORSDOF 4
ENDMDL
