MODEL 1
REMARK VINA RESULT:    -2.376      0.000      0.000
REMARK INTER + INTRA:          -2.665
REMARK INTER:                  -2.654
REMARK INTRA:                  -0.011
REMARK UNBOUND:                -0.011
REMARK SMILES CCCC(=O)[O-]
REMARK SMILES IDX 3 1 4 2 5 3 6 4 2 5 1 6
REMARK H PARENT
REMARK Flexibility Score: inf
ROOT
ATOM      1  C   UNL     1      19.449  23.357  45.672  1.00  0.00     0.052 C 
ENDROOT
BRANCH   1   2
ATOM      2  C   UNL     1      18.059  23.865  45.455  1.00  0.00     0.041 C 
ATOM      3  O   UNL     1      17.282  24.022  46.431  1.00  0.00    -0.550 OA
ATOM      4  O   UNL     1      17.606  24.120  44.166  1.00  0.00    -0.550 OA
ENDBRANCH   1   2
BRANCH   1   5
ATOM      5  C   UNL     1      19.558  22.657  47.030  1.00  0.00     0.003 C 
ATOM      6  C   UNL     1      20.763  21.724  47.073  1.00  0.00     0.004 C 
ENDBRANCH   1   5
TORSDOF 2
ENDMDL
MODEL 2
REMARK VINA RESULT:    -2.262      2.787      3.536
REMARK INTER + INTRA:          -2.538
REMARK INTER:                  -2.525
REMARK INTRA:                  -0.014
REMARK UNBOUND:                -0.011
REMARK SMILES CCCC(=O)[O-]
REMARK SMILES IDX 3 1 4 2 5 3 6 4 2 5 1 6
REMARK H PARENT
REMARK Flexibility Score: inf
ROOT
ATOM      1  C   UNL     1      19.846  23.132  45.554  1.00  0.00     0.052 C 
ENDROOT
BRANCH   1   2
ATOM      2  C   UNL     1      20.778  22.186  46.242  1.00  0.00     0.041 C 
ATOM      3  O   UNL     1      20.346  21.400  47.124  1.00  0.00    -0.550 OA
ATOM      4  O   UNL     1      22.135  22.208  45.942  1.00  0.00    -0.550 OA
ENDBRANCH   1   2
BRANCH   1   5
ATOM      5  C   UNL     1      18.690  23.516  46.482  1.00  0.00     0.003 C 
ATOM      6  C   UNL     1      17.532  24.124  45.698  1.00  0.00     0.004 C 
ENDBRANCH   1   5
TORSDOF 2
ENDMDL
MODEL 3
REMARK VINA RESULT:    -2.032     20.646     21.367
REMARK INTER + INTRA:          -2.281
REMARK INTER:                  -2.269
REMARK INTRA:                  -0.013
REMARK UNBOUND:                -0.011
REMARK SMILES CCCC(=O)[O-]
REMARK SMILES IDX 3 1 4 2 5 3 6 4 2 5 1 6
REMARK H PARENT
REMARK Flexibility Score: inf
ROOT
ATOM      1  C   UNL     1      30.322  23.148  28.325  1.00  0.00     0.052 C 
ENDROOT
BRANCH   1   2
ATOM      2  C   UNL     1      31.253  23.520  29.436  1.00  0.00     0.041 C 
ATOM      3  O   UNL     1      32.495  23.372  29.297  1.00  0.00    -0.550 OA
ATOM      4  O   UNL     1      30.744  23.986  30.642  1.00  0.00    -0.550 OA
ENDBRANCH   1   2
BRANCH   1   5
ATOM      5  C   UNL     1      30.974  22.113  27.404  1.00  0.00     0.003 C 
ATOM      6  C   UNL     1      29.943  21.120  26.875  1.00  0.00     0.004 C 
ENDBRANCH   1   5
TORSDOF 2
ENDMDL
MODEL 4
REMARK VINA RESULT:    -1.992     20.706     21.427
REMARK INTER + INTRA:          -2.236
REMARK INTER:                  -2.225
REMARK INTRA:                  -0.011
REMARK UNBOUND:                -0.011
REMARK SMILES CCCC(=O)[O-]
REMARK SMILES IDX 3 1 4 2 5 3 6 4 2 5 1 6
REMARK H PARENT
REMARK Flexibility Score: inf
ROOT
ATOM      1  C   UNL     1      30.237  23.020  28.262  1.00  0.00     0.052 C 
ENDROOT
BRANCH   1   2
ATOM      2  C   UNL     1      30.528  21.733  27.557  1.00  0.00     0.041 C 
ATOM      3  O   UNL     1      31.714  21.333  27.432  1.00  0.00    -0.550 OA
ATOM      4  O   UNL     1      29.490  20.999  26.995  1.00  0.00    -0.550 OA
ENDBRANCH   1   2
BRANCH   1   5
ATOM      5  C   UNL     1      31.316  23.314  29.307  1.00  0.00     0.003 C 
ATOM      6  C   UNL     1      30.737  24.068  30.500  1.00  0.00     0.004 C 
ENDBRANCH   1   5
TORSDOF 2
ENDMDL
MODEL 5
REMARK VINA RESULT:    -1.724     21.839     22.453
REMARK INTER + INTRA:          -1.937
REMARK INTER:                  -1.925
REMARK INTRA:                  -0.012
REMARK UNBOUND:                -0.011
REMARK SMILES CCCC(=O)[O-]
REMARK SMILES IDX 3 1 4 2 5 3 6 4 2 5 1 6
REMARK H PARENT
REMARK Flexibility Score: inf
ROOT
ATOM      1  C   UNL     1      31.754  22.449  28.599  1.00  0.00     0.052 C 
ENDROOT
BRANCH   1   2
ATOM      2  C   UNL     1      32.920  23.384  28.538  1.00  0.00     0.041 C 
ATOM      3  O   UNL     1      33.608  23.471  27.488  1.00  0.00    -0.550 OA
ATOM      4  O   UNL     1      33.276  24.125  29.659  1.00  0.00    -0.550 OA
ENDBRANCH   1   2
BRANCH   1   5
ATOM      5  C   UNL     1      30.833  22.661  27.395  1.00  0.00     0.003 C 
ATOM      6  C   UNL     1      29.915  21.461  27.185  1.00  0.00     0.004 C 
ENDBRANCH   1   5
TORSDOF 2
ENDMDL
MODEL 6
REMARK VINA RESULT:    -0.400     19.395     20.104
REMARK INTER + INTRA:          -0.458
REMARK INTER:                  -0.391
REMARK INTRA:                  -0.067
REMARK UNBOUND:                -0.011
REMARK SMILES CCCC(=O)[O-]
REMARK SMILES IDX 3 1 4 2 5 3 6 4 2 5 1 6
REMARK H PARENT
REMARK Flexibility Score: inf
ROOT
ATOM      1  C   UNL     1      33.022  10.855  41.176  1.00  0.00     0.052 C 
ENDROOT
BRANCH   1   2
ATOM      2  C   UNL     1      33.715  12.045  40.593  1.00  0.00     0.041 C 
ATOM      3  O   UNL     1      33.273  12.587  39.548  1.00  0.00    -0.550 OA
ATOM      4  O   UNL     1      34.880  12.526  41.179  1.00  0.00    -0.550 OA
ENDBRANCH   1   2
BRANCH   1   5
ATOM      5  C   UNL     1      32.795   9.787  40.101  1.00  0.00     0.003 C 
ATOM      6  C   UNL     1      34.105   9.111  39.712  1.00  0.00     0.004 C 
ENDBRANCH   1   5
TORSDOF 2
ENDMDL
MODEL 7
REMARK VINA RESULT:    -0.289     19.376     20.065
REMARK INTER + INTRA:          -0.334
REMARK INTER:                  -0.263
REMARK INTRA:                  -0.071
REMARK UNBOUND:                -0.011
REMARK SMILES CCCC(=O)[O-]
REMARK SMILES IDX 3 1 4 2 5 3 6 4 2 5 1 6
REMARK H PARENT
REMARK Flexibility Score: inf
ROOT
ATOM      1  C   UNL     1      32.994  10.852  41.184  1.00  0.00     0.052 C 
ENDROOT
BRANCH   1   2
ATOM      2  C   UNL     1      33.745  12.016  40.619  1.00  0.00     0.041 C 
ATOM      3  O   UNL     1      34.806  12.411  41.167  1.00  0.00    -0.550 OA
ATOM      4  O   UNL     1      33.244  12.694  39.515  1.00  0.00    -0.550 OA
ENDBRANCH   1   2
BRANCH   1   5
ATOM      5  C   UNL     1      32.783   9.778  40.112  1.00  0.00     0.003 C 
ATOM      6  C   UNL     1      34.106   9.138  39.707  1.00  0.00     0.004 C 
ENDBRANCH   1   5
TORSDOF 2
ENDMDL
MODEL 8
REMARK VINA RESULT:    -0.098     19.283     19.788
REMARK INTER + INTRA:          -0.121
REMARK INTER:                  -0.082
REMARK INTRA:                  -0.039
REMARK UNBOUND:                -0.011
REMARK SMILES CCCC(=O)[O-]
REMARK SMILES IDX 3 1 4 2 5 3 6 4 2 5 1 6
REMARK H PARENT
REMARK Flexibility Score: inf
ROOT
ATOM      1  C   UNL     1      33.791  12.142  40.328  1.00  0.00     0.052 C 
ENDROOT
BRANCH   1   2
ATOM      2  C   UNL     1      33.088  10.892  40.757  1.00  0.00     0.041 C 
ATOM      3  O   UNL     1      32.394  10.884  41.806  1.00  0.00    -0.550 OA
ATOM      4  O   UNL     1      33.241   9.723  40.021  1.00  0.00    -0.550 OA
ENDBRANCH   1   2
BRANCH   1   5
ATOM      5  C   UNL     1      35.117  12.296  41.079  1.00  0.00     0.003 C 
ATOM      6  C   UNL     1      35.007  13.344  42.182  1.00  0.00     0.004 C 
ENDBRANCH   1   5
TORSDOF 2
ENDMDL
MODEL 9
REMARK VINA RESULT:    -0.038     19.751     20.307
REMARK INTER + INTRA:          -0.054
REMARK INTER:                  -0.025
REMARK INTRA:                  -0.029
REMARK UNBOUND:                -0.011
REMARK SMILES CCCC(=O)[O-]
REMARK SMILES IDX 3 1 4 2 5 3 6 4 2 5 1 6
REMARK H PARENT
REMARK Flexibility Score: inf
ROOT
ATOM      1  C   UNL     1      33.228  11.300  41.091  1.00  0.00     0.052 C 
ENDROOT
BRANCH   1   2
ATOM      2  C   UNL     1      33.318  10.083  40.226  1.00  0.00     0.041 C 
ATOM      3  O   UNL     1      32.271   9.506  39.835  1.00  0.00    -0.550 OA
ATOM      4  O   UNL     1      34.561   9.559  39.893  1.00  0.00    -0.550 OA
ENDBRANCH   1   2
BRANCH   1   5
ATOM      5  C   UNL     1      34.224  12.366  40.623  1.00  0.00     0.003 C 
ATOM      6  C   UNL     1      35.037  12.911  41.793  1.00  0.00     0.004 C 
ENDBRANCH   1   5
TORSDOF 2
ENDMDL
