MODEL 1
REMARK VINA RESULT:    -2.653      0.000      0.000
REMARK INTER + INTRA:          -2.653
REMARK INTER:                  -2.653
REMARK INTRA:                   0.000
REMARK UNBOUND:                 0.000
REMARK SMILES c1cc[nH]c1
REMARK SMILES IDX 1 1 5 2 4 3 3 4 2 5
REMARK H PARENT 4 6
REMARK Flexibility Score: inf
ROOT
ATOM      1  C   UNL     1     137.119 131.387 140.391  1.00  0.00     0.019 A 
ATOM      2  C   UNL     1     137.177 132.695 139.955  1.00  0.00     0.082 A 
ATOM      3  N   UNL     1     135.938 133.213 139.893  1.00  0.00    -0.368 N 
ATOM      4  C   UNL     1     135.085 132.251 140.287  1.00  0.00     0.082 A 
ATOM      5  C   UNL     1     135.784 131.103 140.604  1.00  0.00     0.019 A 
ATOM      6  H   UNL     1     135.684 134.182 139.596  1.00  0.00     0.165 HD
ENDROOT
TORSDOF 0
ENDMDL
MODEL 2
REMARK VINA RESULT:    -2.653     13.939     14.530
REMARK INTER + INTRA:          -2.653
REMARK INTER:                  -2.653
REMARK INTRA:                   0.000
REMARK UNBOUND:                 0.000
REMARK SMILES c1cc[nH]c1
REMARK SMILES IDX 1 1 5 2 4 3 3 4 2 5
REMARK H PARENT 4 6
REMARK Flexibility Score: inf
ROOT
ATOM      1  C   UNL     1     151.107 135.770 140.608  1.00  0.00     0.019 A 
ATOM      2  C   UNL     1     149.964 135.063 140.298  1.00  0.00     0.082 A 
ATOM      3  N   UNL     1     148.993 135.907 139.908  1.00  0.00    -0.368 N 
ATOM      4  C   UNL     1     149.502 137.150 139.965  1.00  0.00     0.082 A 
ATOM      5  C   UNL     1     150.813 137.103 140.395  1.00  0.00     0.019 A 
ATOM      6  H   UNL     1     148.025 135.647 139.616  1.00  0.00     0.165 HD
ENDROOT
TORSDOF 0
ENDMDL
MODEL 3
REMARK VINA RESULT:    -2.648     14.026     14.630
REMARK INTER + INTRA:          -2.648
REMARK INTER:                  -2.648
REMARK INTRA:                   0.000
REMARK UNBOUND:                 0.000
REMARK SMILES c1cc[nH]c1
REMARK SMILES IDX 1 1 5 2 4 3 3 4 2 5
REMARK H PARENT 4 6
REMARK Flexibility Score: inf
ROOT
ATOM      1  C   UNL     1     130.980 146.403 140.620  1.00  0.00     0.019 A 
ATOM      2  C   UNL     1     132.079 147.195 140.358  1.00  0.00     0.082 A 
ATOM      3  N   UNL     1     133.113 146.431 139.967  1.00  0.00    -0.368 N 
ATOM      4  C   UNL     1     132.688 145.155 139.973  1.00  0.00     0.082 A 
ATOM      5  C   UNL     1     131.368 145.101 140.374  1.00  0.00     0.019 A 
ATOM      6  H   UNL     1     134.068 146.764 139.706  1.00  0.00     0.165 HD
ENDROOT
TORSDOF 0
ENDMDL
MODEL 4
REMARK VINA RESULT:    -2.643     13.975     14.536
REMARK INTER + INTRA:          -2.643
REMARK INTER:                  -2.643
REMARK INTRA:                   0.000
REMARK UNBOUND:                 0.000
REMARK SMILES c1cc[nH]c1
REMARK SMILES IDX 1 1 5 2 4 3 3 4 2 5
REMARK H PARENT 4 6
REMARK Flexibility Score: inf
ROOT
ATOM      1  C   UNL     1     150.736 137.204 140.332  1.00  0.00     0.019 A 
ATOM      2  C   UNL     1     149.426 137.140 139.904  1.00  0.00     0.082 A 
ATOM      3  N   UNL     1     149.001 135.865 139.917  1.00  0.00    -0.368 N 
ATOM      4  C   UNL     1     150.026 135.109 140.350  1.00  0.00     0.082 A 
ATOM      5  C   UNL     1     151.120 135.908 140.617  1.00  0.00     0.019 A 
ATOM      6  H   UNL     1     148.053 135.524 139.644  1.00  0.00     0.165 HD
ENDROOT
TORSDOF 0
ENDMDL
MODEL 5
REMARK VINA RESULT:    -2.581     14.119     14.647
REMARK INTER + INTRA:          -2.581
REMARK INTER:                  -2.581
REMARK INTRA:                   0.000
REMARK UNBOUND:                 0.000
REMARK SMILES c1cc[nH]c1
REMARK SMILES IDX 1 1 5 2 4 3 3 4 2 5
REMARK H PARENT 4 6
REMARK Flexibility Score: inf
ROOT
ATOM      1  C   UNL     1     132.952 146.008 140.054  1.00  0.00     0.019 A 
ATOM      2  C   UNL     1     132.256 147.143 140.414  1.00  0.00     0.082 A 
ATOM      3  N   UNL     1     131.009 146.816 140.796  1.00  0.00    -0.368 N 
ATOM      4  C   UNL     1     130.899 145.480 140.685  1.00  0.00     0.082 A 
ATOM      5  C   UNL     1     132.086 144.946 140.227  1.00  0.00     0.019 A 
ATOM      6  H   UNL     1     130.266 147.474 141.119  1.00  0.00     0.165 HD
ENDROOT
TORSDOF 0
ENDMDL
MODEL 6
REMARK VINA RESULT:    -2.581      1.265      2.120
REMARK INTER + INTRA:          -2.581
REMARK INTER:                  -2.581
REMARK INTRA:                   0.000
REMARK UNBOUND:                 0.000
REMARK SMILES c1cc[nH]c1
REMARK SMILES IDX 1 1 5 2 4 3 3 4 2 5
REMARK H PARENT 4 6
REMARK Flexibility Score: inf
ROOT
ATOM      1  C   UNL     1     136.188 132.936 140.038  1.00  0.00     0.019 A 
ATOM      2  C   UNL     1     135.070 132.216 140.405  1.00  0.00     0.082 A 
ATOM      3  N   UNL     1     135.429 130.983 140.803  1.00  0.00    -0.368 N 
ATOM      4  C   UNL     1     136.767 130.905 140.695  1.00  0.00     0.082 A 
ATOM      5  C   UNL     1     137.272 132.100 140.223  1.00  0.00     0.019 A 
ATOM      6  H   UNL     1     134.789 130.227 141.134  1.00  0.00     0.165 HD
ENDROOT
TORSDOF 0
ENDMDL
MODEL 7
REMARK VINA RESULT:    -2.320     12.772     13.146
REMARK INTER + INTRA:          -2.320
REMARK INTER:                  -2.320
REMARK INTRA:                   0.000
REMARK UNBOUND:                 0.000
REMARK SMILES c1cc[nH]c1
REMARK SMILES IDX 1 1 5 2 4 3 3 4 2 5
REMARK H PARENT 4 6
REMARK Flexibility Score: inf
ROOT
ATOM      1  C   UNL     1     134.198 145.339 140.949  1.00  0.00     0.019 A 
ATOM      2  C   UNL     1     133.305 145.128 139.919  1.00  0.00     0.082 A 
ATOM      3  N   UNL     1     133.965 144.757 138.808  1.00  0.00    -0.368 N 
ATOM      4  C   UNL     1     135.273 144.727 139.115  1.00  0.00     0.082 A 
ATOM      5  C   UNL     1     135.455 145.083 140.437  1.00  0.00     0.019 A 
ATOM      6  H   UNL     1     133.541 144.533 137.880  1.00  0.00     0.165 HD
ENDROOT
TORSDOF 0
ENDMDL
MODEL 8
REMARK VINA RESULT:    -2.306     17.296     17.985
REMARK INTER + INTRA:          -2.306
REMARK INTER:                  -2.306
REMARK INTRA:                   0.000
REMARK UNBOUND:                 0.000
REMARK SMILES c1cc[nH]c1
REMARK SMILES IDX 1 1 5 2 4 3 3 4 2 5
REMARK H PARENT 4 6
REMARK Flexibility Score: inf
ROOT
ATOM      1  C   UNL     1     145.107 146.762 140.504  1.00  0.00     0.019 A 
ATOM      2  C   UNL     1     144.716 146.860 139.184  1.00  0.00     0.082 A 
ATOM      3  N   UNL     1     144.745 148.145 138.791  1.00  0.00    -0.368 N 
ATOM      4  C   UNL     1     145.152 148.873 139.845  1.00  0.00     0.082 A 
ATOM      5  C   UNL     1     145.386 148.047 140.926  1.00  0.00     0.019 A 
ATOM      6  H   UNL     1     144.498 148.509 137.844  1.00  0.00     0.165 HD
ENDROOT
TORSDOF 0
ENDMDL
MODEL 9
REMARK VINA RESULT:    -1.879     19.627     20.623
REMARK INTER + INTRA:          -1.879
REMARK INTER:                  -1.879
REMARK INTRA:                   0.000
REMARK UNBOUND:                 0.000
REMARK SMILES c1cc[nH]c1
REMARK SMILES IDX 1 1 5 2 4 3 3 4 2 5
REMARK H PARENT 4 6
REMARK Flexibility Score: inf
ROOT
ATOM      1  C   UNL     1     145.217 150.809 140.427  1.00  0.00     0.019 A 
ATOM      2  C   UNL     1     145.182 149.482 140.052  1.00  0.00     0.082 A 
ATOM      3  N   UNL     1     146.428 148.982 140.014  1.00  0.00    -0.368 N 
ATOM      4  C   UNL     1     147.265 149.976 140.362  1.00  0.00     0.082 A 
ATOM      5  C   UNL     1     146.547 151.125 140.625  1.00  0.00     0.019 A 
ATOM      6  H   UNL     1     146.698 148.005 139.762  1.00  0.00     0.165 HD
ENDROOT
TORSDOF 0
ENDMDL
