MODEL 1
REMARK VINA RESULT:    -4.833      0.000      0.000
REMARK INTER + INTRA:          -5.935
REMARK INTER:                  -5.821
REMARK INTRA:                  -0.113
REMARK UNBOUND:                -0.113
REMARK SMILES NC(=O)C[C@H]([NH3+])C(=O)[O-]
REMARK SMILES IDX 4 1 5 2 6 3 7 7 8 8 9 9 2 10 3 11 1 12
REMARK H PARENT 6 4 6 5 6 6 1 13 1 14
REMARK Flexibility Score: inf
ROOT
ATOM      1  C   UNL     1      13.580  34.372  13.984  1.00  0.00     0.171 C 
ENDROOT
BRANCH   1   2
ATOM      2  C   UNL     1      13.323  33.116  13.128  1.00  0.00     0.237 C 
BRANCH   2   3
ATOM      3  N   UNL     1      12.408  32.183  13.801  1.00  0.00    -0.350 N 
ATOM      4  H   UNL     1      11.459  32.236  13.367  1.00  0.00     0.345 HD
ATOM      5  H   UNL     1      12.757  31.203  13.691  1.00  0.00     0.345 HD
ATOM      6  H   UNL     1      12.333  32.408  14.821  1.00  0.00     0.345 HD
ENDBRANCH   2   3
BRANCH   2   7
ATOM      7  C   UNL     1      14.628  32.433  12.818  1.00  0.00     0.100 C 
ATOM      8  O   UNL     1      14.648  31.364  12.151  1.00  0.00    -0.544 OA
ATOM      9  O   UNL     1      15.821  32.971  13.285  1.00  0.00    -0.544 OA
ENDBRANCH   2   7
ENDBRANCH   1   2
BRANCH   1  10
ATOM     10  C   UNL     1      13.462  35.630  13.175  1.00  0.00     0.223 C 
ATOM     11  O   UNL     1      14.261  35.840  12.224  1.00  0.00    -0.275 OA
ATOM     12  N   UNL     1      12.428  36.577  13.451  1.00  0.00    -0.369 N 
ATOM     13  H   UNL     1      12.343  37.445  12.878  1.00  0.00     0.159 HD
ATOM     14  H   UNL     1      11.743  36.408  14.220  1.00  0.00     0.159 HD
ENDBRANCH   1  10
TORSDOF 4
ENDMDL
MODEL 2
REMARK VINA RESULT:    -4.512     14.663     15.863
REMARK INTER + INTRA:          -5.549
REMARK INTER:                  -5.296
REMARK INTRA:                  -0.253
REMARK UNBOUND:                -0.113
REMARK SMILES NC(=O)C[C@H]([NH3+])C(=O)[O-]
REMARK SMILES IDX 4 1 5 2 6 3 7 7 8 8 9 9 2 10 3 11 1 12
REMARK H PARENT 6 4 6 5 6 6 1 13 1 14
REMARK Flexibility Score: inf
ROOT
ATOM      1  C   UNL     1       4.164  44.997   9.396  1.00  0.00     0.171 C 
ENDROOT
BRANCH   1   2
ATOM      2  C   UNL     1       4.827  46.123  10.215  1.00  0.00     0.237 C 
BRANCH   2   3
ATOM      3  N   UNL     1       3.886  46.718  11.174  1.00  0.00    -0.350 N 
ATOM      4  H   UNL     1       3.395  47.530  10.736  1.00  0.00     0.345 HD
ATOM      5  H   UNL     1       3.162  46.013  11.445  1.00  0.00     0.345 HD
ATOM      6  H   UNL     1       4.388  47.042  12.034  1.00  0.00     0.345 HD
ENDBRANCH   2   3
BRANCH   2   7
ATOM      7  C   UNL     1       5.364  47.180   9.288  1.00  0.00     0.100 C 
ATOM      8  O   UNL     1       6.599  47.429   9.248  1.00  0.00    -0.544 OA
ATOM      9  O   UNL     1       4.493  47.905   8.483  1.00  0.00    -0.544 OA
ENDBRANCH   2   7
ENDBRANCH   1   2
BRANCH   1  10
ATOM     10  C   UNL     1       3.749  43.847  10.267  1.00  0.00     0.223 C 
ATOM     11  O   UNL     1       2.620  43.861  10.826  1.00  0.00    -0.275 OA
ATOM     12  N   UNL     1       4.610  42.721  10.440  1.00  0.00    -0.369 N 
ATOM     13  H   UNL     1       4.312  41.919  11.039  1.00  0.00     0.159 HD
ATOM     14  H   UNL     1       5.539  42.682   9.966  1.00  0.00     0.159 HD
ENDBRANCH   1  10
TORSDOF 4
ENDMDL
MODEL 3
REMARK VINA RESULT:    -4.432     14.097     15.059
REMARK INTER + INTRA:          -5.452
REMARK INTER:                  -5.046
REMARK INTRA:                  -0.406
REMARK UNBOUND:                -0.113
REMARK SMILES NC(=O)C[C@H]([NH3+])C(=O)[O-]
REMARK SMILES IDX 4 1 5 2 6 3 7 7 8 8 9 9 2 10 3 11 1 12
REMARK H PARENT 6 4 6 5 6 6 1 13 1 14
REMARK Flexibility Score: inf
ROOT
ATOM      1  C   UNL     1       2.381  43.207  10.071  1.00  0.00     0.171 C 
ENDROOT
BRANCH   1   2
ATOM      2  C   UNL     1       3.844  43.590   9.774  1.00  0.00     0.237 C 
BRANCH   2   3
ATOM      3  N   UNL     1       4.783  42.809  10.590  1.00  0.00    -0.350 N 
ATOM      4  H   UNL     1       4.456  42.779  11.582  1.00  0.00     0.345 HD
ATOM      5  H   UNL     1       4.826  41.825  10.237  1.00  0.00     0.345 HD
ATOM      6  H   UNL     1       5.742  43.228  10.556  1.00  0.00     0.345 HD
ENDBRANCH   2   3
BRANCH   2   7
ATOM      7  C   UNL     1       4.045  45.062  10.015  1.00  0.00     0.100 C 
ATOM      8  O   UNL     1       4.452  45.813   9.089  1.00  0.00    -0.544 OA
ATOM      9  O   UNL     1       3.801  45.599  11.274  1.00  0.00    -0.544 OA
ENDBRANCH   2   7
ENDBRANCH   1   2
BRANCH   1  10
ATOM     10  C   UNL     1       2.193  42.804  11.505  1.00  0.00     0.223 C 
ATOM     11  O   UNL     1       2.571  41.665  11.890  1.00  0.00    -0.275 OA
ATOM     12  N   UNL     1       1.620  43.714  12.445  1.00  0.00    -0.369 N 
ATOM     13  H   UNL     1       1.501  43.433  13.444  1.00  0.00     0.159 HD
ATOM     14  H   UNL     1       1.322  44.669  12.149  1.00  0.00     0.159 HD
ENDBRANCH   1  10
TORSDOF 4
ENDMDL
MODEL 4
REMARK VINA RESULT:    -4.430     13.742     14.801
REMARK INTER + INTRA:          -5.449
REMARK INTER:                  -5.195
REMARK INTRA:                  -0.254
REMARK UNBOUND:                -0.113
REMARK SMILES NC(=O)C[C@H]([NH3+])C(=O)[O-]
REMARK SMILES IDX 4 1 5 2 6 3 7 7 8 8 9 9 2 10 3 11 1 12
REMARK H PARENT 6 4 6 5 6 6 1 13 1 14
REMARK Flexibility Score: inf
ROOT
ATOM      1  C   UNL     1       2.925  44.642  10.868  1.00  0.00     0.171 C 
ENDROOT
BRANCH   1   2
ATOM      2  C   UNL     1       3.652  43.399  11.420  1.00  0.00     0.237 C 
BRANCH   2   3
ATOM      3  N   UNL     1       4.568  42.824  10.425  1.00  0.00    -0.350 N 
ATOM      4  H   UNL     1       4.025  42.436   9.621  1.00  0.00     0.345 HD
ATOM      5  H   UNL     1       5.202  43.569  10.055  1.00  0.00     0.345 HD
ATOM      6  H   UNL     1       5.146  42.062  10.851  1.00  0.00     0.345 HD
ENDBRANCH   2   3
BRANCH   2   7
ATOM      7  C   UNL     1       2.644  42.370  11.856  1.00  0.00     0.100 C 
ATOM      8  O   UNL     1       1.469  42.711  12.154  1.00  0.00    -0.544 OA
ATOM      9  O   UNL     1       3.014  41.033  11.952  1.00  0.00    -0.544 OA
ENDBRANCH   2   7
ENDBRANCH   1   2
BRANCH   1  10
ATOM     10  C   UNL     1       3.890  45.654  10.324  1.00  0.00     0.223 C 
ATOM     11  O   UNL     1       4.455  45.448   9.217  1.00  0.00    -0.275 OA
ATOM     12  N   UNL     1       4.147  46.866  11.035  1.00  0.00    -0.369 N 
ATOM     13  H   UNL     1       4.811  47.572  10.647  1.00  0.00     0.159 HD
ATOM     14  H   UNL     1       3.670  47.064  11.942  1.00  0.00     0.159 HD
ENDBRANCH   1  10
TORSDOF 4
ENDMDL
MODEL 5
REMARK VINA RESULT:    -4.370      1.417      1.488
REMARK INTER + INTRA:          -5.378
REMARK INTER:                  -5.144
REMARK INTRA:                  -0.233
REMARK UNBOUND:                -0.113
REMARK SMILES NC(=O)C[C@H]([NH3+])C(=O)[O-]
REMARK SMILES IDX 4 1 5 2 6 3 7 7 8 8 9 9 2 10 3 11 1 12
REMARK H PARENT 6 4 6 5 6 6 1 13 1 14
REMARK Flexibility Score: inf
ROOT
ATOM      1  C   UNL     1      14.426  35.267  12.717  1.00  0.00     0.171 C 
ENDROOT
BRANCH   1   2
ATOM      2  C   UNL     1      13.673  33.950  12.991  1.00  0.00     0.237 C 
BRANCH   2   3
ATOM      3  N   UNL     1      13.030  33.961  14.312  1.00  0.00    -0.350 N 
ATOM      4  H   UNL     1      13.398  33.175  14.895  1.00  0.00     0.345 HD
ATOM      5  H   UNL     1      13.248  34.857  14.805  1.00  0.00     0.345 HD
ATOM      6  H   UNL     1      11.992  33.863  14.220  1.00  0.00     0.345 HD
ENDBRANCH   2   3
BRANCH   2   7
ATOM      7  C   UNL     1      14.622  32.787  12.883  1.00  0.00     0.100 C 
ATOM      8  O   UNL     1      14.232  31.684  12.413  1.00  0.00    -0.544 OA
ATOM      9  O   UNL     1      15.934  32.918  13.323  1.00  0.00    -0.544 OA
ENDBRANCH   2   7
ENDBRANCH   1   2
BRANCH   1  10
ATOM     10  C   UNL     1      13.485  36.428  12.584  1.00  0.00     0.223 C 
ATOM     11  O   UNL     1      12.664  36.677  13.507  1.00  0.00    -0.275 OA
ATOM     12  N   UNL     1      13.535  37.275  11.435  1.00  0.00    -0.369 N 
ATOM     13  H   UNL     1      12.885  38.087  11.352  1.00  0.00     0.159 HD
ATOM     14  H   UNL     1      14.224  37.097  10.671  1.00  0.00     0.159 HD
ENDBRANCH   1  10
TORSDOF 4
ENDMDL
MODEL 6
REMARK VINA RESULT:    -4.317     14.403     16.395
REMARK INTER + INTRA:          -5.314
REMARK INTER:                  -5.045
REMARK INTRA:                  -0.268
REMARK UNBOUND:                -0.113
REMARK SMILES NC(=O)C[C@H]([NH3+])C(=O)[O-]
REMARK SMILES IDX 4 1 5 2 6 3 7 7 8 8 9 9 2 10 3 11 1 12
REMARK H PARENT 6 4 6 5 6 6 1 13 1 14
REMARK Flexibility Score: inf
ROOT
ATOM      1  C   UNL     1       2.869  44.534  11.118  1.00  0.00     0.171 C 
ENDROOT
BRANCH   1   2
ATOM      2  C   UNL     1       3.179  45.811  10.311  1.00  0.00     0.237 C 
BRANCH   2   3
ATOM      3  N   UNL     1       4.049  46.726  11.062  1.00  0.00    -0.350 N 
ATOM      4  H   UNL     1       3.521  47.147  11.860  1.00  0.00     0.345 HD
ATOM      5  H   UNL     1       4.862  46.198  11.458  1.00  0.00     0.345 HD
ATOM      6  H   UNL     1       4.406  47.491  10.443  1.00  0.00     0.345 HD
ENDBRANCH   2   3
BRANCH   2   7
ATOM      7  C   UNL     1       1.896  46.503   9.937  1.00  0.00     0.100 C 
ATOM      8  O   UNL     1       1.913  47.673   9.467  1.00  0.00    -0.544 OA
ATOM      9  O   UNL     1       0.679  45.860  10.127  1.00  0.00    -0.544 OA
ENDBRANCH   2   7
ENDBRANCH   1   2
BRANCH   1  10
ATOM     10  C   UNL     1       4.121  43.805  11.506  1.00  0.00     0.223 C 
ATOM     11  O   UNL     1       4.703  44.092  12.586  1.00  0.00    -0.275 OA
ATOM     12  N   UNL     1       4.640  42.763  10.678  1.00  0.00    -0.369 N 
ATOM     13  H   UNL     1       5.506  42.251  10.958  1.00  0.00     0.159 HD
ATOM     14  H   UNL     1       4.158  42.495   9.792  1.00  0.00     0.159 HD
ENDBRANCH   1  10
TORSDOF 4
ENDMDL
MODEL 7
REMARK VINA RESULT:    -4.233     13.730     15.608
REMARK INTER + INTRA:          -5.212
REMARK INTER:                  -4.735
REMARK INTRA:                  -0.478
REMARK UNBOUND:                -0.113
REMARK SMILES NC(=O)C[C@H]([NH3+])C(=O)[O-]
REMARK SMILES IDX 4 1 5 2 6 3 7 7 8 8 9 9 2 10 3 11 1 12
REMARK H PARENT 6 4 6 5 6 6 1 13 1 14
REMARK Flexibility Score: inf
ROOT
ATOM      1  C   UNL     1       3.189  44.003  12.116  1.00  0.00     0.171 C 
ENDROOT
BRANCH   1   2
ATOM      2  C   UNL     1       2.229  44.885  11.292  1.00  0.00     0.237 C 
BRANCH   2   3
ATOM      3  N   UNL     1       1.494  44.096  10.294  1.00  0.00    -0.350 N 
ATOM      4  H   UNL     1       0.559  44.528  10.114  1.00  0.00     0.345 HD
ATOM      5  H   UNL     1       2.023  44.087   9.391  1.00  0.00     0.345 HD
ATOM      6  H   UNL     1       1.362  43.112  10.624  1.00  0.00     0.345 HD
ENDBRANCH   2   3
BRANCH   2   7
ATOM      7  C   UNL     1       3.001  45.988  10.619  1.00  0.00     0.100 C 
ATOM      8  O   UNL     1       2.397  46.903   9.997  1.00  0.00    -0.544 OA
ATOM      9  O   UNL     1       4.389  45.992  10.664  1.00  0.00    -0.544 OA
ENDBRANCH   2   7
ENDBRANCH   1   2
BRANCH   1  10
ATOM     10  C   UNL     1       3.576  42.759  11.371  1.00  0.00     0.223 C 
ATOM     11  O   UNL     1       2.900  41.707  11.516  1.00  0.00    -0.275 OA
ATOM     12  N   UNL     1       4.686  42.768  10.472  1.00  0.00    -0.369 N 
ATOM     13  H   UNL     1       4.946  41.903   9.948  1.00  0.00     0.159 HD
ATOM     14  H   UNL     1       5.244  43.638  10.322  1.00  0.00     0.159 HD
ENDBRANCH   1  10
TORSDOF 4
ENDMDL
MODEL 8
REMARK VINA RESULT:    -4.198     15.305     16.151
REMARK INTER + INTRA:          -5.170
REMARK INTER:                  -4.928
REMARK INTRA:                  -0.242
REMARK UNBOUND:                -0.113
REMARK SMILES NC(=O)C[C@H]([NH3+])C(=O)[O-]
REMARK SMILES IDX 4 1 5 2 6 3 7 7 8 8 9 9 2 10 3 11 1 12
REMARK H PARENT 6 4 6 5 6 6 1 13 1 14
REMARK Flexibility Score: inf
ROOT
ATOM      1  C   UNL     1       4.237  46.168   9.329  1.00  0.00     0.171 C 
ENDROOT
BRANCH   1   2
ATOM      2  C   UNL     1       4.113  45.653  10.778  1.00  0.00     0.237 C 
BRANCH   2   3
ATOM      3  N   UNL     1       5.015  44.520  11.026  1.00  0.00    -0.350 N 
ATOM      4  H   UNL     1       6.007  44.811  10.869  1.00  0.00     0.345 HD
ATOM      5  H   UNL     1       4.926  44.206  12.020  1.00  0.00     0.345 HD
ATOM      6  H   UNL     1       4.787  43.719  10.392  1.00  0.00     0.345 HD
ENDBRANCH   2   3
BRANCH   2   7
ATOM      7  C   UNL     1       2.689  45.256  11.059  1.00  0.00     0.100 C 
ATOM      8  O   UNL     1       2.432  44.328  11.871  1.00  0.00    -0.544 OA
ATOM      9  O   UNL     1       1.646  45.902  10.405  1.00  0.00    -0.544 OA
ENDBRANCH   2   7
ENDBRANCH   1   2
BRANCH   1  10
ATOM     10  C   UNL     1       5.266  47.254   9.212  1.00  0.00     0.223 C 
ATOM     11  O   UNL     1       6.418  47.079   9.692  1.00  0.00    -0.275 OA
ATOM     12  N   UNL     1       4.962  48.471   8.530  1.00  0.00    -0.369 N 
ATOM     13  H   UNL     1       5.685  49.219   8.442  1.00  0.00     0.159 HD
ATOM     14  H   UNL     1       4.021  48.624   8.106  1.00  0.00     0.159 HD
ENDBRANCH   1  10
TORSDOF 4
ENDMDL
MODEL 9
REMARK VINA RESULT:    -4.177     15.301     16.138
REMARK INTER + INTRA:          -5.145
REMARK INTER:                  -4.886
REMARK INTRA:                  -0.259
REMARK UNBOUND:                -0.113
REMARK SMILES NC(=O)C[C@H]([NH3+])C(=O)[O-]
REMARK SMILES IDX 4 1 5 2 6 3 7 7 8 8 9 9 2 10 3 11 1 12
REMARK H PARENT 6 4 6 5 6 6 1 13 1 14
REMARK Flexibility Score: inf
ROOT
ATOM      1  C   UNL     1       5.369  46.845   9.844  1.00  0.00     0.171 C 
ENDROOT
BRANCH   1   2
ATOM      2  C   UNL     1       4.035  46.082   9.720  1.00  0.00     0.237 C 
BRANCH   2   3
ATOM      3  N   UNL     1       2.915  46.861  10.266  1.00  0.00    -0.350 N 
ATOM      4  H   UNL     1       2.358  47.280   9.487  1.00  0.00     0.345 HD
ATOM      5  H   UNL     1       2.281  46.234  10.813  1.00  0.00     0.345 HD
ATOM      6  H   UNL     1       3.264  47.625  10.889  1.00  0.00     0.345 HD
ENDBRANCH   2   3
BRANCH   2   7
ATOM      7  C   UNL     1       4.139  44.755  10.425  1.00  0.00     0.100 C 
ATOM      8  O   UNL     1       4.363  44.705  11.664  1.00  0.00    -0.544 OA
ATOM      9  O   UNL     1       4.006  43.574   9.704  1.00  0.00    -0.544 OA
ENDBRANCH   2   7
ENDBRANCH   1   2
BRANCH   1  10
ATOM     10  C   UNL     1       5.473  47.950   8.834  1.00  0.00     0.223 C 
ATOM     11  O   UNL     1       4.476  48.239   8.119  1.00  0.00    -0.275 OA
ATOM     12  N   UNL     1       6.681  48.699   8.699  1.00  0.00    -0.369 N 
ATOM     13  H   UNL     1       6.745  49.474   8.002  1.00  0.00     0.159 HD
ATOM     14  H   UNL     1       7.509  48.489   9.299  1.00  0.00     0.159 HD
ENDBRANCH   1  10
TORSDOF 4
ENDMDL
