MODEL 1
REMARK VINA RESULT:    -5.003      0.000      0.000
REMARK INTER + INTRA:          -7.030
REMARK INTER:                  -7.635
REMARK INTRA:                   0.605
REMARK UNBOUND:                 0.605
REMARK SMILES CC1=CCC[C@H](C)C(=O)C[C@@H](C(C)C)C(=O)C1
REMARK SMILES IDX 8 1 9 2 6 3 7 4 5 5 4 6 3 7 2 8 1 9 10 11 11 12 15 13 16 14
REMARK SMILES IDX 17 15 12 17 13 18 14 19
REMARK H PARENT
REMARK Flexibility Score: 70.00
ROOT
ATOM      1  C   UNL     1     -13.246 -15.714  30.650  1.00  0.00     0.136 C 
ATOM      2  O   UNL     1     -14.225 -15.107  31.053  1.00  0.00    -0.299 OA
ENDROOT
BRANCH   1   3
ATOM      3  C   UNL     1     -12.480 -16.580  31.641  1.00  0.00     0.053 C 
ATOM      4  C   UNL     1     -11.859 -15.749  32.773  1.00  0.00     0.016 C 
BRANCH   3   5
ATOM      5  C   UNL     1     -13.368 -17.711  32.196  1.00  0.00     0.015 C 
BRANCH   5   6
ATOM      6  C   UNL     1     -12.815 -19.105  31.835  1.00  0.00     0.028 C 
BRANCH   6   7
ATOM      7  C   UNL     1     -13.471 -19.677  30.605  1.00  0.00    -0.028 C 
ATOM      8  C   UNL     1     -12.877 -19.776  29.393  1.00  0.00    -0.070 CG0
ATOM      9  C   UNL     1     -13.663 -20.390  28.263  1.00  0.00     0.039 C 
ATOM     10  G   UNL     1     -11.472 -19.264  29.110  1.00  0.00     0.000 G0
ENDBRANCH   6   7
ENDBRANCH   5   6
ENDBRANCH   3   5
ENDBRANCH   1   3
BRANCH   1  11
ATOM     11  C   UNL     1     -12.877 -15.642  29.178  1.00  0.00     0.087 C 
BRANCH  11  12
ATOM     12  C   UNL     1     -12.713 -16.988  28.416  1.00  0.00     0.066 C 
BRANCH  12  13
ATOM     13  C   UNL     1     -11.458 -17.774  28.781  1.00  0.00     0.140 C 
ATOM     14  O   UNL     1     -10.400 -17.163  28.866  1.00  0.00    -0.299 OA
BRANCH  13  15
ATOM     15  C   UNL     1     -11.468 -19.250  29.112  1.00  0.00     0.106 CG0
ATOM     16  G   UNL     1     -12.872 -19.761  29.397  1.00  0.00     0.000 G0
ENDBRANCH  13  15
ENDBRANCH  12  13
BRANCH  12  17
ATOM     17  C   UNL     1     -13.094 -16.960  26.899  1.00  0.00    -0.006 C 
ATOM     18  C   UNL     1     -14.000 -15.802  26.457  1.00  0.00     0.008 C 
ATOM     19  C   UNL     1     -11.850 -17.040  25.998  1.00  0.00     0.008 C 
ENDBRANCH  12  17
ENDBRANCH  11  12
ENDBRANCH   1  11
TORSDOF 1
ENDMDL
MODEL 2
REMARK VINA RESULT:    -4.911      2.209      4.758
REMARK INTER + INTRA:          -6.890
REMARK INTER:                  -7.395
REMARK INTRA:                   0.505
REMARK UNBOUND:                 0.605
REMARK SMILES CC1=CCC[C@H](C)C(=O)C[C@@H](C(C)C)C(=O)C1
REMARK SMILES IDX 8 1 9 2 6 3 7 4 5 5 4 6 3 7 2 8 1 9 10 11 11 12 15 13 16 14
REMARK SMILES IDX 17 15 12 17 13 18 14 19
REMARK H PARENT
REMARK Flexibility Score: 70.00
ROOT
ATOM      1  C   UNL     1     -12.882 -19.925  30.375  1.00  0.00     0.136 C 
ATOM      2  O   UNL     1     -12.502 -20.975  30.868  1.00  0.00    -0.299 OA
ENDROOT
BRANCH   1   3
ATOM      3  C   UNL     1     -12.970 -19.834  28.858  1.00  0.00     0.053 C 
ATOM      4  C   UNL     1     -14.105 -20.699  28.292  1.00  0.00     0.016 C 
BRANCH   3   5
ATOM      5  C   UNL     1     -13.095 -18.369  28.394  1.00  0.00     0.015 C 
BRANCH   5   6
ATOM      6  C   UNL     1     -11.840 -17.899  27.631  1.00  0.00     0.028 C 
BRANCH   6   7
ATOM      7  C   UNL     1     -11.275 -16.621  28.196  1.00  0.00    -0.028 C 
ATOM      8  C   UNL     1     -10.458 -16.552  29.273  1.00  0.00    -0.070 CG0
ATOM      9  C   UNL     1      -9.963 -15.196  29.705  1.00  0.00     0.039 C 
ATOM     10  G   UNL     1     -10.048 -17.770  30.086  1.00  0.00     0.000 G0
ENDBRANCH   6   7
ENDBRANCH   5   6
ENDBRANCH   3   5
ENDBRANCH   1   3
BRANCH   1  11
ATOM     11  C   UNL     1     -13.317 -18.789  31.285  1.00  0.00     0.087 C 
BRANCH  11  12
ATOM     12  C   UNL     1     -12.362 -17.568  31.409  1.00  0.00     0.066 C 
BRANCH  12  13
ATOM     13  C   UNL     1     -10.878 -17.915  31.346  1.00  0.00     0.140 C 
ATOM     14  O   UNL     1     -10.355 -18.389  32.347  1.00  0.00    -0.299 OA
BRANCH  13  15
ATOM     15  C   UNL     1     -10.043 -17.769  30.093  1.00  0.00     0.106 CG0
ATOM     16  G   UNL     1     -10.453 -16.557  29.271  1.00  0.00     0.000 G0
ENDBRANCH  13  15
ENDBRANCH  12  13
BRANCH  12  17
ATOM     17  C   UNL     1     -12.775 -16.487  32.463  1.00  0.00    -0.006 C 
ATOM     18  C   UNL     1     -11.642 -15.588  32.978  1.00  0.00     0.008 C 
ATOM     19  C   UNL     1     -13.953 -15.631  31.968  1.00  0.00     0.008 C 
ENDBRANCH  12  17
ENDBRANCH  11  12
ENDBRANCH   1  11
TORSDOF 1
ENDMDL
MODEL 3
REMARK VINA RESULT:    -4.906      2.022      3.686
REMARK INTER + INTRA:          -6.882
REMARK INTER:                  -7.019
REMARK INTRA:                   0.137
REMARK UNBOUND:                 0.605
REMARK SMILES CC1=CCC[C@H](C)C(=O)C[C@@H](C(C)C)C(=O)C1
REMARK SMILES IDX 8 1 9 2 6 3 7 4 5 5 4 6 3 7 2 8 1 9 10 11 11 12 15 13 16 14
REMARK SMILES IDX 17 15 12 17 13 18 14 19
REMARK H PARENT
REMARK Flexibility Score: 70.00
ROOT
ATOM      1  C   UNL     1     -13.121 -19.525  28.941  1.00  0.00     0.136 C 
ATOM      2  O   UNL     1     -13.344 -20.486  28.222  1.00  0.00    -0.299 OA
ENDROOT
BRANCH   1   3
ATOM      3  C   UNL     1     -12.246 -19.734  30.169  1.00  0.00     0.053 C 
ATOM      4  C   UNL     1     -10.974 -18.875  30.124  1.00  0.00     0.016 C 
BRANCH   3   5
ATOM      5  C   UNL     1     -13.041 -19.493  31.467  1.00  0.00     0.015 C 
BRANCH   5   6
ATOM      6  C   UNL     1     -12.512 -18.271  32.246  1.00  0.00     0.028 C 
BRANCH   6   7
ATOM      7  C   UNL     1     -13.552 -17.189  32.382  1.00  0.00    -0.028 C 
ATOM      8  C   UNL     1     -13.554 -16.033  31.678  1.00  0.00    -0.070 CG0
ATOM      9  C   UNL     1     -14.677 -15.057  31.917  1.00  0.00     0.039 C 
ATOM     10  G   UNL     1     -12.461 -15.658  30.689  1.00  0.00     0.000 G0
ENDBRANCH   6   7
ENDBRANCH   5   6
ENDBRANCH   3   5
ENDBRANCH   1   3
BRANCH   1  11
ATOM     11  C   UNL     1     -13.657 -18.160  28.546  1.00  0.00     0.087 C 
BRANCH  11  12
ATOM     12  C   UNL     1     -12.625 -17.008  28.380  1.00  0.00     0.066 C 
BRANCH  12  13
ATOM     13  C   UNL     1     -12.896 -15.783  29.249  1.00  0.00     0.140 C 
ATOM     14  O   UNL     1     -13.557 -14.872  28.767  1.00  0.00    -0.299 OA
BRANCH  13  15
ATOM     15  C   UNL     1     -12.453 -15.672  30.691  1.00  0.00     0.106 CG0
ATOM     16  G   UNL     1     -13.568 -16.033  31.660  1.00  0.00     0.000 G0
ENDBRANCH  13  15
ENDBRANCH  12  13
BRANCH  12  17
ATOM     17  C   UNL     1     -12.151 -16.725  26.916  1.00  0.00    -0.006 C 
ATOM     18  C   UNL     1     -11.008 -17.609  26.400  1.00  0.00     0.008 C 
ATOM     19  C   UNL     1     -13.327 -16.739  25.925  1.00  0.00     0.008 C 
ENDBRANCH  12  17
ENDBRANCH  11  12
ENDBRANCH   1  11
TORSDOF 1
ENDMDL
MODEL 4
REMARK VINA RESULT:    -4.888      1.593      4.065
REMARK INTER + INTRA:          -6.855
REMARK INTER:                  -7.187
REMARK INTRA:                   0.332
REMARK UNBOUND:                 0.605
REMARK SMILES CC1=CCC[C@H](C)C(=O)C[C@@H](C(C)C)C(=O)C1
REMARK SMILES IDX 8 1 9 2 6 3 7 4 5 5 4 6 3 7 2 8 1 9 10 11 11 12 15 13 16 14
REMARK SMILES IDX 17 15 12 17 13 18 14 19
REMARK H PARENT
REMARK Flexibility Score: 70.00
ROOT
ATOM      1  C   UNL     1     -11.855 -16.102  28.799  1.00  0.00     0.136 C 
ATOM      2  O   UNL     1     -10.756 -15.593  28.648  1.00  0.00    -0.299 OA
ENDROOT
BRANCH   1   3
ATOM      3  C   UNL     1     -12.581 -16.623  27.567  1.00  0.00     0.053 C 
ATOM      4  C   UNL     1     -11.608 -17.155  26.505  1.00  0.00     0.016 C 
BRANCH   3   5
ATOM      5  C   UNL     1     -13.632 -17.684  27.946  1.00  0.00     0.015 C 
BRANCH   5   6
ATOM      6  C   UNL     1     -13.035 -19.107  27.955  1.00  0.00     0.028 C 
BRANCH   6   7
ATOM      7  C   UNL     1     -13.149 -19.763  29.307  1.00  0.00    -0.028 C 
ATOM      8  C   UNL     1     -12.230 -19.651  30.295  1.00  0.00    -0.070 CG0
ATOM      9  C   UNL     1     -12.499 -20.357  31.599  1.00  0.00     0.039 C 
ATOM     10  G   UNL     1     -10.928 -18.882  30.138  1.00  0.00     0.000 G0
ENDBRANCH   6   7
ENDBRANCH   5   6
ENDBRANCH   3   5
ENDBRANCH   1   3
BRANCH   1  11
ATOM     11  C   UNL     1     -12.416 -16.261  30.202  1.00  0.00     0.087 C 
BRANCH  11  12
ATOM     12  C   UNL     1     -11.403 -16.537  31.349  1.00  0.00     0.066 C 
BRANCH  12  13
ATOM     13  C   UNL     1     -10.689 -17.883  31.255  1.00  0.00     0.140 C 
ATOM     14  O   UNL     1      -9.933 -18.198  32.165  1.00  0.00    -0.299 OA
BRANCH  13  15
ATOM     15  C   UNL     1     -10.925 -18.872  30.135  1.00  0.00     0.106 CG0
ATOM     16  G   UNL     1     -12.230 -19.633  30.310  1.00  0.00     0.000 G0
ENDBRANCH  13  15
ENDBRANCH  12  13
BRANCH  12  17
ATOM     17  C   UNL     1     -11.858 -16.096  32.779  1.00  0.00    -0.006 C 
ATOM     18  C   UNL     1     -10.826 -15.307  33.597  1.00  0.00     0.008 C 
ATOM     19  C   UNL     1     -13.199 -15.343  32.742  1.00  0.00     0.008 C 
ENDBRANCH  12  17
ENDBRANCH  11  12
ENDBRANCH   1  11
TORSDOF 1
ENDMDL
MODEL 5
REMARK VINA RESULT:    -4.795      1.323      1.636
REMARK INTER + INTRA:          -6.713
REMARK INTER:                  -6.802
REMARK INTRA:                   0.088
REMARK UNBOUND:                 0.605
REMARK SMILES CC1=CCC[C@H](C)C(=O)C[C@@H](C(C)C)C(=O)C1
REMARK SMILES IDX 8 1 9 2 6 3 7 4 5 5 4 6 3 7 2 8 1 9 10 11 11 12 15 13 16 14
REMARK SMILES IDX 17 15 12 17 13 18 14 19
REMARK H PARENT
REMARK Flexibility Score: 70.00
ROOT
ATOM      1  C   UNL     1     -11.801 -16.313  31.410  1.00  0.00     0.136 C 
ATOM      2  O   UNL     1     -10.746 -16.797  31.787  1.00  0.00    -0.299 OA
ENDROOT
BRANCH   1   3
ATOM      3  C   UNL     1     -12.987 -16.344  32.364  1.00  0.00     0.053 C 
ATOM      4  C   UNL     1     -13.730 -15.001  32.405  1.00  0.00     0.016 C 
BRANCH   3   5
ATOM      5  C   UNL     1     -13.943 -17.505  32.027  1.00  0.00     0.015 C 
BRANCH   5   6
ATOM      6  C   UNL     1     -13.186 -18.836  31.839  1.00  0.00     0.028 C 
BRANCH   6   7
ATOM      7  C   UNL     1     -13.633 -19.575  30.604  1.00  0.00    -0.028 C 
ATOM      8  C   UNL     1     -12.930 -19.636  29.448  1.00  0.00    -0.070 CG0
ATOM      9  C   UNL     1     -13.506 -20.432  28.306  1.00  0.00     0.039 C 
ATOM     10  G   UNL     1     -11.610 -18.910  29.238  1.00  0.00     0.000 G0
ENDBRANCH   6   7
ENDBRANCH   5   6
ENDBRANCH   3   5
ENDBRANCH   1   3
BRANCH   1  11
ATOM     11  C   UNL     1     -11.869 -15.641  30.049  1.00  0.00     0.087 C 
BRANCH  11  12
ATOM     12  C   UNL     1     -12.547 -16.434  28.895  1.00  0.00     0.066 C 
BRANCH  12  13
ATOM     13  C   UNL     1     -11.759 -17.649  28.413  1.00  0.00     0.140 C 
ATOM     14  O   UNL     1     -11.180 -17.568  27.337  1.00  0.00    -0.299 OA
BRANCH  13  15
ATOM     15  C   UNL     1     -11.602 -18.914  29.227  1.00  0.00     0.106 CG0
ATOM     16  G   UNL     1     -12.931 -19.619  29.450  1.00  0.00     0.000 G0
ENDBRANCH  13  15
ENDBRANCH  12  13
BRANCH  12  17
ATOM     17  C   UNL     1     -13.229 -15.567  27.785  1.00  0.00    -0.006 C 
ATOM     18  C   UNL     1     -14.021 -16.343  26.723  1.00  0.00     0.008 C 
ATOM     19  C   UNL     1     -14.096 -14.449  28.388  1.00  0.00     0.008 C 
ENDBRANCH  12  17
ENDBRANCH  11  12
ENDBRANCH   1  11
TORSDOF 1
ENDMDL
MODEL 6
REMARK VINA RESULT:    -4.561      1.997      4.261
REMARK INTER + INTRA:          -6.357
REMARK INTER:                  -6.786
REMARK INTRA:                   0.429
REMARK UNBOUND:                 0.605
REMARK SMILES CC1=CCC[C@H](C)C(=O)C[C@@H](C(C)C)C(=O)C1
REMARK SMILES IDX 8 1 9 2 6 3 7 4 5 5 4 6 3 7 2 8 1 9 10 11 11 12 15 13 16 14
REMARK SMILES IDX 17 15 12 17 13 18 14 19
REMARK H PARENT
REMARK Flexibility Score: 70.00
ROOT
ATOM      1  C   UNL     1     -12.192 -18.828  31.688  1.00  0.00     0.136 C 
ATOM      2  O   UNL     1     -11.180 -18.749  32.367  1.00  0.00    -0.299 OA
ENDROOT
BRANCH   1   3
ATOM      3  C   UNL     1     -12.260 -19.912  30.622  1.00  0.00     0.053 C 
ATOM      4  C   UNL     1     -12.536 -21.297  31.225  1.00  0.00     0.016 C 
BRANCH   3   5
ATOM      5  C   UNL     1     -13.290 -19.558  29.532  1.00  0.00     0.015 C 
BRANCH   5   6
ATOM      6  C   UNL     1     -12.626 -18.891  28.309  1.00  0.00     0.028 C 
BRANCH   6   7
ATOM      7  C   UNL     1     -13.252 -17.561  27.978  1.00  0.00    -0.028 C 
ATOM      8  C   UNL     1     -12.782 -16.364  28.402  1.00  0.00    -0.070 CG0
ATOM      9  C   UNL     1     -13.513 -15.119  27.968  1.00  0.00     0.039 C 
ATOM     10  G   UNL     1     -11.580 -16.220  29.322  1.00  0.00     0.000 G0
ENDBRANCH   6   7
ENDBRANCH   5   6
ENDBRANCH   3   5
ENDBRANCH   1   3
BRANCH   1  11
ATOM     11  C   UNL     1     -13.358 -17.899  31.980  1.00  0.00     0.087 C 
BRANCH  11  12
ATOM     12  C   UNL     1     -13.330 -16.490  31.322  1.00  0.00     0.066 C 
BRANCH  12  13
ATOM     13  C   UNL     1     -11.969 -16.074  30.770  1.00  0.00     0.140 C 
ATOM     14  O   UNL     1     -11.133 -15.653  31.559  1.00  0.00    -0.299 OA
BRANCH  13  15
ATOM     15  C   UNL     1     -11.581 -16.224  29.316  1.00  0.00     0.106 CG0
ATOM     16  G   UNL     1     -12.797 -16.345  28.410  1.00  0.00     0.000 G0
ENDBRANCH  13  15
ENDBRANCH  12  13
BRANCH  12  17
ATOM     17  C   UNL     1     -14.144 -15.377  32.063  1.00  0.00    -0.006 C 
ATOM     18  C   UNL     1     -14.880 -14.375  31.164  1.00  0.00     0.008 C 
ATOM     19  C   UNL     1     -15.110 -15.975  33.101  1.00  0.00     0.008 C 
ENDBRANCH  12  17
ENDBRANCH  11  12
ENDBRANCH   1  11
TORSDOF 1
ENDMDL
MODEL 7
REMARK VINA RESULT:    -4.534      1.462      1.988
REMARK INTER + INTRA:          -6.314
REMARK INTER:                  -6.769
REMARK INTRA:                   0.455
REMARK UNBOUND:                 0.605
REMARK SMILES CC1=CCC[C@H](C)C(=O)C[C@@H](C(C)C)C(=O)C1
REMARK SMILES IDX 8 1 9 2 6 3 7 4 5 5 4 6 3 7 2 8 1 9 10 11 11 12 15 13 16 14
REMARK SMILES IDX 17 15 12 17 13 18 14 19
REMARK H PARENT
REMARK Flexibility Score: 70.00
ROOT
ATOM      1  C   UNL     1     -13.664 -15.119  30.145  1.00  0.00     0.136 C 
ATOM      2  O   UNL     1     -14.383 -14.422  29.445  1.00  0.00    -0.299 OA
ENDROOT
BRANCH   1   3
ATOM      3  C   UNL     1     -13.971 -15.201  31.633  1.00  0.00     0.053 C 
ATOM      4  C   UNL     1     -15.214 -14.382  32.012  1.00  0.00     0.016 C 
BRANCH   3   5
ATOM      5  C   UNL     1     -14.102 -16.665  32.095  1.00  0.00     0.015 C 
BRANCH   5   6
ATOM      6  C   UNL     1     -12.725 -17.349  32.230  1.00  0.00     0.028 C 
BRANCH   6   7
ATOM      7  C   UNL     1     -12.812 -18.843  32.048  1.00  0.00    -0.028 C 
ATOM      8  C   UNL     1     -12.343 -19.515  30.971  1.00  0.00    -0.070 CG0
ATOM      9  C   UNL     1     -12.491 -21.014  30.947  1.00  0.00     0.039 C 
ATOM     10  G   UNL     1     -11.710 -18.826  29.771  1.00  0.00     0.000 G0
ENDBRANCH   6   7
ENDBRANCH   5   6
ENDBRANCH   3   5
ENDBRANCH   1   3
BRANCH   1  11
ATOM     11  C   UNL     1     -12.550 -15.924  29.498  1.00  0.00     0.087 C 
BRANCH  11  12
ATOM     12  C   UNL     1     -12.951 -16.932  28.384  1.00  0.00     0.066 C 
BRANCH  12  13
ATOM     13  C   UNL     1     -12.716 -18.397  28.741  1.00  0.00     0.140 C 
ATOM     14  O   UNL     1     -13.338 -19.248  28.118  1.00  0.00    -0.299 OA
BRANCH  13  15
ATOM     15  C   UNL     1     -11.704 -18.850  29.770  1.00  0.00     0.106 CG0
ATOM     16  G   UNL     1     -12.367 -19.504  30.973  1.00  0.00     0.000 G0
ENDBRANCH  13  15
ENDBRANCH  12  13
BRANCH  12  17
ATOM     17  C   UNL     1     -12.588 -16.511  26.922  1.00  0.00    -0.006 C 
ATOM     18  C   UNL     1     -11.550 -17.389  26.210  1.00  0.00     0.008 C 
ATOM     19  C   UNL     1     -13.843 -16.351  26.047  1.00  0.00     0.008 C 
ENDBRANCH  12  17
ENDBRANCH  11  12
ENDBRANCH   1  11
TORSDOF 1
ENDMDL
MODEL 8
REMARK VINA RESULT:    -4.382      2.087      4.570
REMARK INTER + INTRA:          -6.082
REMARK INTER:                  -6.533
REMARK INTRA:                   0.451
REMARK UNBOUND:                 0.605
REMARK SMILES CC1=CCC[C@H](C)C(=O)C[C@@H](C(C)C)C(=O)C1
REMARK SMILES IDX 8 1 9 2 6 3 7 4 5 5 4 6 3 7 2 8 1 9 10 11 11 12 15 13 16 14
REMARK SMILES IDX 17 15 12 17 13 18 14 19
REMARK H PARENT
REMARK Flexibility Score: 70.00
ROOT
ATOM      1  C   UNL     1     -10.796 -16.598  28.673  1.00  0.00     0.136 C 
ATOM      2  O   UNL     1      -9.934 -15.771  28.924  1.00  0.00    -0.299 OA
ENDROOT
BRANCH   1   3
ATOM      3  C   UNL     1     -11.853 -16.242  27.637  1.00  0.00     0.053 C 
ATOM      4  C   UNL     1     -11.902 -17.261  26.489  1.00  0.00     0.016 C 
BRANCH   3   5
ATOM      5  C   UNL     1     -13.237 -16.066  28.291  1.00  0.00     0.015 C 
BRANCH   5   6
ATOM      6  C   UNL     1     -13.191 -15.079  29.476  1.00  0.00     0.028 C 
BRANCH   6   7
ATOM      7  C   UNL     1     -14.061 -15.525  30.623  1.00  0.00    -0.028 C 
ATOM      8  C   UNL     1     -13.597 -16.041  31.785  1.00  0.00    -0.070 CG0
ATOM      9  C   UNL     1     -14.598 -16.424  32.844  1.00  0.00     0.039 C 
ATOM     10  G   UNL     1     -12.120 -16.286  32.055  1.00  0.00     0.000 G0
ENDBRANCH   6   7
ENDBRANCH   5   6
ENDBRANCH   3   5
ENDBRANCH   1   3
BRANCH   1  11
ATOM     11  C   UNL     1     -10.738 -17.961  29.342  1.00  0.00     0.087 C 
BRANCH  11  12
ATOM     12  C   UNL     1     -11.862 -18.305  30.360  1.00  0.00     0.066 C 
BRANCH  12  13
ATOM     13  C   UNL     1     -11.680 -17.681  31.741  1.00  0.00     0.140 C 
ATOM     14  O   UNL     1     -11.096 -18.336  32.595  1.00  0.00    -0.299 OA
BRANCH  13  15
ATOM     15  C   UNL     1     -12.119 -16.275  32.082  1.00  0.00     0.106 CG0
ATOM     16  G   UNL     1     -13.593 -16.048  31.783  1.00  0.00     0.000 G0
ENDBRANCH  13  15
ENDBRANCH  12  13
BRANCH  12  17
ATOM     17  C   UNL     1     -12.376 -19.783  30.332  1.00  0.00    -0.006 C 
ATOM     18  C   UNL     1     -12.784 -20.376  31.688  1.00  0.00     0.008 C 
ATOM     19  C   UNL     1     -13.505 -19.973  29.304  1.00  0.00     0.008 C 
ENDBRANCH  12  17
ENDBRANCH  11  12
ENDBRANCH   1  11
TORSDOF 1
ENDMDL
MODEL 9
REMARK VINA RESULT:    -4.274      1.636      3.788
REMARK INTER + INTRA:          -5.918
REMARK INTER:                  -5.859
REMARK INTRA:                  -0.059
REMARK UNBOUND:                 0.605
REMARK SMILES CC1=CCC[C@H](C)C(=O)C[C@@H](C(C)C)C(=O)C1
REMARK SMILES IDX 8 1 9 2 6 3 7 4 5 5 4 6 3 7 2 8 1 9 10 11 11 12 15 13 16 14
REMARK SMILES IDX 17 15 12 17 13 18 14 19
REMARK H PARENT
REMARK Flexibility Score: 70.00
ROOT
ATOM      1  C   UNL     1     -11.320 -18.294  31.229  1.00  0.00     0.136 C 
ATOM      2  O   UNL     1     -10.240 -18.385  30.667  1.00  0.00    -0.299 OA
ENDROOT
BRANCH   1   3
ATOM      3  C   UNL     1     -12.087 -19.576  31.524  1.00  0.00     0.053 C 
ATOM      4  C   UNL     1     -13.350 -19.313  32.357  1.00  0.00     0.016 C 
BRANCH   3   5
ATOM      5  C   UNL     1     -12.418 -20.338  30.226  1.00  0.00     0.015 C 
BRANCH   5   6
ATOM      6  C   UNL     1     -13.293 -19.498  29.273  1.00  0.00     0.028 C 
BRANCH   6   7
ATOM      7  C   UNL     1     -12.520 -19.002  28.079  1.00  0.00    -0.028 C 
ATOM      8  C   UNL     1     -12.527 -17.723  27.635  1.00  0.00    -0.070 CG0
ATOM      9  C   UNL     1     -11.683 -17.382  26.434  1.00  0.00     0.039 C 
ATOM     10  G   UNL     1     -13.372 -16.628  28.267  1.00  0.00     0.000 G0
ENDBRANCH   6   7
ENDBRANCH   5   6
ENDBRANCH   3   5
ENDBRANCH   1   3
BRANCH   1  11
ATOM     11  C   UNL     1     -11.816 -16.929  31.672  1.00  0.00     0.087 C 
BRANCH  11  12
ATOM     12  C   UNL     1     -13.018 -16.319  30.895  1.00  0.00     0.066 C 
BRANCH  12  13
ATOM     13  C   UNL     1     -12.716 -15.954  29.445  1.00  0.00     0.140 C 
ATOM     14  O   UNL     1     -11.848 -15.117  29.231  1.00  0.00    -0.299 OA
BRANCH  13  15
ATOM     15  C   UNL     1     -13.381 -16.625  28.263  1.00  0.00     0.106 CG0
ATOM     16  G   UNL     1     -12.509 -17.714  27.659  1.00  0.00     0.000 G0
ENDBRANCH  13  15
ENDBRANCH  12  13
BRANCH  12  17
ATOM     17  C   UNL     1     -13.898 -15.301  31.694  1.00  0.00    -0.006 C 
ATOM     18  C   UNL     1     -14.746 -14.341  30.849  1.00  0.00     0.008 C 
ATOM     19  C   UNL     1     -14.774 -16.007  32.743  1.00  0.00     0.008 C 
ENDBRANCH  12  17
ENDBRANCH  11  12
ENDBRANCH   1  11
TORSDOF 1
ENDMDL
