MODEL 1
REMARK VINA RESULT:    -5.024      0.000      0.000
REMARK INTER + INTRA:          -9.487
REMARK INTER:                  -7.667
REMARK INTRA:                  -1.819
REMARK UNBOUND:                -1.819
REMARK SMILES CC(=O)CCC=C(C)CCC=C(C)CCC=C(C)C
REMARK SMILES IDX 10 1 11 2 12 3 13 4 14 5 15 6 16 7 18 8 17 9 19 10 9 11 7 12
REMARK SMILES IDX 6 13 8 14 5 15 4 16 2 17 3 18 1 19
REMARK H PARENT
REMARK Flexibility Score: inf
ROOT
ATOM      1  C   UNL     1     198.725 209.401 213.334  1.00  0.00     0.032 C 
ENDROOT
BRANCH   1   2
ATOM      2  C   UNL     1     198.405 208.017 213.844  1.00  0.00    -0.028 C 
ATOM      3  C   UNL     1     199.306 207.017 213.967  1.00  0.00    -0.077 C 
ATOM      4  C   UNL     1     200.756 207.190 213.579  1.00  0.00     0.039 C 
BRANCH   3   5
ATOM      5  C   UNL     1     198.843 205.673 214.496  1.00  0.00     0.034 C 
BRANCH   5   6
ATOM      6  C   UNL     1     198.397 205.757 215.962  1.00  0.00     0.032 C 
BRANCH   6   7
ATOM      7  C   UNL     1     199.478 206.331 216.845  1.00  0.00    -0.028 C 
ATOM      8  C   UNL     1     198.127 208.343 217.482  1.00  0.00     0.039 C 
ATOM      9  C   UNL     1     199.383 207.508 217.507  1.00  0.00    -0.080 C 
ATOM     10  C   UNL     1     200.544 208.001 218.331  1.00  0.00     0.039 C 
ENDBRANCH   6   7
ENDBRANCH   5   6
ENDBRANCH   3   5
ENDBRANCH   1   2
BRANCH   1  11
ATOM     11  C   UNL     1     198.094 210.477 214.225  1.00  0.00     0.034 C 
BRANCH  11  12
ATOM     12  C   UNL     1     199.135 211.122 215.123  1.00  0.00    -0.077 C 
ATOM     13  C   UNL     1     198.981 212.346 215.680  1.00  0.00    -0.028 C 
ATOM     14  C   UNL     1     200.410 210.371 215.411  1.00  0.00     0.039 C 
BRANCH  13  15
ATOM     15  C   UNL     1     197.774 213.245 215.524  1.00  0.00     0.035 C 
BRANCH  15  16
ATOM     16  C   UNL     1     198.052 214.650 216.073  1.00  0.00     0.079 C 
BRANCH  16  17
ATOM     17  C   UNL     1     197.453 214.847 217.443  1.00  0.00     0.130 C 
ATOM     18  O   UNL     1     198.153 215.273 218.350  1.00  0.00    -0.300 OA
ATOM     19  C   UNL     1     196.008 214.547 217.713  1.00  0.00     0.087 C 
ENDBRANCH  16  17
ENDBRANCH  15  16
ENDBRANCH  13  15
ENDBRANCH  11  12
ENDBRANCH   1  11
TORSDOF 9
ENDMDL
MODEL 2
REMARK VINA RESULT:    -4.974     14.306     16.875
REMARK INTER + INTRA:          -9.410
REMARK INTER:                  -7.419
REMARK INTRA:                  -1.991
REMARK UNBOUND:                -1.819
REMARK SMILES CC(=O)CCC=C(C)CCC=C(C)CCC=C(C)C
REMARK SMILES IDX 10 1 11 2 12 3 13 4 14 5 15 6 16 7 18 8 17 9 19 10 9 11 7 12
REMARK SMILES IDX 6 13 8 14 5 15 4 16 2 17 3 18 1 19
REMARK H PARENT
REMARK Flexibility Score: inf
ROOT
ATOM      1  C   UNL     1     212.579 201.557 217.267  1.00  0.00     0.032 C 
ENDROOT
BRANCH   1   2
ATOM      2  C   UNL     1     213.353 202.812 216.943  1.00  0.00    -0.028 C 
ATOM      3  C   UNL     1     213.034 204.048 217.389  1.00  0.00    -0.077 C 
ATOM      4  C   UNL     1     211.829 204.299 218.265  1.00  0.00     0.039 C 
BRANCH   3   5
ATOM      5  C   UNL     1     213.903 205.222 216.983  1.00  0.00     0.034 C 
BRANCH   5   6
ATOM      6  C   UNL     1     213.068 206.468 216.657  1.00  0.00     0.032 C 
BRANCH   6   7
ATOM      7  C   UNL     1     213.908 207.560 216.038  1.00  0.00    -0.028 C 
ATOM      8  C   UNL     1     212.197 208.122 214.296  1.00  0.00     0.039 C 
ATOM      9  C   UNL     1     213.543 208.288 214.957  1.00  0.00    -0.080 C 
ATOM     10  C   UNL     1     214.482 209.328 214.402  1.00  0.00     0.039 C 
ENDBRANCH   6   7
ENDBRANCH   5   6
ENDBRANCH   3   5
ENDBRANCH   1   2
BRANCH   1  11
ATOM     11  C   UNL     1     212.245 200.772 215.994  1.00  0.00     0.034 C 
BRANCH  11  12
ATOM     12  C   UNL     1     213.508 200.289 215.303  1.00  0.00    -0.077 C 
ATOM     13  C   UNL     1     213.869 200.674 214.057  1.00  0.00    -0.028 C 
ATOM     14  C   UNL     1     214.410 199.326 216.033  1.00  0.00     0.039 C 
BRANCH  13  15
ATOM     15  C   UNL     1     213.109 201.639 213.173  1.00  0.00     0.035 C 
BRANCH  15  16
ATOM     16  C   UNL     1     213.983 202.835 212.775  1.00  0.00     0.079 C 
BRANCH  16  17
ATOM     17  C   UNL     1     213.469 204.127 213.357  1.00  0.00     0.130 C 
ATOM     18  O   UNL     1     214.222 205.084 213.456  1.00  0.00    -0.300 OA
ATOM     19  C   UNL     1     212.044 204.268 213.806  1.00  0.00     0.087 C 
ENDBRANCH  16  17
ENDBRANCH  15  16
ENDBRANCH  13  15
ENDBRANCH  11  12
ENDBRANCH   1  11
TORSDOF 9
ENDMDL
MODEL 3
REMARK VINA RESULT:    -4.924     14.979     17.371
REMARK INTER + INTRA:          -9.334
REMARK INTER:                  -7.380
REMARK INTRA:                  -1.954
REMARK UNBOUND:                -1.819
REMARK SMILES CC(=O)CCC=C(C)CCC=C(C)CCC=C(C)C
REMARK SMILES IDX 10 1 11 2 12 3 13 4 14 5 15 6 16 7 18 8 17 9 19 10 9 11 7 12
REMARK SMILES IDX 6 13 8 14 5 15 4 16 2 17 3 18 1 19
REMARK H PARENT
REMARK Flexibility Score: inf
ROOT
ATOM      1  C   UNL     1     214.136 202.995 217.217  1.00  0.00     0.032 C 
ENDROOT
BRANCH   1   2
ATOM      2  C   UNL     1     214.609 202.267 215.982  1.00  0.00    -0.028 C 
ATOM      3  C   UNL     1     213.795 201.785 215.015  1.00  0.00    -0.077 C 
ATOM      4  C   UNL     1     212.292 201.919 215.091  1.00  0.00     0.039 C 
BRANCH   3   5
ATOM      5  C   UNL     1     214.409 201.073 213.826  1.00  0.00     0.034 C 
BRANCH   5   6
ATOM      6  C   UNL     1     215.727 200.376 214.193  1.00  0.00     0.032 C 
BRANCH   6   7
ATOM      7  C   UNL     1     215.623 198.876 214.059  1.00  0.00    -0.028 C 
ATOM      8  C   UNL     1     214.931 198.541 216.443  1.00  0.00     0.039 C 
ATOM      9  C   UNL     1     215.299 198.037 215.070  1.00  0.00    -0.080 C 
ATOM     10  C   UNL     1     215.263 196.550 214.828  1.00  0.00     0.039 C 
ENDBRANCH   6   7
ENDBRANCH   5   6
ENDBRANCH   3   5
ENDBRANCH   1   2
BRANCH   1  11
ATOM     11  C   UNL     1     214.321 204.509 217.068  1.00  0.00     0.034 C 
BRANCH  11  12
ATOM     12  C   UNL     1     212.991 205.234 217.171  1.00  0.00    -0.077 C 
ATOM     13  C   UNL     1     212.796 206.499 216.729  1.00  0.00    -0.028 C 
ATOM     14  C   UNL     1     211.822 204.518 217.799  1.00  0.00     0.039 C 
BRANCH  13  15
ATOM     15  C   UNL     1     213.834 207.372 216.060  1.00  0.00     0.035 C 
BRANCH  15  16
ATOM     16  C   UNL     1     213.606 207.447 214.545  1.00  0.00     0.079 C 
BRANCH  16  17
ATOM     17  C   UNL     1     214.496 206.489 213.795  1.00  0.00     0.130 C 
ATOM     18  O   UNL     1     215.624 206.838 213.479  1.00  0.00    -0.300 OA
ATOM     19  C   UNL     1     214.032 205.107 213.440  1.00  0.00     0.087 C 
ENDBRANCH  16  17
ENDBRANCH  15  16
ENDBRANCH  13  15
ENDBRANCH  11  12
ENDBRANCH   1  11
TORSDOF 9
ENDMDL
MODEL 4
REMARK VINA RESULT:    -4.904      2.850      6.977
REMARK INTER + INTRA:          -9.304
REMARK INTER:                  -7.372
REMARK INTRA:                  -1.932
REMARK UNBOUND:                -1.819
REMARK SMILES CC(=O)CCC=C(C)CCC=C(C)CCC=C(C)C
REMARK SMILES IDX 10 1 11 2 12 3 13 4 14 5 15 6 16 7 18 8 17 9 19 10 9 11 7 12
REMARK SMILES IDX 6 13 8 14 5 15 4 16 2 17 3 18 1 19
REMARK H PARENT
REMARK Flexibility Score: inf
ROOT
ATOM      1  C   UNL     1     198.276 209.375 217.233  1.00  0.00     0.032 C 
ENDROOT
BRANCH   1   2
ATOM      2  C   UNL     1     197.733 210.076 216.012  1.00  0.00    -0.028 C 
ATOM      3  C   UNL     1     198.492 210.568 215.007  1.00  0.00    -0.077 C 
ATOM      4  C   UNL     1     200.001 210.474 215.021  1.00  0.00     0.039 C 
BRANCH   3   5
ATOM      5  C   UNL     1     197.811 211.250 213.837  1.00  0.00     0.034 C 
BRANCH   5   6
ATOM      6  C   UNL     1     196.518 211.961 214.263  1.00  0.00     0.032 C 
BRANCH   6   7
ATOM      7  C   UNL     1     196.633 213.461 214.125  1.00  0.00    -0.028 C 
ATOM      8  C   UNL     1     197.341 213.795 216.505  1.00  0.00     0.039 C 
ATOM      9  C   UNL     1     196.970 214.299 215.132  1.00  0.00    -0.080 C 
ATOM     10  C   UNL     1     197.016 215.785 214.888  1.00  0.00     0.039 C 
ENDBRANCH   6   7
ENDBRANCH   5   6
ENDBRANCH   3   5
ENDBRANCH   1   2
BRANCH   1  11
ATOM     11  C   UNL     1     198.044 207.863 217.150  1.00  0.00     0.034 C 
BRANCH  11  12
ATOM     12  C   UNL     1     199.359 207.106 217.178  1.00  0.00    -0.077 C 
ATOM     13  C   UNL     1     199.500 205.839 216.722  1.00  0.00    -0.028 C 
ATOM     14  C   UNL     1     200.577 207.790 217.746  1.00  0.00     0.039 C 
BRANCH  13  15
ATOM     15  C   UNL     1     198.407 204.994 216.106  1.00  0.00     0.035 C 
BRANCH  15  16
ATOM     16  C   UNL     1     198.610 204.838 214.593  1.00  0.00     0.079 C 
BRANCH  16  17
ATOM     17  C   UNL     1     197.743 205.789 213.808  1.00  0.00     0.130 C 
ATOM     18  O   UNL     1     196.659 205.409 213.391  1.00  0.00    -0.300 OA
ATOM     19  C   UNL     1     198.176 207.199 213.539  1.00  0.00     0.087 C 
ENDBRANCH  16  17
ENDBRANCH  15  16
ENDBRANCH  13  15
ENDBRANCH  11  12
ENDBRANCH   1  11
TORSDOF 9
ENDMDL
MODEL 5
REMARK VINA RESULT:    -4.886     14.571     16.499
REMARK INTER + INTRA:          -9.276
REMARK INTER:                  -6.856
REMARK INTRA:                  -2.420
REMARK UNBOUND:                -1.819
REMARK SMILES CC(=O)CCC=C(C)CCC=C(C)CCC=C(C)C
REMARK SMILES IDX 10 1 11 2 12 3 13 4 14 5 15 6 16 7 18 8 17 9 19 10 9 11 7 12
REMARK SMILES IDX 6 13 8 14 5 15 4 16 2 17 3 18 1 19
REMARK H PARENT
REMARK Flexibility Score: inf
ROOT
ATOM      1  C   UNL     1     214.635 203.183 217.211  1.00  0.00     0.032 C 
ENDROOT
BRANCH   1   2
ATOM      2  C   UNL     1     214.216 204.586 216.845  1.00  0.00    -0.028 C 
ATOM      3  C   UNL     1     213.051 205.162 217.220  1.00  0.00    -0.077 C 
ATOM      4  C   UNL     1     212.024 204.428 218.050  1.00  0.00     0.039 C 
BRANCH   3   5
ATOM      5  C   UNL     1     212.760 206.583 216.780  1.00  0.00     0.034 C 
BRANCH   5   6
ATOM      6  C   UNL     1     213.818 207.108 215.799  1.00  0.00     0.032 C 
BRANCH   6   7
ATOM      7  C   UNL     1     213.310 208.287 215.005  1.00  0.00    -0.028 C 
ATOM      8  C   UNL     1     215.399 208.483 213.637  1.00  0.00     0.039 C 
ATOM      9  C   UNL     1     214.022 208.934 214.054  1.00  0.00    -0.080 C 
ATOM     10  C   UNL     1     213.425 210.126 213.351  1.00  0.00     0.039 C 
ENDBRANCH   6   7
ENDBRANCH   5   6
ENDBRANCH   3   5
ENDBRANCH   1   2
BRANCH   1  11
ATOM     11  C   UNL     1     214.564 202.252 215.996  1.00  0.00     0.034 C 
BRANCH  11  12
ATOM     12  C   UNL     1     213.159 201.711 215.804  1.00  0.00    -0.077 C 
ATOM     13  C   UNL     1     212.357 202.068 214.773  1.00  0.00    -0.028 C 
ATOM     14  C   UNL     1     212.617 200.727 216.810  1.00  0.00     0.039 C 
BRANCH  13  15
ATOM     15  C   UNL     1     212.721 203.024 213.659  1.00  0.00     0.035 C 
BRANCH  15  16
ATOM     16  C   UNL     1     211.955 204.346 213.788  1.00  0.00     0.079 C 
BRANCH  16  17
ATOM     17  C   UNL     1     212.478 205.395 212.838  1.00  0.00     0.130 C 
ATOM     18  O   UNL     1     211.742 206.302 212.481  1.00  0.00    -0.300 OA
ATOM     19  C   UNL     1     213.890 205.356 212.334  1.00  0.00     0.087 C 
ENDBRANCH  16  17
ENDBRANCH  15  16
ENDBRANCH  13  15
ENDBRANCH  11  12
ENDBRANCH   1  11
TORSDOF 9
ENDMDL
MODEL 6
REMARK VINA RESULT:    -4.873     14.247     16.000
REMARK INTER + INTRA:          -9.257
REMARK INTER:                  -6.825
REMARK INTRA:                  -2.432
REMARK UNBOUND:                -1.819
REMARK SMILES CC(=O)CCC=C(C)CCC=C(C)CCC=C(C)C
REMARK SMILES IDX 10 1 11 2 12 3 13 4 14 5 15 6 16 7 18 8 17 9 19 10 9 11 7 12
REMARK SMILES IDX 6 13 8 14 5 15 4 16 2 17 3 18 1 19
REMARK H PARENT
REMARK Flexibility Score: inf
ROOT
ATOM      1  C   UNL     1     214.180 206.777 212.862  1.00  0.00     0.032 C 
ENDROOT
BRANCH   1   2
ATOM      2  C   UNL     1     214.424 205.334 213.232  1.00  0.00    -0.028 C 
ATOM      3  C   UNL     1     213.453 204.404 213.383  1.00  0.00    -0.077 C 
ATOM      4  C   UNL     1     211.990 204.736 213.207  1.00  0.00     0.039 C 
BRANCH   3   5
ATOM      5  C   UNL     1     213.844 202.988 213.757  1.00  0.00     0.034 C 
BRANCH   5   6
ATOM      6  C   UNL     1     212.638 202.039 213.747  1.00  0.00     0.032 C 
BRANCH   6   7
ATOM      7  C   UNL     1     212.181 201.699 215.145  1.00  0.00    -0.028 C 
ATOM      8  C   UNL     1     213.894 199.896 215.449  1.00  0.00     0.039 C 
ATOM      9  C   UNL     1     212.715 200.717 215.908  1.00  0.00    -0.080 C 
ATOM     10  C   UNL     1     212.151 200.441 217.278  1.00  0.00     0.039 C 
ENDBRANCH   6   7
ENDBRANCH   5   6
ENDBRANCH   3   5
ENDBRANCH   1   2
BRANCH   1  11
ATOM     11  C   UNL     1     214.426 207.701 214.059  1.00  0.00     0.034 C 
BRANCH  11  12
ATOM     12  C   UNL     1     213.122 208.066 214.746  1.00  0.00    -0.077 C 
ATOM     13  C   UNL     1     212.716 207.516 215.914  1.00  0.00    -0.028 C 
ATOM     14  C   UNL     1     212.224 209.089 214.099  1.00  0.00     0.039 C 
BRANCH  13  15
ATOM     15  C   UNL     1     213.480 206.488 216.721  1.00  0.00     0.035 C 
BRANCH  15  16
ATOM     16  C   UNL     1     212.679 205.188 216.866  1.00  0.00     0.079 C 
BRANCH  16  17
ATOM     17  C   UNL     1     213.455 204.129 217.607  1.00  0.00     0.130 C 
ATOM     18  O   UNL     1     212.951 203.582 218.577  1.00  0.00    -0.300 OA
ATOM     19  C   UNL     1     214.831 203.720 217.170  1.00  0.00     0.087 C 
ENDBRANCH  16  17
ENDBRANCH  15  16
ENDBRANCH  13  15
ENDBRANCH  11  12
ENDBRANCH   1  11
TORSDOF 9
ENDMDL
MODEL 7
REMARK VINA RESULT:    -4.814     14.742     16.315
REMARK INTER + INTRA:          -9.166
REMARK INTER:                  -7.261
REMARK INTRA:                  -1.906
REMARK UNBOUND:                -1.819
REMARK SMILES CC(=O)CCC=C(C)CCC=C(C)CCC=C(C)C
REMARK SMILES IDX 10 1 11 2 12 3 13 4 14 5 15 6 16 7 18 8 17 9 19 10 9 11 7 12
REMARK SMILES IDX 6 13 8 14 5 15 4 16 2 17 3 18 1 19
REMARK H PARENT
REMARK Flexibility Score: inf
ROOT
ATOM      1  C   UNL     1     213.346 207.119 216.750  1.00  0.00     0.032 C 
ENDROOT
BRANCH   1   2
ATOM      2  C   UNL     1     212.673 205.788 216.985  1.00  0.00    -0.028 C 
ATOM      3  C   UNL     1     213.326 204.618 217.162  1.00  0.00    -0.077 C 
ATOM      4  C   UNL     1     214.834 204.526 217.123  1.00  0.00     0.039 C 
BRANCH   3   5
ATOM      5  C   UNL     1     212.520 203.354 217.390  1.00  0.00     0.034 C 
BRANCH   5   6
ATOM      6  C   UNL     1     212.401 202.512 216.112  1.00  0.00     0.032 C 
BRANCH   6   7
ATOM      7  C   UNL     1     212.694 201.054 216.373  1.00  0.00    -0.028 C 
ATOM      8  C   UNL     1     214.962 201.144 215.312  1.00  0.00     0.039 C 
ATOM      9  C   UNL     1     213.827 200.419 215.990  1.00  0.00    -0.080 C 
ATOM     10  C   UNL     1     213.994 198.948 216.272  1.00  0.00     0.039 C 
ENDBRANCH   6   7
ENDBRANCH   5   6
ENDBRANCH   3   5
ENDBRANCH   1   2
BRANCH   1  11
ATOM     11  C   UNL     1     212.997 207.676 215.365  1.00  0.00     0.034 C 
BRANCH  11  12
ATOM     12  C   UNL     1     214.252 207.983 214.568  1.00  0.00    -0.077 C 
ATOM     13  C   UNL     1     214.877 207.075 213.783  1.00  0.00    -0.028 C 
ATOM     14  C   UNL     1     214.842 209.368 214.652  1.00  0.00     0.039 C 
BRANCH  13  15
ATOM     15  C   UNL     1     214.434 205.646 213.557  1.00  0.00     0.035 C 
BRANCH  15  16
ATOM     16  C   UNL     1     213.240 205.579 212.596  1.00  0.00     0.079 C 
BRANCH  16  17
ATOM     17  C   UNL     1     212.235 204.539 213.021  1.00  0.00     0.130 C 
ATOM     18  O   UNL     1     211.256 204.878 213.669  1.00  0.00    -0.300 OA
ATOM     19  C   UNL     1     212.401 203.095 212.650  1.00  0.00     0.087 C 
ENDBRANCH  16  17
ENDBRANCH  15  16
ENDBRANCH  13  15
ENDBRANCH  11  12
ENDBRANCH   1  11
TORSDOF 9
ENDMDL
MODEL 8
REMARK VINA RESULT:    -4.780      2.827      6.958
REMARK INTER + INTRA:          -9.115
REMARK INTER:                  -7.444
REMARK INTRA:                  -1.671
REMARK UNBOUND:                -1.819
REMARK SMILES CC(=O)CCC=C(C)CCC=C(C)CCC=C(C)C
REMARK SMILES IDX 10 1 11 2 12 3 13 4 14 5 15 6 16 7 18 8 17 9 19 10 9 11 7 12
REMARK SMILES IDX 6 13 8 14 5 15 4 16 2 17 3 18 1 19
REMARK H PARENT
REMARK Flexibility Score: inf
ROOT
ATOM      1  C   UNL     1     200.602 208.435 215.896  1.00  0.00     0.032 C 
ENDROOT
BRANCH   1   2
ATOM      2  C   UNL     1     200.011 209.743 215.429  1.00  0.00    -0.028 C 
ATOM      3  C   UNL     1     199.084 209.862 214.452  1.00  0.00    -0.077 C 
ATOM      4  C   UNL     1     198.549 208.663 213.703  1.00  0.00     0.039 C 
BRANCH   3   5
ATOM      5  C   UNL     1     198.577 211.242 214.085  1.00  0.00     0.034 C 
BRANCH   5   6
ATOM      6  C   UNL     1     197.286 211.597 214.836  1.00  0.00     0.032 C 
BRANCH   6   7
ATOM      7  C   UNL     1     197.566 212.422 216.070  1.00  0.00    -0.028 C 
ATOM      8  C   UNL     1     196.972 214.590 214.963  1.00  0.00     0.039 C 
ATOM      9  C   UNL     1     197.460 213.770 216.131  1.00  0.00    -0.080 C 
ATOM     10  C   UNL     1     197.802 214.492 217.409  1.00  0.00     0.039 C 
ENDBRANCH   6   7
ENDBRANCH   5   6
ENDBRANCH   3   5
ENDBRANCH   1   2
BRANCH   1  11
ATOM     11  C   UNL     1     200.073 208.056 217.284  1.00  0.00     0.034 C 
BRANCH  11  12
ATOM     12  C   UNL     1     198.625 207.604 217.212  1.00  0.00    -0.077 C 
ATOM     13  C   UNL     1     198.250 206.366 216.813  1.00  0.00    -0.028 C 
ATOM     14  C   UNL     1     197.542 208.579 217.599  1.00  0.00     0.039 C 
BRANCH  13  15
ATOM     15  C   UNL     1     199.183 205.248 216.401  1.00  0.00     0.035 C 
BRANCH  15  16
ATOM     16  C   UNL     1     199.208 205.078 214.877  1.00  0.00     0.079 C 
BRANCH  16  17
ATOM     17  C   UNL     1     197.910 204.518 214.352  1.00  0.00     0.130 C 
ATOM     18  O   UNL     1     197.134 205.254 213.760  1.00  0.00    -0.300 OA
ATOM     19  C   UNL     1     197.557 203.071 214.527  1.00  0.00     0.087 C 
ENDBRANCH  16  17
ENDBRANCH  15  16
ENDBRANCH  13  15
ENDBRANCH  11  12
ENDBRANCH   1  11
TORSDOF 9
ENDMDL
MODEL 9
REMARK VINA RESULT:    -4.769      2.017      5.705
REMARK INTER + INTRA:          -9.098
REMARK INTER:                  -6.736
REMARK INTRA:                  -2.362
REMARK UNBOUND:                -1.819
REMARK SMILES CC(=O)CCC=C(C)CCC=C(C)CCC=C(C)C
REMARK SMILES IDX 10 1 11 2 12 3 13 4 14 5 15 6 16 7 18 8 17 9 19 10 9 11 7 12
REMARK SMILES IDX 6 13 8 14 5 15 4 16 2 17 3 18 1 19
REMARK H PARENT
REMARK Flexibility Score: inf
ROOT
ATOM      1  C   UNL     1     198.079 206.248 212.885  1.00  0.00     0.032 C 
ENDROOT
BRANCH   1   2
ATOM      2  C   UNL     1     198.560 207.510 213.559  1.00  0.00    -0.028 C 
ATOM      3  C   UNL     1     199.859 207.829 213.756  1.00  0.00    -0.077 C 
ATOM      4  C   UNL     1     200.984 206.918 213.322  1.00  0.00     0.039 C 
BRANCH   3   5
ATOM      5  C   UNL     1     200.198 209.134 214.449  1.00  0.00     0.034 C 
BRANCH   5   6
ATOM      6  C   UNL     1     199.357 210.302 213.914  1.00  0.00     0.032 C 
BRANCH   6   7
ATOM      7  C   UNL     1     199.367 211.478 214.862  1.00  0.00    -0.028 C 
ATOM      8  C   UNL     1     196.870 211.562 215.052  1.00  0.00     0.039 C 
ATOM      9  C   UNL     1     198.256 212.074 215.354  1.00  0.00    -0.080 C 
ATOM     10  C   UNL     1     198.386 213.268 216.264  1.00  0.00     0.039 C 
ENDBRANCH   6   7
ENDBRANCH   5   6
ENDBRANCH   3   5
ENDBRANCH   1   2
BRANCH   1  11
ATOM     11  C   UNL     1     197.490 205.268 213.905  1.00  0.00     0.034 C 
BRANCH  11  12
ATOM     12  C   UNL     1     198.575 204.404 214.522  1.00  0.00    -0.077 C 
ATOM     13  C   UNL     1     199.027 204.565 215.787  1.00  0.00    -0.028 C 
ATOM     14  C   UNL     1     199.190 203.308 213.688  1.00  0.00     0.039 C 
BRANCH  13  15
ATOM     15  C   UNL     1     198.529 205.593 216.780  1.00  0.00     0.035 C 
BRANCH  15  16
ATOM     16  C   UNL     1     199.625 206.610 217.124  1.00  0.00     0.079 C 
BRANCH  16  17
ATOM     17  C   UNL     1     199.047 207.932 217.562  1.00  0.00     0.130 C 
ATOM     18  O   UNL     1     199.718 208.681 218.257  1.00  0.00    -0.300 OA
ATOM     19  C   UNL     1     197.668 208.356 217.150  1.00  0.00     0.087 C 
ENDBRANCH  16  17
ENDBRANCH  15  16
ENDBRANCH  13  15
ENDBRANCH  11  12
ENDBRANCH   1  11
TORSDOF 9
ENDMDL
