MODEL 1
REMARK VINA RESULT:    -4.165      0.000      0.000
REMARK INTER + INTRA:          -5.898
REMARK INTER:                  -5.626
REMARK INTRA:                  -0.271
REMARK UNBOUND:                -0.271
REMARK SMILES O=C[C@@H](O)[C@@H](O)[C@H](O)CO
REMARK SMILES IDX 7 1 9 2 10 3 5 5 3 6 2 7 1 8 4 9 6 11 8 13
REMARK H PARENT 10 4 4 10 6 12 8 14
REMARK Flexibility Score: inf
ROOT
ATOM      1  C   UNL     1       1.690  -1.693 -22.343  1.00  0.00     0.171 C 
ENDROOT
BRANCH   1   2
ATOM      2  C   UNL     1       2.644  -2.815 -21.892  1.00  0.00     0.190 C 
BRANCH   2   3
ATOM      3  O   UNL     1       3.175  -3.478 -23.006  1.00  0.00    -0.394 OA
ATOM      4  H   UNL     1       2.460  -4.084 -23.334  1.00  0.00     0.210 HD
ENDBRANCH   2   3
ENDBRANCH   1   2
BRANCH   1   5
ATOM      5  C   UNL     1       2.389  -0.314 -22.505  1.00  0.00     0.181 C 
BRANCH   5   6
ATOM      6  C   UNL     1       2.778   0.057 -23.963  1.00  0.00     0.209 C 
BRANCH   6   7
ATOM      7  C   UNL     1       3.813   1.146 -24.025  1.00  0.00     0.258 C 
ATOM      8  O   UNL     1       3.811   1.950 -24.944  1.00  0.00    -0.300 OA
ENDBRANCH   6   7
BRANCH   6   9
ATOM      9  O   UNL     1       3.237  -1.067 -24.669  1.00  0.00    -0.383 OA
ATOM     10  H   UNL     1       2.592  -1.226 -25.407  1.00  0.00     0.211 HD
ENDBRANCH   6   9
ENDBRANCH   5   6
BRANCH   5  11
ATOM     11  O   UNL     1       1.525   0.688 -22.026  1.00  0.00    -0.387 OA
ATOM     12  H   UNL     1       0.795   0.237 -21.527  1.00  0.00     0.211 HD
ENDBRANCH   5  11
ENDBRANCH   1   5
BRANCH   1  13
ATOM     13  O   UNL     1       0.670  -1.560 -21.385  1.00  0.00    -0.388 OA
ATOM     14  H   UNL     1       1.090  -1.674 -20.493  1.00  0.00     0.211 HD
ENDBRANCH   1  13
TORSDOF 8
ENDMDL
MODEL 2
REMARK VINA RESULT:    -4.031      6.556      8.060
REMARK INTER + INTRA:          -5.717
REMARK INTER:                  -5.523
REMARK INTRA:                  -0.194
REMARK UNBOUND:                -0.271
REMARK SMILES O=C[C@@H](O)[C@@H](O)[C@H](O)CO
REMARK SMILES IDX 7 1 9 2 10 3 5 5 3 6 2 7 1 8 4 9 6 11 8 13
REMARK H PARENT 10 4 4 10 6 12 8 14
REMARK Flexibility Score: inf
ROOT
ATOM      1  C   UNL     1      -2.308   3.405 -22.500  1.00  0.00     0.171 C 
ENDROOT
BRANCH   1   2
ATOM      2  C   UNL     1      -1.611   2.287 -23.298  1.00  0.00     0.190 C 
BRANCH   2   3
ATOM      3  O   UNL     1      -1.938   1.034 -22.766  1.00  0.00    -0.394 OA
ATOM      4  H   UNL     1      -1.278   0.858 -22.047  1.00  0.00     0.210 HD
ENDBRANCH   2   3
ENDBRANCH   1   2
BRANCH   1   5
ATOM      5  C   UNL     1      -3.859   3.374 -22.617  1.00  0.00     0.181 C 
BRANCH   5   6
ATOM      6  C   UNL     1      -4.612   3.154 -21.275  1.00  0.00     0.209 C 
BRANCH   6   7
ATOM      7  C   UNL     1      -5.463   1.914 -21.289  1.00  0.00     0.258 C 
ATOM      8  O   UNL     1      -6.422   1.829 -22.040  1.00  0.00    -0.300 OA
ENDBRANCH   6   7
BRANCH   6   9
ATOM      9  O   UNL     1      -3.719   3.098 -20.193  1.00  0.00    -0.383 OA
ATOM     10  H   UNL     1      -3.278   3.986 -20.139  1.00  0.00     0.211 HD
ENDBRANCH   6   9
ENDBRANCH   5   6
BRANCH   5  11
ATOM     11  O   UNL     1      -4.295   4.599 -23.155  1.00  0.00    -0.387 OA
ATOM     12  H   UNL     1      -5.270   4.518 -23.327  1.00  0.00     0.211 HD
ENDBRANCH   5  11
ENDBRANCH   1   5
BRANCH   1  13
ATOM     13  O   UNL     1      -1.856   4.647 -22.978  1.00  0.00    -0.388 OA
ATOM     14  H   UNL     1      -1.266   4.464 -23.757  1.00  0.00     0.211 HD
ENDBRANCH   1  13
TORSDOF 8
ENDMDL
MODEL 3
REMARK VINA RESULT:    -4.012      6.651      8.214
REMARK INTER + INTRA:          -5.691
REMARK INTER:                  -4.967
REMARK INTRA:                  -0.724
REMARK UNBOUND:                -0.271
REMARK SMILES O=C[C@@H](O)[C@@H](O)[C@H](O)CO
REMARK SMILES IDX 7 1 9 2 10 3 5 5 3 6 2 7 1 8 4 9 6 11 8 13
REMARK H PARENT 10 4 4 10 6 12 8 14
REMARK Flexibility Score: inf
ROOT
ATOM      1  C   UNL     1      -1.928   3.465 -23.584  1.00  0.00     0.171 C 
ENDROOT
BRANCH   1   2
ATOM      2  C   UNL     1      -1.268   4.776 -24.052  1.00  0.00     0.190 C 
BRANCH   2   3
ATOM      3  O   UNL     1      -1.087   5.643 -22.968  1.00  0.00    -0.394 OA
ATOM      4  H   UNL     1      -0.242   5.365 -22.528  1.00  0.00     0.210 HD
ENDBRANCH   2   3
ENDBRANCH   1   2
BRANCH   1   5
ATOM      5  C   UNL     1      -3.452   3.605 -23.306  1.00  0.00     0.181 C 
BRANCH   5   6
ATOM      6  C   UNL     1      -3.901   3.170 -21.884  1.00  0.00     0.209 C 
BRANCH   6   7
ATOM      7  C   UNL     1      -5.298   3.621 -21.557  1.00  0.00     0.258 C 
ATOM      8  O   UNL     1      -6.202   3.472 -22.365  1.00  0.00    -0.300 OA
ENDBRANCH   6   7
BRANCH   6   9
ATOM      9  O   UNL     1      -3.809   1.777 -21.726  1.00  0.00    -0.383 OA
ATOM     10  H   UNL     1      -4.729   1.416 -21.822  1.00  0.00     0.211 HD
ENDBRANCH   6   9
ENDBRANCH   5   6
BRANCH   5  11
ATOM     11  O   UNL     1      -3.819   4.954 -23.475  1.00  0.00    -0.387 OA
ATOM     12  H   UNL     1      -4.337   5.017 -24.320  1.00  0.00     0.211 HD
ENDBRANCH   5  11
ENDBRANCH   1   5
BRANCH   1  13
ATOM     13  O   UNL     1      -1.301   3.045 -22.398  1.00  0.00    -0.388 OA
ATOM     14  H   UNL     1      -0.322   3.128 -22.540  1.00  0.00     0.211 HD
ENDBRANCH   1  13
TORSDOF 8
ENDMDL
MODEL 4
REMARK VINA RESULT:    -4.006      2.162      4.212
REMARK INTER + INTRA:          -5.682
REMARK INTER:                  -5.194
REMARK INTRA:                  -0.488
REMARK UNBOUND:                -0.271
REMARK SMILES O=C[C@@H](O)[C@@H](O)[C@H](O)CO
REMARK SMILES IDX 7 1 9 2 10 3 5 5 3 6 2 7 1 8 4 9 6 11 8 13
REMARK H PARENT 10 4 4 10 6 12 8 14
REMARK Flexibility Score: inf
ROOT
ATOM      1  C   UNL     1      -0.201   0.960 -22.953  1.00  0.00     0.171 C 
ENDROOT
BRANCH   1   2
ATOM      2  C   UNL     1      -0.245   1.231 -24.468  1.00  0.00     0.190 C 
BRANCH   2   3
ATOM      3  O   UNL     1       0.202   2.529 -24.743  1.00  0.00    -0.394 OA
ATOM      4  H   UNL     1      -0.598   3.044 -25.026  1.00  0.00     0.210 HD
ENDBRANCH   2   3
ENDBRANCH   1   2
BRANCH   1   5
ATOM      5  C   UNL     1       1.134   0.320 -22.477  1.00  0.00     0.181 C 
BRANCH   5   6
ATOM      6  C   UNL     1       1.108  -1.228 -22.342  1.00  0.00     0.209 C 
BRANCH   6   7
ATOM      7  C   UNL     1       2.483  -1.834 -22.385  1.00  0.00     0.258 C 
ATOM      8  O   UNL     1       2.659  -2.994 -22.047  1.00  0.00    -0.300 OA
ENDBRANCH   6   7
BRANCH   6   9
ATOM      9  O   UNL     1       0.456  -1.624 -21.162  1.00  0.00    -0.383 OA
ATOM     10  H   UNL     1      -0.315  -2.186 -21.436  1.00  0.00     0.211 HD
ENDBRANCH   6   9
ENDBRANCH   5   6
BRANCH   5  11
ATOM     11  O   UNL     1       2.146   0.651 -23.398  1.00  0.00    -0.387 OA
ATOM     12  H   UNL     1       2.298   1.630 -23.333  1.00  0.00     0.211 HD
ENDBRANCH   5  11
ENDBRANCH   1   5
BRANCH   1  13
ATOM     13  O   UNL     1      -1.251   0.085 -22.623  1.00  0.00    -0.388 OA
ATOM     14  H   UNL     1      -1.028  -0.800 -23.015  1.00  0.00     0.211 HD
ENDBRANCH   1  13
TORSDOF 8
ENDMDL
MODEL 5
REMARK VINA RESULT:    -3.889      6.150      7.197
REMARK INTER + INTRA:          -5.524
REMARK INTER:                  -5.027
REMARK INTRA:                  -0.497
REMARK UNBOUND:                -0.271
REMARK SMILES O=C[C@@H](O)[C@@H](O)[C@H](O)CO
REMARK SMILES IDX 7 1 9 2 10 3 5 5 3 6 2 7 1 8 4 9 6 11 8 13
REMARK H PARENT 10 4 4 10 6 12 8 14
REMARK Flexibility Score: inf
ROOT
ATOM      1  C   UNL     1      -4.062   3.416 -21.749  1.00  0.00     0.171 C 
ENDROOT
BRANCH   1   2
ATOM      2  C   UNL     1      -5.525   2.942 -21.829  1.00  0.00     0.190 C 
BRANCH   2   3
ATOM      3  O   UNL     1      -5.635   1.625 -21.367  1.00  0.00    -0.394 OA
ATOM      4  H   UNL     1      -4.964   1.097 -21.872  1.00  0.00     0.210 HD
ENDBRANCH   2   3
ENDBRANCH   1   2
BRANCH   1   5
ATOM      5  C   UNL     1      -3.128   2.719 -22.779  1.00  0.00     0.181 C 
BRANCH   5   6
ATOM      6  C   UNL     1      -1.817   3.489 -23.101  1.00  0.00     0.209 C 
BRANCH   6   7
ATOM      7  C   UNL     1      -1.271   3.155 -24.462  1.00  0.00     0.258 C 
ATOM      8  O   UNL     1      -0.989   2.003 -24.750  1.00  0.00    -0.300 OA
ENDBRANCH   6   7
BRANCH   6   9
ATOM      9  O   UNL     1      -2.004   4.877 -22.998  1.00  0.00    -0.383 OA
ATOM     10  H   UNL     1      -2.908   5.072 -23.357  1.00  0.00     0.211 HD
ENDBRANCH   6   9
ENDBRANCH   5   6
BRANCH   5  11
ATOM     11  O   UNL     1      -2.768   1.455 -22.278  1.00  0.00    -0.387 OA
ATOM     12  H   UNL     1      -1.784   1.366 -22.375  1.00  0.00     0.211 HD
ENDBRANCH   5  11
ENDBRANCH   1   5
BRANCH   1  13
ATOM     13  O   UNL     1      -3.573   3.146 -20.459  1.00  0.00    -0.388 OA
ATOM     14  H   UNL     1      -3.672   2.170 -20.307  1.00  0.00     0.211 HD
ENDBRANCH   1  13
TORSDOF 8
ENDMDL
MODEL 6
REMARK VINA RESULT:    -3.859      2.832      3.449
REMARK INTER + INTRA:          -5.484
REMARK INTER:                  -5.049
REMARK INTRA:                  -0.435
REMARK UNBOUND:                -0.271
REMARK SMILES O=C[C@@H](O)[C@@H](O)[C@H](O)CO
REMARK SMILES IDX 7 1 9 2 10 3 5 5 3 6 2 7 1 8 4 9 6 11 8 13
REMARK H PARENT 10 4 4 10 6 12 8 14
REMARK Flexibility Score: inf
ROOT
ATOM      1  C   UNL     1       0.791  -0.421 -22.640  1.00  0.00     0.171 C 
ENDROOT
BRANCH   1   2
ATOM      2  C   UNL     1       2.204   0.016 -22.211  1.00  0.00     0.190 C 
BRANCH   2   3
ATOM      3  O   UNL     1       3.094  -0.091 -23.288  1.00  0.00    -0.394 OA
ATOM      4  H   UNL     1       2.746  -0.822 -23.862  1.00  0.00     0.210 HD
ENDBRANCH   2   3
ENDBRANCH   1   2
BRANCH   1   5
ATOM      5  C   UNL     1      -0.161   0.772 -22.940  1.00  0.00     0.181 C 
BRANCH   5   6
ATOM      6  C   UNL     1      -0.184   1.235 -24.423  1.00  0.00     0.209 C 
BRANCH   6   7
ATOM      7  C   UNL     1      -1.160   2.354 -24.663  1.00  0.00     0.258 C 
ATOM      8  O   UNL     1      -1.413   3.154 -23.777  1.00  0.00    -0.300 OA
ENDBRANCH   6   7
BRANCH   6   9
ATOM      9  O   UNL     1       1.094   1.626 -24.854  1.00  0.00    -0.383 OA
ATOM     10  H   UNL     1       1.741   0.995 -24.442  1.00  0.00     0.211 HD
ENDBRANCH   6   9
ENDBRANCH   5   6
BRANCH   5  11
ATOM     11  O   UNL     1      -1.472   0.401 -22.588  1.00  0.00    -0.387 OA
ATOM     12  H   UNL     1      -1.903   0.028 -23.401  1.00  0.00     0.211 HD
ENDBRANCH   5  11
ENDBRANCH   1   5
BRANCH   1  13
ATOM     13  O   UNL     1       0.225  -1.186 -21.605  1.00  0.00    -0.388 OA
ATOM     14  H   UNL     1       0.046  -2.091 -21.975  1.00  0.00     0.211 HD
ENDBRANCH   1  13
TORSDOF 8
ENDMDL
MODEL 7
REMARK VINA RESULT:    -3.855      5.896      6.938
REMARK INTER + INTRA:          -5.478
REMARK INTER:                  -5.141
REMARK INTRA:                  -0.337
REMARK UNBOUND:                -0.271
REMARK SMILES O=C[C@@H](O)[C@@H](O)[C@H](O)CO
REMARK SMILES IDX 7 1 9 2 10 3 5 5 3 6 2 7 1 8 4 9 6 11 8 13
REMARK H PARENT 10 4 4 10 6 12 8 14
REMARK Flexibility Score: inf
ROOT
ATOM      1  C   UNL     1      -4.013   3.318 -22.577  1.00  0.00     0.171 C 
ENDROOT
BRANCH   1   2
ATOM      2  C   UNL     1      -4.686   3.160 -21.201  1.00  0.00     0.190 C 
BRANCH   2   3
ATOM      3  O   UNL     1      -3.719   3.121 -20.189  1.00  0.00    -0.394 OA
ATOM      4  H   UNL     1      -2.994   2.530 -20.521  1.00  0.00     0.210 HD
ENDBRANCH   2   3
ENDBRANCH   1   2
BRANCH   1   5
ATOM      5  C   UNL     1      -2.459   3.322 -22.509  1.00  0.00     0.181 C 
BRANCH   5   6
ATOM      6  C   UNL     1      -1.764   2.221 -23.358  1.00  0.00     0.209 C 
BRANCH   6   7
ATOM      7  C   UNL     1      -1.486   2.668 -24.766  1.00  0.00     0.258 C 
ATOM      8  O   UNL     1      -0.495   3.335 -25.020  1.00  0.00    -0.300 OA
ENDBRANCH   6   7
BRANCH   6   9
ATOM      9  O   UNL     1      -0.569   1.795 -22.756  1.00  0.00    -0.383 OA
ATOM     10  H   UNL     1      -0.068   2.613 -22.501  1.00  0.00     0.211 HD
ENDBRANCH   6   9
ENDBRANCH   5   6
BRANCH   5  11
ATOM     11  O   UNL     1      -1.991   4.569 -22.963  1.00  0.00    -0.387 OA
ATOM     12  H   UNL     1      -1.033   4.459 -23.201  1.00  0.00     0.211 HD
ENDBRANCH   5  11
ENDBRANCH   1   5
BRANCH   1  13
ATOM     13  O   UNL     1      -4.432   4.535 -23.144  1.00  0.00    -0.388 OA
ATOM     14  H   UNL     1      -5.362   4.695 -22.837  1.00  0.00     0.211 HD
ENDBRANCH   1  13
TORSDOF 8
ENDMDL
MODEL 8
REMARK VINA RESULT:    -3.852      1.379      4.130
REMARK INTER + INTRA:          -5.475
REMARK INTER:                  -5.335
REMARK INTRA:                  -0.139
REMARK UNBOUND:                -0.271
REMARK SMILES O=C[C@@H](O)[C@@H](O)[C@H](O)CO
REMARK SMILES IDX 7 1 9 2 10 3 5 5 3 6 2 7 1 8 4 9 6 11 8 13
REMARK H PARENT 10 4 4 10 6 12 8 14
REMARK Flexibility Score: inf
ROOT
ATOM      1  C   UNL     1       2.089   0.270 -23.877  1.00  0.00     0.171 C 
ENDROOT
BRANCH   1   2
ATOM      2  C   UNL     1       1.211   1.078 -24.851  1.00  0.00     0.190 C 
BRANCH   2   3
ATOM      3  O   UNL     1       0.035   1.493 -24.215  1.00  0.00    -0.394 OA
ATOM      4  H   UNL     1      -0.355   0.682 -23.796  1.00  0.00     0.210 HD
ENDBRANCH   2   3
ENDBRANCH   1   2
BRANCH   1   5
ATOM      5  C   UNL     1       1.377  -0.066 -22.536  1.00  0.00     0.181 C 
BRANCH   5   6
ATOM      6  C   UNL     1       1.358  -1.575 -22.164  1.00  0.00     0.209 C 
BRANCH   6   7
ATOM      7  C   UNL     1       2.739  -2.143 -21.986  1.00  0.00     0.258 C 
ATOM      8  O   UNL     1       2.920  -3.351 -22.015  1.00  0.00    -0.300 OA
ENDBRANCH   6   7
BRANCH   6   9
ATOM      9  O   UNL     1       0.603  -1.803 -21.001  1.00  0.00    -0.383 OA
ATOM     10  H   UNL     1       0.665  -2.774 -20.805  1.00  0.00     0.211 HD
ENDBRANCH   6   9
ENDBRANCH   5   6
BRANCH   5  11
ATOM     11  O   UNL     1       2.030   0.621 -21.495  1.00  0.00    -0.387 OA
ATOM     12  H   UNL     1       2.672  -0.012 -21.078  1.00  0.00     0.211 HD
ENDBRANCH   5  11
ENDBRANCH   1   5
BRANCH   1  13
ATOM     13  O   UNL     1       3.244   1.017 -23.587  1.00  0.00    -0.388 OA
ATOM     14  H   UNL     1       3.860   0.421 -23.087  1.00  0.00     0.211 HD
ENDBRANCH   1  13
TORSDOF 8
ENDMDL
MODEL 9
REMARK VINA RESULT:    -3.776      2.174      3.058
REMARK INTER + INTRA:          -5.373
REMARK INTER:                  -4.756
REMARK INTRA:                  -0.616
REMARK UNBOUND:                -0.271
REMARK SMILES O=C[C@@H](O)[C@@H](O)[C@H](O)CO
REMARK SMILES IDX 7 1 9 2 10 3 5 5 3 6 2 7 1 8 4 9 6 11 8 13
REMARK H PARENT 10 4 4 10 6 12 8 14
REMARK Flexibility Score: inf
ROOT
ATOM      1  C   UNL     1       1.912  -0.399 -22.316  1.00  0.00     0.171 C 
ENDROOT
BRANCH   1   2
ATOM      2  C   UNL     1       1.428  -1.845 -22.099  1.00  0.00     0.190 C 
BRANCH   2   3
ATOM      3  O   UNL     1       0.663  -1.930 -20.930  1.00  0.00    -0.394 OA
ATOM      4  H   UNL     1       1.302  -2.115 -20.193  1.00  0.00     0.210 HD
ENDBRANCH   2   3
ENDBRANCH   1   2
BRANCH   1   5
ATOM      5  C   UNL     1       0.789   0.565 -22.791  1.00  0.00     0.181 C 
BRANCH   5   6
ATOM      6  C   UNL     1       0.733   0.802 -24.326  1.00  0.00     0.209 C 
BRANCH   6   7
ATOM      7  C   UNL     1      -0.547   1.461 -24.762  1.00  0.00     0.258 C 
ATOM      8  O   UNL     1      -1.087   2.294 -24.052  1.00  0.00    -0.300 OA
ENDBRANCH   6   7
BRANCH   6   9
ATOM      9  O   UNL     1       1.827   1.567 -24.763  1.00  0.00    -0.383 OA
ATOM     10  H   UNL     1       1.532   2.515 -24.764  1.00  0.00     0.211 HD
ENDBRANCH   6   9
ENDBRANCH   5   6
BRANCH   5  11
ATOM     11  O   UNL     1      -0.455   0.038 -22.395  1.00  0.00    -0.387 OA
ATOM     12  H   UNL     1      -1.156   0.678 -22.687  1.00  0.00     0.211 HD
ENDBRANCH   5  11
ENDBRANCH   1   5
BRANCH   1  13
ATOM     13  O   UNL     1       2.926  -0.407 -23.290  1.00  0.00    -0.388 OA
ATOM     14  H   UNL     1       3.687  -0.924 -22.916  1.00  0.00     0.211 HD
ENDBRANCH   1  13
TORSDOF 8
ENDMDL
