MODEL 1
REMARK VINA RESULT:    -3.664      0.000      0.000
REMARK INTER + INTRA:          -7.951
REMARK INTER:                  -6.235
REMARK INTRA:                  -1.716
REMARK UNBOUND:                -1.716
REMARK SMILES CCCCCCCCCCCCCC(=O)[O-]
REMARK SMILES IDX 8 1 9 2 10 3 11 4 12 5 13 6 14 7 15 8 16 9 7 10 6 11 5 12
REMARK SMILES IDX 4 13 3 14 2 15 1 16
REMARK H PARENT
REMARK Flexibility Score: inf
ROOT
ATOM      1  C   UNL     1      21.605   2.599  23.618  1.00  0.00     0.000 C 
ENDROOT
BRANCH   1   2
ATOM      2  C   UNL     1      21.158   4.034  23.954  1.00  0.00     0.000 C 
BRANCH   2   3
ATOM      3  C   UNL     1      19.714   4.167  24.471  1.00  0.00     0.000 C 
BRANCH   3   4
ATOM      4  C   UNL     1      19.319   5.618  24.783  1.00  0.00     0.000 C 
BRANCH   4   5
ATOM      5  C   UNL     1      20.149   6.604  23.952  1.00  0.00     0.006 C 
BRANCH   5   6
ATOM      6  C   UNL     1      19.323   7.838  23.575  1.00  0.00     0.053 C 
BRANCH   6   7
ATOM      7  C   UNL     1      20.218   8.958  23.149  1.00  0.00     0.041 C 
ATOM      8  O   UNL     1      20.076   9.485  22.014  1.00  0.00    -0.550 OA
ATOM      9  O   UNL     1      21.241   9.385  23.985  1.00  0.00    -0.550 OA
ENDBRANCH   6   7
ENDBRANCH   5   6
ENDBRANCH   4   5
ENDBRANCH   3   4
ENDBRANCH   2   3
ENDBRANCH   1   2
BRANCH   1  10
ATOM     10  C   UNL     1      20.905   1.536  24.481  1.00  0.00     0.000 C 
BRANCH  10  11
ATOM     11  C   UNL     1      21.641   1.266  25.807  1.00  0.00    -0.000 C 
BRANCH  11  12
ATOM     12  C   UNL     1      20.958   1.837  27.066  1.00  0.00    -0.000 C 
BRANCH  12  13
ATOM     13  C   UNL     1      21.636   3.083  27.672  1.00  0.00    -0.000 C 
BRANCH  13  14
ATOM     14  C   UNL     1      23.109   3.280  27.271  1.00  0.00    -0.000 C 
BRANCH  14  15
ATOM     15  C   UNL     1      23.425   4.725  26.861  1.00  0.00    -0.003 C 
ATOM     16  C   UNL     1      22.252   5.653  27.166  1.00  0.00     0.004 C 
ENDBRANCH  14  15
ENDBRANCH  13  14
ENDBRANCH  12  13
ENDBRANCH  11  12
ENDBRANCH  10  11
ENDBRANCH   1  10
TORSDOF 12
ENDMDL
MODEL 2
REMARK VINA RESULT:    -3.487      1.773      3.486
REMARK INTER + INTRA:          -7.650
REMARK INTER:                  -5.637
REMARK INTRA:                  -2.012
REMARK UNBOUND:                -1.716
REMARK SMILES CCCCCCCCCCCCCC(=O)[O-]
REMARK SMILES IDX 8 1 9 2 10 3 11 4 12 5 13 6 14 7 15 8 16 9 7 10 6 11 5 12
REMARK SMILES IDX 4 13 3 14 2 15 1 16
REMARK H PARENT
REMARK Flexibility Score: inf
ROOT
ATOM      1  C   UNL     1      23.813   4.184  26.702  1.00  0.00     0.000 C 
ENDROOT
BRANCH   1   2
ATOM      2  C   UNL     1      22.800   5.303  27.006  1.00  0.00     0.000 C 
BRANCH   2   3
ATOM      3  C   UNL     1      21.385   4.824  27.380  1.00  0.00     0.000 C 
BRANCH   3   4
ATOM      4  C   UNL     1      20.280   5.541  26.591  1.00  0.00     0.000 C 
BRANCH   4   5
ATOM      5  C   UNL     1      20.485   5.372  25.081  1.00  0.00     0.006 C 
BRANCH   5   6
ATOM      6  C   UNL     1      19.144   5.200  24.359  1.00  0.00     0.053 C 
BRANCH   6   7
ATOM      7  C   UNL     1      18.667   6.513  23.822  1.00  0.00     0.041 C 
ATOM      8  O   UNL     1      17.435   6.768  23.779  1.00  0.00    -0.550 OA
ATOM      9  O   UNL     1      19.581   7.432  23.324  1.00  0.00    -0.550 OA
ENDBRANCH   6   7
ENDBRANCH   5   6
ENDBRANCH   4   5
ENDBRANCH   3   4
ENDBRANCH   2   3
ENDBRANCH   1   2
BRANCH   1  10
ATOM     10  C   UNL     1      23.159   2.934  26.089  1.00  0.00     0.000 C 
BRANCH  10  11
ATOM     11  C   UNL     1      23.055   3.007  24.555  1.00  0.00    -0.000 C 
BRANCH  11  12
ATOM     12  C   UNL     1      21.935   2.151  23.930  1.00  0.00    -0.000 C 
BRANCH  12  13
ATOM     13  C   UNL     1      21.212   1.202  24.907  1.00  0.00    -0.000 C 
BRANCH  13  14
ATOM     14  C   UNL     1      19.827   1.684  25.375  1.00  0.00    -0.000 C 
BRANCH  14  15
ATOM     15  C   UNL     1      19.667   1.641  26.901  1.00  0.00    -0.003 C 
ATOM     16  C   UNL     1      18.423   2.406  27.345  1.00  0.00     0.004 C 
ENDBRANCH  14  15
ENDBRANCH  13  14
ENDBRANCH  12  13
ENDBRANCH  11  12
ENDBRANCH  10  11
ENDBRANCH   1  10
TORSDOF 12
ENDMDL
MODEL 3
REMARK VINA RESULT:    -3.451      1.706      3.437
REMARK INTER + INTRA:          -7.588
REMARK INTER:                  -6.622
REMARK INTRA:                  -0.966
REMARK UNBOUND:                -1.716
REMARK SMILES CCCCCCCCCCCCCC(=O)[O-]
REMARK SMILES IDX 8 1 9 2 10 3 11 4 12 5 13 6 14 7 15 8 16 9 7 10 6 11 5 12
REMARK SMILES IDX 4 13 3 14 2 15 1 16
REMARK H PARENT
REMARK Flexibility Score: inf
ROOT
ATOM      1  C   UNL     1      19.675   6.023  24.150  1.00  0.00     0.000 C 
ENDROOT
BRANCH   1   2
ATOM      2  C   UNL     1      18.401   6.592  24.802  1.00  0.00     0.000 C 
BRANCH   2   3
ATOM      3  C   UNL     1      17.383   7.209  23.825  1.00  0.00     0.000 C 
BRANCH   3   4
ATOM      4  C   UNL     1      16.858   8.575  24.288  1.00  0.00     0.000 C 
BRANCH   4   5
ATOM      5  C   UNL     1      17.885   9.680  24.013  1.00  0.00     0.006 C 
BRANCH   5   6
ATOM      6  C   UNL     1      18.253   9.733  22.527  1.00  0.00     0.053 C 
BRANCH   6   7
ATOM      7  C   UNL     1      19.729   9.573  22.346  1.00  0.00     0.041 C 
ATOM      8  O   UNL     1      20.230   9.583  21.191  1.00  0.00    -0.550 OA
ATOM      9  O   UNL     1      20.545   9.364  23.451  1.00  0.00    -0.550 OA
ENDBRANCH   6   7
ENDBRANCH   5   6
ENDBRANCH   4   5
ENDBRANCH   3   4
ENDBRANCH   2   3
ENDBRANCH   1   2
BRANCH   1  10
ATOM     10  C   UNL     1      19.783   4.494  24.282  1.00  0.00     0.000 C 
BRANCH  10  11
ATOM     11  C   UNL     1      21.236   3.990  24.201  1.00  0.00    -0.000 C 
BRANCH  11  12
ATOM     12  C   UNL     1      21.414   2.599  23.559  1.00  0.00    -0.000 C 
BRANCH  12  13
ATOM     13  C   UNL     1      21.045   1.407  24.464  1.00  0.00    -0.000 C 
BRANCH  13  14
ATOM     14  C   UNL     1      21.410   1.581  25.949  1.00  0.00    -0.000 C 
BRANCH  14  15
ATOM     15  C   UNL     1      20.182   1.553  26.871  1.00  0.00    -0.003 C 
ATOM     16  C   UNL     1      18.892   1.442  26.064  1.00  0.00     0.004 C 
ENDBRANCH  14  15
ENDBRANCH  13  14
ENDBRANCH  12  13
ENDBRANCH  11  12
ENDBRANCH  10  11
ENDBRANCH   1  10
TORSDOF 12
ENDMDL
MODEL 4
REMARK VINA RESULT:    -3.432      1.362      2.196
REMARK INTER + INTRA:          -7.555
REMARK INTER:                  -5.827
REMARK INTRA:                  -1.728
REMARK UNBOUND:                -1.716
REMARK SMILES CCCCCCCCCCCCCC(=O)[O-]
REMARK SMILES IDX 8 1 9 2 10 3 11 4 12 5 13 6 14 7 15 8 16 9 7 10 6 11 5 12
REMARK SMILES IDX 4 13 3 14 2 15 1 16
REMARK H PARENT
REMARK Flexibility Score: inf
ROOT
ATOM      1  C   UNL     1      19.004   2.374  25.564  1.00  0.00     0.000 C 
ENDROOT
BRANCH   1   2
ATOM      2  C   UNL     1      19.028   3.575  26.527  1.00  0.00     0.000 C 
BRANCH   2   3
ATOM      3  C   UNL     1      19.348   4.933  25.876  1.00  0.00     0.000 C 
BRANCH   3   4
ATOM      4  C   UNL     1      19.053   4.961  24.370  1.00  0.00     0.000 C 
BRANCH   4   5
ATOM      5  C   UNL     1      18.724   6.384  23.901  1.00  0.00     0.006 C 
BRANCH   5   6
ATOM      6  C   UNL     1      19.992   7.239  23.806  1.00  0.00     0.053 C 
BRANCH   6   7
ATOM      7  C   UNL     1      19.675   8.583  23.232  1.00  0.00     0.041 C 
ATOM      8  O   UNL     1      20.603   9.388  22.954  1.00  0.00    -0.550 OA
ATOM      9  O   UNL     1      18.353   8.967  23.050  1.00  0.00    -0.550 OA
ENDBRANCH   6   7
ENDBRANCH   5   6
ENDBRANCH   4   5
ENDBRANCH   3   4
ENDBRANCH   2   3
ENDBRANCH   1   2
BRANCH   1  10
ATOM     10  C   UNL     1      20.280   1.518  25.643  1.00  0.00     0.000 C 
BRANCH  10  11
ATOM     11  C   UNL     1      21.121   1.580  24.354  1.00  0.00    -0.000 C 
BRANCH  11  12
ATOM     12  C   UNL     1      22.015   2.828  24.212  1.00  0.00    -0.000 C 
BRANCH  12  13
ATOM     13  C   UNL     1      23.065   3.014  25.326  1.00  0.00    -0.000 C 
BRANCH  13  14
ATOM     14  C   UNL     1      22.844   4.241  26.228  1.00  0.00    -0.000 C 
BRANCH  14  15
ATOM     15  C   UNL     1      22.597   3.865  27.696  1.00  0.00    -0.003 C 
ATOM     16  C   UNL     1      22.926   2.397  27.949  1.00  0.00     0.004 C 
ENDBRANCH  14  15
ENDBRANCH  13  14
ENDBRANCH  12  13
ENDBRANCH  11  12
ENDBRANCH  10  11
ENDBRANCH   1  10
TORSDOF 12
ENDMDL
MODEL 5
REMARK VINA RESULT:    -3.417      1.597      2.908
REMARK INTER + INTRA:          -7.530
REMARK INTER:                  -5.396
REMARK INTRA:                  -2.134
REMARK UNBOUND:                -1.716
REMARK SMILES CCCCCCCCCCCCCC(=O)[O-]
REMARK SMILES IDX 8 1 9 2 10 3 11 4 12 5 13 6 14 7 15 8 16 9 7 10 6 11 5 12
REMARK SMILES IDX 4 13 3 14 2 15 1 16
REMARK H PARENT
REMARK Flexibility Score: inf
ROOT
ATOM      1  C   UNL     1      19.507   1.510  26.772  1.00  0.00     0.000 C 
ENDROOT
BRANCH   1   2
ATOM      2  C   UNL     1      18.746   2.667  26.100  1.00  0.00     0.000 C 
BRANCH   2   3
ATOM      3  C   UNL     1      18.693   3.976  26.910  1.00  0.00     0.000 C 
BRANCH   3   4
ATOM      4  C   UNL     1      19.376   5.152  26.197  1.00  0.00     0.000 C 
BRANCH   4   5
ATOM      5  C   UNL     1      19.172   5.067  24.680  1.00  0.00     0.006 C 
BRANCH   5   6
ATOM      6  C   UNL     1      20.102   6.038  23.945  1.00  0.00     0.053 C 
BRANCH   6   7
ATOM      7  C   UNL     1      19.426   7.356  23.737  1.00  0.00     0.041 C 
ATOM      8  O   UNL     1      18.169   7.424  23.710  1.00  0.00    -0.550 OA
ATOM      9  O   UNL     1      20.184   8.500  23.524  1.00  0.00    -0.550 OA
ENDBRANCH   6   7
ENDBRANCH   5   6
ENDBRANCH   4   5
ENDBRANCH   3   4
ENDBRANCH   2   3
ENDBRANCH   1   2
BRANCH   1  10
ATOM     10  C   UNL     1      20.385   1.972  27.948  1.00  0.00     0.000 C 
BRANCH  10  11
ATOM     11  C   UNL     1      21.885   1.986  27.603  1.00  0.00    -0.000 C 
BRANCH  11  12
ATOM     12  C   UNL     1      22.542   3.381  27.579  1.00  0.00    -0.000 C 
BRANCH  12  13
ATOM     13  C   UNL     1      22.775   3.973  26.174  1.00  0.00    -0.000 C 
BRANCH  13  14
ATOM     14  C   UNL     1      23.061   2.936  25.073  1.00  0.00    -0.000 C 
BRANCH  14  15
ATOM     15  C   UNL     1      21.950   2.872  24.014  1.00  0.00    -0.003 C 
ATOM     16  C   UNL     1      21.454   1.441  23.825  1.00  0.00     0.004 C 
ENDBRANCH  14  15
ENDBRANCH  13  14
ENDBRANCH  12  13
ENDBRANCH  11  12
ENDBRANCH  10  11
ENDBRANCH   1  10
TORSDOF 12
ENDMDL
MODEL 6
REMARK VINA RESULT:    -3.351      1.008      1.811
REMARK INTER + INTRA:          -7.417
REMARK INTER:                  -6.075
REMARK INTRA:                  -1.342
REMARK UNBOUND:                -1.716
REMARK SMILES CCCCCCCCCCCCCC(=O)[O-]
REMARK SMILES IDX 8 1 9 2 10 3 11 4 12 5 13 6 14 7 15 8 16 9 7 10 6 11 5 12
REMARK SMILES IDX 4 13 3 14 2 15 1 16
REMARK H PARENT
REMARK Flexibility Score: inf
ROOT
ATOM      1  C   UNL     1      20.216   4.126  24.080  1.00  0.00     0.000 C 
ENDROOT
BRANCH   1   2
ATOM      2  C   UNL     1      20.368   5.584  24.552  1.00  0.00     0.000 C 
BRANCH   2   3
ATOM      3  C   UNL     1      19.092   6.224  25.128  1.00  0.00     0.000 C 
BRANCH   3   4
ATOM      4  C   UNL     1      18.236   6.922  24.061  1.00  0.00     0.000 C 
BRANCH   4   5
ATOM      5  C   UNL     1      18.207   8.439  24.286  1.00  0.00     0.006 C 
BRANCH   5   6
ATOM      6  C   UNL     1      18.337   9.194  22.959  1.00  0.00     0.053 C 
BRANCH   6   7
ATOM      7  C   UNL     1      19.777   9.357  22.588  1.00  0.00     0.041 C 
ATOM      8  O   UNL     1      20.108   9.495  21.381  1.00  0.00    -0.550 OA
ATOM      9  O   UNL     1      20.757   9.309  23.571  1.00  0.00    -0.550 OA
ENDBRANCH   6   7
ENDBRANCH   5   6
ENDBRANCH   4   5
ENDBRANCH   3   4
ENDBRANCH   2   3
ENDBRANCH   1   2
BRANCH   1  10
ATOM     10  C   UNL     1      21.554   3.485  23.675  1.00  0.00     0.000 C 
BRANCH  10  11
ATOM     11  C   UNL     1      21.630   1.988  24.029  1.00  0.00    -0.000 C 
BRANCH  11  12
ATOM     12  C   UNL     1      20.999   1.599  25.380  1.00  0.00    -0.000 C 
BRANCH  12  13
ATOM     13  C   UNL     1      21.919   1.763  26.607  1.00  0.00    -0.000 C 
BRANCH  13  14
ATOM     14  C   UNL     1      21.574   2.952  27.522  1.00  0.00    -0.000 C 
BRANCH  14  15
ATOM     15  C   UNL     1      22.403   4.205  27.208  1.00  0.00    -0.003 C 
ATOM     16  C   UNL     1      23.784   3.831  26.677  1.00  0.00     0.004 C 
ENDBRANCH  14  15
ENDBRANCH  13  14
ENDBRANCH  12  13
ENDBRANCH  11  12
ENDBRANCH  10  11
ENDBRANCH   1  10
TORSDOF 12
ENDMDL
MODEL 7
REMARK VINA RESULT:    -3.340      3.578      6.842
REMARK INTER + INTRA:          -7.398
REMARK INTER:                  -5.852
REMARK INTRA:                  -1.546
REMARK UNBOUND:                -1.716
REMARK SMILES CCCCCCCCCCCCCC(=O)[O-]
REMARK SMILES IDX 8 1 9 2 10 3 11 4 12 5 13 6 14 7 15 8 16 9 7 10 6 11 5 12
REMARK SMILES IDX 4 13 3 14 2 15 1 16
REMARK H PARENT
REMARK Flexibility Score: inf
ROOT
ATOM      1  C   UNL     1      20.507   7.641  24.997  1.00  0.00     0.000 C 
ENDROOT
BRANCH   1   2
ATOM      2  C   UNL     1      20.111   6.553  23.981  1.00  0.00     0.000 C 
BRANCH   2   3
ATOM      3  C   UNL     1      19.124   5.494  24.505  1.00  0.00     0.000 C 
BRANCH   3   4
ATOM      4  C   UNL     1      19.718   4.079  24.529  1.00  0.00     0.000 C 
BRANCH   4   5
ATOM      5  C   UNL     1      21.215   4.106  24.200  1.00  0.00     0.006 C 
BRANCH   5   6
ATOM      6  C   UNL     1      21.649   2.813  23.502  1.00  0.00     0.053 C 
BRANCH   6   7
ATOM      7  C   UNL     1      21.485   1.643  24.420  1.00  0.00     0.041 C 
ATOM      8  O   UNL     1      20.768   0.666  24.078  1.00  0.00    -0.550 OA
ATOM      9  O   UNL     1      22.084   1.653  25.672  1.00  0.00    -0.550 OA
ENDBRANCH   6   7
ENDBRANCH   5   6
ENDBRANCH   4   5
ENDBRANCH   3   4
ENDBRANCH   2   3
ENDBRANCH   1   2
BRANCH   1  10
ATOM     10  C   UNL     1      20.495   9.056  24.394  1.00  0.00     0.000 C 
BRANCH  10  11
ATOM     11  C   UNL     1      20.081   9.070  22.911  1.00  0.00    -0.000 C 
BRANCH  11  12
ATOM     12  C   UNL     1      18.728   9.747  22.612  1.00  0.00    -0.000 C 
BRANCH  12  13
ATOM     13  C   UNL     1      17.659   9.592  23.712  1.00  0.00    -0.000 C 
BRANCH  13  14
ATOM     14  C   UNL     1      16.844   8.288  23.645  1.00  0.00    -0.000 C 
BRANCH  14  15
ATOM     15  C   UNL     1      16.218   7.907  24.994  1.00  0.00    -0.003 C 
ATOM     16  C   UNL     1      17.098   8.362  26.155  1.00  0.00     0.004 C 
ENDBRANCH  14  15
ENDBRANCH  13  14
ENDBRANCH  12  13
ENDBRANCH  11  12
ENDBRANCH  10  11
ENDBRANCH   1  10
TORSDOF 12
ENDMDL
MODEL 8
REMARK VINA RESULT:    -3.318      1.252      2.350
REMARK INTER + INTRA:          -7.361
REMARK INTER:                  -5.530
REMARK INTRA:                  -1.832
REMARK UNBOUND:                -1.716
REMARK SMILES CCCCCCCCCCCCCC(=O)[O-]
REMARK SMILES IDX 8 1 9 2 10 3 11 4 12 5 13 6 14 7 15 8 16 9 7 10 6 11 5 12
REMARK SMILES IDX 4 13 3 14 2 15 1 16
REMARK H PARENT
REMARK Flexibility Score: inf
ROOT
ATOM      1  C   UNL     1      21.264   3.153  23.613  1.00  0.00     0.000 C 
ENDROOT
BRANCH   1   2
ATOM      2  C   UNL     1      21.012   4.510  24.296  1.00  0.00     0.000 C 
BRANCH   2   3
ATOM      3  C   UNL     1      19.537   4.946  24.365  1.00  0.00     0.000 C 
BRANCH   3   4
ATOM      4  C   UNL     1      19.216   5.782  25.612  1.00  0.00     0.000 C 
BRANCH   4   5
ATOM      5  C   UNL     1      18.833   7.217  25.228  1.00  0.00     0.006 C 
BRANCH   5   6
ATOM      6  C   UNL     1      19.051   7.462  23.731  1.00  0.00     0.053 C 
BRANCH   6   7
ATOM      7  C   UNL     1      20.077   8.531  23.520  1.00  0.00     0.041 C 
ATOM      8  O   UNL     1      20.919   8.786  24.421  1.00  0.00    -0.550 OA
ATOM      9  O   UNL     1      20.072   9.276  22.349  1.00  0.00    -0.550 OA
ENDBRANCH   6   7
ENDBRANCH   5   6
ENDBRANCH   4   5
ENDBRANCH   3   4
ENDBRANCH   2   3
ENDBRANCH   1   2
BRANCH   1  10
ATOM     10  C   UNL     1      22.383   2.342  24.288  1.00  0.00     0.000 C 
BRANCH  10  11
ATOM     11  C   UNL     1      22.979   3.054  25.517  1.00  0.00    -0.000 C 
BRANCH  11  12
ATOM     12  C   UNL     1      22.610   2.434  26.880  1.00  0.00    -0.000 C 
BRANCH  12  13
ATOM     13  C   UNL     1      21.698   3.302  27.771  1.00  0.00    -0.000 C 
BRANCH  13  14
ATOM     14  C   UNL     1      20.203   2.939  27.718  1.00  0.00    -0.000 C 
BRANCH  14  15
ATOM     15  C   UNL     1      19.941   1.602  27.011  1.00  0.00    -0.003 C 
ATOM     16  C   UNL     1      18.751   1.708  26.061  1.00  0.00     0.004 C 
ENDBRANCH  14  15
ENDBRANCH  13  14
ENDBRANCH  12  13
ENDBRANCH  11  12
ENDBRANCH  10  11
ENDBRANCH   1  10
TORSDOF 12
ENDMDL
MODEL 9
REMARK VINA RESULT:    -3.283      1.555      3.221
REMARK INTER + INTRA:          -7.302
REMARK INTER:                  -5.772
REMARK INTRA:                  -1.530
REMARK UNBOUND:                -1.716
REMARK SMILES CCCCCCCCCCCCCC(=O)[O-]
REMARK SMILES IDX 8 1 9 2 10 3 11 4 12 5 13 6 14 7 15 8 16 9 7 10 6 11 5 12
REMARK SMILES IDX 4 13 3 14 2 15 1 16
REMARK H PARENT
REMARK Flexibility Score: inf
ROOT
ATOM      1  C   UNL     1      19.726   5.008  25.341  1.00  0.00     0.000 C 
ENDROOT
BRANCH   1   2
ATOM      2  C   UNL     1      20.829   5.437  26.327  1.00  0.00     0.000 C 
BRANCH   2   3
ATOM      3  C   UNL     1      21.229   6.922  26.258  1.00  0.00     0.000 C 
BRANCH   3   4
ATOM      4  C   UNL     1      20.047   7.875  26.485  1.00  0.00     0.000 C 
BRANCH   4   5
ATOM      5  C   UNL     1      20.168   9.121  25.599  1.00  0.00     0.006 C 
BRANCH   5   6
ATOM      6  C   UNL     1      20.663   8.753  24.196  1.00  0.00     0.053 C 
BRANCH   6   7
ATOM      7  C   UNL     1      19.780   9.361  23.153  1.00  0.00     0.041 C 
ATOM      8  O   UNL     1      18.608   9.716  23.445  1.00  0.00    -0.550 OA
ATOM      9  O   UNL     1      20.236   9.492  21.848  1.00  0.00    -0.550 OA
ENDBRANCH   6   7
ENDBRANCH   5   6
ENDBRANCH   4   5
ENDBRANCH   3   4
ENDBRANCH   2   3
ENDBRANCH   1   2
BRANCH   1  10
ATOM     10  C   UNL     1      20.285   4.516  23.995  1.00  0.00     0.000 C 
BRANCH  10  11
ATOM     11  C   UNL     1      21.623   3.769  24.141  1.00  0.00    -0.000 C 
BRANCH  11  12
ATOM     12  C   UNL     1      21.640   2.332  23.584  1.00  0.00    -0.000 C 
BRANCH  12  13
ATOM     13  C   UNL     1      21.167   1.241  24.566  1.00  0.00    -0.000 C 
BRANCH  13  14
ATOM     14  C   UNL     1      21.448   1.539  26.050  1.00  0.00    -0.000 C 
BRANCH  14  15
ATOM     15  C   UNL     1      20.174   1.547  26.907  1.00  0.00    -0.003 C 
ATOM     16  C   UNL     1      18.924   1.511  26.033  1.00  0.00     0.004 C 
ENDBRANCH  14  15
ENDBRANCH  13  14
ENDBRANCH  12  13
ENDBRANCH  11  12
ENDBRANCH  10  11
ENDBRANCH   1  10
TORSDOF 12
ENDMDL
