MODEL 1
REMARK VINA RESULT:    -3.917      0.000      0.000
REMARK INTER + INTRA:          -4.310
REMARK INTER:                  -4.146
REMARK INTRA:                  -0.165
REMARK UNBOUND:                -0.165
REMARK SMILES CC(C)[C@@H]1CC[C@H](C)CC1=O
REMARK SMILES IDX 8 1 7 2 6 3 5 4 4 5 10 6 11 7 9 8 2 9 1 10 3 11
REMARK H PARENT
REMARK Flexibility Score: inf
ROOT
ATOM      1  C   UNL     1     -12.225  83.972  -7.144  1.00  0.00     0.008 C 
ATOM      2  C   UNL     1     -13.582  84.081  -7.856  1.00  0.00    -0.007 C 
ATOM      3  C   UNL     1     -13.455  84.770  -9.236  1.00  0.00     0.004 C 
ATOM      4  C   UNL     1     -12.767  83.883 -10.293  1.00  0.00     0.012 C 
ATOM      5  C   UNL     1     -13.471  82.514 -10.448  1.00  0.00     0.058 C 
ATOM      6  C   UNL     1     -13.589  81.901  -9.063  1.00  0.00     0.136 C 
ATOM      7  O   UNL     1     -13.077  80.826  -8.785  1.00  0.00    -0.299 OA
ATOM      8  C   UNL     1     -14.263  82.705  -7.989  1.00  0.00     0.079 C 
ENDROOT
BRANCH   5   9
ATOM      9  C   UNL     1     -12.763  81.568 -11.474  1.00  0.00    -0.007 C 
ATOM     10  C   UNL     1     -13.373  81.729 -12.880  1.00  0.00     0.008 C 
ATOM     11  C   UNL     1     -11.248  81.821 -11.569  1.00  0.00     0.008 C 
ENDBRANCH   5   9
TORSDOF 1
ENDMDL
MODEL 2
REMARK VINA RESULT:    -3.790      7.580      8.938
REMARK INTER + INTRA:          -4.176
REMARK INTER:                  -4.010
REMARK INTRA:                  -0.166
REMARK UNBOUND:                -0.165
REMARK SMILES CC(C)[C@@H]1CC[C@H](C)CC1=O
REMARK SMILES IDX 8 1 7 2 6 3 5 4 4 5 10 6 11 7 9 8 2 9 1 10 3 11
REMARK H PARENT
REMARK Flexibility Score: inf
ROOT
ATOM      1  C   UNL     1      -3.382  81.749  -7.513  1.00  0.00     0.008 C 
ATOM      2  C   UNL     1      -2.939  82.655  -8.672  1.00  0.00    -0.007 C 
ATOM      3  C   UNL     1      -3.767  82.396  -9.953  1.00  0.00     0.004 C 
ATOM      4  C   UNL     1      -5.214  82.922  -9.855  1.00  0.00     0.012 C 
ATOM      5  C   UNL     1      -5.260  84.426  -9.489  1.00  0.00     0.058 C 
ATOM      6  C   UNL     1      -4.411  84.619  -8.243  1.00  0.00     0.136 C 
ATOM      7  O   UNL     1      -4.878  85.063  -7.204  1.00  0.00    -0.299 OA
ATOM      8  C   UNL     1      -2.988  84.143  -8.277  1.00  0.00     0.079 C 
ENDROOT
BRANCH   5   9
ATOM      9  C   UNL     1      -6.715  84.977  -9.325  1.00  0.00    -0.007 C 
ATOM     10  C   UNL     1      -6.976  86.136 -10.308  1.00  0.00     0.008 C 
ATOM     11  C   UNL     1      -7.789  83.897  -9.549  1.00  0.00     0.008 C 
ENDBRANCH   5   9
TORSDOF 1
ENDMDL
MODEL 3
REMARK VINA RESULT:    -3.775      7.905      9.074
REMARK INTER + INTRA:          -4.161
REMARK INTER:                  -3.990
REMARK INTRA:                  -0.171
REMARK UNBOUND:                -0.165
REMARK SMILES CC(C)[C@@H]1CC[C@H](C)CC1=O
REMARK SMILES IDX 8 1 7 2 6 3 5 4 4 5 10 6 11 7 9 8 2 9 1 10 3 11
REMARK H PARENT
REMARK Flexibility Score: inf
ROOT
ATOM      1  C   UNL     1      -6.104  86.790  -8.285  1.00  0.00     0.008 C 
ATOM      2  C   UNL     1      -5.052  86.573  -9.384  1.00  0.00    -0.007 C 
ATOM      3  C   UNL     1      -3.667  86.220  -8.794  1.00  0.00     0.004 C 
ATOM      4  C   UNL     1      -3.606  84.798  -8.202  1.00  0.00     0.012 C 
ATOM      5  C   UNL     1      -4.032  83.723  -9.231  1.00  0.00     0.058 C 
ATOM      6  C   UNL     1      -5.382  84.137  -9.791  1.00  0.00     0.136 C 
ATOM      7  O   UNL     1      -6.374  83.430  -9.681  1.00  0.00    -0.299 OA
ATOM      8  C   UNL     1      -5.507  85.505 -10.397  1.00  0.00     0.079 C 
ENDROOT
BRANCH   5   9
ATOM      9  C   UNL     1      -4.035  82.272  -8.644  1.00  0.00    -0.007 C 
ATOM     10  C   UNL     1      -2.699  81.561  -8.932  1.00  0.00     0.008 C 
ATOM     11  C   UNL     1      -4.283  82.246  -7.125  1.00  0.00     0.008 C 
ENDBRANCH   5   9
TORSDOF 1
ENDMDL
MODEL 4
REMARK VINA RESULT:    -3.706      7.785      8.994
REMARK INTER + INTRA:          -4.087
REMARK INTER:                  -3.924
REMARK INTRA:                  -0.163
REMARK UNBOUND:                -0.165
REMARK SMILES CC(C)[C@@H]1CC[C@H](C)CC1=O
REMARK SMILES IDX 8 1 7 2 6 3 5 4 4 5 10 6 11 7 9 8 2 9 1 10 3 11
REMARK H PARENT
REMARK Flexibility Score: inf
ROOT
ATOM      1  C   UNL     1      -5.913  86.399 -10.458  1.00  0.00     0.008 C 
ATOM      2  C   UNL     1      -6.415  85.683  -9.195  1.00  0.00    -0.007 C 
ATOM      3  C   UNL     1      -6.815  84.217  -9.484  1.00  0.00     0.004 C 
ATOM      4  C   UNL     1      -5.603  83.299  -9.743  1.00  0.00     0.012 C 
ATOM      5  C   UNL     1      -4.580  83.350  -8.582  1.00  0.00     0.058 C 
ATOM      6  C   UNL     1      -4.248  84.811  -8.330  1.00  0.00     0.136 C 
ATOM      7  O   UNL     1      -3.109  85.243  -8.431  1.00  0.00    -0.299 OA
ATOM      8  C   UNL     1      -5.381  85.756  -8.056  1.00  0.00     0.079 C 
ENDROOT
BRANCH   5   9
ATOM      9  C   UNL     1      -3.311  82.472  -8.839  1.00  0.00    -0.007 C 
ATOM     10  C   UNL     1      -3.059  81.513  -7.660  1.00  0.00     0.008 C 
ATOM     11  C   UNL     1      -3.414  81.640 -10.130  1.00  0.00     0.008 C 
ENDBRANCH   5   9
TORSDOF 1
ENDMDL
MODEL 5
REMARK VINA RESULT:    -3.694      8.716     10.232
REMARK INTER + INTRA:          -4.075
REMARK INTER:                  -3.930
REMARK INTRA:                  -0.145
REMARK UNBOUND:                -0.165
REMARK SMILES CC(C)[C@@H]1CC[C@H](C)CC1=O
REMARK SMILES IDX 8 1 7 2 6 3 5 4 4 5 10 6 11 7 9 8 2 9 1 10 3 11
REMARK H PARENT
REMARK Flexibility Score: inf
ROOT
ATOM      1  C   UNL     1      -3.763  82.401  -9.873  1.00  0.00     0.008 C 
ATOM      2  C   UNL     1      -4.591  82.851  -8.659  1.00  0.00    -0.007 C 
ATOM      3  C   UNL     1      -3.693  83.278  -7.475  1.00  0.00     0.004 C 
ATOM      4  C   UNL     1      -2.976  84.622  -7.713  1.00  0.00     0.012 C 
ATOM      5  C   UNL     1      -3.972  85.757  -8.058  1.00  0.00     0.058 C 
ATOM      6  C   UNL     1      -4.839  85.269  -9.206  1.00  0.00     0.136 C 
ATOM      7  O   UNL     1      -4.878  85.851 -10.281  1.00  0.00    -0.299 OA
ATOM      8  C   UNL     1      -5.578  83.974  -9.034  1.00  0.00     0.079 C 
ENDROOT
BRANCH   5   9
ATOM      9  C   UNL     1      -3.271  87.122  -8.361  1.00  0.00    -0.007 C 
ATOM     10  C   UNL     1      -4.133  88.302  -7.871  1.00  0.00     0.008 C 
ATOM     11  C   UNL     1      -1.879  87.234  -7.712  1.00  0.00     0.008 C 
ENDBRANCH   5   9
TORSDOF 1
ENDMDL
MODEL 6
REMARK VINA RESULT:    -3.642      8.307      9.780
REMARK INTER + INTRA:          -4.020
REMARK INTER:                  -3.873
REMARK INTRA:                  -0.146
REMARK UNBOUND:                -0.165
REMARK SMILES CC(C)[C@@H]1CC[C@H](C)CC1=O
REMARK SMILES IDX 8 1 7 2 6 3 5 4 4 5 10 6 11 7 9 8 2 9 1 10 3 11
REMARK H PARENT
REMARK Flexibility Score: inf
ROOT
ATOM      1  C   UNL     1      -6.954  83.641  -8.933  1.00  0.00     0.008 C 
ATOM      2  C   UNL     1      -5.735  83.757  -9.860  1.00  0.00    -0.007 C 
ATOM      3  C   UNL     1      -5.620  85.167 -10.486  1.00  0.00     0.004 C 
ATOM      4  C   UNL     1      -5.180  86.244  -9.474  1.00  0.00     0.012 C 
ATOM      5  C   UNL     1      -3.855  85.869  -8.767  1.00  0.00     0.058 C 
ATOM      6  C   UNL     1      -4.021  84.470  -8.198  1.00  0.00     0.136 C 
ATOM      7  O   UNL     1      -3.917  84.242  -7.001  1.00  0.00    -0.299 OA
ATOM      8  C   UNL     1      -4.433  83.371  -9.133  1.00  0.00     0.079 C 
ENDROOT
BRANCH   5   9
ATOM      9  C   UNL     1      -3.411  86.916  -7.692  1.00  0.00    -0.007 C 
ATOM     10  C   UNL     1      -1.875  87.038  -7.648  1.00  0.00     0.008 C 
ATOM     11  C   UNL     1      -4.004  88.314  -7.942  1.00  0.00     0.008 C 
ENDBRANCH   5   9
TORSDOF 1
ENDMDL
MODEL 7
REMARK VINA RESULT:    -3.586     13.129     14.131
REMARK INTER + INTRA:          -3.961
REMARK INTER:                  -3.790
REMARK INTRA:                  -0.171
REMARK UNBOUND:                -0.165
REMARK SMILES CC(C)[C@@H]1CC[C@H](C)CC1=O
REMARK SMILES IDX 8 1 7 2 6 3 5 4 4 5 10 6 11 7 9 8 2 9 1 10 3 11
REMARK H PARENT
REMARK Flexibility Score: inf
ROOT
ATOM      1  C   UNL     1      -4.125  91.979 -13.176  1.00  0.00     0.008 C 
ATOM      2  C   UNL     1      -3.991  90.820 -14.176  1.00  0.00    -0.007 C 
ATOM      3  C   UNL     1      -5.370  90.322 -14.670  1.00  0.00     0.004 C 
ATOM      4  C   UNL     1      -6.060  91.311 -15.631  1.00  0.00     0.012 C 
ATOM      5  C   UNL     1      -5.161  91.667 -16.840  1.00  0.00     0.058 C 
ATOM      6  C   UNL     1      -3.819  92.122 -16.293  1.00  0.00     0.136 C 
ATOM      7  O   UNL     1      -3.373  93.239 -16.517  1.00  0.00    -0.299 OA
ATOM      8  C   UNL     1      -3.086  91.200 -15.363  1.00  0.00     0.079 C 
ENDROOT
BRANCH   5   9
ATOM      9  C   UNL     1      -5.812  92.713 -17.806  1.00  0.00    -0.007 C 
ATOM     10  C   UNL     1      -6.116  92.077 -19.177  1.00  0.00     0.008 C 
ATOM     11  C   UNL     1      -7.114  93.311 -17.246  1.00  0.00     0.008 C 
ENDBRANCH   5   9
TORSDOF 1
ENDMDL
MODEL 8
REMARK VINA RESULT:    -3.515     12.045     13.387
REMARK INTER + INTRA:          -3.885
REMARK INTER:                  -3.730
REMARK INTRA:                  -0.156
REMARK UNBOUND:                -0.165
REMARK SMILES CC(C)[C@@H]1CC[C@H](C)CC1=O
REMARK SMILES IDX 8 1 7 2 6 3 5 4 4 5 10 6 11 7 9 8 2 9 1 10 3 11
REMARK H PARENT
REMARK Flexibility Score: inf
ROOT
ATOM      1  C   UNL     1      -5.756  91.788 -17.027  1.00  0.00     0.008 C 
ATOM      2  C   UNL     1      -4.920  90.717 -16.311  1.00  0.00    -0.007 C 
ATOM      3  C   UNL     1      -3.601  91.297 -15.748  1.00  0.00     0.004 C 
ATOM      4  C   UNL     1      -3.816  92.207 -14.522  1.00  0.00     0.012 C 
ATOM      5  C   UNL     1      -4.602  91.490 -13.398  1.00  0.00     0.058 C 
ATOM      6  C   UNL     1      -5.868  90.922 -14.016  1.00  0.00     0.136 C 
ATOM      7  O   UNL     1      -6.981  91.253 -13.632  1.00  0.00    -0.299 OA
ATOM      8  C   UNL     1      -5.729  90.015 -15.204  1.00  0.00     0.079 C 
ENDROOT
BRANCH   5   9
ATOM      9  C   UNL     1      -4.886  92.406 -12.162  1.00  0.00    -0.007 C 
ATOM     10  C   UNL     1      -4.732  91.617 -10.847  1.00  0.00     0.008 C 
ATOM     11  C   UNL     1      -3.958  93.633 -12.104  1.00  0.00     0.008 C 
ENDBRANCH   5   9
TORSDOF 1
ENDMDL
MODEL 9
REMARK VINA RESULT:    -2.833     12.374     13.412
REMARK INTER + INTRA:          -3.164
REMARK INTER:                  -2.998
REMARK INTRA:                  -0.166
REMARK UNBOUND:                -0.165
REMARK SMILES CC(C)[C@@H]1CC[C@H](C)CC1=O
REMARK SMILES IDX 8 1 7 2 6 3 5 4 4 5 10 6 11 7 9 8 2 9 1 10 3 11
REMARK H PARENT
REMARK Flexibility Score: inf
ROOT
ATOM      1  C   UNL     1      -7.488  91.324 -13.881  1.00  0.00     0.008 C 
ATOM      2  C   UNL     1      -6.424  90.225 -13.745  1.00  0.00    -0.007 C 
ATOM      3  C   UNL     1      -5.981  89.678 -15.122  1.00  0.00     0.004 C 
ATOM      4  C   UNL     1      -5.112  90.673 -15.917  1.00  0.00     0.012 C 
ATOM      5  C   UNL     1      -3.875  91.136 -15.109  1.00  0.00     0.058 C 
ATOM      6  C   UNL     1      -4.371  91.636 -13.762  1.00  0.00     0.136 C 
ATOM      7  O   UNL     1      -4.181  92.785 -13.388  1.00  0.00    -0.299 OA
ATOM      8  C   UNL     1      -5.210  90.711 -12.930  1.00  0.00     0.079 C 
ENDROOT
BRANCH   5   9
ATOM      9  C   UNL     1      -3.002  92.191 -15.866  1.00  0.00    -0.007 C 
ATOM     10  C   UNL     1      -1.875  91.501 -16.659  1.00  0.00     0.008 C 
ATOM     11  C   UNL     1      -3.824  93.055 -16.839  1.00  0.00     0.008 C 
ENDBRANCH   5   9
TORSDOF 1
ENDMDL
