MODEL 1
REMARK VINA RESULT:    -0.744      0.000      0.000
REMARK INTER + INTRA:          -1.063
REMARK INTER:                  -1.006
REMARK INTRA:                  -0.058
REMARK UNBOUND:                -0.058
REMARK SMILES C=C1CCC=C(C)CC[C@@H]2[C@@H]1CC2(C)C
REMARK SMILES IDX 11 1 12 2 13 3 10 4 14 5 15 6 9 7 8 8 6 9 7 10 5 11 2 13
REMARK SMILES IDX 1 14 3 15 4 16
REMARK H PARENT
REMARK Flexibility Score: 70.00
ROOT
ATOM      1  C   UNL     1       5.198   7.289  11.714  1.00  0.00     0.018 C 
ATOM      2  C   UNL     1       4.001   7.861  10.944  1.00  0.00     0.015 C 
ATOM      3  C   UNL     1       4.057   9.146  11.783  1.00  0.00    -0.031 C 
ATOM      4  C   UNL     1       5.216   8.540  12.613  1.00  0.00     0.002 C 
ATOM      5  C   UNL     1       4.389  10.391  10.937  1.00  0.00     0.011 C 
ATOM      6  C   UNL     1       2.780   9.362  12.617  1.00  0.00     0.011 C 
ENDROOT
BRANCH   4   7
ATOM      7  C   UNL     1       6.571   9.279  12.606  1.00  0.00     0.009 C 
BRANCH   7   8
ATOM      8  C   UNL     1       7.399   8.979  13.866  1.00  0.00     0.030 C 
BRANCH   8   9
ATOM      9  C   UNL     1       8.353   7.816  13.667  1.00  0.00    -0.077 C 
ATOM     10  C   UNL     1       9.782   8.122  13.304  1.00  0.00     0.039 C 
ATOM     11  C   UNL     1       8.007   6.518  13.845  1.00  0.00    -0.028 CG0
ATOM     12  G   UNL     1       6.644   6.000  14.251  1.00  0.00     0.000 G0
ENDBRANCH   8   9
ENDBRANCH   7   8
ENDBRANCH   4   7
BRANCH   1  13
ATOM     13  C   UNL     1       4.919   5.945  12.376  1.00  0.00    -0.074 C 
ATOM     14  C   UNL     1       3.717   5.382  12.168  1.00  0.00     0.008 C 
BRANCH  13  15
ATOM     15  C   UNL     1       5.983   5.156  13.122  1.00  0.00     0.035 C 
BRANCH  15  16
ATOM     16  C   UNL     1       6.643   5.980  14.246  1.00  0.00     0.032 CG0
ATOM     17  G   UNL     1       8.003   6.513  13.850  1.00  0.00     0.000 G0
ENDBRANCH  15  16
ENDBRANCH  13  15
ENDBRANCH   1  13
TORSDOF 0
ENDMDL
MODEL 2
REMARK VINA RESULT:    -0.413      2.529      4.538
REMARK INTER + INTRA:          -0.616
REMARK INTER:                  -0.729
REMARK INTRA:                   0.114
REMARK UNBOUND:                -0.058
REMARK SMILES C=C1CCC=C(C)CC[C@@H]2[C@@H]1CC2(C)C
REMARK SMILES IDX 11 1 12 2 13 3 10 4 14 5 15 6 9 7 8 8 6 9 7 10 5 11 2 13
REMARK SMILES IDX 1 14 3 15 4 16
REMARK H PARENT
REMARK Flexibility Score: 70.00
ROOT
ATOM      1  C   UNL     1       2.303  11.240  11.852  1.00  0.00     0.018 C 
ATOM      2  C   UNL     1       2.135  12.763  11.929  1.00  0.00     0.015 C 
ATOM      3  C   UNL     1       3.652  12.936  12.096  1.00  0.00    -0.031 C 
ATOM      4  C   UNL     1       3.816  11.396  12.096  1.00  0.00     0.002 C 
ATOM      5  C   UNL     1       4.294  13.700  10.920  1.00  0.00     0.011 C 
ATOM      6  C   UNL     1       4.028  13.572  13.447  1.00  0.00     0.011 C 
ENDROOT
BRANCH   4   7
ATOM      7  C   UNL     1       4.683  10.763  10.987  1.00  0.00     0.009 C 
BRANCH   7   8
ATOM      8  C   UNL     1       4.464   9.245  10.879  1.00  0.00     0.030 C 
BRANCH   8   9
ATOM      9  C   UNL     1       4.933   8.505  12.117  1.00  0.00    -0.077 C 
ATOM     10  C   UNL     1       6.413   8.292  12.301  1.00  0.00     0.039 C 
ATOM     11  C   UNL     1       4.102   8.067  13.094  1.00  0.00    -0.028 CG0
ATOM     12  G   UNL     1       2.596   8.217  13.125  1.00  0.00     0.000 G0
ENDBRANCH   8   9
ENDBRANCH   7   8
ENDBRANCH   4   7
BRANCH   1  13
ATOM     13  C   UNL     1       1.493  10.478  12.893  1.00  0.00    -0.074 C 
ATOM     14  C   UNL     1       0.155  10.606  12.862  1.00  0.00     0.008 C 
BRANCH  13  15
ATOM     15  C   UNL     1       2.114   9.475  13.851  1.00  0.00     0.035 C 
BRANCH  15  16
ATOM     16  C   UNL     1       2.594   8.198  13.132  1.00  0.00     0.032 CG0
ATOM     17  G   UNL     1       4.103   8.084  13.103  1.00  0.00     0.000 G0
ENDBRANCH  15  16
ENDBRANCH  13  15
ENDBRANCH   1  13
TORSDOF 0
ENDMDL
MODEL 3
REMARK VINA RESULT:    -0.098      4.412      6.955
REMARK INTER + INTRA:          -0.191
REMARK INTER:                  -0.175
REMARK INTRA:                  -0.016
REMARK UNBOUND:                -0.058
REMARK SMILES C=C1CCC=C(C)CC[C@@H]2[C@@H]1CC2(C)C
REMARK SMILES IDX 11 1 12 2 13 3 10 4 14 5 15 6 9 7 8 8 6 9 7 10 5 11 2 13
REMARK SMILES IDX 1 14 3 15 4 16
REMARK H PARENT
REMARK Flexibility Score: 70.00
ROOT
ATOM      1  C   UNL     1       2.318  10.985  12.822  1.00  0.00     0.018 C 
ATOM      2  C   UNL     1       2.638   9.507  13.082  1.00  0.00     0.015 C 
ATOM      3  C   UNL     1       3.796   9.567  12.076  1.00  0.00    -0.031 C 
ATOM      4  C   UNL     1       3.426  11.036  11.754  1.00  0.00     0.002 C 
ATOM      5  C   UNL     1       5.168   9.327  12.737  1.00  0.00     0.011 C 
ATOM      6  C   UNL     1       3.582   8.625  10.875  1.00  0.00     0.011 C 
ENDROOT
BRANCH   4   7
ATOM      7  C   UNL     1       4.488  12.123  12.027  1.00  0.00     0.009 C 
BRANCH   7   8
ATOM      8  C   UNL     1       4.346  13.320  11.074  1.00  0.00     0.030 C 
BRANCH   8   9
ATOM      9  C   UNL     1       3.476  14.419  11.654  1.00  0.00    -0.077 C 
ATOM     10  C   UNL     1       4.156  15.613  12.272  1.00  0.00     0.039 C 
ATOM     11  C   UNL     1       2.122  14.415  11.603  1.00  0.00    -0.028 CG0
ATOM     12  G   UNL     1       1.250  13.340  10.991  1.00  0.00     0.000 G0
ENDBRANCH   8   9
ENDBRANCH   7   8
ENDBRANCH   4   7
BRANCH   1  13
ATOM     13  C   UNL     1       0.884  11.234  12.367  1.00  0.00    -0.074 C 
ATOM     14  C   UNL     1       0.028  10.199  12.402  1.00  0.00     0.008 C 
BRANCH  13  15
ATOM     15  C   UNL     1       0.354  12.617  12.028  1.00  0.00     0.035 C 
BRANCH  15  16
ATOM     16  C   UNL     1       1.230  13.339  10.983  1.00  0.00     0.032 CG0
ATOM     17  G   UNL     1       2.109  14.403  11.603  1.00  0.00     0.000 G0
ENDBRANCH  15  16
ENDBRANCH  13  15
ENDBRANCH   1  13
TORSDOF 0
ENDMDL
MODEL 4
REMARK VINA RESULT:     1.305      4.294      6.816
REMARK INTER + INTRA:           1.705
REMARK INTER:                   1.259
REMARK INTRA:                   0.446
REMARK UNBOUND:                -0.058
REMARK SMILES C=C1CCC=C(C)CC[C@@H]2[C@@H]1CC2(C)C
REMARK SMILES IDX 11 1 12 2 13 3 10 4 14 5 15 6 9 7 8 8 6 9 7 10 5 11 2 13
REMARK SMILES IDX 1 14 3 15 4 16
REMARK H PARENT
REMARK Flexibility Score: 70.00
ROOT
ATOM      1  C   UNL     1       2.243  13.350  11.098  1.00  0.00     0.018 C 
ATOM      2  C   UNL     1       2.521  14.846  10.895  1.00  0.00     0.015 C 
ATOM      3  C   UNL     1       3.590  14.811  11.997  1.00  0.00    -0.031 C 
ATOM      4  C   UNL     1       3.257  13.321  12.257  1.00  0.00     0.002 C 
ATOM      5  C   UNL     1       5.002  15.122  11.461  1.00  0.00     0.011 C 
ATOM      6  C   UNL     1       3.234  15.715  13.192  1.00  0.00     0.011 C 
ENDROOT
BRANCH   4   7
ATOM      7  C   UNL     1       4.385  12.285  12.057  1.00  0.00     0.009 C 
BRANCH   7   8
ATOM      8  C   UNL     1       4.013  11.222  11.010  1.00  0.00     0.030 C 
BRANCH   8   9
ATOM      9  C   UNL     1       3.373   9.996  11.635  1.00  0.00    -0.077 C 
ATOM     10  C   UNL     1       4.256   9.043  12.397  1.00  0.00     0.039 C 
ATOM     11  C   UNL     1       2.044   9.734  11.590  1.00  0.00    -0.028 CG0
ATOM     12  G   UNL     1       0.984  10.580  10.919  1.00  0.00     0.000 G0
ENDBRANCH   8   9
ENDBRANCH   7   8
ENDBRANCH   4   7
BRANCH   1  13
ATOM     13  C   UNL     1       0.788  13.033  11.422  1.00  0.00    -0.074 C 
ATOM     14  C   UNL     1      -0.119  14.010  11.253  1.00  0.00     0.008 C 
BRANCH  13  15
ATOM     15  C   UNL     1       0.307  11.635  11.775  1.00  0.00     0.035 C 
BRANCH  15  16
ATOM     16  C   UNL     1       0.957  10.551  10.889  1.00  0.00     0.032 CG0
ATOM     17  G   UNL     1       2.023   9.768  11.624  1.00  0.00     0.000 G0
ENDBRANCH  15  16
ENDBRANCH  13  15
ENDBRANCH   1  13
TORSDOF 0
ENDMDL
MODEL 5
REMARK VINA RESULT:     1.985      5.311      7.657
REMARK INTER + INTRA:           2.623
REMARK INTER:                   1.849
REMARK INTRA:                   0.775
REMARK UNBOUND:                -0.058
REMARK SMILES C=C1CCC=C(C)CC[C@@H]2[C@@H]1CC2(C)C
REMARK SMILES IDX 11 1 12 2 13 3 10 4 14 5 15 6 9 7 8 8 6 9 7 10 5 11 2 13
REMARK SMILES IDX 1 14 3 15 4 16
REMARK H PARENT
REMARK Flexibility Score: 70.00
ROOT
ATOM      1  C   UNL     1       2.904  13.570  13.824  1.00  0.00     0.018 C 
ATOM      2  C   UNL     1       4.369  13.337  13.432  1.00  0.00     0.015 C 
ATOM      3  C   UNL     1       3.926  12.673  12.120  1.00  0.00    -0.031 C 
ATOM      4  C   UNL     1       2.447  12.838  12.549  1.00  0.00     0.002 C 
ATOM      5  C   UNL     1       4.379  13.463  10.875  1.00  0.00     0.011 C 
ATOM      6  C   UNL     1       4.357  11.197  12.032  1.00  0.00     0.011 C 
ENDROOT
BRANCH   4   7
ATOM      7  C   UNL     1       1.527  13.692  11.650  1.00  0.00     0.009 C 
BRANCH   7   8
ATOM      8  C   UNL     1       0.114  13.095  11.539  1.00  0.00     0.030 C 
BRANCH   8   9
ATOM      9  C   UNL     1       0.068  11.638  11.960  1.00  0.00    -0.077 C 
ATOM     10  C   UNL     1       0.014  10.588  10.881  1.00  0.00     0.039 C 
ATOM     11  C   UNL     1       0.124  11.223  13.248  1.00  0.00    -0.028 CG0
ATOM     12  G   UNL     1       0.226  12.107  14.472  1.00  0.00     0.000 G0
ENDBRANCH   8   9
ENDBRANCH   7   8
ENDBRANCH   4   7
BRANCH   1  13
ATOM     13  C   UNL     1       2.522  12.960  15.167  1.00  0.00    -0.074 C 
ATOM     14  C   UNL     1       2.994  13.547  16.280  1.00  0.00     0.008 C 
BRANCH  13  15
ATOM     15  C   UNL     1       1.519  11.825  15.302  1.00  0.00     0.035 C 
BRANCH  15  16
ATOM     16  C   UNL     1       0.228  12.086  14.499  1.00  0.00     0.032 CG0
ATOM     17  G   UNL     1       0.118  11.195  13.280  1.00  0.00     0.000 G0
ENDBRANCH  15  16
ENDBRANCH  13  15
ENDBRANCH   1  13
TORSDOF 0
ENDMDL
MODEL 6
REMARK VINA RESULT:     2.199      5.466      7.158
REMARK INTER + INTRA:           2.913
REMARK INTER:                   1.069
REMARK INTRA:                   1.845
REMARK UNBOUND:                -0.058
REMARK SMILES C=C1CCC=C(C)CC[C@@H]2[C@@H]1CC2(C)C
REMARK SMILES IDX 11 1 12 2 13 3 10 4 14 5 15 6 9 7 8 8 6 9 7 10 5 11 2 13
REMARK SMILES IDX 1 14 3 15 4 16
REMARK H PARENT
REMARK Flexibility Score: 70.00
ROOT
ATOM      1  C   UNL     1       1.465  13.135  11.957  1.00  0.00     0.018 C 
ATOM      2  C   UNL     1       0.882  12.216  10.875  1.00  0.00     0.015 C 
ATOM      3  C   UNL     1       1.309  10.978  11.677  1.00  0.00    -0.031 C 
ATOM      4  C   UNL     1       1.967  11.902  12.732  1.00  0.00     0.002 C 
ATOM      5  C   UNL     1       0.107  10.135  12.148  1.00  0.00     0.011 C 
ATOM      6  C   UNL     1       2.337  10.113  10.923  1.00  0.00     0.011 C 
ENDROOT
BRANCH   4   7
ATOM      7  C   UNL     1       1.437  11.833  14.181  1.00  0.00     0.009 C 
BRANCH   7   8
ATOM      8  C   UNL     1       2.562  11.997  15.215  1.00  0.00     0.030 C 
BRANCH   8   9
ATOM      9  C   UNL     1       3.177  13.384  15.184  1.00  0.00    -0.077 C 
ATOM     10  C   UNL     1       2.965  14.283  16.374  1.00  0.00     0.039 C 
ATOM     11  C   UNL     1       3.949  13.845  14.170  1.00  0.00    -0.028 CG0
ATOM     12  G   UNL     1       4.319  13.092  12.911  1.00  0.00     0.000 G0
ENDBRANCH   8   9
ENDBRANCH   7   8
ENDBRANCH   4   7
BRANCH   1  13
ATOM     13  C   UNL     1       2.508  14.115  11.434  1.00  0.00    -0.074 C 
ATOM     14  C   UNL     1       2.071  15.257  10.875  1.00  0.00     0.008 C 
BRANCH  13  15
ATOM     15  C   UNL     1       4.001  13.929  11.656  1.00  0.00     0.035 C 
BRANCH  15  16
ATOM     16  C   UNL     1       4.305  13.098  12.919  1.00  0.00     0.032 CG0
ATOM     17  G   UNL     1       3.949  13.833  14.193  1.00  0.00     0.000 G0
ENDBRANCH  15  16
ENDBRANCH  13  15
ENDBRANCH   1  13
TORSDOF 0
ENDMDL
