MODEL 1
REMARK VINA RESULT:    -6.117      0.000      0.000
REMARK INTER + INTRA:          -7.820
REMARK INTER:                  -7.547
REMARK INTRA:                  -0.273
REMARK UNBOUND:                -0.273
REMARK SMILES O=c1c(O)c(-c2cc(O)c(O)c(O)c2)oc2cc(O)cc(O)c12
REMARK SMILES IDX 5 1 3 2 2 3 1 4 23 5 21 6 20 7 18 8 17 9 16 10 15 11 6 12
REMARK SMILES IDX 7 13 8 14 14 15 10 16 12 17 9 18 11 20 13 22 4 24 22 26
REMARK SMILES IDX 19 28
REMARK H PARENT 9 19 11 21 13 23 4 25 22 27 19 29
REMARK Flexibility Score: inf
ROOT
ATOM      1  C   UNL     1      14.586  55.782  34.505  1.00  0.00     0.180 A 
ATOM      2  C   UNL     1      14.528  55.449  33.141  1.00  0.00     0.208 A 
ATOM      3  C   UNL     1      15.004  56.369  32.193  1.00  0.00     0.238 A 
ATOM      4  O   UNL     1      15.000  56.043  30.978  1.00  0.00    -0.285 OA
ATOM      5  C   UNL     1      15.517  57.618  32.621  1.00  0.00     0.111 A 
ATOM      6  C   UNL     1      15.990  58.642  31.745  1.00  0.00     0.134 A 
ATOM      7  C   UNL     1      16.596  59.784  32.283  1.00  0.00     0.093 A 
ATOM      8  C   UNL     1      16.688  59.969  33.662  1.00  0.00     0.123 A 
ATOM      9  C   UNL     1      16.176  59.001  34.526  1.00  0.00     0.094 A 
ATOM     10  C   UNL     1      15.598  57.834  34.020  1.00  0.00     0.146 A 
ATOM     11  O   UNL     1      15.133  56.933  34.877  1.00  0.00    -0.452 OA
ENDROOT
BRANCH   1  12
ATOM     12  C   UNL     1      14.081  54.875  35.560  1.00  0.00     0.029 A 
ATOM     13  C   UNL     1      12.857  55.158  36.187  1.00  0.00     0.062 A 
ATOM     14  C   UNL     1      12.345  54.305  37.174  1.00  0.00     0.162 A 
ATOM     15  C   UNL     1      14.771  53.701  35.908  1.00  0.00     0.062 A 
ATOM     16  C   UNL     1      13.053  53.145  37.530  1.00  0.00     0.200 A 
ATOM     17  C   UNL     1      14.263  52.842  36.892  1.00  0.00     0.162 A 
BRANCH  14  18
ATOM     18  O   UNL     1      11.137  54.605  37.801  1.00  0.00    -0.504 OA
ATOM     19  H   UNL     1      11.107  55.046  38.712  1.00  0.00     0.293 HD
ENDBRANCH  14  18
BRANCH  16  20
ATOM     20  O   UNL     1      12.566  52.280  38.512  1.00  0.00    -0.502 OA
ATOM     21  H   UNL     1      12.173  51.375  38.285  1.00  0.00     0.293 HD
ENDBRANCH  16  20
BRANCH  17  22
ATOM     22  O   UNL     1      14.955  51.683  37.240  1.00  0.00    -0.504 OA
ATOM     23  H   UNL     1      15.905  51.518  36.927  1.00  0.00     0.293 HD
ENDBRANCH  17  22
ENDBRANCH   1  12
BRANCH   2  24
ATOM     24  O   UNL     1      14.038  54.202  32.742  1.00  0.00    -0.502 OA
ATOM     25  H   UNL     1      13.077  53.920  32.895  1.00  0.00     0.293 HD
ENDBRANCH   2  24
BRANCH   6  26
ATOM     26  O   UNL     1      15.862  58.599  30.354  1.00  0.00    -0.507 OA
ATOM     27  H   UNL     1      16.633  58.543  29.707  1.00  0.00     0.293 HD
ENDBRANCH   6  26
BRANCH   8  28
ATOM     28  O   UNL     1      17.284  61.125  34.162  1.00  0.00    -0.508 OA
ATOM     29  H   UNL     1      18.191  61.437  33.837  1.00  0.00     0.293 HD
ENDBRANCH   8  28
TORSDOF 7
ENDMDL
MODEL 2
REMARK VINA RESULT:    -6.041      0.092      1.751
REMARK INTER + INTRA:          -7.726
REMARK INTER:                  -7.436
REMARK INTRA:                  -0.289
REMARK UNBOUND:                -0.273
REMARK SMILES O=c1c(O)c(-c2cc(O)c(O)c(O)c2)oc2cc(O)cc(O)c12
REMARK SMILES IDX 5 1 3 2 2 3 1 4 23 5 21 6 20 7 18 8 17 9 16 10 15 11 6 12
REMARK SMILES IDX 7 13 8 14 14 15 10 16 12 17 9 18 11 20 13 22 4 24 22 26
REMARK SMILES IDX 19 28
REMARK H PARENT 9 19 11 21 13 23 4 25 22 27 19 29
REMARK Flexibility Score: inf
ROOT
ATOM      1  C   UNL     1      14.494  55.815  34.434  1.00  0.00     0.180 A 
ATOM      2  C   UNL     1      14.435  55.499  33.066  1.00  0.00     0.208 A 
ATOM      3  C   UNL     1      14.927  56.423  32.131  1.00  0.00     0.238 A 
ATOM      4  O   UNL     1      14.923  56.111  30.912  1.00  0.00    -0.285 OA
ATOM      5  C   UNL     1      15.455  57.660  32.575  1.00  0.00     0.111 A 
ATOM      6  C   UNL     1      15.945  58.688  31.713  1.00  0.00     0.134 A 
ATOM      7  C   UNL     1      16.564  59.815  32.266  1.00  0.00     0.093 A 
ATOM      8  C   UNL     1      16.654  59.983  33.647  1.00  0.00     0.123 A 
ATOM      9  C   UNL     1      16.126  59.012  34.499  1.00  0.00     0.094 A 
ATOM     10  C   UNL     1      15.535  57.859  33.977  1.00  0.00     0.146 A 
ATOM     11  O   UNL     1      15.054  56.954  34.822  1.00  0.00    -0.452 OA
ENDROOT
BRANCH   1  12
ATOM     12  C   UNL     1      13.972  54.902  35.477  1.00  0.00     0.029 A 
ATOM     13  C   UNL     1      14.717  53.769  35.837  1.00  0.00     0.062 A 
ATOM     14  C   UNL     1      14.257  52.898  36.835  1.00  0.00     0.162 A 
ATOM     15  C   UNL     1      12.773  55.177  36.157  1.00  0.00     0.062 A 
ATOM     16  C   UNL     1      13.046  53.170  37.495  1.00  0.00     0.200 A 
ATOM     17  C   UNL     1      12.309  54.312  37.157  1.00  0.00     0.162 A 
BRANCH  14  18
ATOM     18  O   UNL     1      14.998  51.768  37.174  1.00  0.00    -0.504 OA
ATOM     19  H   UNL     1      15.906  51.586  36.763  1.00  0.00     0.293 HD
ENDBRANCH  14  18
BRANCH  16  20
ATOM     20  O   UNL     1      12.566  52.318  38.490  1.00  0.00    -0.502 OA
ATOM     21  H   UNL     1      11.640  51.909  38.448  1.00  0.00     0.293 HD
ENDBRANCH  16  20
BRANCH  17  22
ATOM     22  O   UNL     1      11.115  54.584  37.824  1.00  0.00    -0.504 OA
ATOM     23  H   UNL     1      10.432  55.231  37.446  1.00  0.00     0.293 HD
ENDBRANCH  17  22
ENDBRANCH   1  12
BRANCH   2  24
ATOM     24  O   UNL     1      13.930  54.263  32.651  1.00  0.00    -0.502 OA
ATOM     25  H   UNL     1      13.214  54.179  31.940  1.00  0.00     0.293 HD
ENDBRANCH   2  24
BRANCH   6  26
ATOM     26  O   UNL     1      15.821  58.663  30.320  1.00  0.00    -0.507 OA
ATOM     27  H   UNL     1      16.370  59.221  29.685  1.00  0.00     0.293 HD
ENDBRANCH   6  26
BRANCH   8  28
ATOM     28  O   UNL     1      17.264  61.125  34.163  1.00  0.00    -0.508 OA
ATOM     29  H   UNL     1      18.019  61.065  34.836  1.00  0.00     0.293 HD
ENDBRANCH   8  28
TORSDOF 7
ENDMDL
MODEL 3
REMARK VINA RESULT:    -5.609      1.635      2.422
REMARK INTER + INTRA:          -7.194
REMARK INTER:                  -6.899
REMARK INTRA:                  -0.295
REMARK UNBOUND:                -0.273
REMARK SMILES O=c1c(O)c(-c2cc(O)c(O)c(O)c2)oc2cc(O)cc(O)c12
REMARK SMILES IDX 5 1 3 2 2 3 1 4 23 5 21 6 20 7 18 8 17 9 16 10 15 11 6 12
REMARK SMILES IDX 7 13 8 14 14 15 10 16 12 17 9 18 11 20 13 22 4 24 22 26
REMARK SMILES IDX 19 28
REMARK H PARENT 9 19 11 21 13 23 4 25 22 27 19 29
REMARK Flexibility Score: inf
ROOT
ATOM      1  C   UNL     1      14.249  56.236  34.538  1.00  0.00     0.180 A 
ATOM      2  C   UNL     1      13.193  56.516  33.655  1.00  0.00     0.208 A 
ATOM      3  C   UNL     1      13.192  57.736  32.959  1.00  0.00     0.238 A 
ATOM      4  O   UNL     1      12.273  57.958  32.129  1.00  0.00    -0.285 OA
ATOM      5  C   UNL     1      14.238  58.667  33.169  1.00  0.00     0.111 A 
ATOM      6  C   UNL     1      14.318  59.950  32.548  1.00  0.00     0.134 A 
ATOM      7  C   UNL     1      15.464  60.734  32.728  1.00  0.00     0.093 A 
ATOM      8  C   UNL     1      16.503  60.312  33.556  1.00  0.00     0.123 A 
ATOM      9  C   UNL     1      16.409  59.086  34.214  1.00  0.00     0.094 A 
ATOM     10  C   UNL     1      15.294  58.264  34.026  1.00  0.00     0.146 A 
ATOM     11  O   UNL     1      15.249  57.100  34.663  1.00  0.00    -0.452 OA
ENDROOT
BRANCH   1  12
ATOM     12  C   UNL     1      14.306  54.982  35.324  1.00  0.00     0.029 A 
ATOM     13  C   UNL     1      15.277  54.016  35.015  1.00  0.00     0.062 A 
ATOM     14  C   UNL     1      15.366  52.830  35.756  1.00  0.00     0.162 A 
ATOM     15  C   UNL     1      13.446  54.763  36.414  1.00  0.00     0.062 A 
ATOM     16  C   UNL     1      14.487  52.610  36.831  1.00  0.00     0.200 A 
ATOM     17  C   UNL     1      13.532  53.580  37.160  1.00  0.00     0.162 A 
BRANCH  14  18
ATOM     18  O   UNL     1      16.324  51.872  35.430  1.00  0.00    -0.504 OA
ATOM     19  H   UNL     1      17.232  51.855  35.880  1.00  0.00     0.293 HD
ENDBRANCH  14  18
BRANCH  16  20
ATOM     20  O   UNL     1      14.555  51.436  37.583  1.00  0.00    -0.502 OA
ATOM     21  H   UNL     1      15.120  50.646  37.297  1.00  0.00     0.293 HD
ENDBRANCH  16  20
BRANCH  17  22
ATOM     22  O   UNL     1      12.671  53.362  38.236  1.00  0.00    -0.504 OA
ATOM     23  H   UNL     1      12.841  52.624  38.909  1.00  0.00     0.293 HD
ENDBRANCH  17  22
ENDBRANCH   1  12
BRANCH   2  24
ATOM     24  O   UNL     1      12.181  55.574  33.446  1.00  0.00    -0.502 OA
ATOM     25  H   UNL     1      11.198  55.820  33.450  1.00  0.00     0.293 HD
ENDBRANCH   2  24
BRANCH   6  26
ATOM     26  O   UNL     1      13.294  60.508  31.775  1.00  0.00    -0.507 OA
ATOM     27  H   UNL     1      12.407  60.066  31.591  1.00  0.00     0.293 HD
ENDBRANCH   6  26
BRANCH   8  28
ATOM     28  O   UNL     1      17.622  61.125  33.724  1.00  0.00    -0.508 OA
ATOM     29  H   UNL     1      18.399  60.842  34.309  1.00  0.00     0.293 HD
ENDBRANCH   8  28
TORSDOF 7
ENDMDL
MODEL 4
REMARK VINA RESULT:    -5.160      2.400      3.592
REMARK INTER + INTRA:          -6.640
REMARK INTER:                  -6.275
REMARK INTRA:                  -0.365
REMARK UNBOUND:                -0.273
REMARK SMILES O=c1c(O)c(-c2cc(O)c(O)c(O)c2)oc2cc(O)cc(O)c12
REMARK SMILES IDX 5 1 3 2 2 3 1 4 23 5 21 6 20 7 18 8 17 9 16 10 15 11 6 12
REMARK SMILES IDX 7 13 8 14 14 15 10 16 12 17 9 18 11 20 13 22 4 24 22 26
REMARK SMILES IDX 19 28
REMARK H PARENT 9 19 11 21 13 23 4 25 22 27 19 29
REMARK Flexibility Score: inf
ROOT
ATOM      1  C   UNL     1      14.972  56.085  33.870  1.00  0.00     0.180 A 
ATOM      2  C   UNL     1      16.133  56.721  33.399  1.00  0.00     0.208 A 
ATOM      3  C   UNL     1      16.179  58.124  33.373  1.00  0.00     0.238 A 
ATOM      4  O   UNL     1      17.241  58.688  33.002  1.00  0.00    -0.285 OA
ATOM      5  C   UNL     1      15.056  58.873  33.802  1.00  0.00     0.111 A 
ATOM      6  C   UNL     1      14.977  60.298  33.782  1.00  0.00     0.134 A 
ATOM      7  C   UNL     1      13.869  60.936  34.353  1.00  0.00     0.093 A 
ATOM      8  C   UNL     1      12.809  60.202  34.883  1.00  0.00     0.123 A 
ATOM      9  C   UNL     1      12.850  58.808  34.855  1.00  0.00     0.094 A 
ATOM     10  C   UNL     1      13.959  58.142  34.326  1.00  0.00     0.146 A 
ATOM     11  O   UNL     1      13.962  56.815  34.328  1.00  0.00    -0.452 OA
ENDROOT
BRANCH   1  12
ATOM     12  C   UNL     1      14.841  54.610  33.904  1.00  0.00     0.029 A 
ATOM     13  C   UNL     1      15.102  53.921  35.099  1.00  0.00     0.062 A 
ATOM     14  C   UNL     1      14.966  52.527  35.164  1.00  0.00     0.162 A 
ATOM     15  C   UNL     1      14.403  53.889  32.780  1.00  0.00     0.062 A 
ATOM     16  C   UNL     1      14.548  51.812  34.029  1.00  0.00     0.200 A 
ATOM     17  C   UNL     1      14.263  52.496  32.840  1.00  0.00     0.162 A 
BRANCH  14  18
ATOM     18  O   UNL     1      15.243  51.852  36.352  1.00  0.00    -0.504 OA
ATOM     19  H   UNL     1      15.684  52.317  37.136  1.00  0.00     0.293 HD
ENDBRANCH  14  18
BRANCH  16  20
ATOM     20  O   UNL     1      14.407  50.424  34.068  1.00  0.00    -0.502 OA
ATOM     21  H   UNL     1      15.197  49.800  33.958  1.00  0.00     0.293 HD
ENDBRANCH  16  20
BRANCH  17  22
ATOM     22  O   UNL     1      13.835  51.782  31.721  1.00  0.00    -0.504 OA
ATOM     23  H   UNL     1      14.322  51.847  30.834  1.00  0.00     0.293 HD
ENDBRANCH  17  22
ENDBRANCH   1  12
BRANCH   2  24
ATOM     24  O   UNL     1      17.239  55.963  33.000  1.00  0.00    -0.502 OA
ATOM     25  H   UNL     1      17.915  55.597  33.659  1.00  0.00     0.293 HD
ENDBRANCH   2  24
BRANCH   6  26
ATOM     26  O   UNL     1      15.938  61.125  33.192  1.00  0.00    -0.507 OA
ATOM     27  H   UNL     1      16.885  60.848  32.987  1.00  0.00     0.293 HD
ENDBRANCH   6  26
BRANCH   8  28
ATOM     28  O   UNL     1      11.715  60.870  35.429  1.00  0.00    -0.508 OA
ATOM     29  H   UNL     1      11.021  61.318  34.843  1.00  0.00     0.293 HD
ENDBRANCH   8  28
TORSDOF 7
ENDMDL
MODEL 5
REMARK VINA RESULT:    -5.130      3.055      7.090
REMARK INTER + INTRA:          -6.602
REMARK INTER:                  -6.234
REMARK INTRA:                  -0.368
REMARK UNBOUND:                -0.273
REMARK SMILES O=c1c(O)c(-c2cc(O)c(O)c(O)c2)oc2cc(O)cc(O)c12
REMARK SMILES IDX 5 1 3 2 2 3 1 4 23 5 21 6 20 7 18 8 17 9 16 10 15 11 6 12
REMARK SMILES IDX 7 13 8 14 14 15 10 16 12 17 9 18 11 20 13 22 4 24 22 26
REMARK SMILES IDX 19 28
REMARK H PARENT 9 19 11 21 13 23 4 25 22 27 19 29
REMARK Flexibility Score: inf
ROOT
ATOM      1  C   UNL     1      14.955  54.545  33.398  1.00  0.00     0.180 A 
ATOM      2  C   UNL     1      14.945  53.614  34.451  1.00  0.00     0.208 A 
ATOM      3  C   UNL     1      14.546  52.293  34.190  1.00  0.00     0.238 A 
ATOM      4  O   UNL     1      14.592  51.452  35.125  1.00  0.00    -0.285 OA
ATOM      5  C   UNL     1      14.146  51.924  32.883  1.00  0.00     0.111 A 
ATOM      6  C   UNL     1      13.686  50.624  32.513  1.00  0.00     0.134 A 
ATOM      7  C   UNL     1      13.441  50.336  31.165  1.00  0.00     0.093 A 
ATOM      8  C   UNL     1      13.577  51.316  30.183  1.00  0.00     0.123 A 
ATOM      9  C   UNL     1      13.969  52.606  30.541  1.00  0.00     0.094 A 
ATOM     10  C   UNL     1      14.256  52.915  31.874  1.00  0.00     0.146 A 
ATOM     11  O   UNL     1      14.637  54.151  32.171  1.00  0.00    -0.452 OA
ENDROOT
BRANCH   1  12
ATOM     12  C   UNL     1      15.338  55.960  33.601  1.00  0.00     0.029 A 
ATOM     13  C   UNL     1      16.660  56.361  33.348  1.00  0.00     0.062 A 
ATOM     14  C   UNL     1      17.045  57.699  33.513  1.00  0.00     0.162 A 
ATOM     15  C   UNL     1      14.393  56.926  33.988  1.00  0.00     0.062 A 
ATOM     16  C   UNL     1      16.098  58.653  33.919  1.00  0.00     0.200 A 
ATOM     17  C   UNL     1      14.772  58.265  34.151  1.00  0.00     0.162 A 
BRANCH  14  18
ATOM     18  O   UNL     1      18.364  58.081  33.272  1.00  0.00    -0.504 OA
ATOM     19  H   UNL     1      18.875  57.745  32.465  1.00  0.00     0.293 HD
ENDBRANCH  14  18
BRANCH  16  20
ATOM     20  O   UNL     1      16.457  59.991  34.093  1.00  0.00    -0.502 OA
ATOM     21  H   UNL     1      15.989  60.592  34.759  1.00  0.00     0.293 HD
ENDBRANCH  16  20
BRANCH  17  22
ATOM     22  O   UNL     1      13.833  59.220  34.543  1.00  0.00    -0.504 OA
ATOM     23  H   UNL     1      13.850  60.162  34.172  1.00  0.00     0.293 HD
ENDBRANCH  17  22
ENDBRANCH   1  12
BRANCH   2  24
ATOM     24  O   UNL     1      15.364  53.994  35.730  1.00  0.00    -0.502 OA
ATOM     25  H   UNL     1      15.187  54.916  36.110  1.00  0.00     0.293 HD
ENDBRANCH   2  24
BRANCH   6  26
ATOM     26  O   UNL     1      13.427  49.599  33.428  1.00  0.00    -0.507 OA
ATOM     27  H   UNL     1      12.511  49.350  33.769  1.00  0.00     0.293 HD
ENDBRANCH   6  26
BRANCH   8  28
ATOM     28  O   UNL     1      13.310  50.998  28.853  1.00  0.00    -0.508 OA
ATOM     29  H   UNL     1      12.377  50.751  28.544  1.00  0.00     0.293 HD
ENDBRANCH   8  28
TORSDOF 7
ENDMDL
MODEL 6
REMARK VINA RESULT:    -5.060      4.922      7.058
REMARK INTER + INTRA:          -6.516
REMARK INTER:                  -6.151
REMARK INTRA:                  -0.366
REMARK UNBOUND:                -0.273
REMARK SMILES O=c1c(O)c(-c2cc(O)c(O)c(O)c2)oc2cc(O)cc(O)c12
REMARK SMILES IDX 5 1 3 2 2 3 1 4 23 5 21 6 20 7 18 8 17 9 16 10 15 11 6 12
REMARK SMILES IDX 7 13 8 14 14 15 10 16 12 17 9 18 11 20 13 22 4 24 22 26
REMARK SMILES IDX 19 28
REMARK H PARENT 9 19 11 21 13 23 4 25 22 27 19 29
REMARK Flexibility Score: inf
ROOT
ATOM      1  C   UNL     1      14.090  50.521  33.365  1.00  0.00     0.180 A 
ATOM      2  C   UNL     1      13.194  51.277  32.590  1.00  0.00     0.208 A 
ATOM      3  C   UNL     1      12.776  52.532  33.062  1.00  0.00     0.238 A 
ATOM      4  O   UNL     1      12.018  53.229  32.338  1.00  0.00    -0.285 OA
ATOM      5  C   UNL     1      13.246  53.006  34.311  1.00  0.00     0.111 A 
ATOM      6  C   UNL     1      12.858  54.245  34.905  1.00  0.00     0.134 A 
ATOM      7  C   UNL     1      13.485  54.673  36.081  1.00  0.00     0.093 A 
ATOM      8  C   UNL     1      14.438  53.880  36.719  1.00  0.00     0.123 A 
ATOM      9  C   UNL     1      14.782  52.641  36.178  1.00  0.00     0.094 A 
ATOM     10  C   UNL     1      14.200  52.202  34.986  1.00  0.00     0.146 A 
ATOM     11  O   UNL     1      14.563  51.022  34.499  1.00  0.00    -0.452 OA
ENDROOT
BRANCH   1  12
ATOM     12  C   UNL     1      14.556  49.179  32.945  1.00  0.00     0.029 A 
ATOM     13  C   UNL     1      15.758  49.058  32.231  1.00  0.00     0.062 A 
ATOM     14  C   UNL     1      16.233  47.798  31.838  1.00  0.00     0.162 A 
ATOM     15  C   UNL     1      13.849  48.016  33.296  1.00  0.00     0.062 A 
ATOM     16  C   UNL     1      15.508  46.643  32.177  1.00  0.00     0.200 A 
ATOM     17  C   UNL     1      14.320  46.754  32.910  1.00  0.00     0.162 A 
BRANCH  14  18
ATOM     18  O   UNL     1      17.421  47.692  31.117  1.00  0.00    -0.504 OA
ATOM     19  H   UNL     1      17.434  47.338  30.168  1.00  0.00     0.293 HD
ENDBRANCH  14  18
BRANCH  16  20
ATOM     20  O   UNL     1      15.959  45.378  31.796  1.00  0.00    -0.502 OA
ATOM     21  H   UNL     1      15.662  44.535  32.272  1.00  0.00     0.293 HD
ENDBRANCH  16  20
BRANCH  17  22
ATOM     22  O   UNL     1      13.612  45.603  33.254  1.00  0.00    -0.504 OA
ATOM     23  H   UNL     1      14.043  44.687  33.222  1.00  0.00     0.293 HD
ENDBRANCH  17  22
ENDBRANCH   1  12
BRANCH   2  24
ATOM     24  O   UNL     1      12.760  50.800  31.349  1.00  0.00    -0.502 OA
ATOM     25  H   UNL     1      13.330  50.197  30.768  1.00  0.00     0.293 HD
ENDBRANCH   2  24
BRANCH   6  26
ATOM     26  O   UNL     1      11.849  55.070  34.399  1.00  0.00    -0.507 OA
ATOM     27  H   UNL     1      10.892  54.787  34.258  1.00  0.00     0.293 HD
ENDBRANCH   6  26
BRANCH   8  28
ATOM     28  O   UNL     1      15.031  54.330  37.897  1.00  0.00    -0.508 OA
ATOM     29  H   UNL     1      15.966  54.720  37.904  1.00  0.00     0.293 HD
ENDBRANCH   8  28
TORSDOF 7
ENDMDL
MODEL 7
REMARK VINA RESULT:    -5.011      4.942      6.973
REMARK INTER + INTRA:          -6.456
REMARK INTER:                  -6.102
REMARK INTRA:                  -0.354
REMARK UNBOUND:                -0.273
REMARK SMILES O=c1c(O)c(-c2cc(O)c(O)c(O)c2)oc2cc(O)cc(O)c12
REMARK SMILES IDX 5 1 3 2 2 3 1 4 23 5 21 6 20 7 18 8 17 9 16 10 15 11 6 12
REMARK SMILES IDX 7 13 8 14 14 15 10 16 12 17 9 18 11 20 13 22 4 24 22 26
REMARK SMILES IDX 19 28
REMARK H PARENT 9 19 11 21 13 23 4 25 22 27 19 29
REMARK Flexibility Score: inf
ROOT
ATOM      1  C   UNL     1      14.133  50.524  33.352  1.00  0.00     0.180 A 
ATOM      2  C   UNL     1      13.238  51.265  32.561  1.00  0.00     0.208 A 
ATOM      3  C   UNL     1      12.795  52.516  33.022  1.00  0.00     0.238 A 
ATOM      4  O   UNL     1      12.038  53.199  32.285  1.00  0.00    -0.285 OA
ATOM      5  C   UNL     1      13.240  53.001  34.276  1.00  0.00     0.111 A 
ATOM      6  C   UNL     1      12.825  54.236  34.860  1.00  0.00     0.134 A 
ATOM      7  C   UNL     1      13.429  54.677  36.044  1.00  0.00     0.093 A 
ATOM      8  C   UNL     1      14.384  53.900  36.699  1.00  0.00     0.123 A 
ATOM      9  C   UNL     1      14.753  52.664  36.168  1.00  0.00     0.094 A 
ATOM     10  C   UNL     1      14.195  52.213  34.968  1.00  0.00     0.146 A 
ATOM     11  O   UNL     1      14.582  51.036  34.491  1.00  0.00    -0.452 OA
ENDROOT
BRANCH   1  12
ATOM     12  C   UNL     1      14.624  49.188  32.944  1.00  0.00     0.029 A 
ATOM     13  C   UNL     1      13.856  48.051  33.238  1.00  0.00     0.062 A 
ATOM     14  C   UNL     1      14.287  46.776  32.845  1.00  0.00     0.162 A 
ATOM     15  C   UNL     1      15.816  49.038  32.215  1.00  0.00     0.062 A 
ATOM     16  C   UNL     1      15.491  46.634  32.135  1.00  0.00     0.200 A 
ATOM     17  C   UNL     1      16.251  47.766  31.817  1.00  0.00     0.162 A 
BRANCH  14  18
ATOM     18  O   UNL     1      13.522  45.652  33.156  1.00  0.00    -0.504 OA
ATOM     19  H   UNL     1      13.868  44.931  33.777  1.00  0.00     0.293 HD
ENDBRANCH  14  18
BRANCH  16  20
ATOM     20  O   UNL     1      15.942  45.375  31.735  1.00  0.00    -0.502 OA
ATOM     21  H   UNL     1      16.602  45.256  30.976  1.00  0.00     0.293 HD
ENDBRANCH  16  20
BRANCH  17  22
ATOM     22  O   UNL     1      17.439  47.620  31.101  1.00  0.00    -0.504 OA
ATOM     23  H   UNL     1      18.330  47.904  31.491  1.00  0.00     0.293 HD
ENDBRANCH  17  22
ENDBRANCH   1  12
BRANCH   2  24
ATOM     24  O   UNL     1      12.829  50.777  31.316  1.00  0.00    -0.502 OA
ATOM     25  H   UNL     1      13.415  50.181  30.746  1.00  0.00     0.293 HD
ENDBRANCH   2  24
BRANCH   6  26
ATOM     26  O   UNL     1      11.812  55.045  34.337  1.00  0.00    -0.507 OA
ATOM     27  H   UNL     1      11.036  54.710  33.788  1.00  0.00     0.293 HD
ENDBRANCH   6  26
BRANCH   8  28
ATOM     28  O   UNL     1      14.953  54.363  37.883  1.00  0.00    -0.508 OA
ATOM     29  H   UNL     1      15.882  54.765  37.903  1.00  0.00     0.293 HD
ENDBRANCH   8  28
TORSDOF 7
ENDMDL
MODEL 8
REMARK VINA RESULT:    -4.996      2.232      3.430
REMARK INTER + INTRA:          -6.436
REMARK INTER:                  -6.081
REMARK INTRA:                  -0.355
REMARK UNBOUND:                -0.273
REMARK SMILES O=c1c(O)c(-c2cc(O)c(O)c(O)c2)oc2cc(O)cc(O)c12
REMARK SMILES IDX 5 1 3 2 2 3 1 4 23 5 21 6 20 7 18 8 17 9 16 10 15 11 6 12
REMARK SMILES IDX 7 13 8 14 14 15 10 16 12 17 9 18 11 20 13 22 4 24 22 26
REMARK SMILES IDX 19 28
REMARK H PARENT 9 19 11 21 13 23 4 25 22 27 19 29
REMARK Flexibility Score: inf
ROOT
ATOM      1  C   UNL     1      14.082  56.076  34.323  1.00  0.00     0.180 A 
ATOM      2  C   UNL     1      12.845  56.707  34.540  1.00  0.00     0.208 A 
ATOM      3  C   UNL     1      12.798  58.109  34.612  1.00  0.00     0.238 A 
ATOM      4  O   UNL     1      11.681  58.670  34.751  1.00  0.00    -0.285 OA
ATOM      5  C   UNL     1      13.991  58.860  34.485  1.00  0.00     0.111 A 
ATOM      6  C   UNL     1      14.067  60.283  34.582  1.00  0.00     0.134 A 
ATOM      7  C   UNL     1      15.279  60.930  34.310  1.00  0.00     0.093 A 
ATOM      8  C   UNL     1      16.431  60.205  34.008  1.00  0.00     0.123 A 
ATOM      9  C   UNL     1      16.381  58.811  33.969  1.00  0.00     0.094 A 
ATOM     10  C   UNL     1      15.179  58.138  34.200  1.00  0.00     0.146 A 
ATOM     11  O   UNL     1      15.172  56.812  34.142  1.00  0.00    -0.452 OA
ENDROOT
BRANCH   1  12
ATOM     12  C   UNL     1      14.215  54.603  34.259  1.00  0.00     0.029 A 
ATOM     13  C   UNL     1      14.044  53.947  33.030  1.00  0.00     0.062 A 
ATOM     14  C   UNL     1      14.183  52.555  32.938  1.00  0.00     0.162 A 
ATOM     15  C   UNL     1      14.566  53.850  35.393  1.00  0.00     0.062 A 
ATOM     16  C   UNL     1      14.514  51.809  34.081  1.00  0.00     0.200 A 
ATOM     17  C   UNL     1      14.709  52.459  35.307  1.00  0.00     0.162 A 
BRANCH  14  18
ATOM     18  O   UNL     1      13.997  51.913  31.715  1.00  0.00    -0.504 OA
ATOM     19  H   UNL     1      13.773  50.926  31.662  1.00  0.00     0.293 HD
ENDBRANCH  14  18
BRANCH  16  20
ATOM     20  O   UNL     1      14.656  50.422  34.016  1.00  0.00    -0.502 OA
ATOM     21  H   UNL     1      15.097  49.890  34.756  1.00  0.00     0.293 HD
ENDBRANCH  16  20
BRANCH  17  22
ATOM     22  O   UNL     1      15.050  51.715  36.436  1.00  0.00    -0.504 OA
ATOM     23  H   UNL     1      14.814  50.732  36.513  1.00  0.00     0.293 HD
ENDBRANCH  17  22
ENDBRANCH   1  12
BRANCH   2  24
ATOM     24  O   UNL     1      11.676  55.947  34.641  1.00  0.00    -0.502 OA
ATOM     25  H   UNL     1      11.680  54.935  34.612  1.00  0.00     0.293 HD
ENDBRANCH   2  24
BRANCH   6  26
ATOM     26  O   UNL     1      12.997  61.097  34.968  1.00  0.00    -0.507 OA
ATOM     27  H   UNL     1      12.075  60.762  35.200  1.00  0.00     0.293 HD
ENDBRANCH   6  26
BRANCH   8  28
ATOM     28  O   UNL     1      17.623  60.881  33.758  1.00  0.00    -0.508 OA
ATOM     29  H   UNL     1      17.746  61.852  34.018  1.00  0.00     0.293 HD
ENDBRANCH   8  28
TORSDOF 7
ENDMDL
MODEL 9
REMARK VINA RESULT:    -4.817     11.467     12.614
REMARK INTER + INTRA:          -6.216
REMARK INTER:                  -6.109
REMARK INTRA:                  -0.107
REMARK UNBOUND:                -0.273
REMARK SMILES O=c1c(O)c(-c2cc(O)c(O)c(O)c2)oc2cc(O)cc(O)c12
REMARK SMILES IDX 5 1 3 2 2 3 1 4 23 5 21 6 20 7 18 8 17 9 16 10 15 11 6 12
REMARK SMILES IDX 7 13 8 14 14 15 10 16 12 17 9 18 11 20 13 22 4 24 22 26
REMARK SMILES IDX 19 28
REMARK H PARENT 9 19 11 21 13 23 4 25 22 27 19 29
REMARK Flexibility Score: inf
ROOT
ATOM      1  C   UNL     1      26.307  54.089  31.617  1.00  0.00     0.180 A 
ATOM      2  C   UNL     1      25.276  53.788  30.710  1.00  0.00     0.208 A 
ATOM      3  C   UNL     1      24.509  54.836  30.178  1.00  0.00     0.238 A 
ATOM      4  O   UNL     1      23.624  54.566  29.325  1.00  0.00    -0.285 OA
ATOM      5  C   UNL     1      24.770  56.171  30.573  1.00  0.00     0.111 A 
ATOM      6  C   UNL     1      24.029  57.307  30.128  1.00  0.00     0.134 A 
ATOM      7  C   UNL     1      24.459  58.592  30.481  1.00  0.00     0.093 A 
ATOM      8  C   UNL     1      25.561  58.780  31.314  1.00  0.00     0.123 A 
ATOM      9  C   UNL     1      26.257  57.674  31.802  1.00  0.00     0.094 A 
ATOM     10  C   UNL     1      25.875  56.380  31.438  1.00  0.00     0.146 A 
ATOM     11  O   UNL     1      26.570  55.355  31.916  1.00  0.00    -0.452 OA
ENDROOT
BRANCH   1  12
ATOM     12  C   UNL     1      27.142  53.035  32.238  1.00  0.00     0.029 A 
ATOM     13  C   UNL     1      27.906  52.188  31.421  1.00  0.00     0.062 A 
ATOM     14  C   UNL     1      28.721  51.196  31.983  1.00  0.00     0.162 A 
ATOM     15  C   UNL     1      27.233  52.902  33.634  1.00  0.00     0.062 A 
ATOM     16  C   UNL     1      28.789  51.057  33.380  1.00  0.00     0.200 A 
ATOM     17  C   UNL     1      28.047  51.914  34.203  1.00  0.00     0.162 A 
BRANCH  14  18
ATOM     18  O   UNL     1      29.464  50.351  31.160  1.00  0.00    -0.504 OA
ATOM     19  H   UNL     1      30.440  50.155  31.344  1.00  0.00     0.293 HD
ENDBRANCH  14  18
BRANCH  16  20
ATOM     20  O   UNL     1      29.591  50.075  33.964  1.00  0.00    -0.502 OA
ATOM     21  H   UNL     1      30.593  50.046  33.825  1.00  0.00     0.293 HD
ENDBRANCH  16  20
BRANCH  17  22
ATOM     22  O   UNL     1      28.128  51.779  35.589  1.00  0.00    -0.504 OA
ATOM     23  H   UNL     1      27.871  50.916  36.053  1.00  0.00     0.293 HD
ENDBRANCH  17  22
ENDBRANCH   1  12
BRANCH   2  24
ATOM     24  O   UNL     1      25.049  52.465  30.317  1.00  0.00    -0.502 OA
ATOM     25  H   UNL     1      24.844  51.728  30.980  1.00  0.00     0.293 HD
ENDBRANCH   2  24
BRANCH   6  26
ATOM     26  O   UNL     1      22.858  57.226  29.369  1.00  0.00    -0.507 OA
ATOM     27  H   UNL     1      22.359  58.019  28.996  1.00  0.00     0.293 HD
ENDBRANCH   6  26
BRANCH   8  28
ATOM     28  O   UNL     1      25.951  60.073  31.658  1.00  0.00    -0.508 OA
ATOM     29  H   UNL     1      26.345  60.708  30.973  1.00  0.00     0.293 HD
ENDBRANCH   8  28
TORSDOF 7
ENDMDL
