MODEL 1
REMARK VINA RESULT:    -4.185      0.000      0.000
REMARK INTER + INTRA:          -4.525
REMARK INTER:                  -4.430
REMARK INTRA:                  -0.095
REMARK UNBOUND:                -0.095
REMARK SMILES C=C(C)[C@H]1CC=C(C)C(=O)C1
REMARK SMILES IDX 8 1 7 2 6 3 5 4 4 5 11 6 9 7 10 8 2 9 1 10 3 11
REMARK H PARENT
REMARK Flexibility Score: inf
ROOT
ATOM      1  C   UNL     1      12.006  77.707  19.864  1.00  0.00     0.048 C 
ATOM      2  C   UNL     1      11.746  79.143  19.507  1.00  0.00    -0.012 C 
ATOM      3  C   UNL     1      12.120  80.122  20.349  1.00  0.00    -0.019 C 
ATOM      4  C   UNL     1      11.868  81.575  20.048  1.00  0.00     0.036 C 
ATOM      5  C   UNL     1      11.933  81.848  18.533  1.00  0.00     0.025 C 
ATOM      6  C   UNL     1      10.961  80.918  17.781  1.00  0.00     0.089 C 
ATOM      7  C   UNL     1      11.191  79.484  18.172  1.00  0.00     0.158 C 
ATOM      8  O   UNL     1      10.873  78.570  17.365  1.00  0.00    -0.295 OA
ENDROOT
BRANCH   5   9
ATOM      9  C   UNL     1      11.670  83.313  18.213  1.00  0.00    -0.077 C 
ATOM     10  C   UNL     1      11.066  84.124  19.097  1.00  0.00     0.008 C 
ATOM     11  C   UNL     1      12.089  83.883  16.882  1.00  0.00     0.039 C 
ENDBRANCH   5   9
TORSDOF 1
ENDMDL
MODEL 2
REMARK VINA RESULT:    -4.174      1.697      4.312
REMARK INTER + INTRA:          -4.513
REMARK INTER:                  -4.417
REMARK INTRA:                  -0.097
REMARK UNBOUND:                -0.095
REMARK SMILES C=C(C)[C@H]1CC=C(C)C(=O)C1
REMARK SMILES IDX 8 1 7 2 6 3 5 4 4 5 11 6 9 7 10 8 2 9 1 10 3 11
REMARK H PARENT
REMARK Flexibility Score: inf
ROOT
ATOM      1  C   UNL     1      11.925  84.125  19.668  1.00  0.00     0.048 C 
ATOM      2  C   UNL     1      11.779  82.659  19.371  1.00  0.00    -0.012 C 
ATOM      3  C   UNL     1      11.920  81.758  20.358  1.00  0.00    -0.019 C 
ATOM      4  C   UNL     1      11.801  80.277  20.112  1.00  0.00     0.036 C 
ATOM      5  C   UNL     1      10.790  79.981  18.988  1.00  0.00     0.025 C 
ATOM      6  C   UNL     1      11.167  80.757  17.712  1.00  0.00     0.089 C 
ATOM      7  C   UNL     1      11.357  82.217  18.017  1.00  0.00     0.158 C 
ATOM      8  O   UNL     1      11.188  83.063  17.098  1.00  0.00    -0.295 OA
ENDROOT
BRANCH   5   9
ATOM      9  C   UNL     1      10.668  78.487  18.721  1.00  0.00    -0.077 C 
ATOM     10  C   UNL     1       9.900  78.014  17.725  1.00  0.00     0.008 C 
ATOM     11  C   UNL     1      11.417  77.501  19.582  1.00  0.00     0.039 C 
ENDBRANCH   5   9
TORSDOF 1
ENDMDL
MODEL 3
REMARK VINA RESULT:    -3.972      1.450      2.505
REMARK INTER + INTRA:          -4.300
REMARK INTER:                  -4.203
REMARK INTRA:                  -0.097
REMARK UNBOUND:                -0.095
REMARK SMILES C=C(C)[C@H]1CC=C(C)C(=O)C1
REMARK SMILES IDX 8 1 7 2 6 3 5 4 4 5 11 6 9 7 10 8 2 9 1 10 3 11
REMARK H PARENT
REMARK Flexibility Score: inf
ROOT
ATOM      1  C   UNL     1      10.203  77.983  17.653  1.00  0.00     0.048 C 
ATOM      2  C   UNL     1      10.792  79.268  18.161  1.00  0.00    -0.012 C 
ATOM      3  C   UNL     1      10.675  80.393  17.434  1.00  0.00    -0.019 C 
ATOM      4  C   UNL     1      11.261  81.703  17.887  1.00  0.00     0.036 C 
ATOM      5  C   UNL     1      11.239  81.819  19.424  1.00  0.00     0.025 C 
ATOM      6  C   UNL     1      11.949  80.609  20.060  1.00  0.00     0.089 C 
ATOM      7  C   UNL     1      11.391  79.322  19.519  1.00  0.00     0.158 C 
ATOM      8  O   UNL     1      11.469  78.277  20.219  1.00  0.00    -0.295 OA
ENDROOT
BRANCH   5   9
ATOM      9  C   UNL     1      11.838  83.136  19.898  1.00  0.00    -0.077 C 
ATOM     10  C   UNL     1      12.123  84.125  19.035  1.00  0.00     0.008 C 
ATOM     11  C   UNL     1      12.124  83.353  21.362  1.00  0.00     0.039 C 
ENDBRANCH   5   9
TORSDOF 1
ENDMDL
MODEL 4
REMARK VINA RESULT:    -3.183     16.835     17.884
REMARK INTER + INTRA:          -3.465
REMARK INTER:                  -3.369
REMARK INTRA:                  -0.096
REMARK UNBOUND:                -0.095
REMARK SMILES C=C(C)[C@H]1CC=C(C)C(=O)C1
REMARK SMILES IDX 8 1 7 2 6 3 5 4 4 5 11 6 9 7 10 8 2 9 1 10 3 11
REMARK H PARENT
REMARK Flexibility Score: inf
ROOT
ATOM      1  C   UNL     1      11.549  64.352  21.220  1.00  0.00     0.048 C 
ATOM      2  C   UNL     1      10.495  64.468  22.284  1.00  0.00    -0.012 C 
ATOM      3  C   UNL     1       9.270  63.955  22.074  1.00  0.00    -0.019 C 
ATOM      4  C   UNL     1       8.173  64.058  23.098  1.00  0.00     0.036 C 
ATOM      5  C   UNL     1       8.744  64.026  24.529  1.00  0.00     0.025 C 
ATOM      6  C   UNL     1       9.812  65.123  24.702  1.00  0.00     0.089 C 
ATOM      7  C   UNL     1      10.843  65.036  23.612  1.00  0.00     0.158 C 
ATOM      8  O   UNL     1      12.001  65.484  23.825  1.00  0.00    -0.295 OA
ENDROOT
BRANCH   5   9
ATOM      9  C   UNL     1       7.645  64.140  25.577  1.00  0.00    -0.077 C 
ATOM     10  C   UNL     1       7.918  64.053  26.889  1.00  0.00     0.008 C 
ATOM     11  C   UNL     1       6.215  64.357  25.151  1.00  0.00     0.039 C 
ENDBRANCH   5   9
TORSDOF 1
ENDMDL
MODEL 5
REMARK VINA RESULT:    -3.177      1.584      2.152
REMARK INTER + INTRA:          -3.458
REMARK INTER:                  -3.361
REMARK INTRA:                  -0.097
REMARK UNBOUND:                -0.095
REMARK SMILES C=C(C)[C@H]1CC=C(C)C(=O)C1
REMARK SMILES IDX 8 1 7 2 6 3 5 4 4 5 11 6 9 7 10 8 2 9 1 10 3 11
REMARK H PARENT
REMARK Flexibility Score: inf
ROOT
ATOM      1  C   UNL     1      12.014  77.295  19.810  1.00  0.00     0.048 C 
ATOM      2  C   UNL     1      12.049  78.759  19.471  1.00  0.00    -0.012 C 
ATOM      3  C   UNL     1      11.948  79.151  18.189  1.00  0.00    -0.019 C 
ATOM      4  C   UNL     1      11.995  80.602  17.792  1.00  0.00     0.036 C 
ATOM      5  C   UNL     1      11.376  81.497  18.883  1.00  0.00     0.025 C 
ATOM      6  C   UNL     1      12.062  81.239  20.238  1.00  0.00     0.089 C 
ATOM      7  C   UNL     1      12.068  79.770  20.558  1.00  0.00     0.158 C 
ATOM      8  O   UNL     1      12.125  79.405  21.762  1.00  0.00    -0.295 OA
ENDROOT
BRANCH   5   9
ATOM      9  C   UNL     1      11.425  82.969  18.499  1.00  0.00    -0.077 C 
ATOM     10  C   UNL     1      11.932  83.893  19.332  1.00  0.00     0.008 C 
ATOM     11  C   UNL     1      10.900  83.419  17.159  1.00  0.00     0.039 C 
ENDBRANCH   5   9
TORSDOF 1
ENDMDL
MODEL 6
REMARK VINA RESULT:    -3.103     16.320     17.970
REMARK INTER + INTRA:          -3.380
REMARK INTER:                  -3.287
REMARK INTRA:                  -0.093
REMARK UNBOUND:                -0.095
REMARK SMILES C=C(C)[C@H]1CC=C(C)C(=O)C1
REMARK SMILES IDX 8 1 7 2 6 3 5 4 4 5 11 6 9 7 10 8 2 9 1 10 3 11
REMARK H PARENT
REMARK Flexibility Score: inf
ROOT
ATOM      1  C   UNL     1       5.403  63.998  25.791  1.00  0.00     0.048 C 
ATOM      2  C   UNL     1       6.830  64.203  25.365  1.00  0.00    -0.012 C 
ATOM      3  C   UNL     1       7.107  64.540  24.094  1.00  0.00    -0.019 C 
ATOM      4  C   UNL     1       8.518  64.740  23.609  1.00  0.00     0.036 C 
ATOM      5  C   UNL     1       9.415  65.303  24.729  1.00  0.00     0.025 C 
ATOM      6  C   UNL     1       9.347  64.398  25.973  1.00  0.00     0.089 C 
ATOM      7  C   UNL     1       7.918  64.156  26.374  1.00  0.00     0.158 C 
ATOM      8  O   UNL     1       7.657  63.875  27.575  1.00  0.00    -0.295 OA
ENDROOT
BRANCH   5   9
ATOM      9  C   UNL     1      10.848  65.501  24.256  1.00  0.00    -0.077 C 
ATOM     10  C   UNL     1      11.650  66.420  24.819  1.00  0.00     0.008 C 
ATOM     11  C   UNL     1      11.397  64.658  23.133  1.00  0.00     0.039 C 
ENDBRANCH   5   9
TORSDOF 1
ENDMDL
MODEL 7
REMARK VINA RESULT:    -2.719      1.947      4.687
REMARK INTER + INTRA:          -2.974
REMARK INTER:                  -2.879
REMARK INTRA:                  -0.095
REMARK UNBOUND:                -0.095
REMARK SMILES C=C(C)[C@H]1CC=C(C)C(=O)C1
REMARK SMILES IDX 8 1 7 2 6 3 5 4 4 5 11 6 9 7 10 8 2 9 1 10 3 11
REMARK H PARENT
REMARK Flexibility Score: inf
ROOT
ATOM      1  C   UNL     1      12.017  84.125  17.990  1.00  0.00     0.048 C 
ATOM      2  C   UNL     1      11.652  82.702  18.308  1.00  0.00    -0.012 C 
ATOM      3  C   UNL     1      11.403  81.836  17.311  1.00  0.00    -0.019 C 
ATOM      4  C   UNL     1      11.017  80.405  17.573  1.00  0.00     0.036 C 
ATOM      5  C   UNL     1      11.690  79.874  18.854  1.00  0.00     0.025 C 
ATOM      6  C   UNL     1      11.369  80.794  20.047  1.00  0.00     0.089 C 
ATOM      7  C   UNL     1      11.692  82.224  19.714  1.00  0.00     0.158 C 
ATOM      8  O   UNL     1      11.961  83.026  20.648  1.00  0.00    -0.295 OA
ENDROOT
BRANCH   5   9
ATOM      9  C   UNL     1      11.300  78.429  19.137  1.00  0.00    -0.077 C 
ATOM     10  C   UNL     1      11.914  77.714  20.094  1.00  0.00     0.008 C 
ATOM     11  C   UNL     1      10.205  77.771  18.337  1.00  0.00     0.039 C 
ENDBRANCH   5   9
TORSDOF 1
ENDMDL
MODEL 8
REMARK VINA RESULT:    -2.365     16.986     18.233
REMARK INTER + INTRA:          -2.599
REMARK INTER:                  -2.502
REMARK INTRA:                  -0.097
REMARK UNBOUND:                -0.095
REMARK SMILES C=C(C)[C@H]1CC=C(C)C(=O)C1
REMARK SMILES IDX 8 1 7 2 6 3 5 4 4 5 11 6 9 7 10 8 2 9 1 10 3 11
REMARK H PARENT
REMARK Flexibility Score: inf
ROOT
ATOM      1  C   UNL     1       9.796  64.519  21.415  1.00  0.00     0.048 C 
ATOM      2  C   UNL     1       9.597  64.589  22.903  1.00  0.00    -0.012 C 
ATOM      3  C   UNL     1       8.356  64.540  23.416  1.00  0.00    -0.019 C 
ATOM      4  C   UNL     1       8.098  64.624  24.897  1.00  0.00     0.036 C 
ATOM      5  C   UNL     1       9.248  63.982  25.697  1.00  0.00     0.025 C 
ATOM      6  C   UNL     1      10.594  64.617  25.301  1.00  0.00     0.089 C 
ATOM      7  C   UNL     1      10.774  64.587  23.808  1.00  0.00     0.158 C 
ATOM      8  O   UNL     1      11.940  64.596  23.331  1.00  0.00    -0.295 OA
ENDROOT
BRANCH   5   9
ATOM      9  C   UNL     1       9.006  64.068  27.198  1.00  0.00    -0.077 C 
ATOM     10  C   UNL     1      10.010  64.312  28.056  1.00  0.00     0.008 C 
ATOM     11  C   UNL     1       7.616  63.880  27.751  1.00  0.00     0.039 C 
ENDBRANCH   5   9
TORSDOF 1
ENDMDL
