MODEL 1
REMARK VINA RESULT:     3.073      0.000      0.000
REMARK INTER + INTRA:           3.471
REMARK INTER:                   3.522
REMARK INTRA:                  -0.051
REMARK UNBOUND:                -0.051
REMARK SMILES O=C([O-])c1cc(O)c(O)c(O)c1
REMARK SMILES IDX 4 1 5 2 12 3 6 4 10 5 8 6 2 7 1 8 3 9 7 10 11 12 9 14
REMARK H PARENT 7 11 11 13 9 15
REMARK Flexibility Score: inf
ROOT
ATOM      1  C   UNL     1     111.412 111.377 110.266  1.00  0.00     0.005 A 
ATOM      2  C   UNL     1     111.225 110.190 109.538  1.00  0.00     0.060 A 
ATOM      3  C   UNL     1     111.598 112.583 109.571  1.00  0.00     0.060 A 
ATOM      4  C   UNL     1     111.223 110.208 108.136  1.00  0.00     0.162 A 
ATOM      5  C   UNL     1     111.596 112.606 108.168  1.00  0.00     0.162 A 
ATOM      6  C   UNL     1     111.408 111.414 107.449  1.00  0.00     0.200 A 
ENDROOT
BRANCH   1   7
ATOM      7  C   UNL     1     111.415 111.361 111.746  1.00  0.00     0.072 C 
ATOM      8  O   UNL     1     111.754 110.324 112.376  1.00  0.00    -0.545 OA
ATOM      9  O   UNL     1     111.042 112.493 112.464  1.00  0.00    -0.545 OA
ENDBRANCH   1   7
BRANCH   4  10
ATOM     10  O   UNL     1     111.035 109.028 107.418  1.00  0.00    -0.504 OA
ATOM     11  H   UNL     1     110.960 108.130 107.882  1.00  0.00     0.293 HD
ENDBRANCH   4  10
BRANCH   5  12
ATOM     12  O   UNL     1     111.783 113.808 107.488  1.00  0.00    -0.504 OA
ATOM     13  H   UNL     1     112.128 113.833 106.536  1.00  0.00     0.293 HD
ENDBRANCH   5  12
BRANCH   6  14
ATOM     14  O   UNL     1     111.403 111.411 106.054  1.00  0.00    -0.502 OA
ATOM     15  H   UNL     1     112.216 111.140 105.513  1.00  0.00     0.293 HD
ENDBRANCH   6  14
TORSDOF 4
ENDMDL
MODEL 2
REMARK VINA RESULT:     3.077      0.065      2.422
REMARK INTER + INTRA:           3.476
REMARK INTER:                   3.527
REMARK INTRA:                  -0.051
REMARK UNBOUND:                -0.051
REMARK SMILES O=C([O-])c1cc(O)c(O)c(O)c1
REMARK SMILES IDX 4 1 5 2 12 3 6 4 10 5 8 6 2 7 1 8 3 9 7 10 11 12 9 14
REMARK H PARENT 7 11 11 13 9 15
REMARK Flexibility Score: inf
ROOT
ATOM      1  C   UNL     1     111.432 111.381 110.227  1.00  0.00     0.005 A 
ATOM      2  C   UNL     1     111.620 112.596 109.547  1.00  0.00     0.060 A 
ATOM      3  C   UNL     1     111.237 110.206 109.483  1.00  0.00     0.060 A 
ATOM      4  C   UNL     1     111.613 112.637 108.146  1.00  0.00     0.162 A 
ATOM      5  C   UNL     1     111.229 110.242 108.081  1.00  0.00     0.162 A 
ATOM      6  C   UNL     1     111.418 111.462 107.411  1.00  0.00     0.200 A 
ENDROOT
BRANCH   1   7
ATOM      7  C   UNL     1     111.439 111.335 111.706  1.00  0.00     0.072 C 
ATOM      8  O   UNL     1     111.784 110.286 112.314  1.00  0.00    -0.545 OA
ATOM      9  O   UNL     1     111.064 112.450 112.448  1.00  0.00    -0.545 OA
ENDBRANCH   1   7
BRANCH   4  10
ATOM     10  O   UNL     1     111.801 113.845 107.477  1.00  0.00    -0.504 OA
ATOM     11  H   UNL     1     111.743 114.735 107.960  1.00  0.00     0.293 HD
ENDBRANCH   4  10
BRANCH   5  12
ATOM     12  O   UNL     1     111.033 109.069 107.352  1.00  0.00    -0.504 OA
ATOM     13  H   UNL     1     111.698 108.761 106.653  1.00  0.00     0.293 HD
ENDBRANCH   5  12
BRANCH   6  14
ATOM     14  O   UNL     1     111.414 111.523 106.017  1.00  0.00    -0.502 OA
ATOM     15  H   UNL     1     112.054 112.116 105.502  1.00  0.00     0.293 HD
ENDBRANCH   6  14
TORSDOF 4
ENDMDL
MODEL 3
REMARK VINA RESULT:     4.653     16.111     17.264
REMARK INTER + INTRA:           5.281
REMARK INTER:                   5.326
REMARK INTRA:                  -0.045
REMARK UNBOUND:                -0.051
REMARK SMILES O=C([O-])c1cc(O)c(O)c(O)c1
REMARK SMILES IDX 4 1 5 2 12 3 6 4 10 5 8 6 2 7 1 8 3 9 7 10 11 12 9 14
REMARK H PARENT 7 11 11 13 9 15
REMARK Flexibility Score: inf
ROOT
ATOM      1  C   UNL     1     104.414 115.277 123.978  1.00  0.00     0.005 A 
ATOM      2  C   UNL     1     103.625 114.959 122.860  1.00  0.00     0.060 A 
ATOM      3  C   UNL     1     104.106 116.424 124.727  1.00  0.00     0.060 A 
ATOM      4  C   UNL     1     102.545 115.775 122.495  1.00  0.00     0.162 A 
ATOM      5  C   UNL     1     103.027 117.244 124.366  1.00  0.00     0.162 A 
ATOM      6  C   UNL     1     102.244 116.917 123.246  1.00  0.00     0.200 A 
ENDROOT
BRANCH   1   7
ATOM      7  C   UNL     1     105.555 114.417 124.366  1.00  0.00     0.072 C 
ATOM      8  O   UNL     1     105.383 113.427 125.125  1.00  0.00    -0.545 OA
ATOM      9  O   UNL     1     106.836 114.692 123.897  1.00  0.00    -0.545 OA
ENDBRANCH   1   7
BRANCH   4  10
ATOM     10  O   UNL     1     101.765 115.455 121.385  1.00  0.00    -0.504 OA
ATOM     11  H   UNL     1     101.349 114.537 121.275  1.00  0.00     0.293 HD
ENDBRANCH   4  10
BRANCH   5  12
ATOM     12  O   UNL     1     102.731 118.381 125.116  1.00  0.00    -0.504 OA
ATOM     13  H   UNL     1     102.340 118.316 126.048  1.00  0.00     0.293 HD
ENDBRANCH   5  12
BRANCH   6  14
ATOM     14  O   UNL     1     101.165 117.717 122.867  1.00  0.00    -0.502 OA
ATOM     15  H   UNL     1     100.334 117.807 123.439  1.00  0.00     0.293 HD
ENDBRANCH   6  14
TORSDOF 4
ENDMDL
MODEL 4
REMARK VINA RESULT:     4.669      1.168      3.898
REMARK INTER + INTRA:           5.300
REMARK INTER:                   5.351
REMARK INTRA:                  -0.050
REMARK UNBOUND:                -0.051
REMARK SMILES O=C([O-])c1cc(O)c(O)c(O)c1
REMARK SMILES IDX 4 1 5 2 12 3 6 4 10 5 8 6 2 7 1 8 3 9 7 10 11 12 9 14
REMARK H PARENT 7 11 11 13 9 15
REMARK Flexibility Score: inf
ROOT
ATOM      1  C   UNL     1     111.051 110.287 108.402  1.00  0.00     0.005 A 
ATOM      2  C   UNL     1     111.306 111.281 107.443  1.00  0.00     0.060 A 
ATOM      3  C   UNL     1     111.202 110.597 109.763  1.00  0.00     0.060 A 
ATOM      4  C   UNL     1     111.706 112.566 107.838  1.00  0.00     0.162 A 
ATOM      5  C   UNL     1     111.602 111.880 110.163  1.00  0.00     0.162 A 
ATOM      6  C   UNL     1     111.854 112.868 109.196  1.00  0.00     0.200 A 
ENDROOT
BRANCH   1   7
ATOM      7  C   UNL     1     110.628 108.930 107.988  1.00  0.00     0.072 C 
ATOM      8  O   UNL     1     109.860 108.247 108.717  1.00  0.00    -0.545 OA
ATOM      9  O   UNL     1     111.074 108.389 106.787  1.00  0.00    -0.545 OA
ENDBRANCH   1   7
BRANCH   4  10
ATOM     10  O   UNL     1     111.956 113.549 106.882  1.00  0.00    -0.504 OA
ATOM     11  H   UNL     1     111.214 114.133 106.512  1.00  0.00     0.293 HD
ENDBRANCH   4  10
BRANCH   5  12
ATOM     12  O   UNL     1     111.750 112.176 111.517  1.00  0.00    -0.504 OA
ATOM     13  H   UNL     1     110.998 112.027 112.180  1.00  0.00     0.293 HD
ENDBRANCH   5  12
BRANCH   6  14
ATOM     14  O   UNL     1     112.254 114.151 109.569  1.00  0.00    -0.502 OA
ATOM     15  H   UNL     1     112.192 114.478 110.526  1.00  0.00     0.293 HD
ENDBRANCH   6  14
TORSDOF 4
ENDMDL
MODEL 5
REMARK VINA RESULT:     4.758      1.162      3.699
REMARK INTER + INTRA:           5.403
REMARK INTER:                   5.453
REMARK INTRA:                  -0.050
REMARK UNBOUND:                -0.051
REMARK SMILES O=C([O-])c1cc(O)c(O)c(O)c1
REMARK SMILES IDX 4 1 5 2 12 3 6 4 10 5 8 6 2 7 1 8 3 9 7 10 11 12 9 14
REMARK H PARENT 7 11 11 13 9 15
REMARK Flexibility Score: inf
ROOT
ATOM      1  C   UNL     1     111.050 110.284 108.395  1.00  0.00     0.005 A 
ATOM      2  C   UNL     1     111.203 110.580 109.760  1.00  0.00     0.060 A 
ATOM      3  C   UNL     1     111.306 111.287 107.446  1.00  0.00     0.060 A 
ATOM      4  C   UNL     1     111.605 111.859 110.170  1.00  0.00     0.162 A 
ATOM      5  C   UNL     1     111.709 112.568 107.852  1.00  0.00     0.162 A 
ATOM      6  C   UNL     1     111.860 112.853 109.219  1.00  0.00     0.200 A 
ENDROOT
BRANCH   1   7
ATOM      7  C   UNL     1     110.625 108.935 107.958  1.00  0.00     0.072 C 
ATOM      8  O   UNL     1     109.861 108.239 108.679  1.00  0.00    -0.545 OA
ATOM      9  O   UNL     1     111.064 108.416 106.745  1.00  0.00    -0.545 OA
ENDBRANCH   1   7
BRANCH   4  10
ATOM     10  O   UNL     1     111.756 112.147 111.526  1.00  0.00    -0.504 OA
ATOM     11  H   UNL     1     111.510 113.054 111.907  1.00  0.00     0.293 HD
ENDBRANCH   4  10
BRANCH   5  12
ATOM     12  O   UNL     1     111.960 113.556 106.901  1.00  0.00    -0.504 OA
ATOM     13  H   UNL     1     111.305 114.311 106.733  1.00  0.00     0.293 HD
ENDBRANCH   5  12
BRANCH   6  14
ATOM     14  O   UNL     1     112.259 114.120 109.647  1.00  0.00    -0.502 OA
ATOM     15  H   UNL     1     112.597 114.825 109.003  1.00  0.00     0.293 HD
ENDBRANCH   6  14
TORSDOF 4
ENDMDL
MODEL 6
REMARK VINA RESULT:     4.792      1.168      3.661
REMARK INTER + INTRA:           5.441
REMARK INTER:                   5.492
REMARK INTRA:                  -0.051
REMARK UNBOUND:                -0.051
REMARK SMILES O=C([O-])c1cc(O)c(O)c(O)c1
REMARK SMILES IDX 4 1 5 2 12 3 6 4 10 5 8 6 2 7 1 8 3 9 7 10 11 12 9 14
REMARK H PARENT 7 11 11 13 9 15
REMARK Flexibility Score: inf
ROOT
ATOM      1  C   UNL     1     111.757 112.503 108.436  1.00  0.00     0.005 A 
ATOM      2  C   UNL     1     111.519 111.515 107.466  1.00  0.00     0.060 A 
ATOM      3  C   UNL     1     111.582 112.185 109.792  1.00  0.00     0.060 A 
ATOM      4  C   UNL     1     111.112 110.228 107.845  1.00  0.00     0.162 A 
ATOM      5  C   UNL     1     111.175 110.899 110.177  1.00  0.00     0.162 A 
ATOM      6  C   UNL     1     110.940 109.918 109.199  1.00  0.00     0.200 A 
ENDROOT
BRANCH   1   7
ATOM      7  C   UNL     1     112.187 113.863 108.038  1.00  0.00     0.072 C 
ATOM      8  O   UNL     1     112.930 114.546 108.791  1.00  0.00    -0.545 OA
ATOM      9  O   UNL     1     111.775 114.405 106.825  1.00  0.00    -0.545 OA
ENDBRANCH   1   7
BRANCH   4  10
ATOM     10  O   UNL     1     110.879 109.251 106.879  1.00  0.00    -0.504 OA
ATOM     11  H   UNL     1     110.094 108.612 106.948  1.00  0.00     0.293 HD
ENDBRANCH   4  10
BRANCH   5  12
ATOM     12  O   UNL     1     111.002 110.594 111.526  1.00  0.00    -0.504 OA
ATOM     13  H   UNL     1     111.791 110.501 112.155  1.00  0.00     0.293 HD
ENDBRANCH   5  12
BRANCH   6  14
ATOM     14  O   UNL     1     110.534 108.631 109.557  1.00  0.00    -0.502 OA
ATOM     15  H   UNL     1     111.106 108.027 110.134  1.00  0.00     0.293 HD
ENDBRANCH   6  14
TORSDOF 4
ENDMDL
MODEL 7
REMARK VINA RESULT:     4.861      1.167      3.893
REMARK INTER + INTRA:           5.521
REMARK INTER:                   5.571
REMARK INTRA:                  -0.050
REMARK UNBOUND:                -0.051
REMARK SMILES O=C([O-])c1cc(O)c(O)c(O)c1
REMARK SMILES IDX 4 1 5 2 12 3 6 4 10 5 8 6 2 7 1 8 3 9 7 10 11 12 9 14
REMARK H PARENT 7 11 11 13 9 15
REMARK Flexibility Score: inf
ROOT
ATOM      1  C   UNL     1     111.764 112.512 108.427  1.00  0.00     0.005 A 
ATOM      2  C   UNL     1     111.598 112.191 109.785  1.00  0.00     0.060 A 
ATOM      3  C   UNL     1     111.512 111.528 107.457  1.00  0.00     0.060 A 
ATOM      4  C   UNL     1     111.187 110.906 110.168  1.00  0.00     0.162 A 
ATOM      5  C   UNL     1     111.100 110.242 107.836  1.00  0.00     0.162 A 
ATOM      6  C   UNL     1     110.937 109.931 109.196  1.00  0.00     0.200 A 
ENDROOT
BRANCH   1   7
ATOM      7  C   UNL     1     112.198 113.867 108.020  1.00  0.00     0.072 C 
ATOM      8  O   UNL     1     112.955 114.548 108.762  1.00  0.00    -0.545 OA
ATOM      9  O   UNL     1     111.775 114.409 106.811  1.00  0.00    -0.545 OA
ENDBRANCH   1   7
BRANCH   4  10
ATOM     10  O   UNL     1     111.023 110.593 111.516  1.00  0.00    -0.504 OA
ATOM     11  H   UNL     1     110.238 110.948 112.053  1.00  0.00     0.293 HD
ENDBRANCH   4  10
BRANCH   5  12
ATOM     12  O   UNL     1     110.854 109.272 106.864  1.00  0.00    -0.504 OA
ATOM     13  H   UNL     1     110.160 109.410 106.140  1.00  0.00     0.293 HD
ENDBRANCH   5  12
BRANCH   6  14
ATOM     14  O   UNL     1     110.529 108.658 109.597  1.00  0.00    -0.502 OA
ATOM     15  H   UNL     1     109.628 108.493 110.030  1.00  0.00     0.293 HD
ENDBRANCH   6  14
TORSDOF 4
ENDMDL
MODEL 8
REMARK VINA RESULT:     5.678     12.569     15.028
REMARK INTER + INTRA:           6.457
REMARK INTER:                   6.510
REMARK INTRA:                  -0.053
REMARK UNBOUND:                -0.051
REMARK SMILES O=C([O-])c1cc(O)c(O)c(O)c1
REMARK SMILES IDX 4 1 5 2 12 3 6 4 10 5 8 6 2 7 1 8 3 9 7 10 11 12 9 14
REMARK H PARENT 7 11 11 13 9 15
REMARK Flexibility Score: inf
ROOT
ATOM      1  C   UNL     1     102.370 109.333 119.325  1.00  0.00     0.005 A 
ATOM      2  C   UNL     1     103.425 108.449 119.609  1.00  0.00     0.060 A 
ATOM      3  C   UNL     1     101.522 109.740 120.368  1.00  0.00     0.060 A 
ATOM      4  C   UNL     1     103.630 107.980 120.914  1.00  0.00     0.162 A 
ATOM      5  C   UNL     1     101.723 109.274 121.675  1.00  0.00     0.162 A 
ATOM      6  C   UNL     1     102.782 108.391 121.948  1.00  0.00     0.200 A 
ENDROOT
BRANCH   1   7
ATOM      7  C   UNL     1     102.151 109.829 117.948  1.00  0.00     0.072 C 
ATOM      8  O   UNL     1     101.205 110.622 117.695  1.00  0.00    -0.545 OA
ATOM      9  O   UNL     1     102.987 109.426 116.912  1.00  0.00    -0.545 OA
ENDBRANCH   1   7
BRANCH   4  10
ATOM     10  O   UNL     1     104.679 107.105 121.190  1.00  0.00    -0.504 OA
ATOM     11  H   UNL     1     104.817 106.716 122.116  1.00  0.00     0.293 HD
ENDBRANCH   4  10
BRANCH   5  12
ATOM     12  O   UNL     1     100.875 109.684 122.703  1.00  0.00    -0.504 OA
ATOM     13  H   UNL     1     100.793 109.160 123.566  1.00  0.00     0.293 HD
ENDBRANCH   5  12
BRANCH   6  14
ATOM     14  O   UNL     1     103.002 107.913 123.241  1.00  0.00    -0.502 OA
ATOM     15  H   UNL     1     103.843 108.134 123.761  1.00  0.00     0.293 HD
ENDBRANCH   6  14
TORSDOF 4
ENDMDL
MODEL 9
REMARK VINA RESULT:     5.830     12.516     15.055
REMARK INTER + INTRA:           6.631
REMARK INTER:                   6.684
REMARK INTRA:                  -0.053
REMARK UNBOUND:                -0.051
REMARK SMILES O=C([O-])c1cc(O)c(O)c(O)c1
REMARK SMILES IDX 4 1 5 2 12 3 6 4 10 5 8 6 2 7 1 8 3 9 7 10 11 12 9 14
REMARK H PARENT 7 11 11 13 9 15
REMARK Flexibility Score: inf
ROOT
ATOM      1  C   UNL     1     102.396 109.377 119.260  1.00  0.00     0.005 A 
ATOM      2  C   UNL     1     101.546 109.816 120.290  1.00  0.00     0.060 A 
ATOM      3  C   UNL     1     103.426 108.472 119.564  1.00  0.00     0.060 A 
ATOM      4  C   UNL     1     101.723 109.357 121.603  1.00  0.00     0.162 A 
ATOM      5  C   UNL     1     103.607 108.011 120.876  1.00  0.00     0.162 A 
ATOM      6  C   UNL     1     102.752 108.455 121.898  1.00  0.00     0.200 A 
ENDROOT
BRANCH   1   7
ATOM      7  C   UNL     1     102.212 109.859 117.873  1.00  0.00     0.072 C 
ATOM      8  O   UNL     1     101.243 110.608 117.578  1.00  0.00    -0.545 OA
ATOM      9  O   UNL     1     103.107 109.491 116.874  1.00  0.00    -0.545 OA
ENDBRANCH   1   7
BRANCH   4  10
ATOM     10  O   UNL     1     100.877 109.795 122.620  1.00  0.00    -0.504 OA
ATOM     11  H   UNL     1     100.075 109.249 122.917  1.00  0.00     0.293 HD
ENDBRANCH   4  10
BRANCH   5  12
ATOM     12  O   UNL     1     104.634 107.113 121.167  1.00  0.00    -0.504 OA
ATOM     13  H   UNL     1     104.888 106.887 122.121  1.00  0.00     0.293 HD
ENDBRANCH   5  12
BRANCH   6  14
ATOM     14  O   UNL     1     102.912 108.011 123.212  1.00  0.00    -0.502 OA
ATOM     15  H   UNL     1     103.800 107.671 123.560  1.00  0.00     0.293 HD
ENDBRANCH   6  14
TORSDOF 4
ENDMDL
