MODEL 1
REMARK VINA RESULT:    -5.944      0.000      0.000
REMARK INTER + INTRA:          -9.377
REMARK INTER:                  -8.377
REMARK INTRA:                  -1.001
REMARK UNBOUND:                -1.001
REMARK SMILES C=CC(=C)CCC=C(C)CCC=C(C)C
REMARK SMILES IDX 8 1 7 2 9 3 10 4 11 5 12 6 14 7 13 8 15 9 6 10 5 11 3 12
REMARK SMILES IDX 4 13 2 14 1 15
REMARK H PARENT
REMARK Flexibility Score: inf
ROOT
ATOM      1  C   UNL     1       2.815  13.215   4.267  1.00  0.00    -0.077 C 
ATOM      2  C   UNL     1       1.776  13.757   3.592  1.00  0.00    -0.028 C 
ATOM      3  C   UNL     1       3.983  12.577   3.554  1.00  0.00     0.039 C 
ENDROOT
BRANCH   1   4
ATOM      4  C   UNL     1       2.810  13.260   5.781  1.00  0.00     0.034 C 
BRANCH   4   5
ATOM      5  C   UNL     1       1.473  13.791   6.309  1.00  0.00     0.032 C 
BRANCH   5   6
ATOM      6  C   UNL     1       0.533  12.662   6.653  1.00  0.00    -0.028 C 
ATOM      7  C   UNL     1      -1.627  11.486   6.717  1.00  0.00     0.039 C 
ATOM      8  C   UNL     1      -0.776  12.668   6.325  1.00  0.00    -0.080 C 
ATOM      9  C   UNL     1      -1.399  13.825   5.580  1.00  0.00     0.039 C 
ENDBRANCH   5   6
ENDBRANCH   4   5
ENDBRANCH   1   4
BRANCH   2  10
ATOM     10  C   UNL     1       1.634  13.746   2.091  1.00  0.00     0.032 C 
BRANCH  10  11
ATOM     11  C   UNL     1       1.319  15.150   1.565  1.00  0.00     0.039 C 
BRANCH  11  12
ATOM     12  C   UNL     1       2.572  15.822   1.044  1.00  0.00    -0.055 C 
ATOM     13  C   UNL     1       2.704  16.017  -0.273  1.00  0.00     0.012 C 
BRANCH  12  14
ATOM     14  C   UNL     1       3.683  16.231   1.940  1.00  0.00    -0.005 C 
ATOM     15  C   UNL     1       4.265  17.430   1.909  1.00  0.00     0.009 C 
ENDBRANCH  12  14
ENDBRANCH  11  12
ENDBRANCH  10  11
ENDBRANCH   2  10
TORSDOF 7
ENDMDL
MODEL 2
REMARK VINA RESULT:    -5.853      0.860      6.155
REMARK INTER + INTRA:          -9.249
REMARK INTER:                  -8.517
REMARK INTRA:                  -0.732
REMARK UNBOUND:                -1.001
REMARK SMILES C=CC(=C)CCC=C(C)CCC=C(C)C
REMARK SMILES IDX 8 1 7 2 9 3 10 4 11 5 12 6 14 7 13 8 15 9 6 10 5 11 3 12
REMARK SMILES IDX 4 13 2 14 1 15
REMARK H PARENT
REMARK Flexibility Score: inf
ROOT
ATOM      1  C   UNL     1       2.373  13.053   3.192  1.00  0.00    -0.077 C 
ATOM      2  C   UNL     1       1.436  13.185   4.158  1.00  0.00    -0.028 C 
ATOM      3  C   UNL     1       3.777  12.587   3.500  1.00  0.00     0.039 C 
ENDROOT
BRANCH   1   4
ATOM      4  C   UNL     1       2.000  13.372   1.759  1.00  0.00     0.034 C 
BRANCH   4   5
ATOM      5  C   UNL     1       1.574  14.837   1.618  1.00  0.00     0.032 C 
BRANCH   5   6
ATOM      6  C   UNL     1       2.674  15.773   2.054  1.00  0.00    -0.028 C 
ATOM      7  C   UNL     1       4.423  17.474   1.740  1.00  0.00     0.039 C 
ATOM      8  C   UNL     1       3.340  16.576   1.197  1.00  0.00    -0.080 C 
ATOM      9  C   UNL     1       3.025  16.591  -0.280  1.00  0.00     0.039 C 
ENDBRANCH   5   6
ENDBRANCH   4   5
ENDBRANCH   1   4
BRANCH   2  10
ATOM     10  C   UNL     1       1.684  12.940   5.626  1.00  0.00     0.032 C 
BRANCH  10  11
ATOM     11  C   UNL     1       0.661  13.694   6.482  1.00  0.00     0.039 C 
BRANCH  11  12
ATOM     12  C   UNL     1      -0.748  13.253   6.147  1.00  0.00    -0.055 C 
ATOM     13  C   UNL     1      -1.077  11.965   6.294  1.00  0.00     0.012 C 
BRANCH  12  14
ATOM     14  C   UNL     1      -1.768  14.193   5.614  1.00  0.00    -0.005 C 
ATOM     15  C   UNL     1      -2.356  15.146   6.338  1.00  0.00     0.009 C 
ENDBRANCH  12  14
ENDBRANCH  11  12
ENDBRANCH  10  11
ENDBRANCH   2  10
TORSDOF 7
ENDMDL
MODEL 3
REMARK VINA RESULT:    -5.784      2.273      5.737
REMARK INTER + INTRA:          -9.151
REMARK INTER:                  -8.111
REMARK INTRA:                  -1.040
REMARK UNBOUND:                -1.001
REMARK SMILES C=CC(=C)CCC=C(C)CCC=C(C)C
REMARK SMILES IDX 8 1 7 2 9 3 10 4 11 5 12 6 14 7 13 8 15 9 6 10 5 11 3 12
REMARK SMILES IDX 4 13 2 14 1 15
REMARK H PARENT
REMARK Flexibility Score: inf
ROOT
ATOM      1  C   UNL     1      -0.210  12.981   6.017  1.00  0.00    -0.077 C 
ATOM      2  C   UNL     1      -0.890  14.136   5.835  1.00  0.00    -0.028 C 
ATOM      3  C   UNL     1      -0.913  11.685   6.345  1.00  0.00     0.039 C 
ENDROOT
BRANCH   1   4
ATOM      4  C   UNL     1       1.297  12.986   5.875  1.00  0.00     0.034 C 
BRANCH   4   5
ATOM      5  C   UNL     1       1.720  12.456   4.501  1.00  0.00     0.032 C 
BRANCH   5   6
ATOM      6  C   UNL     1       2.482  13.500   3.721  1.00  0.00    -0.028 C 
ATOM      7  C   UNL     1       2.763  15.299   2.068  1.00  0.00     0.039 C 
ATOM      8  C   UNL     1       1.908  14.287   2.788  1.00  0.00    -0.080 C 
ATOM      9  C   UNL     1       0.439  14.173   2.453  1.00  0.00     0.039 C 
ENDBRANCH   5   6
ENDBRANCH   4   5
ENDBRANCH   1   4
BRANCH   2  10
ATOM     10  C   UNL     1      -2.384  14.279   5.985  1.00  0.00     0.032 C 
BRANCH  10  11
ATOM     11  C   UNL     1      -2.758  15.725   6.327  1.00  0.00     0.039 C 
BRANCH  11  12
ATOM     12  C   UNL     1      -3.574  16.346   5.213  1.00  0.00    -0.055 C 
ATOM     13  C   UNL     1      -4.277  17.456   5.465  1.00  0.00     0.012 C 
BRANCH  12  14
ATOM     14  C   UNL     1      -3.661  15.739   3.860  1.00  0.00    -0.005 C 
ATOM     15  C   UNL     1      -3.130  16.280   2.764  1.00  0.00     0.009 C 
ENDBRANCH  12  14
ENDBRANCH  11  12
ENDBRANCH  10  11
ENDBRANCH   2  10
TORSDOF 7
ENDMDL
MODEL 4
REMARK VINA RESULT:    -5.779      1.811      3.060
REMARK INTER + INTRA:          -9.144
REMARK INTER:                  -8.110
REMARK INTRA:                  -1.034
REMARK UNBOUND:                -1.001
REMARK SMILES C=CC(=C)CCC=C(C)CCC=C(C)C
REMARK SMILES IDX 8 1 7 2 9 3 10 4 11 5 12 6 14 7 13 8 15 9 6 10 5 11 3 12
REMARK SMILES IDX 4 13 2 14 1 15
REMARK H PARENT
REMARK Flexibility Score: inf
ROOT
ATOM      1  C   UNL     1       0.743  13.734   5.560  1.00  0.00    -0.077 C 
ATOM      2  C   UNL     1       0.497  13.754   4.230  1.00  0.00    -0.028 C 
ATOM      3  C   UNL     1       2.103  13.381   6.114  1.00  0.00     0.039 C 
ENDROOT
BRANCH   1   4
ATOM      4  C   UNL     1      -0.375  14.087   6.518  1.00  0.00     0.034 C 
BRANCH   4   5
ATOM      5  C   UNL     1      -1.744  13.892   5.858  1.00  0.00     0.032 C 
BRANCH   5   6
ATOM      6  C   UNL     1      -2.636  15.089   6.082  1.00  0.00    -0.028 C 
ATOM      7  C   UNL     1      -4.006  17.018   5.411  1.00  0.00     0.039 C 
ATOM      8  C   UNL     1      -3.122  15.844   5.075  1.00  0.00    -0.080 C 
ATOM      9  C   UNL     1      -2.798  15.539   3.631  1.00  0.00     0.039 C 
ENDBRANCH   5   6
ENDBRANCH   4   5
ENDBRANCH   1   4
BRANCH   2  10
ATOM     10  C   UNL     1       1.506  13.387   3.170  1.00  0.00     0.032 C 
BRANCH  10  11
ATOM     11  C   UNL     1       1.661  14.522   2.153  1.00  0.00     0.039 C 
BRANCH  11  12
ATOM     12  C   UNL     1       2.989  15.226   2.333  1.00  0.00    -0.055 C 
ATOM     13  C   UNL     1       3.927  14.657   3.098  1.00  0.00     0.012 C 
BRANCH  12  14
ATOM     14  C   UNL     1       3.271  16.554   1.729  1.00  0.00    -0.005 C 
ATOM     15  C   UNL     1       4.358  17.279   1.994  1.00  0.00     0.009 C 
ENDBRANCH  12  14
ENDBRANCH  11  12
ENDBRANCH  10  11
ENDBRANCH   2  10
TORSDOF 7
ENDMDL
MODEL 5
REMARK VINA RESULT:    -5.585      1.431      5.929
REMARK INTER + INTRA:          -8.871
REMARK INTER:                  -7.671
REMARK INTRA:                  -1.201
REMARK UNBOUND:                -1.001
REMARK SMILES C=CC(=C)CCC=C(C)CCC=C(C)C
REMARK SMILES IDX 8 1 7 2 9 3 10 4 11 5 12 6 14 7 13 8 15 9 6 10 5 11 3 12
REMARK SMILES IDX 4 13 2 14 1 15
REMARK H PARENT
REMARK Flexibility Score: inf
ROOT
ATOM      1  C   UNL     1      -0.334  14.650   2.128  1.00  0.00    -0.077 C 
ATOM      2  C   UNL     1       0.438  14.126   3.107  1.00  0.00    -0.028 C 
ATOM      3  C   UNL     1      -1.818  14.865   2.311  1.00  0.00     0.039 C 
ENDROOT
BRANCH   1   4
ATOM      4  C   UNL     1       0.311  15.041   0.815  1.00  0.00     0.034 C 
BRANCH   4   5
ATOM      5  C   UNL     1       1.824  14.801   0.856  1.00  0.00     0.032 C 
BRANCH   5   6
ATOM      6  C   UNL     1       2.585  16.104   0.900  1.00  0.00    -0.028 C 
ATOM      7  C   UNL     1       4.274  17.684   1.735  1.00  0.00     0.039 C 
ATOM      8  C   UNL     1       3.580  16.347   1.779  1.00  0.00    -0.080 C 
ATOM      9  C   UNL     1       4.005  15.314   2.796  1.00  0.00     0.039 C 
ENDBRANCH   5   6
ENDBRANCH   4   5
ENDBRANCH   1   4
BRANCH   2  10
ATOM     10  C   UNL     1      -0.081  13.658   4.444  1.00  0.00     0.032 C 
BRANCH  10  11
ATOM     11  C   UNL     1       0.712  12.444   4.939  1.00  0.00     0.039 C 
BRANCH  11  12
ATOM     12  C   UNL     1       2.110  12.849   5.355  1.00  0.00    -0.055 C 
ATOM     13  C   UNL     1       2.271  13.571   6.470  1.00  0.00     0.012 C 
BRANCH  12  14
ATOM     14  C   UNL     1       3.308  12.513   4.543  1.00  0.00    -0.005 C 
ATOM     15  C   UNL     1       3.286  11.715   3.476  1.00  0.00     0.009 C 
ENDBRANCH  12  14
ENDBRANCH  11  12
ENDBRANCH  10  11
ENDBRANCH   2  10
TORSDOF 7
ENDMDL
MODEL 6
REMARK VINA RESULT:    -5.576      1.709      2.807
REMARK INTER + INTRA:          -8.858
REMARK INTER:                  -7.619
REMARK INTRA:                  -1.239
REMARK UNBOUND:                -1.001
REMARK SMILES C=CC(=C)CCC=C(C)CCC=C(C)C
REMARK SMILES IDX 8 1 7 2 9 3 10 4 11 5 12 6 14 7 13 8 15 9 6 10 5 11 3 12
REMARK SMILES IDX 4 13 2 14 1 15
REMARK H PARENT
REMARK Flexibility Score: inf
ROOT
ATOM      1  C   UNL     1       2.876  13.110   3.952  1.00  0.00    -0.077 C 
ATOM      2  C   UNL     1       2.351  14.170   3.296  1.00  0.00    -0.028 C 
ATOM      3  C   UNL     1       3.273  11.843   3.231  1.00  0.00     0.039 C 
ENDROOT
BRANCH   1   4
ATOM      4  C   UNL     1       3.081  13.201   5.449  1.00  0.00     0.034 C 
BRANCH   4   5
ATOM      5  C   UNL     1       1.853  13.810   6.134  1.00  0.00     0.032 C 
BRANCH   5   6
ATOM      6  C   UNL     1       0.839  12.750   6.486  1.00  0.00    -0.028 C 
ATOM      7  C   UNL     1      -1.342  11.617   6.390  1.00  0.00     0.039 C 
ATOM      8  C   UNL     1      -0.408  12.724   5.970  1.00  0.00    -0.080 C 
ATOM      9  C   UNL     1      -0.881  13.773   4.992  1.00  0.00     0.039 C 
ENDBRANCH   5   6
ENDBRANCH   4   5
ENDBRANCH   1   4
BRANCH   2  10
ATOM     10  C   UNL     1       2.058  14.199   1.817  1.00  0.00     0.032 C 
BRANCH  10  11
ATOM     11  C   UNL     1       0.657  14.760   1.553  1.00  0.00     0.039 C 
BRANCH  11  12
ATOM     12  C   UNL     1      -0.091  13.892   0.564  1.00  0.00    -0.055 C 
ATOM     13  C   UNL     1      -1.428  13.865   0.605  1.00  0.00     0.012 C 
BRANCH  12  14
ATOM     14  C   UNL     1       0.609  13.031  -0.423  1.00  0.00    -0.005 C 
ATOM     15  C   UNL     1      -0.007  12.359  -1.397  1.00  0.00     0.009 C 
ENDBRANCH  12  14
ENDBRANCH  11  12
ENDBRANCH  10  11
ENDBRANCH   2  10
TORSDOF 7
ENDMDL
MODEL 7
REMARK VINA RESULT:    -5.515      2.334      4.889
REMARK INTER + INTRA:          -8.772
REMARK INTER:                  -7.783
REMARK INTRA:                  -0.989
REMARK UNBOUND:                -1.001
REMARK SMILES C=CC(=C)CCC=C(C)CCC=C(C)C
REMARK SMILES IDX 8 1 7 2 9 3 10 4 11 5 12 6 14 7 13 8 15 9 6 10 5 11 3 12
REMARK SMILES IDX 4 13 2 14 1 15
REMARK H PARENT
REMARK Flexibility Score: inf
ROOT
ATOM      1  C   UNL     1      -1.139  12.975   6.255  1.00  0.00    -0.077 C 
ATOM      2  C   UNL     1       0.014  13.677   6.178  1.00  0.00    -0.028 C 
ATOM      3  C   UNL     1      -1.151  11.485   6.507  1.00  0.00     0.039 C 
ENDROOT
BRANCH   1   4
ATOM      4  C   UNL     1      -2.456  13.705   6.096  1.00  0.00     0.034 C 
BRANCH   4   5
ATOM      5  C   UNL     1      -2.274  14.990   5.279  1.00  0.00     0.032 C 
BRANCH   5   6
ATOM      6  C   UNL     1      -3.143  16.104   5.808  1.00  0.00    -0.028 C 
ATOM      7  C   UNL     1      -4.885  17.835   5.688  1.00  0.00     0.039 C 
ATOM      8  C   UNL     1      -4.071  16.734   5.058  1.00  0.00    -0.080 C 
ATOM      9  C   UNL     1      -4.305  16.361   3.613  1.00  0.00     0.039 C 
ENDBRANCH   5   6
ENDBRANCH   4   5
ENDBRANCH   1   4
BRANCH   2  10
ATOM     10  C   UNL     1       1.391  13.070   6.279  1.00  0.00     0.032 C 
BRANCH  10  11
ATOM     11  C   UNL     1       2.347  13.724   5.275  1.00  0.00     0.039 C 
BRANCH  11  12
ATOM     12  C   UNL     1       2.400  12.929   3.988  1.00  0.00    -0.055 C 
ATOM     13  C   UNL     1       3.197  11.856   3.920  1.00  0.00     0.012 C 
BRANCH  12  14
ATOM     14  C   UNL     1       1.632  13.325   2.779  1.00  0.00    -0.005 C 
ATOM     15  C   UNL     1       0.803  14.368   2.730  1.00  0.00     0.009 C 
ENDBRANCH  12  14
ENDBRANCH  11  12
ENDBRANCH  10  11
ENDBRANCH   2  10
TORSDOF 7
ENDMDL
MODEL 8
REMARK VINA RESULT:    -5.491      2.167      5.305
REMARK INTER + INTRA:          -8.738
REMARK INTER:                  -7.629
REMARK INTRA:                  -1.109
REMARK UNBOUND:                -1.001
REMARK SMILES C=CC(=C)CCC=C(C)CCC=C(C)C
REMARK SMILES IDX 8 1 7 2 9 3 10 4 11 5 12 6 14 7 13 8 15 9 6 10 5 11 3 12
REMARK SMILES IDX 4 13 2 14 1 15
REMARK H PARENT
REMARK Flexibility Score: inf
ROOT
ATOM      1  C   UNL     1      -0.022  14.825   2.027  1.00  0.00    -0.077 C 
ATOM      2  C   UNL     1       0.354  14.108   3.110  1.00  0.00    -0.028 C 
ATOM      3  C   UNL     1       0.944  15.154   0.913  1.00  0.00     0.039 C 
ENDROOT
BRANCH   1   4
ATOM      4  C   UNL     1      -1.456  15.300   1.922  1.00  0.00     0.034 C 
BRANCH   4   5
ATOM      5  C   UNL     1      -2.272  14.850   3.139  1.00  0.00     0.032 C 
BRANCH   5   6
ATOM      6  C   UNL     1      -3.116  15.978   3.681  1.00  0.00    -0.028 C 
ATOM      7  C   UNL     1      -4.184  17.334   5.432  1.00  0.00     0.039 C 
ATOM      8  C   UNL     1      -3.323  16.175   5.000  1.00  0.00    -0.080 C 
ATOM      9  C   UNL     1      -2.716  15.263   6.040  1.00  0.00     0.039 C 
ENDBRANCH   5   6
ENDBRANCH   4   5
ENDBRANCH   1   4
BRANCH   2  10
ATOM     10  C   UNL     1       1.755  13.609   3.359  1.00  0.00     0.032 C 
BRANCH  10  11
ATOM     11  C   UNL     1       1.745  12.431   4.339  1.00  0.00     0.039 C 
BRANCH  11  12
ATOM     12  C   UNL     1       1.413  12.900   5.739  1.00  0.00    -0.055 C 
ATOM     13  C   UNL     1       2.354  13.530   6.452  1.00  0.00     0.012 C 
BRANCH  12  14
ATOM     14  C   UNL     1       0.093  12.643   6.370  1.00  0.00    -0.005 C 
ATOM     15  C   UNL     1      -0.833  11.832   5.859  1.00  0.00     0.009 C 
ENDBRANCH  12  14
ENDBRANCH  11  12
ENDBRANCH  10  11
ENDBRANCH   2  10
TORSDOF 7
ENDMDL
MODEL 9
REMARK VINA RESULT:    -5.472      1.813      5.812
REMARK INTER + INTRA:          -8.712
REMARK INTER:                  -7.766
REMARK INTRA:                  -0.947
REMARK UNBOUND:                -1.001
REMARK SMILES C=CC(=C)CCC=C(C)CCC=C(C)C
REMARK SMILES IDX 8 1 7 2 9 3 10 4 11 5 12 6 14 7 13 8 15 9 6 10 5 11 3 12
REMARK SMILES IDX 4 13 2 14 1 15
REMARK H PARENT
REMARK Flexibility Score: inf
ROOT
ATOM      1  C   UNL     1       1.669  13.007   5.401  1.00  0.00    -0.077 C 
ATOM      2  C   UNL     1       0.394  13.068   4.954  1.00  0.00    -0.028 C 
ATOM      3  C   UNL     1       2.037  13.379   6.818  1.00  0.00     0.039 C 
ENDROOT
BRANCH   1   4
ATOM      4  C   UNL     1       2.757  12.542   4.456  1.00  0.00     0.034 C 
BRANCH   4   5
ATOM      5  C   UNL     1       2.401  12.878   3.003  1.00  0.00     0.032 C 
BRANCH   5   6
ATOM      6  C   UNL     1       2.958  14.220   2.598  1.00  0.00    -0.028 C 
ATOM      7  C   UNL     1       2.878  16.478   1.625  1.00  0.00     0.039 C 
ATOM      8  C   UNL     1       2.220  15.170   1.986  1.00  0.00    -0.080 C 
ATOM      9  C   UNL     1       0.763  14.948   1.657  1.00  0.00     0.039 C 
ENDBRANCH   5   6
ENDBRANCH   4   5
ENDBRANCH   1   4
BRANCH   2  10
ATOM     10  C   UNL     1      -0.775  13.551   5.776  1.00  0.00     0.032 C 
BRANCH  10  11
ATOM     11  C   UNL     1      -1.674  14.475   4.948  1.00  0.00     0.039 C 
BRANCH  11  12
ATOM     12  C   UNL     1      -2.832  14.983   5.780  1.00  0.00    -0.055 C 
ATOM     13  C   UNL     1      -3.618  14.100   6.407  1.00  0.00     0.012 C 
BRANCH  12  14
ATOM     14  C   UNL     1      -3.157  16.429   5.888  1.00  0.00    -0.005 C 
ATOM     15  C   UNL     1      -3.846  17.109   4.971  1.00  0.00     0.009 C 
ENDBRANCH  12  14
ENDBRANCH  11  12
ENDBRANCH  10  11
ENDBRANCH   2  10
TORSDOF 7
ENDMDL
