MODEL 1
REMARK VINA RESULT:    -6.063      0.000      0.000
REMARK INTER + INTRA:          -6.063
REMARK INTER:                  -6.063
REMARK INTRA:                   0.000
REMARK UNBOUND:                 0.000
REMARK SMILES CC1=CC(=O)[C@H]2C[C@@H]1C2(C)C
REMARK SMILES IDX 1 1 2 2 3 3 4 4 5 5 6 6 7 7 8 8 9 9 10 10 11 11
REMARK H PARENT
REMARK Flexibility Score: inf
ROOT
ATOM      1  C   UNL     1       9.952 -15.634 -29.554  1.00  0.00     0.040 C 
ATOM      2  C   UNL     1      11.103 -16.529 -29.219  1.00  0.00    -0.066 C 
ATOM      3  C   UNL     1      11.038 -17.874 -29.424  1.00  0.00     0.047 C 
ATOM      4  C   UNL     1      12.245 -18.666 -29.019  1.00  0.00     0.159 C 
ATOM      5  O   UNL     1      12.291 -19.919 -29.122  1.00  0.00    -0.295 OA
ATOM      6  C   UNL     1      13.412 -17.844 -28.471  1.00  0.00     0.067 C 
ATOM      7  C   UNL     1      13.541 -16.664 -29.458  1.00  0.00     0.021 C 
ATOM      8  C   UNL     1      12.423 -15.974 -28.643  1.00  0.00     0.022 C 
ATOM      9  C   UNL     1      12.860 -16.837 -27.423  1.00  0.00    -0.019 C 
ATOM     10  C   UNL     1      11.761 -17.324 -26.437  1.00  0.00     0.012 C 
ATOM     11  C   UNL     1      13.988 -16.165 -26.599  1.00  0.00     0.012 C 
ENDROOT
TORSDOF 0
ENDMDL
MODEL 2
REMARK VINA RESULT:    -5.916      1.429      2.706
REMARK INTER + INTRA:          -5.916
REMARK INTER:                  -5.916
REMARK INTRA:                   0.000
REMARK UNBOUND:                 0.000
REMARK SMILES CC1=CC(=O)[C@H]2C[C@@H]1C2(C)C
REMARK SMILES IDX 1 1 2 2 3 3 4 4 5 5 6 6 7 7 8 8 9 9 10 10 11 11
REMARK H PARENT
REMARK Flexibility Score: inf
ROOT
ATOM      1  C   UNL     1      14.388 -14.314 -28.379  1.00  0.00     0.040 C 
ATOM      2  C   UNL     1      13.864 -15.687 -28.663  1.00  0.00    -0.066 C 
ATOM      3  C   UNL     1      13.842 -16.188 -29.930  1.00  0.00     0.047 C 
ATOM      4  C   UNL     1      13.265 -17.563 -30.089  1.00  0.00     0.159 C 
ATOM      5  O   UNL     1      13.154 -18.118 -31.212  1.00  0.00    -0.295 OA
ATOM      6  C   UNL     1      12.821 -18.240 -28.792  1.00  0.00     0.067 C 
ATOM      7  C   UNL     1      13.987 -17.984 -27.813  1.00  0.00     0.021 C 
ATOM      8  C   UNL     1      13.342 -16.606 -27.540  1.00  0.00     0.022 C 
ATOM      9  C   UNL     1      11.979 -17.225 -27.967  1.00  0.00    -0.019 C 
ATOM     10  C   UNL     1      10.966 -16.319 -28.722  1.00  0.00     0.012 C 
ATOM     11  C   UNL     1      11.239 -17.897 -26.783  1.00  0.00     0.012 C 
ENDROOT
TORSDOF 0
ENDMDL
MODEL 3
REMARK VINA RESULT:    -5.865      1.517      3.100
REMARK INTER + INTRA:          -5.865
REMARK INTER:                  -5.865
REMARK INTRA:                   0.000
REMARK UNBOUND:                 0.000
REMARK SMILES CC1=CC(=O)[C@H]2C[C@@H]1C2(C)C
REMARK SMILES IDX 1 1 2 2 3 3 4 4 5 5 6 6 7 7 8 8 9 9 10 10 11 11
REMARK H PARENT
REMARK Flexibility Score: inf
ROOT
ATOM      1  C   UNL     1      14.123 -20.099 -28.819  1.00  0.00     0.040 C 
ATOM      2  C   UNL     1      13.215 -18.914 -28.725  1.00  0.00    -0.066 C 
ATOM      3  C   UNL     1      11.970 -18.929 -29.278  1.00  0.00     0.047 C 
ATOM      4  C   UNL     1      11.167 -17.671 -29.143  1.00  0.00     0.159 C 
ATOM      5  O   UNL     1      10.020 -17.548 -29.645  1.00  0.00    -0.295 OA
ATOM      6  C   UNL     1      11.842 -16.548 -28.354  1.00  0.00     0.067 C 
ATOM      7  C   UNL     1      12.416 -17.254 -27.106  1.00  0.00     0.021 C 
ATOM      8  C   UNL     1      13.632 -17.627 -27.984  1.00  0.00     0.022 C 
ATOM      9  C   UNL     1      13.301 -16.389 -28.867  1.00  0.00    -0.019 C 
ATOM     10  C   UNL     1      13.561 -16.488 -30.397  1.00  0.00     0.012 C 
ATOM     11  C   UNL     1      13.973 -15.094 -28.345  1.00  0.00     0.012 C 
ENDROOT
TORSDOF 0
ENDMDL
MODEL 4
REMARK VINA RESULT:    -5.720      1.540      3.232
REMARK INTER + INTRA:          -5.720
REMARK INTER:                  -5.720
REMARK INTRA:                   0.000
REMARK UNBOUND:                 0.000
REMARK SMILES CC1=CC(=O)[C@H]2C[C@@H]1C2(C)C
REMARK SMILES IDX 1 1 2 2 3 3 4 4 5 5 6 6 7 7 8 8 9 9 10 10 11 11
REMARK H PARENT
REMARK Flexibility Score: inf
ROOT
ATOM      1  C   UNL     1      14.114 -14.987 -28.342  1.00  0.00     0.040 C 
ATOM      2  C   UNL     1      13.012 -15.996 -28.275  1.00  0.00    -0.066 C 
ATOM      3  C   UNL     1      12.599 -16.519 -27.087  1.00  0.00     0.047 C 
ATOM      4  C   UNL     1      11.507 -17.543 -27.155  1.00  0.00     0.159 C 
ATOM      5  O   UNL     1      11.068 -18.127 -26.131  1.00  0.00    -0.295 OA
ATOM      6  C   UNL     1      10.967 -17.830 -28.557  1.00  0.00     0.067 C 
ATOM      7  C   UNL     1      10.774 -16.431 -29.181  1.00  0.00     0.021 C 
ATOM      8  C   UNL     1      12.276 -16.480 -29.543  1.00  0.00     0.022 C 
ATOM      9  C   UNL     1      12.171 -18.033 -29.520  1.00  0.00    -0.019 C 
ATOM     10  C   UNL     1      13.396 -18.844 -29.011  1.00  0.00     0.012 C 
ATOM     11  C   UNL     1      11.739 -18.615 -30.889  1.00  0.00     0.012 C 
ENDROOT
TORSDOF 0
ENDMDL
MODEL 5
REMARK VINA RESULT:    -5.680      1.728      3.174
REMARK INTER + INTRA:          -5.680
REMARK INTER:                  -5.680
REMARK INTRA:                   0.000
REMARK UNBOUND:                 0.000
REMARK SMILES CC1=CC(=O)[C@H]2C[C@@H]1C2(C)C
REMARK SMILES IDX 1 1 2 2 3 3 4 4 5 5 6 6 7 7 8 8 9 9 10 10 11 11
REMARK H PARENT
REMARK Flexibility Score: inf
ROOT
ATOM      1  C   UNL     1      13.451 -19.847 -30.390  1.00  0.00     0.040 C 
ATOM      2  C   UNL     1      13.333 -18.594 -29.582  1.00  0.00    -0.066 C 
ATOM      3  C   UNL     1      13.964 -18.463 -28.381  1.00  0.00     0.047 C 
ATOM      4  C   UNL     1      13.744 -17.172 -27.653  1.00  0.00     0.159 C 
ATOM      5  O   UNL     1      14.240 -16.947 -26.519  1.00  0.00    -0.295 OA
ATOM      6  C   UNL     1      12.873 -16.149 -28.385  1.00  0.00     0.067 C 
ATOM      7  C   UNL     1      13.416 -16.155 -29.830  1.00  0.00     0.021 C 
ATOM      8  C   UNL     1      12.511 -17.384 -30.073  1.00  0.00     0.022 C 
ATOM      9  C   UNL     1      11.603 -16.871 -28.917  1.00  0.00    -0.019 C 
ATOM     10  C   UNL     1      10.913 -17.923 -28.003  1.00  0.00     0.012 C 
ATOM     11  C   UNL     1      10.523 -15.877 -29.412  1.00  0.00     0.012 C 
ENDROOT
TORSDOF 0
ENDMDL
MODEL 6
REMARK VINA RESULT:    -5.499      1.925      2.893
REMARK INTER + INTRA:          -5.499
REMARK INTER:                  -5.499
REMARK INTRA:                   0.000
REMARK UNBOUND:                 0.000
REMARK SMILES CC1=CC(=O)[C@H]2C[C@@H]1C2(C)C
REMARK SMILES IDX 1 1 2 2 3 3 4 4 5 5 6 6 7 7 8 8 9 9 10 10 11 11
REMARK H PARENT
REMARK Flexibility Score: inf
ROOT
ATOM      1  C   UNL     1      13.625 -17.961 -31.655  1.00  0.00     0.040 C 
ATOM      2  C   UNL     1      12.833 -17.515 -30.466  1.00  0.00    -0.066 C 
ATOM      3  C   UNL     1      11.699 -16.774 -30.607  1.00  0.00     0.047 C 
ATOM      4  C   UNL     1      11.012 -16.363 -29.340  1.00  0.00     0.159 C 
ATOM      5  O   UNL     1       9.979 -15.645 -29.338  1.00  0.00    -0.295 OA
ATOM      6  C   UNL     1      11.657 -16.875 -28.052  1.00  0.00     0.067 C 
ATOM      7  C   UNL     1      11.950 -18.363 -28.341  1.00  0.00     0.021 C 
ATOM      8  C   UNL     1      13.250 -17.884 -29.027  1.00  0.00     0.022 C 
ATOM      9  C   UNL     1      13.188 -16.616 -28.127  1.00  0.00    -0.019 C 
ATOM     10  C   UNL     1      13.681 -15.267 -28.725  1.00  0.00     0.012 C 
ATOM     11  C   UNL     1      13.891 -16.826 -26.762  1.00  0.00     0.012 C 
ENDROOT
TORSDOF 0
ENDMDL
MODEL 7
REMARK VINA RESULT:    -5.469      1.176      3.213
REMARK INTER + INTRA:          -5.469
REMARK INTER:                  -5.469
REMARK INTRA:                   0.000
REMARK UNBOUND:                 0.000
REMARK SMILES CC1=CC(=O)[C@H]2C[C@@H]1C2(C)C
REMARK SMILES IDX 1 1 2 2 3 3 4 4 5 5 6 6 7 7 8 8 9 9 10 10 11 11
REMARK H PARENT
REMARK Flexibility Score: inf
ROOT
ATOM      1  C   UNL     1      14.125 -15.297 -27.559  1.00  0.00     0.040 C 
ATOM      2  C   UNL     1      13.325 -16.423 -28.134  1.00  0.00    -0.066 C 
ATOM      3  C   UNL     1      13.768 -17.710 -28.075  1.00  0.00     0.047 C 
ATOM      4  C   UNL     1      12.890 -18.744 -28.713  1.00  0.00     0.159 C 
ATOM      5  O   UNL     1      13.209 -19.960 -28.758  1.00  0.00    -0.295 OA
ATOM      6  C   UNL     1      11.583 -18.216 -29.306  1.00  0.00     0.067 C 
ATOM      7  C   UNL     1      11.026 -17.275 -28.216  1.00  0.00     0.021 C 
ATOM      8  C   UNL     1      11.954 -16.187 -28.803  1.00  0.00     0.022 C 
ATOM      9  C   UNL     1      11.900 -16.954 -30.157  1.00  0.00    -0.019 C 
ATOM     10  C   UNL     1      13.175 -16.963 -31.047  1.00  0.00     0.012 C 
ATOM     11  C   UNL     1      10.700 -16.517 -31.034  1.00  0.00     0.012 C 
ENDROOT
TORSDOF 0
ENDMDL
MODEL 8
REMARK VINA RESULT:    -5.394      1.681      3.143
REMARK INTER + INTRA:          -5.394
REMARK INTER:                  -5.394
REMARK INTRA:                   0.000
REMARK UNBOUND:                 0.000
REMARK SMILES CC1=CC(=O)[C@H]2C[C@@H]1C2(C)C
REMARK SMILES IDX 1 1 2 2 3 3 4 4 5 5 6 6 7 7 8 8 9 9 10 10 11 11
REMARK H PARENT
REMARK Flexibility Score: inf
ROOT
ATOM      1  C   UNL     1      10.111 -15.778 -29.547  1.00  0.00     0.040 C 
ATOM      2  C   UNL     1      11.293 -16.658 -29.286  1.00  0.00    -0.066 C 
ATOM      3  C   UNL     1      12.154 -16.404 -28.261  1.00  0.00     0.047 C 
ATOM      4  C   UNL     1      13.316 -17.340 -28.122  1.00  0.00     0.159 C 
ATOM      5  O   UNL     1      14.200 -17.188 -27.240  1.00  0.00    -0.295 OA
ATOM      6  C   UNL     1      13.352 -18.491 -29.129  1.00  0.00     0.067 C 
ATOM      7  C   UNL     1      11.905 -19.029 -29.141  1.00  0.00     0.021 C 
ATOM      8  C   UNL     1      11.586 -17.902 -30.151  1.00  0.00     0.022 C 
ATOM      9  C   UNL     1      13.091 -17.914 -30.549  1.00  0.00    -0.019 C 
ATOM     10  C   UNL     1      13.759 -16.563 -30.933  1.00  0.00     0.012 C 
ATOM     11  C   UNL     1      13.396 -18.941 -31.669  1.00  0.00     0.012 C 
ENDROOT
TORSDOF 0
ENDMDL
MODEL 9
REMARK VINA RESULT:    -5.317      1.843      3.468
REMARK INTER + INTRA:          -5.317
REMARK INTER:                  -5.317
REMARK INTRA:                   0.000
REMARK UNBOUND:                 0.000
REMARK SMILES CC1=CC(=O)[C@H]2C[C@@H]1C2(C)C
REMARK SMILES IDX 1 1 2 2 3 3 4 4 5 5 6 6 7 7 8 8 9 9 10 10 11 11
REMARK H PARENT
REMARK Flexibility Score: inf
ROOT
ATOM      1  C   UNL     1      11.110 -17.988 -26.123  1.00  0.00     0.040 C 
ATOM      2  C   UNL     1      11.888 -17.490 -27.301  1.00  0.00    -0.066 C 
ATOM      3  C   UNL     1      12.689 -16.392 -27.208  1.00  0.00     0.047 C 
ATOM      4  C   UNL     1      13.392 -15.976 -28.465  1.00  0.00     0.159 C 
ATOM      5  O   UNL     1      14.128 -14.957 -28.516  1.00  0.00    -0.295 OA
ATOM      6  C   UNL     1      13.150 -16.875 -29.678  1.00  0.00     0.067 C 
ATOM      7  C   UNL     1      13.310 -18.308 -29.124  1.00  0.00     0.021 C 
ATOM      8  C   UNL     1      11.837 -18.203 -28.669  1.00  0.00     0.022 C 
ATOM      9  C   UNL     1      11.624 -17.149 -29.795  1.00  0.00    -0.019 C 
ATOM     10  C   UNL     1      10.639 -15.976 -29.526  1.00  0.00     0.012 C 
ATOM     11  C   UNL     1      11.244 -17.801 -31.148  1.00  0.00     0.012 C 
ENDROOT
TORSDOF 0
ENDMDL
