MODEL 1
REMARK VINA RESULT:    -3.659      0.000      0.000
REMARK INTER + INTRA:          -5.871
REMARK INTER:                  -5.371
REMARK INTRA:                  -0.500
REMARK UNBOUND:                -0.500
REMARK SMILES O=C([O-])CCCCCCCC(=O)[O-]
REMARK SMILES IDX 7 1 6 2 5 3 4 4 2 5 1 6 3 7 8 8 9 9 10 10 11 11 12 12 13 13
REMARK H PARENT
REMARK Flexibility Score: inf
ROOT
ATOM      1  C   UNL     1      15.204  12.202  -0.207  1.00  0.00     0.000 C 
ENDROOT
BRANCH   1   2
ATOM      2  C   UNL     1      14.485  13.125  -1.204  1.00  0.00     0.000 C 
BRANCH   2   3
ATOM      3  C   UNL     1      14.795  12.770  -2.669  1.00  0.00     0.006 C 
BRANCH   3   4
ATOM      4  C   UNL     1      15.850  11.662  -2.786  1.00  0.00     0.053 C 
BRANCH   4   5
ATOM      5  C   UNL     1      17.193  12.208  -3.165  1.00  0.00     0.041 C 
ATOM      6  O   UNL     1      17.607  12.102  -4.349  1.00  0.00    -0.550 OA
ATOM      7  O   UNL     1      17.973  12.858  -2.218  1.00  0.00    -0.550 OA
ENDBRANCH   4   5
ENDBRANCH   3   4
ENDBRANCH   2   3
ENDBRANCH   1   2
BRANCH   1   8
ATOM      8  C   UNL     1      15.560  12.911   1.108  1.00  0.00     0.000 C 
BRANCH   8   9
ATOM      9  C   UNL     1      16.909  12.420   1.647  1.00  0.00     0.006 C 
BRANCH   9  10
ATOM     10  C   UNL     1      17.101  10.926   1.371  1.00  0.00     0.053 C 
BRANCH  10  11
ATOM     11  C   UNL     1      18.536  10.630   1.068  1.00  0.00     0.041 C 
ATOM     12  O   UNL     1      18.960   9.445   1.100  1.00  0.00    -0.550 OA
ATOM     13  O   UNL     1      19.395  11.659   0.702  1.00  0.00    -0.550 OA
ENDBRANCH  10  11
ENDBRANCH   9  10
ENDBRANCH   8   9
ENDBRANCH   1   8
TORSDOF 8
ENDMDL
MODEL 2
REMARK VINA RESULT:    -3.556     11.067     11.816
REMARK INTER + INTRA:          -5.720
REMARK INTER:                  -5.070
REMARK INTRA:                  -0.650
REMARK UNBOUND:                -0.500
REMARK SMILES O=C([O-])CCCCCCCC(=O)[O-]
REMARK SMILES IDX 7 1 6 2 5 3 4 4 2 5 1 6 3 7 8 8 9 9 10 10 11 11 12 12 13 13
REMARK H PARENT
REMARK Flexibility Score: inf
ROOT
ATOM      1  C   UNL     1       6.233  10.115   2.142  1.00  0.00     0.000 C 
ENDROOT
BRANCH   1   2
ATOM      2  C   UNL     1       6.854  10.013   0.740  1.00  0.00     0.000 C 
BRANCH   2   3
ATOM      3  C   UNL     1       7.296   8.581   0.391  1.00  0.00     0.006 C 
BRANCH   3   4
ATOM      4  C   UNL     1       6.397   7.941  -0.675  1.00  0.00     0.053 C 
BRANCH   4   5
ATOM      5  C   UNL     1       6.882   6.579  -1.071  1.00  0.00     0.041 C 
ATOM      6  O   UNL     1       6.156   5.569  -0.878  1.00  0.00    -0.550 OA
ATOM      7  O   UNL     1       8.121   6.431  -1.679  1.00  0.00    -0.550 OA
ENDBRANCH   4   5
ENDBRANCH   3   4
ENDBRANCH   2   3
ENDBRANCH   1   2
BRANCH   1   8
ATOM      8  C   UNL     1       4.787   9.598   2.190  1.00  0.00     0.000 C 
BRANCH   8   9
ATOM      9  C   UNL     1       4.606   8.581   3.322  1.00  0.00     0.006 C 
BRANCH   9  10
ATOM     10  C   UNL     1       5.960   8.138   3.886  1.00  0.00     0.053 C 
BRANCH  10  11
ATOM     11  C   UNL     1       6.226   6.706   3.544  1.00  0.00     0.041 C 
ATOM     12  O   UNL     1       5.942   6.264   2.400  1.00  0.00    -0.550 OA
ATOM     13  O   UNL     1       6.833   5.871   4.474  1.00  0.00    -0.550 OA
ENDBRANCH  10  11
ENDBRANCH   9  10
ENDBRANCH   8   9
ENDBRANCH   1   8
TORSDOF 8
ENDMDL
MODEL 3
REMARK VINA RESULT:    -3.534     11.132     12.462
REMARK INTER + INTRA:          -5.687
REMARK INTER:                  -4.903
REMARK INTRA:                  -0.784
REMARK UNBOUND:                -0.500
REMARK SMILES O=C([O-])CCCCCCCC(=O)[O-]
REMARK SMILES IDX 7 1 6 2 5 3 4 4 2 5 1 6 3 7 8 8 9 9 10 10 11 11 12 12 13 13
REMARK H PARENT
REMARK Flexibility Score: inf
ROOT
ATOM      1  C   UNL     1       4.137   9.425   1.546  1.00  0.00     0.000 C 
ENDROOT
BRANCH   1   2
ATOM      2  C   UNL     1       3.467   8.576   2.638  1.00  0.00     0.000 C 
BRANCH   2   3
ATOM      3  C   UNL     1       4.337   8.443   3.901  1.00  0.00     0.006 C 
BRANCH   3   4
ATOM      4  C   UNL     1       5.822   8.256   3.563  1.00  0.00     0.053 C 
BRANCH   4   5
ATOM      5  C   UNL     1       6.172   6.813   3.362  1.00  0.00     0.041 C 
ATOM      6  O   UNL     1       6.508   6.102   4.345  1.00  0.00    -0.550 OA
ATOM      7  O   UNL     1       6.098   6.248   2.096  1.00  0.00    -0.550 OA
ENDBRANCH   4   5
ENDBRANCH   3   4
ENDBRANCH   2   3
ENDBRANCH   1   2
BRANCH   1   8
ATOM      8  C   UNL     1       4.297   8.667   0.219  1.00  0.00     0.000 C 
BRANCH   8   9
ATOM      9  C   UNL     1       5.748   8.722  -0.272  1.00  0.00     0.006 C 
BRANCH   9  10
ATOM     10  C   UNL     1       6.354  10.111  -0.042  1.00  0.00     0.053 C 
BRANCH  10  11
ATOM     11  C   UNL     1       7.678   9.997   0.642  1.00  0.00     0.041 C 
ATOM     12  O   UNL     1       8.258  11.026   1.077  1.00  0.00    -0.550 OA
ATOM     13  O   UNL     1       8.252   8.747   0.845  1.00  0.00    -0.550 OA
ENDBRANCH  10  11
ENDBRANCH   9  10
ENDBRANCH   8   9
ENDBRANCH   1   8
TORSDOF 8
ENDMDL
MODEL 4
REMARK VINA RESULT:    -3.505     11.210     12.025
REMARK INTER + INTRA:          -5.644
REMARK INTER:                  -4.797
REMARK INTRA:                  -0.847
REMARK UNBOUND:                -0.500
REMARK SMILES O=C([O-])CCCCCCCC(=O)[O-]
REMARK SMILES IDX 7 1 6 2 5 3 4 4 2 5 1 6 3 7 8 8 9 9 10 10 11 11 12 12 13 13
REMARK H PARENT
REMARK Flexibility Score: inf
ROOT
ATOM      1  C   UNL     1       3.774   9.312   1.597  1.00  0.00     0.000 C 
ENDROOT
BRANCH   1   2
ATOM      2  C   UNL     1       4.100   8.688   0.230  1.00  0.00     0.000 C 
BRANCH   2   3
ATOM      3  C   UNL     1       5.499   9.077  -0.280  1.00  0.00     0.006 C 
BRANCH   3   4
ATOM      4  C   UNL     1       6.052  10.317   0.437  1.00  0.00     0.053 C 
BRANCH   4   5
ATOM      5  C   UNL     1       7.514  10.182   0.738  1.00  0.00     0.041 C 
ATOM      6  O   UNL     1       8.198  11.202   1.014  1.00  0.00    -0.550 OA
ATOM      7  O   UNL     1       8.112   8.929   0.742  1.00  0.00    -0.550 OA
ENDBRANCH   4   5
ENDBRANCH   3   4
ENDBRANCH   2   3
ENDBRANCH   1   2
BRANCH   1   8
ATOM      8  C   UNL     1       3.470   8.260   2.673  1.00  0.00     0.000 C 
BRANCH   8   9
ATOM      9  C   UNL     1       4.404   8.422   3.878  1.00  0.00     0.006 C 
BRANCH   9  10
ATOM     10  C   UNL     1       5.869   8.248   3.465  1.00  0.00     0.053 C 
BRANCH  10  11
ATOM     11  C   UNL     1       6.161   6.812   3.167  1.00  0.00     0.041 C 
ATOM     12  O   UNL     1       6.326   5.990   4.106  1.00  0.00    -0.550 OA
ATOM     13  O   UNL     1       6.205   6.370   1.851  1.00  0.00    -0.550 OA
ENDBRANCH  10  11
ENDBRANCH   9  10
ENDBRANCH   8   9
ENDBRANCH   1   8
TORSDOF 8
ENDMDL
MODEL 5
REMARK VINA RESULT:    -3.412     17.255     18.304
REMARK INTER + INTRA:          -5.508
REMARK INTER:                  -4.898
REMARK INTRA:                  -0.610
REMARK UNBOUND:                -0.500
REMARK SMILES O=C([O-])CCCCCCCC(=O)[O-]
REMARK SMILES IDX 7 1 6 2 5 3 4 4 2 5 1 6 3 7 8 8 9 9 10 10 11 11 12 12 13 13
REMARK H PARENT
REMARK Flexibility Score: inf
ROOT
ATOM      1  C   UNL     1      14.419  -6.047   2.138  1.00  0.00     0.000 C 
ENDROOT
BRANCH   1   2
ATOM      2  C   UNL     1      14.515  -7.125   1.046  1.00  0.00     0.000 C 
BRANCH   2   3
ATOM      3  C   UNL     1      13.500  -6.907  -0.091  1.00  0.00     0.006 C 
BRANCH   3   4
ATOM      4  C   UNL     1      12.172  -6.332   0.420  1.00  0.00     0.053 C 
BRANCH   4   5
ATOM      5  C   UNL     1      11.949  -4.930  -0.060  1.00  0.00     0.041 C 
ATOM      6  O   UNL     1      12.612  -4.483  -1.032  1.00  0.00    -0.550 OA
ATOM      7  O   UNL     1      10.990  -4.130   0.546  1.00  0.00    -0.550 OA
ENDBRANCH   4   5
ENDBRANCH   3   4
ENDBRANCH   2   3
ENDBRANCH   1   2
BRANCH   1   8
ATOM      8  C   UNL     1      14.433  -6.637   3.556  1.00  0.00     0.000 C 
BRANCH   8   9
ATOM      9  C   UNL     1      13.028  -6.629   4.168  1.00  0.00     0.006 C 
BRANCH   9  10
ATOM     10  C   UNL     1      12.319  -5.297   3.901  1.00  0.00     0.053 C 
BRANCH  10  11
ATOM     11  C   UNL     1      12.697  -4.287   4.938  1.00  0.00     0.041 C 
ATOM     12  O   UNL     1      12.202  -4.349   6.093  1.00  0.00    -0.550 OA
ATOM     13  O   UNL     1      13.635  -3.306   4.642  1.00  0.00    -0.550 OA
ENDBRANCH  10  11
ENDBRANCH   9  10
ENDBRANCH   8   9
ENDBRANCH   1   8
TORSDOF 8
ENDMDL
MODEL 6
REMARK VINA RESULT:    -3.409     11.254     12.554
REMARK INTER + INTRA:          -5.504
REMARK INTER:                  -4.675
REMARK INTRA:                  -0.829
REMARK UNBOUND:                -0.500
REMARK SMILES O=C([O-])CCCCCCCC(=O)[O-]
REMARK SMILES IDX 7 1 6 2 5 3 4 4 2 5 1 6 3 7 8 8 9 9 10 10 11 11 12 12 13 13
REMARK H PARENT
REMARK Flexibility Score: inf
ROOT
ATOM      1  C   UNL     1       7.987   8.945   0.926  1.00  0.00     0.000 C 
ENDROOT
BRANCH   1   2
ATOM      2  C   UNL     1       6.849   8.161   0.254  1.00  0.00     0.000 C 
BRANCH   2   3
ATOM      3  C   UNL     1       6.444   6.907   1.048  1.00  0.00     0.006 C 
BRANCH   3   4
ATOM      4  C   UNL     1       5.342   7.203   2.075  1.00  0.00     0.053 C 
BRANCH   4   5
ATOM      5  C   UNL     1       5.884   7.277   3.470  1.00  0.00     0.041 C 
ATOM      6  O   UNL     1       5.912   8.378   4.079  1.00  0.00    -0.550 OA
ATOM      7  O   UNL     1       6.329   6.126   4.106  1.00  0.00    -0.550 OA
ENDBRANCH   4   5
ENDBRANCH   3   4
ENDBRANCH   2   3
ENDBRANCH   1   2
BRANCH   1   8
ATOM      8  C   UNL     1       7.781  10.466   0.860  1.00  0.00     0.000 C 
BRANCH   8   9
ATOM      9  C   UNL     1       6.712  10.919   1.860  1.00  0.00     0.006 C 
BRANCH   9  10
ATOM     10  C   UNL     1       5.511  11.538   1.139  1.00  0.00     0.053 C 
BRANCH  10  11
ATOM     11  C   UNL     1       4.314  10.647   1.256  1.00  0.00     0.041 C 
ATOM     12  O   UNL     1       3.855  10.066   0.238  1.00  0.00    -0.550 OA
ATOM     13  O   UNL     1       3.735  10.421   2.498  1.00  0.00    -0.550 OA
ENDBRANCH  10  11
ENDBRANCH   9  10
ENDBRANCH   8   9
ENDBRANCH   1   8
TORSDOF 8
ENDMDL
MODEL 7
REMARK VINA RESULT:    -3.323     10.857     11.758
REMARK INTER + INTRA:          -5.378
REMARK INTER:                  -4.722
REMARK INTRA:                  -0.656
REMARK UNBOUND:                -0.500
REMARK SMILES O=C([O-])CCCCCCCC(=O)[O-]
REMARK SMILES IDX 7 1 6 2 5 3 4 4 2 5 1 6 3 7 8 8 9 9 10 10 11 11 12 12 13 13
REMARK H PARENT
REMARK Flexibility Score: inf
ROOT
ATOM      1  C   UNL     1       7.498   7.929   0.220  1.00  0.00     0.000 C 
ENDROOT
BRANCH   1   2
ATOM      2  C   UNL     1       8.176   9.120   0.916  1.00  0.00     0.000 C 
BRANCH   2   3
ATOM      3  C   UNL     1       7.526  10.467   0.552  1.00  0.00     0.006 C 
BRANCH   3   4
ATOM      4  C   UNL     1       7.045  11.232   1.793  1.00  0.00     0.053 C 
BRANCH   4   5
ATOM      5  C   UNL     1       5.708  11.871   1.571  1.00  0.00     0.041 C 
ATOM      6  O   UNL     1       4.947  11.445   0.662  1.00  0.00    -0.550 OA
ATOM      7  O   UNL     1       5.291  12.915   2.385  1.00  0.00    -0.550 OA
ENDBRANCH   4   5
ENDBRANCH   3   4
ENDBRANCH   2   3
ENDBRANCH   1   2
BRANCH   1   8
ATOM      8  C   UNL     1       5.987   8.133   0.031  1.00  0.00     0.000 C 
BRANCH   8   9
ATOM      9  C   UNL     1       5.230   7.858   1.336  1.00  0.00     0.006 C 
BRANCH   9  10
ATOM     10  C   UNL     1       5.829   6.658   2.077  1.00  0.00     0.053 C 
BRANCH  10  11
ATOM     11  C   UNL     1       6.113   7.013   3.502  1.00  0.00     0.041 C 
ATOM     12  O   UNL     1       6.490   6.126   4.313  1.00  0.00    -0.550 OA
ATOM     13  O   UNL     1       6.008   8.332   3.925  1.00  0.00    -0.550 OA
ENDBRANCH  10  11
ENDBRANCH   9  10
ENDBRANCH   8   9
ENDBRANCH   1   8
TORSDOF 8
ENDMDL
MODEL 8
REMARK VINA RESULT:    -3.246     11.463     12.520
REMARK INTER + INTRA:          -5.265
REMARK INTER:                  -4.349
REMARK INTRA:                  -0.916
REMARK UNBOUND:                -0.500
REMARK SMILES O=C([O-])CCCCCCCC(=O)[O-]
REMARK SMILES IDX 7 1 6 2 5 3 4 4 2 5 1 6 3 7 8 8 9 9 10 10 11 11 12 12 13 13
REMARK H PARENT
REMARK Flexibility Score: inf
ROOT
ATOM      1  C   UNL     1       3.785   8.249   3.202  1.00  0.00     0.000 C 
ENDROOT
BRANCH   1   2
ATOM      2  C   UNL     1       5.193   8.204   3.817  1.00  0.00     0.000 C 
BRANCH   2   3
ATOM      3  C   UNL     1       6.234   7.582   2.870  1.00  0.00     0.006 C 
BRANCH   3   4
ATOM      4  C   UNL     1       5.609   7.124   1.544  1.00  0.00     0.053 C 
BRANCH   4   5
ATOM      5  C   UNL     1       6.607   7.127   0.427  1.00  0.00     0.041 C 
ATOM      6  O   UNL     1       7.618   7.876   0.484  1.00  0.00    -0.550 OA
ATOM      7  O   UNL     1       6.437   6.283  -0.662  1.00  0.00    -0.550 OA
ENDBRANCH   4   5
ENDBRANCH   3   4
ENDBRANCH   2   3
ENDBRANCH   1   2
BRANCH   1   8
ATOM      8  C   UNL     1       3.249   9.681   3.050  1.00  0.00     0.000 C 
BRANCH   8   9
ATOM      9  C   UNL     1       3.542  10.230   1.649  1.00  0.00     0.006 C 
BRANCH   9  10
ATOM     10  C   UNL     1       4.545  11.386   1.711  1.00  0.00     0.053 C 
BRANCH  10  11
ATOM     11  C   UNL     1       5.865  10.964   1.148  1.00  0.00     0.041 C 
ATOM     12  O   UNL     1       6.869  10.858   1.900  1.00  0.00    -0.550 OA
ATOM     13  O   UNL     1       5.976  10.641  -0.198  1.00  0.00    -0.550 OA
ENDBRANCH  10  11
ENDBRANCH   9  10
ENDBRANCH   8   9
ENDBRANCH   1   8
TORSDOF 8
ENDMDL
MODEL 9
REMARK VINA RESULT:    -3.201     11.315     12.206
REMARK INTER + INTRA:          -5.199
REMARK INTER:                  -4.230
REMARK INTRA:                  -0.969
REMARK UNBOUND:                -0.500
REMARK SMILES O=C([O-])CCCCCCCC(=O)[O-]
REMARK SMILES IDX 7 1 6 2 5 3 4 4 2 5 1 6 3 7 8 8 9 9 10 10 11 11 12 12 13 13
REMARK H PARENT
REMARK Flexibility Score: inf
ROOT
ATOM      1  C   UNL     1       3.830   8.220   2.936  1.00  0.00     0.000 C 
ENDROOT
BRANCH   1   2
ATOM      2  C   UNL     1       3.325   9.665   2.794  1.00  0.00     0.000 C 
BRANCH   2   3
ATOM      3  C   UNL     1       3.661  10.276   1.422  1.00  0.00     0.006 C 
BRANCH   3   4
ATOM      4  C   UNL     1       4.415  11.607   1.550  1.00  0.00     0.053 C 
BRANCH   4   5
ATOM      5  C   UNL     1       5.893  11.430   1.378  1.00  0.00     0.041 C 
ATOM      6  O   UNL     1       6.620  11.182   2.375  1.00  0.00    -0.550 OA
ATOM      7  O   UNL     1       6.461  11.510   0.114  1.00  0.00    -0.550 OA
ENDBRANCH   4   5
ENDBRANCH   3   4
ENDBRANCH   2   3
ENDBRANCH   1   2
BRANCH   1   8
ATOM      8  C   UNL     1       5.068   8.109   3.839  1.00  0.00     0.000 C 
BRANCH   8   9
ATOM      9  C   UNL     1       6.308   7.722   3.025  1.00  0.00     0.006 C 
BRANCH   9  10
ATOM     10  C   UNL     1       5.915   7.201   1.640  1.00  0.00     0.053 C 
BRANCH  10  11
ATOM     11  C   UNL     1       6.638   7.958   0.571  1.00  0.00     0.041 C 
ATOM     12  O   UNL     1       6.074   8.197  -0.529  1.00  0.00    -0.550 OA
ATOM     13  O   UNL     1       7.918   8.444   0.808  1.00  0.00    -0.550 OA
ENDBRANCH  10  11
ENDBRANCH   9  10
ENDBRANCH   8   9
ENDBRANCH   1   8
TORSDOF 8
ENDMDL
