MODEL 1
REMARK VINA RESULT:    -3.660      0.000      0.000
REMARK INTER + INTRA:          -4.410
REMARK INTER:                  -4.301
REMARK INTRA:                  -0.109
REMARK UNBOUND:                -0.109
REMARK SMILES O=C([O-])CCC(=O)[O-]
REMARK SMILES IDX 4 1 2 2 1 3 3 4 5 5 6 6 7 7 8 8
REMARK H PARENT
REMARK Flexibility Score: inf
ROOT
ATOM      1  C   UNL     1     -28.250 -34.217 -12.655  1.00  0.00     0.059 C 
ENDROOT
BRANCH   1   2
ATOM      2  C   UNL     1     -27.403 -34.999 -13.613  1.00  0.00     0.042 C 
ATOM      3  O   UNL     1     -27.826 -35.246 -14.774  1.00  0.00    -0.550 OA
ATOM      4  O   UNL     1     -26.133 -35.417 -13.240  1.00  0.00    -0.550 OA
ENDBRANCH   1   2
BRANCH   1   5
ATOM      5  C   UNL     1     -28.194 -32.714 -12.947  1.00  0.00     0.059 C 
BRANCH   5   6
ATOM      6  C   UNL     1     -27.497 -31.964 -11.853  1.00  0.00     0.042 C 
ATOM      7  O   UNL     1     -27.961 -30.868 -11.442  1.00  0.00    -0.550 OA
ATOM      8  O   UNL     1     -26.360 -32.496 -11.260  1.00  0.00    -0.550 OA
ENDBRANCH   5   6
ENDBRANCH   1   5
TORSDOF 3
ENDMDL
MODEL 2
REMARK VINA RESULT:    -3.658      0.091      3.800
REMARK INTER + INTRA:          -4.408
REMARK INTER:                  -4.306
REMARK INTRA:                  -0.103
REMARK UNBOUND:                -0.109
REMARK SMILES O=C([O-])CCC(=O)[O-]
REMARK SMILES IDX 4 1 2 2 1 3 3 4 5 5 6 6 7 7 8 8
REMARK H PARENT
REMARK Flexibility Score: inf
ROOT
ATOM      1  C   UNL     1     -28.193 -32.663 -12.980  1.00  0.00     0.059 C 
ENDROOT
BRANCH   1   2
ATOM      2  C   UNL     1     -27.548 -31.877 -11.879  1.00  0.00     0.042 C 
ATOM      3  O   UNL     1     -28.033 -30.771 -11.522  1.00  0.00    -0.550 OA
ATOM      4  O   UNL     1     -26.437 -32.386 -11.218  1.00  0.00    -0.550 OA
ENDBRANCH   1   2
BRANCH   1   5
ATOM      5  C   UNL     1     -28.243 -34.158 -12.654  1.00  0.00     0.059 C 
BRANCH   5   6
ATOM      6  C   UNL     1     -27.393 -34.958 -13.593  1.00  0.00     0.042 C 
ATOM      7  O   UNL     1     -27.798 -35.206 -14.759  1.00  0.00    -0.550 OA
ATOM      8  O   UNL     1     -26.135 -35.394 -13.194  1.00  0.00    -0.550 OA
ENDBRANCH   5   6
ENDBRANCH   1   5
TORSDOF 3
ENDMDL
MODEL 3
REMARK VINA RESULT:    -3.647      0.301      1.181
REMARK INTER + INTRA:          -4.395
REMARK INTER:                  -4.290
REMARK INTRA:                  -0.105
REMARK UNBOUND:                -0.109
REMARK SMILES O=C([O-])CCC(=O)[O-]
REMARK SMILES IDX 4 1 2 2 1 3 3 4 5 5 6 6 7 7 8 8
REMARK H PARENT
REMARK Flexibility Score: inf
ROOT
ATOM      1  C   UNL     1     -28.263 -33.973 -12.529  1.00  0.00     0.059 C 
ENDROOT
BRANCH   1   2
ATOM      2  C   UNL     1     -27.389 -34.808 -13.415  1.00  0.00     0.042 C 
ATOM      3  O   UNL     1     -26.272 -35.215 -12.999  1.00  0.00    -0.550 OA
ATOM      4  O   UNL     1     -27.825 -35.170 -14.683  1.00  0.00    -0.550 OA
ENDBRANCH   1   2
BRANCH   1   5
ATOM      5  C   UNL     1     -28.217 -32.493 -12.920  1.00  0.00     0.059 C 
BRANCH   5   6
ATOM      6  C   UNL     1     -27.590 -31.657 -11.847  1.00  0.00     0.042 C 
ATOM      7  O   UNL     1     -28.121 -30.569 -11.500  1.00  0.00    -0.550 OA
ATOM      8  O   UNL     1     -26.442 -32.099 -11.201  1.00  0.00    -0.550 OA
ENDBRANCH   5   6
ENDBRANCH   1   5
TORSDOF 3
ENDMDL
MODEL 4
REMARK VINA RESULT:    -3.644      0.213      3.906
REMARK INTER + INTRA:          -4.392
REMARK INTER:                  -4.278
REMARK INTRA:                  -0.113
REMARK UNBOUND:                -0.109
REMARK SMILES O=C([O-])CCC(=O)[O-]
REMARK SMILES IDX 4 1 2 2 1 3 3 4 5 5 6 6 7 7 8 8
REMARK H PARENT
REMARK Flexibility Score: inf
ROOT
ATOM      1  C   UNL     1     -28.189 -32.523 -12.936  1.00  0.00     0.059 C 
ENDROOT
BRANCH   1   2
ATOM      2  C   UNL     1     -27.551 -31.768 -11.809  1.00  0.00     0.042 C 
ATOM      3  O   UNL     1     -28.058 -30.688 -11.404  1.00  0.00    -0.550 OA
ATOM      4  O   UNL     1     -26.423 -32.277 -11.180  1.00  0.00    -0.550 OA
ENDBRANCH   1   2
BRANCH   1   5
ATOM      5  C   UNL     1     -28.311 -34.016 -12.618  1.00  0.00     0.059 C 
BRANCH   5   6
ATOM      6  C   UNL     1     -27.415 -34.842 -13.489  1.00  0.00     0.042 C 
ATOM      7  O   UNL     1     -26.291 -35.221 -13.064  1.00  0.00    -0.550 OA
ATOM      8  O   UNL     1     -27.838 -35.229 -14.755  1.00  0.00    -0.550 OA
ENDBRANCH   5   6
ENDBRANCH   1   5
TORSDOF 3
ENDMDL
MODEL 5
REMARK VINA RESULT:    -3.619      1.419      1.985
REMARK INTER + INTRA:          -4.362
REMARK INTER:                  -4.260
REMARK INTRA:                  -0.102
REMARK UNBOUND:                -0.109
REMARK SMILES O=C([O-])CCC(=O)[O-]
REMARK SMILES IDX 4 1 2 2 1 3 3 4 5 5 6 6 7 7 8 8
REMARK H PARENT
REMARK Flexibility Score: inf
ROOT
ATOM      1  C   UNL     1     -27.486 -34.388 -13.617  1.00  0.00     0.059 C 
ENDROOT
BRANCH   1   2
ATOM      2  C   UNL     1     -26.402 -35.081 -12.849  1.00  0.00     0.042 C 
ATOM      3  O   UNL     1     -25.610 -35.863 -13.438  1.00  0.00    -0.550 OA
ATOM      4  O   UNL     1     -26.242 -34.833 -11.492  1.00  0.00    -0.550 OA
ENDBRANCH   1   2
BRANCH   1   5
ATOM      5  C   UNL     1     -28.365 -33.528 -12.704  1.00  0.00     0.059 C 
BRANCH   5   6
ATOM      6  C   UNL     1     -28.037 -32.072 -12.831  1.00  0.00     0.042 C 
ATOM      7  O   UNL     1     -26.867 -31.664 -12.607  1.00  0.00    -0.550 OA
ATOM      8  O   UNL     1     -29.014 -31.171 -13.237  1.00  0.00    -0.550 OA
ENDBRANCH   5   6
ENDBRANCH   1   5
TORSDOF 3
ENDMDL
MODEL 6
REMARK VINA RESULT:    -3.610      2.243      2.917
REMARK INTER + INTRA:          -4.352
REMARK INTER:                  -4.243
REMARK INTRA:                  -0.110
REMARK UNBOUND:                -0.109
REMARK SMILES O=C([O-])CCC(=O)[O-]
REMARK SMILES IDX 4 1 2 2 1 3 3 4 5 5 6 6 7 7 8 8
REMARK H PARENT
REMARK Flexibility Score: inf
ROOT
ATOM      1  C   UNL     1     -25.179 -34.240 -11.887  1.00  0.00     0.059 C 
ENDROOT
BRANCH   1   2
ATOM      2  C   UNL     1     -24.482 -35.368 -12.586  1.00  0.00     0.042 C 
ATOM      3  O   UNL     1     -25.149 -36.221 -13.230  1.00  0.00    -0.550 OA
ATOM      4  O   UNL     1     -23.097 -35.453 -12.562  1.00  0.00    -0.550 OA
ENDBRANCH   1   2
BRANCH   1   5
ATOM      5  C   UNL     1     -26.597 -34.629 -11.460  1.00  0.00     0.059 C 
BRANCH   5   6
ATOM      6  C   UNL     1     -27.635 -33.910 -12.267  1.00  0.00     0.042 C 
ATOM      7  O   UNL     1     -27.978 -32.739 -11.958  1.00  0.00    -0.550 OA
ATOM      8  O   UNL     1     -28.191 -34.518 -13.385  1.00  0.00    -0.550 OA
ENDBRANCH   5   6
ENDBRANCH   1   5
TORSDOF 3
ENDMDL
MODEL 7
REMARK VINA RESULT:    -3.577      1.771      2.583
REMARK INTER + INTRA:          -4.313
REMARK INTER:                  -4.145
REMARK INTRA:                  -0.168
REMARK UNBOUND:                -0.109
REMARK SMILES O=C([O-])CCC(=O)[O-]
REMARK SMILES IDX 4 1 2 2 1 3 3 4 5 5 6 6 7 7 8 8
REMARK H PARENT
REMARK Flexibility Score: inf
ROOT
ATOM      1  C   UNL     1     -27.799 -34.309 -11.784  1.00  0.00     0.059 C 
ENDROOT
BRANCH   1   2
ATOM      2  C   UNL     1     -27.980 -33.649 -13.118  1.00  0.00     0.042 C 
ATOM      3  O   UNL     1     -27.707 -34.277 -14.176  1.00  0.00    -0.550 OA
ATOM      4  O   UNL     1     -28.489 -32.360 -13.195  1.00  0.00    -0.550 OA
ENDBRANCH   1   2
BRANCH   1   5
ATOM      5  C   UNL     1     -26.321 -34.573 -11.480  1.00  0.00     0.059 C 
BRANCH   5   6
ATOM      6  C   UNL     1     -25.514 -33.311 -11.516  1.00  0.00     0.042 C 
ATOM      7  O   UNL     1     -24.485 -33.237 -12.238  1.00  0.00    -0.550 OA
ATOM      8  O   UNL     1     -25.923 -32.203 -10.784  1.00  0.00    -0.550 OA
ENDBRANCH   5   6
ENDBRANCH   1   5
TORSDOF 3
ENDMDL
MODEL 8
REMARK VINA RESULT:    -3.555      1.258      3.559
REMARK INTER + INTRA:          -4.288
REMARK INTER:                  -4.131
REMARK INTRA:                  -0.156
REMARK UNBOUND:                -0.109
REMARK SMILES O=C([O-])CCC(=O)[O-]
REMARK SMILES IDX 4 1 2 2 1 3 3 4 5 5 6 6 7 7 8 8
REMARK H PARENT
REMARK Flexibility Score: inf
ROOT
ATOM      1  C   UNL     1     -28.274 -32.728 -13.036  1.00  0.00     0.059 C 
ENDROOT
BRANCH   1   2
ATOM      2  C   UNL     1     -27.485 -31.593 -12.457  1.00  0.00     0.042 C 
ATOM      3  O   UNL     1     -27.914 -30.976 -11.446  1.00  0.00    -0.550 OA
ATOM      4  O   UNL     1     -26.258 -31.245 -13.007  1.00  0.00    -0.550 OA
ENDBRANCH   1   2
BRANCH   1   5
ATOM      5  C   UNL     1     -28.234 -33.964 -12.132  1.00  0.00     0.059 C 
BRANCH   5   6
ATOM      6  C   UNL     1     -26.890 -34.626 -12.159  1.00  0.00     0.042 C 
ATOM      7  O   UNL     1     -26.184 -34.669 -11.117  1.00  0.00    -0.550 OA
ATOM      8  O   UNL     1     -26.435 -35.231 -13.324  1.00  0.00    -0.550 OA
ENDBRANCH   5   6
ENDBRANCH   1   5
TORSDOF 3
ENDMDL
MODEL 9
REMARK VINA RESULT:    -3.549      2.154      3.638
REMARK INTER + INTRA:          -4.281
REMARK INTER:                  -4.167
REMARK INTRA:                  -0.114
REMARK UNBOUND:                -0.109
REMARK SMILES O=C([O-])CCC(=O)[O-]
REMARK SMILES IDX 4 1 2 2 1 3 3 4 5 5 6 6 7 7 8 8
REMARK H PARENT
REMARK Flexibility Score: inf
ROOT
ATOM      1  C   UNL     1     -26.903 -34.697 -12.124  1.00  0.00     0.059 C 
ENDROOT
BRANCH   1   2
ATOM      2  C   UNL     1     -27.728 -34.226 -13.283  1.00  0.00     0.042 C 
ATOM      3  O   UNL     1     -28.255 -33.082 -13.260  1.00  0.00    -0.550 OA
ATOM      4  O   UNL     1     -27.881 -35.032 -14.403  1.00  0.00    -0.550 OA
ENDBRANCH   1   2
BRANCH   1   5
ATOM      5  C   UNL     1     -25.473 -34.151 -12.189  1.00  0.00     0.059 C 
BRANCH   5   6
ATOM      6  C   UNL     1     -24.509 -35.182 -12.692  1.00  0.00     0.042 C 
ATOM      7  O   UNL     1     -23.270 -34.962 -12.655  1.00  0.00    -0.550 OA
ATOM      8  O   UNL     1     -24.978 -36.403 -13.161  1.00  0.00    -0.550 OA
ENDBRANCH   5   6
ENDBRANCH   1   5
TORSDOF 3
ENDMDL
