MODEL 1
REMARK VINA RESULT:    -4.363      0.000      0.000
REMARK INTER + INTRA:          -6.933
REMARK INTER:                  -6.149
REMARK INTRA:                  -0.784
REMARK UNBOUND:                -0.784
REMARK SMILES COc1ccc(-c2cc(=O)c3c(OC)c(OC)c(OC)c(OC)c3o2)cc1OC
REMARK SMILES IDX 7 1 8 2 9 3 10 4 11 5 24 6 25 7 21 8 18 9 15 10 12 11 6 12
REMARK SMILES IDX 3 13 27 14 4 15 26 16 5 17 2 18 1 19 28 20 29 21 22 22 23 23
REMARK SMILES IDX 13 24 14 25 19 26 20 27 16 28 17 29
REMARK H PARENT
REMARK Flexibility Score: inf
ROOT
ATOM      1  C   UNL     1     -53.411  13.706 -12.306  1.00  0.00     0.138 A 
ATOM      2  C   UNL     1     -53.816  12.527 -12.942  1.00  0.00     0.100 A 
ATOM      3  C   UNL     1     -52.880  11.782 -13.654  1.00  0.00     0.197 A 
ATOM      4  O   UNL     1     -53.256  10.717 -14.216  1.00  0.00    -0.289 OA
ATOM      5  C   UNL     1     -51.540  12.224 -13.728  1.00  0.00     0.115 A 
ATOM      6  C   UNL     1     -51.203  13.424 -13.057  1.00  0.00     0.188 A 
ATOM      7  O   UNL     1     -52.140  14.090 -12.387  1.00  0.00    -0.452 OA
ATOM      8  C   UNL     1     -49.879  13.920 -13.114  1.00  0.00     0.209 A 
ATOM      9  C   UNL     1     -48.890  13.203 -13.804  1.00  0.00     0.211 A 
ATOM     10  C   UNL     1     -49.214  11.979 -14.437  1.00  0.00     0.208 A 
ATOM     11  C   UNL     1     -50.549  11.526 -14.451  1.00  0.00     0.179 A 
ENDROOT
BRANCH   1  12
ATOM     12  C   UNL     1     -54.366  14.538 -11.533  1.00  0.00     0.021 A 
ATOM     13  C   UNL     1     -56.142  16.128 -10.019  1.00  0.00     0.160 A 
ATOM     14  C   UNL     1     -55.261  15.250  -9.370  1.00  0.00     0.161 A 
ATOM     15  C   UNL     1     -56.126  16.214 -11.423  1.00  0.00     0.051 A 
ATOM     16  C   UNL     1     -54.378  14.460 -10.132  1.00  0.00     0.062 A 
ATOM     17  C   UNL     1     -55.245  15.431 -12.171  1.00  0.00     0.016 A 
BRANCH  13  18
ATOM     18  O   UNL     1     -57.015  16.898  -9.234  1.00  0.00    -0.493 OA
ATOM     19  C   UNL     1     -56.889  18.302  -9.030  1.00  0.00     0.278 C 
ENDBRANCH  13  18
BRANCH  14  20
ATOM     20  O   UNL     1     -55.290  15.192  -7.967  1.00  0.00    -0.493 OA
ATOM     21  C   UNL     1     -54.493  16.001  -7.108  1.00  0.00     0.278 C 
ENDBRANCH  14  20
ENDBRANCH   1  12
BRANCH   8  22
ATOM     22  O   UNL     1     -49.470  15.123 -12.504  1.00  0.00    -0.490 OA
ATOM     23  C   UNL     1     -49.190  15.326 -11.123  1.00  0.00     0.278 C 
ENDBRANCH   8  22
BRANCH  11  24
ATOM     24  O   UNL     1     -50.898  10.392 -15.193  1.00  0.00    -0.492 OA
ATOM     25  C   UNL     1     -51.008  10.415 -16.612  1.00  0.00     0.278 C 
ENDBRANCH  11  24
BRANCH   9  26
ATOM     26  O   UNL     1     -47.597  13.762 -13.808  1.00  0.00    -0.490 OA
ATOM     27  C   UNL     1     -46.515  13.418 -12.948  1.00  0.00     0.279 C 
ENDBRANCH   9  26
BRANCH  10  28
ATOM     28  O   UNL     1     -48.209  11.217 -15.041  1.00  0.00    -0.490 OA
ATOM     29  C   UNL     1     -47.539  10.156 -14.367  1.00  0.00     0.278 C 
ENDBRANCH  10  28
TORSDOF 7
ENDMDL
MODEL 2
REMARK VINA RESULT:    -4.356      2.372      8.711
REMARK INTER + INTRA:          -6.923
REMARK INTER:                  -6.154
REMARK INTRA:                  -0.769
REMARK UNBOUND:                -0.784
REMARK SMILES COc1ccc(-c2cc(=O)c3c(OC)c(OC)c(OC)c(OC)c3o2)cc1OC
REMARK SMILES IDX 7 1 8 2 9 3 10 4 11 5 24 6 25 7 21 8 18 9 15 10 12 11 6 12
REMARK SMILES IDX 3 13 27 14 4 15 26 16 5 17 2 18 1 19 28 20 29 21 22 22 23 23
REMARK SMILES IDX 13 24 14 25 19 26 20 27 16 28 17 29
REMARK H PARENT
REMARK Flexibility Score: inf
ROOT
ATOM      1  C   UNL     1     -54.521  14.958 -11.483  1.00  0.00     0.138 A 
ATOM      2  C   UNL     1     -55.340  14.592 -10.409  1.00  0.00     0.100 A 
ATOM      3  C   UNL     1     -56.024  15.580  -9.707  1.00  0.00     0.197 A 
ATOM      4  O   UNL     1     -56.764  15.236  -8.745  1.00  0.00    -0.289 OA
ATOM      5  C   UNL     1     -55.884  16.934 -10.085  1.00  0.00     0.115 A 
ATOM      6  C   UNL     1     -55.042  17.229 -11.183  1.00  0.00     0.188 A 
ATOM      7  O   UNL     1     -54.418  16.241 -11.820  1.00  0.00    -0.452 OA
ATOM      8  C   UNL     1     -54.854  18.571 -11.592  1.00  0.00     0.209 A 
ATOM      9  C   UNL     1     -55.530  19.608 -10.931  1.00  0.00     0.211 A 
ATOM     10  C   UNL     1     -56.408  19.311  -9.861  1.00  0.00     0.208 A 
ATOM     11  C   UNL     1     -56.534  17.984  -9.401  1.00  0.00     0.179 A 
ENDROOT
BRANCH   1  12
ATOM     12  C   UNL     1     -53.770  13.946 -12.267  1.00  0.00     0.021 A 
ATOM     13  C   UNL     1     -52.291  12.035 -13.727  1.00  0.00     0.160 A 
ATOM     14  C   UNL     1     -51.690  13.246 -13.349  1.00  0.00     0.161 A 
ATOM     15  C   UNL     1     -53.626  11.781 -13.365  1.00  0.00     0.051 A 
ATOM     16  C   UNL     1     -52.435  14.195 -12.621  1.00  0.00     0.062 A 
ATOM     17  C   UNL     1     -54.355  12.725 -12.640  1.00  0.00     0.016 A 
BRANCH  13  18
ATOM     18  O   UNL     1     -51.526  11.112 -14.457  1.00  0.00    -0.493 OA
ATOM     19  C   UNL     1     -51.994   9.835 -14.882  1.00  0.00     0.278 C 
ENDBRANCH  13  18
BRANCH  14  20
ATOM     20  O   UNL     1     -50.353  13.470 -13.714  1.00  0.00    -0.493 OA
ATOM     21  C   UNL     1     -49.236  13.253 -12.858  1.00  0.00     0.278 C 
ENDBRANCH  14  20
ENDBRANCH   1  12
BRANCH   8  22
ATOM     22  O   UNL     1     -54.006  18.952 -12.651  1.00  0.00    -0.490 OA
ATOM     23  C   UNL     1     -54.308  18.906 -14.042  1.00  0.00     0.278 C 
ENDBRANCH   8  22
BRANCH  11  24
ATOM     24  O   UNL     1     -57.292  17.706  -8.257  1.00  0.00    -0.492 OA
ATOM     25  C   UNL     1     -56.844  18.043  -6.948  1.00  0.00     0.278 C 
ENDBRANCH  11  24
BRANCH   9  26
ATOM     26  O   UNL     1     -55.292  20.913 -11.402  1.00  0.00    -0.490 OA
ATOM     27  C   UNL     1     -56.116  21.665 -12.287  1.00  0.00     0.279 C 
ENDBRANCH   9  26
BRANCH  10  28
ATOM     28  O   UNL     1     -57.157  20.332  -9.267  1.00  0.00    -0.490 OA
ATOM     29  C   UNL     1     -58.491  20.636  -9.661  1.00  0.00     0.278 C 
ENDBRANCH  10  28
TORSDOF 7
ENDMDL
MODEL 3
REMARK VINA RESULT:    -4.324      9.612     14.339
REMARK INTER + INTRA:          -6.877
REMARK INTER:                  -6.389
REMARK INTRA:                  -0.488
REMARK UNBOUND:                -0.784
REMARK SMILES COc1ccc(-c2cc(=O)c3c(OC)c(OC)c(OC)c(OC)c3o2)cc1OC
REMARK SMILES IDX 7 1 8 2 9 3 10 4 11 5 24 6 25 7 21 8 18 9 15 10 12 11 6 12
REMARK SMILES IDX 3 13 27 14 4 15 26 16 5 17 2 18 1 19 28 20 29 21 22 22 23 23
REMARK SMILES IDX 13 24 14 25 19 26 20 27 16 28 17 29
REMARK H PARENT
REMARK Flexibility Score: inf
ROOT
ATOM      1  C   UNL     1     -54.240  24.744 -14.967  1.00  0.00     0.138 A 
ATOM      2  C   UNL     1     -54.677  25.328 -16.162  1.00  0.00     0.100 A 
ATOM      3  C   UNL     1     -55.993  25.770 -16.262  1.00  0.00     0.197 A 
ATOM      4  O   UNL     1     -56.371  26.301 -17.342  1.00  0.00    -0.289 OA
ATOM      5  C   UNL     1     -56.869  25.622 -15.164  1.00  0.00     0.115 A 
ATOM      6  C   UNL     1     -56.357  25.025 -13.987  1.00  0.00     0.188 A 
ATOM      7  O   UNL     1     -55.087  24.628 -13.948  1.00  0.00    -0.452 OA
ATOM      8  C   UNL     1     -57.197  24.838 -12.863  1.00  0.00     0.209 A 
ATOM      9  C   UNL     1     -58.528  25.278 -12.902  1.00  0.00     0.211 A 
ATOM     10  C   UNL     1     -59.030  25.917 -14.061  1.00  0.00     0.208 A 
ATOM     11  C   UNL     1     -58.219  26.030 -15.210  1.00  0.00     0.179 A 
ENDROOT
BRANCH   1  12
ATOM     12  C   UNL     1     -52.848  24.256 -14.805  1.00  0.00     0.021 A 
ATOM     13  C   UNL     1     -50.181  23.386 -14.490  1.00  0.00     0.160 A 
ATOM     14  C   UNL     1     -50.453  24.567 -15.197  1.00  0.00     0.161 A 
ATOM     15  C   UNL     1     -51.242  22.650 -13.935  1.00  0.00     0.051 A 
ATOM     16  C   UNL     1     -51.786  24.994 -15.351  1.00  0.00     0.062 A 
ATOM     17  C   UNL     1     -52.561  23.082 -14.088  1.00  0.00     0.016 A 
BRANCH  13  18
ATOM     18  O   UNL     1     -48.843  22.981 -14.359  1.00  0.00    -0.493 OA
ATOM     19  C   UNL     1     -48.222  21.978 -15.158  1.00  0.00     0.278 C 
ENDBRANCH  13  18
BRANCH  14  20
ATOM     20  O   UNL     1     -49.374  25.288 -15.732  1.00  0.00    -0.493 OA
ATOM     21  C   UNL     1     -49.003  25.286 -17.107  1.00  0.00     0.278 C 
ENDBRANCH  14  20
ENDBRANCH   1  12
BRANCH   8  22
ATOM     22  O   UNL     1     -56.775  24.222 -11.669  1.00  0.00    -0.490 OA
ATOM     23  C   UNL     1     -56.714  22.824 -11.407  1.00  0.00     0.278 C 
ENDBRANCH   8  22
BRANCH  11  24
ATOM     24  O   UNL     1     -58.754  26.534 -16.401  1.00  0.00    -0.492 OA
ATOM     25  C   UNL     1     -58.834  27.930 -16.669  1.00  0.00     0.278 C 
ENDBRANCH  11  24
BRANCH   9  26
ATOM     26  O   UNL     1     -59.295  25.059 -11.741  1.00  0.00    -0.490 OA
ATOM     27  C   UNL     1     -59.454  25.950 -10.642  1.00  0.00     0.279 C 
ENDBRANCH   9  26
BRANCH  10  28
ATOM     28  O   UNL     1     -60.326  26.442 -14.065  1.00  0.00    -0.490 OA
ATOM     29  C   UNL     1     -60.626  27.752 -13.595  1.00  0.00     0.278 C 
ENDBRANCH  10  28
TORSDOF 7
ENDMDL
MODEL 4
REMARK VINA RESULT:    -4.307      7.319      9.802
REMARK INTER + INTRA:          -6.853
REMARK INTER:                  -6.230
REMARK INTRA:                  -0.623
REMARK UNBOUND:                -0.784
REMARK SMILES COc1ccc(-c2cc(=O)c3c(OC)c(OC)c(OC)c(OC)c3o2)cc1OC
REMARK SMILES IDX 7 1 8 2 9 3 10 4 11 5 24 6 25 7 21 8 18 9 15 10 12 11 6 12
REMARK SMILES IDX 3 13 27 14 4 15 26 16 5 17 2 18 1 19 28 20 29 21 22 22 23 23
REMARK SMILES IDX 13 24 14 25 19 26 20 27 16 28 17 29
REMARK H PARENT
REMARK Flexibility Score: inf
ROOT
ATOM      1  C   UNL     1     -55.822  21.064 -15.034  1.00  0.00     0.138 A 
ATOM      2  C   UNL     1     -54.555  20.502 -14.840  1.00  0.00     0.100 A 
ATOM      3  C   UNL     1     -54.242  19.297 -15.463  1.00  0.00     0.197 A 
ATOM      4  O   UNL     1     -53.094  18.805 -15.286  1.00  0.00    -0.289 OA
ATOM      5  C   UNL     1     -55.203  18.658 -16.278  1.00  0.00     0.115 A 
ATOM      6  C   UNL     1     -56.462  19.287 -16.432  1.00  0.00     0.188 A 
ATOM      7  O   UNL     1     -56.701  20.442 -15.815  1.00  0.00    -0.452 OA
ATOM      8  C   UNL     1     -57.465  18.680 -17.223  1.00  0.00     0.209 A 
ATOM      9  C   UNL     1     -57.201  17.473 -17.888  1.00  0.00     0.211 A 
ATOM     10  C   UNL     1     -55.928  16.866 -17.773  1.00  0.00     0.208 A 
ATOM     11  C   UNL     1     -54.954  17.425 -16.920  1.00  0.00     0.179 A 
ENDROOT
BRANCH   1  12
ATOM     12  C   UNL     1     -56.209  22.347 -14.396  1.00  0.00     0.021 A 
ATOM     13  C   UNL     1     -56.957  24.809 -13.235  1.00  0.00     0.160 A 
ATOM     14  C   UNL     1     -56.296  24.790 -14.473  1.00  0.00     0.161 A 
ATOM     15  C   UNL     1     -57.248  23.596 -12.586  1.00  0.00     0.051 A 
ATOM     16  C   UNL     1     -55.925  23.558 -15.045  1.00  0.00     0.062 A 
ATOM     17  C   UNL     1     -56.882  22.378 -13.162  1.00  0.00     0.016 A 
BRANCH  13  18
ATOM     18  O   UNL     1     -57.308  26.052 -12.685  1.00  0.00    -0.493 OA
ATOM     19  C   UNL     1     -58.615  26.614 -12.732  1.00  0.00     0.278 C 
ENDBRANCH  13  18
BRANCH  14  20
ATOM     20  O   UNL     1     -56.026  26.016 -15.103  1.00  0.00    -0.493 OA
ATOM     21  C   UNL     1     -56.626  26.446 -16.321  1.00  0.00     0.278 C 
ENDBRANCH  14  20
ENDBRANCH   1  12
BRANCH   8  22
ATOM     22  O   UNL     1     -58.754  19.222 -17.398  1.00  0.00    -0.490 OA
ATOM     23  C   UNL     1     -59.844  19.140 -16.485  1.00  0.00     0.278 C 
ENDBRANCH   8  22
BRANCH  11  24
ATOM     24  O   UNL     1     -53.747  16.755 -16.695  1.00  0.00    -0.492 OA
ATOM     25  C   UNL     1     -52.695  16.739 -17.655  1.00  0.00     0.278 C 
ENDBRANCH  11  24
BRANCH   9  26
ATOM     26  O   UNL     1     -58.251  16.938 -18.659  1.00  0.00    -0.490 OA
ATOM     27  C   UNL     1     -59.116  15.866 -18.298  1.00  0.00     0.279 C 
ENDBRANCH   9  26
BRANCH  10  28
ATOM     28  O   UNL     1     -55.632  15.715 -18.512  1.00  0.00    -0.490 OA
ATOM     29  C   UNL     1     -55.368  15.748 -19.911  1.00  0.00     0.278 C 
ENDBRANCH  10  28
TORSDOF 7
ENDMDL
MODEL 5
REMARK VINA RESULT:    -4.274      8.938     14.291
REMARK INTER + INTRA:          -6.807
REMARK INTER:                  -6.193
REMARK INTRA:                  -0.614
REMARK UNBOUND:                -0.784
REMARK SMILES COc1ccc(-c2cc(=O)c3c(OC)c(OC)c(OC)c(OC)c3o2)cc1OC
REMARK SMILES IDX 7 1 8 2 9 3 10 4 11 5 24 6 25 7 21 8 18 9 15 10 12 11 6 12
REMARK SMILES IDX 3 13 27 14 4 15 26 16 5 17 2 18 1 19 28 20 29 21 22 22 23 23
REMARK SMILES IDX 13 24 14 25 19 26 20 27 16 28 17 29
REMARK H PARENT
REMARK Flexibility Score: inf
ROOT
ATOM      1  C   UNL     1     -56.208  23.869 -14.586  1.00  0.00     0.138 A 
ATOM      2  C   UNL     1     -56.255  24.717 -15.699  1.00  0.00     0.100 A 
ATOM      3  C   UNL     1     -57.181  25.755 -15.724  1.00  0.00     0.197 A 
ATOM      4  O   UNL     1     -57.209  26.517 -16.730  1.00  0.00    -0.289 OA
ATOM      5  C   UNL     1     -58.059  25.941 -14.633  1.00  0.00     0.115 A 
ATOM      6  C   UNL     1     -57.951  25.047 -13.540  1.00  0.00     0.188 A 
ATOM      7  O   UNL     1     -57.042  24.075 -13.570  1.00  0.00    -0.452 OA
ATOM      8  C   UNL     1     -58.818  25.177 -12.429  1.00  0.00     0.209 A 
ATOM      9  C   UNL     1     -59.761  26.216 -12.393  1.00  0.00     0.211 A 
ATOM     10  C   UNL     1     -59.840  27.138 -13.463  1.00  0.00     0.208 A 
ATOM     11  C   UNL     1     -59.034  26.961 -14.607  1.00  0.00     0.179 A 
ENDROOT
BRANCH   1  12
ATOM     12  C   UNL     1     -55.241  22.746 -14.506  1.00  0.00     0.021 A 
ATOM     13  C   UNL     1     -53.426  20.586 -14.401  1.00  0.00     0.160 A 
ATOM     14  C   UNL     1     -54.756  20.365 -14.787  1.00  0.00     0.161 A 
ATOM     15  C   UNL     1     -53.005  21.889 -14.077  1.00  0.00     0.051 A 
ATOM     16  C   UNL     1     -55.656  21.447 -14.837  1.00  0.00     0.062 A 
ATOM     17  C   UNL     1     -53.902  22.957 -14.133  1.00  0.00     0.016 A 
BRANCH  13  18
ATOM     18  O   UNL     1     -52.553  19.488 -14.354  1.00  0.00    -0.493 OA
ATOM     19  C   UNL     1     -51.602  19.170 -15.365  1.00  0.00     0.278 C 
ENDBRANCH  13  18
BRANCH  14  20
ATOM     20  O   UNL     1     -55.146  19.057 -15.116  1.00  0.00    -0.493 OA
ATOM     21  C   UNL     1     -55.545  18.636 -16.416  1.00  0.00     0.278 C 
ENDBRANCH  14  20
ENDBRANCH   1  12
BRANCH   8  22
ATOM     22  O   UNL     1     -58.799  24.309 -11.320  1.00  0.00    -0.490 OA
ATOM     23  C   UNL     1     -57.902  24.358 -10.215  1.00  0.00     0.278 C 
ENDBRANCH   8  22
BRANCH  11  24
ATOM     24  O   UNL     1     -59.207  27.787 -15.723  1.00  0.00    -0.492 OA
ATOM     25  C   UNL     1     -58.721  29.125 -15.763  1.00  0.00     0.278 C 
ENDBRANCH  11  24
BRANCH   9  26
ATOM     26  O   UNL     1     -60.581  26.279 -11.250  1.00  0.00    -0.490 OA
ATOM     27  C   UNL     1     -61.892  25.741 -11.109  1.00  0.00     0.279 C 
ENDBRANCH   9  26
BRANCH  10  28
ATOM     28  O   UNL     1     -60.711  28.230 -13.384  1.00  0.00    -0.490 OA
ATOM     29  C   UNL     1     -62.053  28.177 -13.857  1.00  0.00     0.278 C 
ENDBRANCH  10  28
TORSDOF 7
ENDMDL
MODEL 6
REMARK VINA RESULT:    -4.227     11.250     14.323
REMARK INTER + INTRA:          -6.741
REMARK INTER:                  -6.095
REMARK INTRA:                  -0.646
REMARK UNBOUND:                -0.784
REMARK SMILES COc1ccc(-c2cc(=O)c3c(OC)c(OC)c(OC)c(OC)c3o2)cc1OC
REMARK SMILES IDX 7 1 8 2 9 3 10 4 11 5 24 6 25 7 21 8 18 9 15 10 12 11 6 12
REMARK SMILES IDX 3 13 27 14 4 15 26 16 5 17 2 18 1 19 28 20 29 21 22 22 23 23
REMARK SMILES IDX 13 24 14 25 19 26 20 27 16 28 17 29
REMARK H PARENT
REMARK Flexibility Score: inf
ROOT
ATOM      1  C   UNL     1     -60.573  25.804 -11.397  1.00  0.00     0.138 A 
ATOM      2  C   UNL     1     -61.165  26.784 -12.202  1.00  0.00     0.100 A 
ATOM      3  C   UNL     1     -60.613  27.065 -13.448  1.00  0.00     0.197 A 
ATOM      4  O   UNL     1     -61.160  27.945 -14.167  1.00  0.00    -0.289 OA
ATOM      5  C   UNL     1     -59.466  26.363 -13.883  1.00  0.00     0.115 A 
ATOM      6  C   UNL     1     -58.924  25.384 -13.017  1.00  0.00     0.188 A 
ATOM      7  O   UNL     1     -59.500  25.154 -11.839  1.00  0.00    -0.452 OA
ATOM      8  C   UNL     1     -57.766  24.664 -13.397  1.00  0.00     0.209 A 
ATOM      9  C   UNL     1     -57.176  24.895 -14.648  1.00  0.00     0.211 A 
ATOM     10  C   UNL     1     -57.743  25.841 -15.535  1.00  0.00     0.208 A 
ATOM     11  C   UNL     1     -58.847  26.617 -15.126  1.00  0.00     0.179 A 
ENDROOT
BRANCH   1  12
ATOM     12  C   UNL     1     -61.120  25.463 -10.060  1.00  0.00     0.021 A 
ATOM     13  C   UNL     1     -62.126  24.765  -7.516  1.00  0.00     0.160 A 
ATOM     14  C   UNL     1     -61.823  23.762  -8.448  1.00  0.00     0.161 A 
ATOM     15  C   UNL     1     -61.917  26.114  -7.856  1.00  0.00     0.051 A 
ATOM     16  C   UNL     1     -61.322  24.117  -9.716  1.00  0.00     0.062 A 
ATOM     17  C   UNL     1     -61.416  26.458  -9.113  1.00  0.00     0.016 A 
BRANCH  13  18
ATOM     18  O   UNL     1     -62.631  24.381  -6.263  1.00  0.00    -0.493 OA
ATOM     19  C   UNL     1     -61.849  24.275  -5.078  1.00  0.00     0.278 C 
ENDBRANCH  13  18
BRANCH  14  20
ATOM     20  O   UNL     1     -62.031  22.423  -8.079  1.00  0.00    -0.493 OA
ATOM     21  C   UNL     1     -61.007  21.540  -7.634  1.00  0.00     0.278 C 
ENDBRANCH  14  20
ENDBRANCH   1  12
BRANCH   8  22
ATOM     22  O   UNL     1     -57.145  23.699 -12.579  1.00  0.00    -0.490 OA
ATOM     23  C   UNL     1     -57.535  22.339 -12.419  1.00  0.00     0.278 C 
ENDBRANCH   8  22
BRANCH  11  24
ATOM     24  O   UNL     1     -59.323  27.648 -15.943  1.00  0.00    -0.492 OA
ATOM     25  C   UNL     1     -58.688  28.921 -16.008  1.00  0.00     0.278 C 
ENDBRANCH  11  24
BRANCH   9  26
ATOM     26  O   UNL     1     -56.030  24.134 -14.951  1.00  0.00    -0.490 OA
ATOM     27  C   UNL     1     -54.678  24.473 -14.661  1.00  0.00     0.279 C 
ENDBRANCH   9  26
BRANCH  10  28
ATOM     28  O   UNL     1     -57.213  26.001 -16.820  1.00  0.00    -0.490 OA
ATOM     29  C   UNL     1     -56.015  26.730 -17.071  1.00  0.00     0.278 C 
ENDBRANCH  10  28
TORSDOF 7
ENDMDL
MODEL 7
REMARK VINA RESULT:    -4.211      2.108      2.451
REMARK INTER + INTRA:          -6.718
REMARK INTER:                  -5.969
REMARK INTRA:                  -0.749
REMARK UNBOUND:                -0.784
REMARK SMILES COc1ccc(-c2cc(=O)c3c(OC)c(OC)c(OC)c(OC)c3o2)cc1OC
REMARK SMILES IDX 7 1 8 2 9 3 10 4 11 5 24 6 25 7 21 8 18 9 15 10 12 11 6 12
REMARK SMILES IDX 3 13 27 14 4 15 26 16 5 17 2 18 1 19 28 20 29 21 22 22 23 23
REMARK SMILES IDX 13 24 14 25 19 26 20 27 16 28 17 29
REMARK H PARENT
REMARK Flexibility Score: inf
ROOT
ATOM      1  C   UNL     1     -54.140  14.408 -12.040  1.00  0.00     0.138 A 
ATOM      2  C   UNL     1     -54.227  13.034 -12.293  1.00  0.00     0.100 A 
ATOM      3  C   UNL     1     -53.427  12.472 -13.283  1.00  0.00     0.197 A 
ATOM      4  O   UNL     1     -53.510  11.232 -13.497  1.00  0.00    -0.289 OA
ATOM      5  C   UNL     1     -52.540  13.291 -14.018  1.00  0.00     0.115 A 
ATOM      6  C   UNL     1     -52.502  14.671 -13.704  1.00  0.00     0.188 A 
ATOM      7  O   UNL     1     -53.288  15.150 -12.742  1.00  0.00    -0.452 OA
ATOM      8  C   UNL     1     -51.644  15.537 -14.422  1.00  0.00     0.209 A 
ATOM      9  C   UNL     1     -50.802  15.024 -15.420  1.00  0.00     0.211 A 
ATOM     10  C   UNL     1     -50.805  13.637 -15.704  1.00  0.00     0.208 A 
ATOM     11  C   UNL     1     -51.717  12.785 -15.048  1.00  0.00     0.179 A 
ENDROOT
BRANCH   1  12
ATOM     12  C   UNL     1     -54.969  15.059 -10.995  1.00  0.00     0.021 A 
ATOM     13  C   UNL     1     -56.497  16.309  -8.977  1.00  0.00     0.160 A 
ATOM     14  C   UNL     1     -55.388  15.522  -8.630  1.00  0.00     0.161 A 
ATOM     15  C   UNL     1     -56.832  16.475 -10.333  1.00  0.00     0.051 A 
ATOM     16  C   UNL     1     -54.631  14.901  -9.643  1.00  0.00     0.062 A 
ATOM     17  C   UNL     1     -56.074  15.860 -11.331  1.00  0.00     0.016 A 
BRANCH  13  18
ATOM     18  O   UNL     1     -57.237  16.909  -7.946  1.00  0.00    -0.493 OA
ATOM     19  C   UNL     1     -57.221  18.302  -7.649  1.00  0.00     0.278 C 
ENDBRANCH  13  18
BRANCH  14  20
ATOM     20  O   UNL     1     -55.069  15.381  -7.270  1.00  0.00    -0.493 OA
ATOM     21  C   UNL     1     -54.256  16.289  -6.533  1.00  0.00     0.278 C 
ENDBRANCH  14  20
ENDBRANCH   1  12
BRANCH   8  22
ATOM     22  O   UNL     1     -51.572  16.926 -14.195  1.00  0.00    -0.490 OA
ATOM     23  C   UNL     1     -52.472  17.917 -14.682  1.00  0.00     0.278 C 
ENDBRANCH   8  22
BRANCH  11  24
ATOM     24  O   UNL     1     -51.820  11.442 -15.425  1.00  0.00    -0.492 OA
ATOM     25  C   UNL     1     -52.469  11.036 -16.625  1.00  0.00     0.278 C 
ENDBRANCH  11  24
BRANCH   9  26
ATOM     26  O   UNL     1     -49.976  15.952 -16.083  1.00  0.00    -0.490 OA
ATOM     27  C   UNL     1     -50.173  16.493 -17.385  1.00  0.00     0.279 C 
ENDBRANCH   9  26
BRANCH  10  28
ATOM     28  O   UNL     1     -49.898  13.111 -16.630  1.00  0.00    -0.490 OA
ATOM     29  C   UNL     1     -48.593  12.675 -16.263  1.00  0.00     0.278 C 
ENDBRANCH  10  28
TORSDOF 7
ENDMDL
MODEL 8
REMARK VINA RESULT:    -4.205      7.035      8.873
REMARK INTER + INTRA:          -6.710
REMARK INTER:                  -6.063
REMARK INTRA:                  -0.647
REMARK UNBOUND:                -0.784
REMARK SMILES COc1ccc(-c2cc(=O)c3c(OC)c(OC)c(OC)c(OC)c3o2)cc1OC
REMARK SMILES IDX 7 1 8 2 9 3 10 4 11 5 24 6 25 7 21 8 18 9 15 10 12 11 6 12
REMARK SMILES IDX 3 13 27 14 4 15 26 16 5 17 2 18 1 19 28 20 29 21 22 22 23 23
REMARK SMILES IDX 13 24 14 25 19 26 20 27 16 28 17 29
REMARK H PARENT
REMARK Flexibility Score: inf
ROOT
ATOM      1  C   UNL     1     -55.733  17.881 -17.293  1.00  0.00     0.138 A 
ATOM      2  C   UNL     1     -54.654  17.445 -18.070  1.00  0.00     0.100 A 
ATOM      3  C   UNL     1     -53.375  17.913 -17.783  1.00  0.00     0.197 A 
ATOM      4  O   UNL     1     -52.410  17.506 -18.486  1.00  0.00    -0.289 OA
ATOM      5  C   UNL     1     -53.182  18.820 -16.716  1.00  0.00     0.115 A 
ATOM      6  C   UNL     1     -54.319  19.214 -15.972  1.00  0.00     0.188 A 
ATOM      7  O   UNL     1     -55.517  18.728 -16.290  1.00  0.00    -0.452 OA
ATOM      8  C   UNL     1     -54.184  20.134 -14.905  1.00  0.00     0.209 A 
ATOM      9  C   UNL     1     -52.917  20.628 -14.560  1.00  0.00     0.211 A 
ATOM     10  C   UNL     1     -51.772  20.200 -15.273  1.00  0.00     0.208 A 
ATOM     11  C   UNL     1     -51.914  19.347 -16.388  1.00  0.00     0.179 A 
ENDROOT
BRANCH   1  12
ATOM     12  C   UNL     1     -57.117  17.413 -17.554  1.00  0.00     0.021 A 
ATOM     13  C   UNL     1     -59.768  16.581 -18.050  1.00  0.00     0.160 A 
ATOM     14  C   UNL     1     -59.524  17.674 -17.206  1.00  0.00     0.161 A 
ATOM     15  C   UNL     1     -58.686  15.913 -18.650  1.00  0.00     0.051 A 
ATOM     16  C   UNL     1     -58.199  18.084 -16.962  1.00  0.00     0.062 A 
ATOM     17  C   UNL     1     -57.375  16.328 -18.408  1.00  0.00     0.016 A 
BRANCH  13  18
ATOM     18  O   UNL     1     -61.099  16.191 -18.268  1.00  0.00    -0.493 OA
ATOM     19  C   UNL     1     -61.670  15.954 -19.552  1.00  0.00     0.278 C 
ENDBRANCH  13  18
BRANCH  14  20
ATOM     20  O   UNL     1     -60.624  18.329 -16.628  1.00  0.00    -0.493 OA
ATOM     21  C   UNL     1     -60.582  19.640 -16.073  1.00  0.00     0.278 C 
ENDBRANCH  14  20
ENDBRANCH   1  12
BRANCH   8  22
ATOM     22  O   UNL     1     -55.269  20.604 -14.138  1.00  0.00    -0.490 OA
ATOM     23  C   UNL     1     -56.175  21.644 -14.491  1.00  0.00     0.278 C 
ENDBRANCH   8  22
BRANCH  11  24
ATOM     24  O   UNL     1     -50.804  19.034 -17.180  1.00  0.00    -0.492 OA
ATOM     25  C   UNL     1     -49.769  18.166 -16.729  1.00  0.00     0.278 C 
ENDBRANCH  11  24
BRANCH   9  26
ATOM     26  O   UNL     1     -52.868  21.534 -13.483  1.00  0.00    -0.490 OA
ATOM     27  C   UNL     1     -52.798  22.954 -13.565  1.00  0.00     0.279 C 
ENDBRANCH   9  26
BRANCH  10  28
ATOM     28  O   UNL     1     -50.499  20.615 -14.868  1.00  0.00    -0.490 OA
ATOM     29  C   UNL     1     -49.861  21.769 -15.406  1.00  0.00     0.278 C 
ENDBRANCH  10  28
TORSDOF 7
ENDMDL
MODEL 9
REMARK VINA RESULT:    -4.147      8.678     14.062
REMARK INTER + INTRA:          -6.628
REMARK INTER:                  -5.836
REMARK INTRA:                  -0.792
REMARK UNBOUND:                -0.784
REMARK SMILES COc1ccc(-c2cc(=O)c3c(OC)c(OC)c(OC)c(OC)c3o2)cc1OC
REMARK SMILES IDX 7 1 8 2 9 3 10 4 11 5 24 6 25 7 21 8 18 9 15 10 12 11 6 12
REMARK SMILES IDX 3 13 27 14 4 15 26 16 5 17 2 18 1 19 28 20 29 21 22 22 23 23
REMARK SMILES IDX 13 24 14 25 19 26 20 27 16 28 17 29
REMARK H PARENT
REMARK Flexibility Score: inf
ROOT
ATOM      1  C   UNL     1     -56.566  23.075 -13.307  1.00  0.00     0.138 A 
ATOM      2  C   UNL     1     -57.033  23.191 -11.993  1.00  0.00     0.100 A 
ATOM      3  C   UNL     1     -57.882  24.244 -11.662  1.00  0.00     0.197 A 
ATOM      4  O   UNL     1     -58.301  24.333 -10.476  1.00  0.00    -0.289 OA
ATOM      5  C   UNL     1     -58.260  25.178 -12.652  1.00  0.00     0.115 A 
ATOM      6  C   UNL     1     -57.752  24.996 -13.960  1.00  0.00     0.188 A 
ATOM      7  O   UNL     1     -56.948  23.966 -14.218  1.00  0.00    -0.452 OA
ATOM      8  C   UNL     1     -58.085  25.913 -14.985  1.00  0.00     0.209 A 
ATOM      9  C   UNL     1     -58.949  26.985 -14.714  1.00  0.00     0.211 A 
ATOM     10  C   UNL     1     -59.495  27.143 -13.417  1.00  0.00     0.208 A 
ATOM     11  C   UNL     1     -59.100  26.279 -12.376  1.00  0.00     0.179 A 
ENDROOT
BRANCH   1  12
ATOM     12  C   UNL     1     -55.660  21.973 -13.714  1.00  0.00     0.021 A 
ATOM     13  C   UNL     1     -53.951  19.886 -14.547  1.00  0.00     0.160 A 
ATOM     14  C   UNL     1     -55.162  20.109 -15.219  1.00  0.00     0.161 A 
ATOM     15  C   UNL     1     -53.595  20.712 -13.467  1.00  0.00     0.051 A 
ATOM     16  C   UNL     1     -56.010  21.152 -14.797  1.00  0.00     0.062 A 
ATOM     17  C   UNL     1     -54.439  21.747 -13.058  1.00  0.00     0.016 A 
BRANCH  13  18
ATOM     18  O   UNL     1     -53.130  18.835 -14.985  1.00  0.00    -0.493 OA
ATOM     19  C   UNL     1     -53.000  17.582 -14.320  1.00  0.00     0.278 C 
ENDBRANCH  13  18
BRANCH  14  20
ATOM     20  O   UNL     1     -55.489  19.275 -16.301  1.00  0.00    -0.493 OA
ATOM     21  C   UNL     1     -56.709  19.343 -17.033  1.00  0.00     0.278 C 
ENDBRANCH  14  20
ENDBRANCH   1  12
BRANCH   8  22
ATOM     22  O   UNL     1     -57.594  25.823 -16.302  1.00  0.00    -0.490 OA
ATOM     23  C   UNL     1     -56.312  26.236 -16.765  1.00  0.00     0.278 C 
ENDBRANCH   8  22
BRANCH  11  24
ATOM     24  O   UNL     1     -59.527  26.516 -11.065  1.00  0.00    -0.492 OA
ATOM     25  C   UNL     1     -59.009  27.583 -10.277  1.00  0.00     0.278 C 
ENDBRANCH  11  24
BRANCH   9  26
ATOM     26  O   UNL     1     -59.234  27.849 -15.789  1.00  0.00    -0.490 OA
ATOM     27  C   UNL     1     -58.653  29.125 -16.035  1.00  0.00     0.279 C 
ENDBRANCH   9  26
BRANCH  10  28
ATOM     28  O   UNL     1     -60.432  28.153 -13.171  1.00  0.00    -0.490 OA
ATOM     29  C   UNL     1     -61.816  28.006 -13.472  1.00  0.00     0.278 C 
ENDBRANCH  10  28
TORSDOF 7
ENDMDL
