MODEL 1
REMARK VINA RESULT:     1.884      0.000      0.000
REMARK INTER + INTRA:           3.856
REMARK INTER:                   2.766
REMARK INTRA:                   1.091
REMARK UNBOUND:                 1.091
REMARK SMILES C=C1C=C[C@H](C(C)C)CCC(C)=CCC1
REMARK SMILES IDX 3 1 4 2 5 3 9 4 10 5 11 6 12 7 13 8 6 10 7 11 8 12 2 13 1 14
REMARK SMILES IDX 15 15 14 16
REMARK H PARENT
REMARK Flexibility Score: 70.00
ROOT
ATOM      1  C   UNL     1     -15.592  -2.405  19.173  1.00  0.00    -0.001 C 
ATOM      2  C   UNL     1     -16.342  -1.921  18.170  1.00  0.00    -0.023 C 
ENDROOT
BRANCH   2   3
ATOM      3  C   UNL     1     -15.800  -1.065  17.037  1.00  0.00     0.014 C 
BRANCH   3   4
ATOM      4  C   UNL     1     -16.001  -1.738  15.649  1.00  0.00     0.012 C 
BRANCH   4   5
ATOM      5  C   UNL     1     -16.299  -3.258  15.679  1.00  0.00     0.031 C 
BRANCH   5   6
ATOM      6  C   UNL     1     -15.073  -4.158  15.621  1.00  0.00    -0.077 C 
ATOM      7  C   UNL     1     -15.189  -5.465  14.875  1.00  0.00     0.039 C 
ATOM      8  C   UNL     1     -13.911  -3.925  16.283  1.00  0.00    -0.028 CG0
ATOM      9  G   UNL     1     -13.475  -2.641  16.950  1.00  0.00     0.000 G0
ENDBRANCH   5   6
ENDBRANCH   4   5
ENDBRANCH   3   4
BRANCH   3  10
ATOM     10  C   UNL     1     -16.376   0.384  17.120  1.00  0.00    -0.010 C 
ATOM     11  C   UNL     1     -17.779   0.404  17.750  1.00  0.00     0.008 C 
ATOM     12  C   UNL     1     -15.467   1.396  17.842  1.00  0.00     0.008 C 
ENDBRANCH   3  10
ENDBRANCH   2   3
BRANCH   1  13
ATOM     13  C   UNL     1     -14.154  -2.115  19.342  1.00  0.00    -0.055 C 
ATOM     14  C   UNL     1     -13.770  -1.255  20.288  1.00  0.00     0.012 C 
BRANCH  13  15
ATOM     15  C   UNL     1     -13.124  -2.797  18.468  1.00  0.00     0.039 C 
BRANCH  15  16
ATOM     16  C   UNL     1     -13.464  -2.656  16.968  1.00  0.00     0.032 CG0
ATOM     17  G   UNL     1     -13.907  -3.926  16.278  1.00  0.00     0.000 G0
ENDBRANCH  15  16
ENDBRANCH  13  15
ENDBRANCH   1  13
TORSDOF 1
ENDMDL
MODEL 2
REMARK VINA RESULT:     2.470      1.452      3.523
REMARK INTER + INTRA:           4.715
REMARK INTER:                   4.838
REMARK INTRA:                  -0.123
REMARK UNBOUND:                 1.091
REMARK SMILES C=C1C=C[C@H](C(C)C)CCC(C)=CCC1
REMARK SMILES IDX 3 1 4 2 5 3 9 4 10 5 11 6 12 7 13 8 6 10 7 11 8 12 2 13 1 14
REMARK SMILES IDX 15 15 14 16
REMARK H PARENT
REMARK Flexibility Score: 70.00
ROOT
ATOM      1  C   UNL     1     -15.455   0.401  17.510  1.00  0.00    -0.001 C 
ATOM      2  C   UNL     1     -14.525  -0.314  18.164  1.00  0.00    -0.023 C 
ENDROOT
BRANCH   2   3
ATOM      3  C   UNL     1     -14.783  -1.668  18.801  1.00  0.00     0.014 C 
BRANCH   3   4
ATOM      4  C   UNL     1     -13.917  -2.791  18.160  1.00  0.00     0.012 C 
BRANCH   4   5
ATOM      5  C   UNL     1     -13.896  -2.817  16.611  1.00  0.00     0.031 C 
BRANCH   5   6
ATOM      6  C   UNL     1     -14.990  -3.654  15.965  1.00  0.00    -0.077 C 
ATOM      7  C   UNL     1     -14.748  -5.136  15.807  1.00  0.00     0.039 C 
ATOM      8  C   UNL     1     -16.126  -3.152  15.417  1.00  0.00    -0.028 CG0
ATOM      9  G   UNL     1     -16.686  -1.757  15.581  1.00  0.00     0.000 G0
ENDBRANCH   5   6
ENDBRANCH   4   5
ENDBRANCH   3   4
BRANCH   3  10
ATOM     10  C   UNL     1     -14.646  -1.580  20.354  1.00  0.00    -0.010 C 
ATOM     11  C   UNL     1     -15.499  -2.644  21.063  1.00  0.00     0.008 C 
ATOM     12  C   UNL     1     -13.197  -1.642  20.875  1.00  0.00     0.008 C 
ENDBRANCH   3  10
ENDBRANCH   2   3
BRANCH   1  13
ATOM     13  C   UNL     1     -16.868  -0.007  17.381  1.00  0.00    -0.055 C 
ATOM     14  C   UNL     1     -17.829   0.890  17.614  1.00  0.00     0.012 C 
BRANCH  13  15
ATOM     15  C   UNL     1     -17.227  -1.418  16.972  1.00  0.00     0.039 C 
BRANCH  15  16
ATOM     16  C   UNL     1     -16.678  -1.765  15.569  1.00  0.00     0.032 CG0
ATOM     17  G   UNL     1     -16.127  -3.163  15.412  1.00  0.00     0.000 G0
ENDBRANCH  15  16
ENDBRANCH  13  15
ENDBRANCH   1  13
TORSDOF 1
ENDMDL
MODEL 3
REMARK VINA RESULT:     2.948      1.759      4.358
REMARK INTER + INTRA:           5.417
REMARK INTER:                   4.957
REMARK INTRA:                   0.460
REMARK UNBOUND:                 1.091
REMARK SMILES C=C1C=C[C@H](C(C)C)CCC(C)=CCC1
REMARK SMILES IDX 3 1 4 2 5 3 9 4 10 5 11 6 12 7 13 8 6 10 7 11 8 12 2 13 1 14
REMARK SMILES IDX 15 15 14 16
REMARK H PARENT
REMARK Flexibility Score: 70.00
ROOT
ATOM      1  C   UNL     1     -14.997  -3.599  17.400  1.00  0.00    -0.001 C 
ATOM      2  C   UNL     1     -15.052  -3.256  18.697  1.00  0.00    -0.023 C 
ENDROOT
BRANCH   2   3
ATOM      3  C   UNL     1     -14.395  -2.014  19.278  1.00  0.00     0.014 C 
BRANCH   3   4
ATOM      4  C   UNL     1     -15.306  -0.759  19.154  1.00  0.00     0.012 C 
BRANCH   4   5
ATOM      5  C   UNL     1     -15.372  -0.117  17.745  1.00  0.00     0.031 C 
BRANCH   5   6
ATOM      6  C   UNL     1     -16.759  -0.072  17.121  1.00  0.00    -0.077 C 
ATOM      7  C   UNL     1     -17.716   0.994  17.599  1.00  0.00     0.039 C 
ATOM      8  C   UNL     1     -17.243  -0.988  16.245  1.00  0.00    -0.028 CG0
ATOM      9  G   UNL     1     -16.461  -2.038  15.488  1.00  0.00     0.000 G0
ENDBRANCH   5   6
ENDBRANCH   4   5
ENDBRANCH   3   4
BRANCH   3  10
ATOM     10  C   UNL     1     -13.897  -2.286  20.733  1.00  0.00    -0.010 C 
ATOM     11  C   UNL     1     -13.046  -1.124  21.270  1.00  0.00     0.008 C 
ATOM     12  C   UNL     1     -15.012  -2.625  21.740  1.00  0.00     0.008 C 
ENDBRANCH   3  10
ENDBRANCH   2   3
BRANCH   1  13
ATOM     13  C   UNL     1     -14.238  -2.850  16.379  1.00  0.00    -0.055 C 
ATOM     14  C   UNL     1     -12.926  -3.065  16.255  1.00  0.00     0.012 C 
BRANCH  13  15
ATOM     15  C   UNL     1     -14.938  -1.864  15.470  1.00  0.00     0.039 C 
BRANCH  15  16
ATOM     16  C   UNL     1     -16.472  -2.049  15.497  1.00  0.00     0.032 CG0
ATOM     17  G   UNL     1     -17.244  -0.986  16.244  1.00  0.00     0.000 G0
ENDBRANCH  15  16
ENDBRANCH  13  15
ENDBRANCH   1  13
TORSDOF 1
ENDMDL
MODEL 4
REMARK VINA RESULT:     3.056      1.546      4.270
REMARK INTER + INTRA:           5.575
REMARK INTER:                   2.959
REMARK INTRA:                   2.616
REMARK UNBOUND:                 1.091
REMARK SMILES C=C1C=C[C@H](C(C)C)CCC(C)=CCC1
REMARK SMILES IDX 3 1 4 2 5 3 9 4 10 5 11 6 12 7 13 8 6 10 7 11 8 12 2 13 1 14
REMARK SMILES IDX 15 15 14 16
REMARK H PARENT
REMARK Flexibility Score: 70.00
ROOT
ATOM      1  C   UNL     1     -12.799  -3.487  17.410  1.00  0.00    -0.001 C 
ATOM      2  C   UNL     1     -12.775  -3.136  18.706  1.00  0.00    -0.023 C 
ENDROOT
BRANCH   2   3
ATOM      3  C   UNL     1     -13.689  -2.091  19.323  1.00  0.00     0.014 C 
BRANCH   3   4
ATOM      4  C   UNL     1     -15.044  -1.980  18.567  1.00  0.00     0.012 C 
BRANCH   4   5
ATOM      5  C   UNL     1     -15.356  -0.591  17.955  1.00  0.00     0.031 C 
BRANCH   5   6
ATOM      6  C   UNL     1     -16.609  -0.532  17.092  1.00  0.00    -0.077 C 
ATOM      7  C   UNL     1     -17.692   0.443  17.484  1.00  0.00     0.039 C 
ATOM      8  C   UNL     1     -16.876  -1.370  16.059  1.00  0.00    -0.028 CG0
ATOM      9  G   UNL     1     -15.914  -2.307  15.363  1.00  0.00     0.000 G0
ENDBRANCH   5   6
ENDBRANCH   4   5
ENDBRANCH   3   4
BRANCH   3  10
ATOM     10  C   UNL     1     -13.845  -2.336  20.857  1.00  0.00    -0.010 C 
ATOM     11  C   UNL     1     -13.123  -1.258  21.682  1.00  0.00     0.008 C 
ATOM     12  C   UNL     1     -15.302  -2.472  21.340  1.00  0.00     0.008 C 
ENDBRANCH   3  10
ENDBRANCH   2   3
BRANCH   1  13
ATOM     13  C   UNL     1     -13.674  -2.857  16.401  1.00  0.00    -0.055 C 
ATOM     14  C   UNL     1     -13.168  -1.927  15.590  1.00  0.00     0.012 C 
BRANCH  13  15
ATOM     15  C   UNL     1     -15.124  -3.273  16.273  1.00  0.00     0.039 C 
BRANCH  15  16
ATOM     16  C   UNL     1     -15.915  -2.314  15.355  1.00  0.00     0.032 CG0
ATOM     17  G   UNL     1     -16.877  -1.384  16.058  1.00  0.00     0.000 G0
ENDBRANCH  15  16
ENDBRANCH  13  15
ENDBRANCH   1  13
TORSDOF 1
ENDMDL
MODEL 5
REMARK VINA RESULT:     3.609      1.003      3.269
REMARK INTER + INTRA:           6.388
REMARK INTER:                   2.385
REMARK INTRA:                   4.002
REMARK UNBOUND:                 1.091
REMARK SMILES C=C1C=C[C@H](C(C)C)CCC(C)=CCC1
REMARK SMILES IDX 3 1 4 2 5 3 9 4 10 5 11 6 12 7 13 8 6 10 7 11 8 12 2 13 1 14
REMARK SMILES IDX 15 15 14 16
REMARK H PARENT
REMARK Flexibility Score: 70.00
ROOT
ATOM      1  C   UNL     1     -16.043  -2.395  15.229  1.00  0.00    -0.001 C 
ATOM      2  C   UNL     1     -16.819  -1.424  15.739  1.00  0.00    -0.023 C 
ENDROOT
BRANCH   2   3
ATOM      3  C   UNL     1     -16.653  -0.847  17.135  1.00  0.00     0.014 C 
BRANCH   3   4
ATOM      4  C   UNL     1     -15.268  -1.195  17.751  1.00  0.00     0.012 C 
BRANCH   4   5
ATOM      5  C   UNL     1     -15.308  -1.978  19.088  1.00  0.00     0.031 C 
BRANCH   5   6
ATOM      6  C   UNL     1     -13.949  -2.377  19.644  1.00  0.00    -0.077 C 
ATOM      7  C   UNL     1     -13.720  -2.228  21.129  1.00  0.00     0.039 C 
ATOM      8  C   UNL     1     -12.885  -2.753  18.889  1.00  0.00    -0.028 CG0
ATOM      9  G   UNL     1     -12.887  -3.140  17.428  1.00  0.00     0.000 G0
ENDBRANCH   5   6
ENDBRANCH   4   5
ENDBRANCH   3   4
BRANCH   3  10
ATOM     10  C   UNL     1     -16.975   0.681  17.138  1.00  0.00    -0.010 C 
ATOM     11  C   UNL     1     -18.198   1.004  18.012  1.00  0.00     0.008 C 
ATOM     12  C   UNL     1     -15.794   1.585  17.541  1.00  0.00     0.008 C 
ENDBRANCH   3  10
ENDBRANCH   2   3
BRANCH   1  13
ATOM     13  C   UNL     1     -14.969  -3.074  15.982  1.00  0.00    -0.055 C 
ATOM     14  C   UNL     1     -15.064  -4.385  16.212  1.00  0.00     0.012 C 
BRANCH  13  15
ATOM     15  C   UNL     1     -13.765  -2.299  16.471  1.00  0.00     0.039 C 
BRANCH  15  16
ATOM     16  C   UNL     1     -12.880  -3.150  17.408  1.00  0.00     0.032 CG0
ATOM     17  G   UNL     1     -12.893  -2.744  18.865  1.00  0.00     0.000 G0
ENDBRANCH  15  16
ENDBRANCH  13  15
ENDBRANCH   1  13
TORSDOF 1
ENDMDL
MODEL 6
REMARK VINA RESULT:     4.806      1.832      4.659
REMARK INTER + INTRA:           8.144
REMARK INTER:                   6.202
REMARK INTRA:                   1.943
REMARK UNBOUND:                 1.091
REMARK SMILES C=C1C=C[C@H](C(C)C)CCC(C)=CCC1
REMARK SMILES IDX 3 1 4 2 5 3 9 4 10 5 11 6 12 7 13 8 6 10 7 11 8 12 2 13 1 14
REMARK SMILES IDX 15 15 14 16
REMARK H PARENT
REMARK Flexibility Score: 70.00
ROOT
ATOM      1  C   UNL     1     -16.548  -1.881  16.081  1.00  0.00    -0.001 C 
ATOM      2  C   UNL     1     -15.508  -2.714  15.912  1.00  0.00    -0.023 C 
ENDROOT
BRANCH   2   3
ATOM      3  C   UNL     1     -14.160  -2.542  16.592  1.00  0.00     0.014 C 
BRANCH   3   4
ATOM      4  C   UNL     1     -14.057  -3.372  17.904  1.00  0.00     0.012 C 
BRANCH   4   5
ATOM      5  C   UNL     1     -13.104  -2.799  18.984  1.00  0.00     0.031 C 
BRANCH   5   6
ATOM      6  C   UNL     1     -13.792  -2.245  20.223  1.00  0.00    -0.077 C 
ATOM      7  C   UNL     1     -12.993  -2.170  21.502  1.00  0.00     0.039 C 
ATOM      8  C   UNL     1     -15.107  -1.915  20.296  1.00  0.00    -0.028 CG0
ATOM      9  G   UNL     1     -16.074  -1.739  19.147  1.00  0.00     0.000 G0
ENDBRANCH   5   6
ENDBRANCH   4   5
ENDBRANCH   3   4
BRANCH   3  10
ATOM     10  C   UNL     1     -12.998  -2.816  15.585  1.00  0.00    -0.010 C 
ATOM     11  C   UNL     1     -12.401  -1.510  15.036  1.00  0.00     0.008 C 
ATOM     12  C   UNL     1     -11.873  -3.715  16.131  1.00  0.00     0.008 C 
ENDBRANCH   3  10
ENDBRANCH   2   3
BRANCH   1  13
ATOM     13  C   UNL     1     -16.498  -0.654  16.900  1.00  0.00    -0.055 C 
ATOM     14  C   UNL     1     -17.210   0.410  16.524  1.00  0.00     0.012 C 
BRANCH  13  15
ATOM     15  C   UNL     1     -15.664  -0.605  18.163  1.00  0.00     0.039 C 
BRANCH  15  16
ATOM     16  C   UNL     1     -16.060  -1.723  19.153  1.00  0.00     0.032 CG0
ATOM     17  G   UNL     1     -15.115  -1.931  20.314  1.00  0.00     0.000 G0
ENDBRANCH  15  16
ENDBRANCH  13  15
ENDBRANCH   1  13
TORSDOF 1
ENDMDL
