MODEL 1
REMARK VINA RESULT:    -0.702      0.000      0.000
REMARK INTER + INTRA:          -1.077
REMARK INTER:                  -1.030
REMARK INTRA:                  -0.047
REMARK UNBOUND:                -0.047
REMARK SMILES O=C([O-])CCCCCCCC(=O)[O-]
REMARK SMILES IDX 7 1 6 2 5 3 4 4 2 5 1 6 3 7 8 8 9 9 10 10 11 11 12 12 13 13
REMARK H PARENT
REMARK Flexibility Score: inf
ROOT
ATOM      1  C   UNL     1      12.134   7.142  -7.081  1.00  0.00     0.000 C 
ENDROOT
BRANCH   1   2
ATOM      2  C   UNL     1      11.271   7.553  -5.875  1.00  0.00     0.000 C 
BRANCH   2   3
ATOM      3  C   UNL     1       9.808   7.110  -6.010  1.00  0.00     0.006 C 
BRANCH   3   4
ATOM      4  C   UNL     1       8.957   8.215  -6.644  1.00  0.00     0.053 C 
BRANCH   4   5
ATOM      5  C   UNL     1       7.542   8.126  -6.166  1.00  0.00     0.041 C 
ATOM      6  O   UNL     1       7.040   7.006  -5.879  1.00  0.00    -0.550 OA
ATOM      7  O   UNL     1       6.761   9.271  -6.085  1.00  0.00    -0.550 OA
ENDBRANCH   4   5
ENDBRANCH   3   4
ENDBRANCH   2   3
ENDBRANCH   1   2
BRANCH   1   8
ATOM      8  C   UNL     1      11.751   7.808  -8.418  1.00  0.00     0.000 C 
BRANCH   8   9
ATOM      9  C   UNL     1      12.872   7.850  -9.471  1.00  0.00     0.006 C 
BRANCH   9  10
ATOM     10  C   UNL     1      12.815   9.106 -10.350  1.00  0.00     0.053 C 
BRANCH  10  11
ATOM     11  C   UNL     1      13.898   9.071 -11.381  1.00  0.00     0.041 C 
ATOM     12  O   UNL     1      14.672  10.055 -11.522  1.00  0.00    -0.550 OA
ATOM     13  O   UNL     1      14.022   7.972 -12.223  1.00  0.00    -0.550 OA
ENDBRANCH  10  11
ENDBRANCH   9  10
ENDBRANCH   8   9
ENDBRANCH   1   8
TORSDOF 8
ENDMDL
MODEL 2
REMARK VINA RESULT:     0.179     11.418     13.591
REMARK INTER + INTRA:           0.216
REMARK INTER:                   0.597
REMARK INTRA:                  -0.381
REMARK UNBOUND:                -0.047
REMARK SMILES O=C([O-])CCCCCCCC(=O)[O-]
REMARK SMILES IDX 7 1 6 2 5 3 4 4 2 5 1 6 3 7 8 8 9 9 10 10 11 11 12 12 13 13
REMARK H PARENT
REMARK Flexibility Score: inf
ROOT
ATOM      1  C   UNL     1       0.618   6.066 -10.654  1.00  0.00     0.000 C 
ENDROOT
BRANCH   1   2
ATOM      2  C   UNL     1      -0.782   5.593 -11.083  1.00  0.00     0.000 C 
BRANCH   2   3
ATOM      3  C   UNL     1      -1.081   5.879 -12.562  1.00  0.00     0.006 C 
BRANCH   3   4
ATOM      4  C   UNL     1      -1.866   4.725 -13.194  1.00  0.00     0.053 C 
BRANCH   4   5
ATOM      5  C   UNL     1      -3.337   4.958 -13.061  1.00  0.00     0.041 C 
ATOM      6  O   UNL     1      -4.124   3.983 -12.933  1.00  0.00    -0.550 OA
ATOM      7  O   UNL     1      -3.846   6.248 -13.126  1.00  0.00    -0.550 OA
ENDBRANCH   4   5
ENDBRANCH   3   4
ENDBRANCH   2   3
ENDBRANCH   1   2
BRANCH   1   8
ATOM      8  C   UNL     1       1.257   5.263  -9.503  1.00  0.00     0.000 C 
BRANCH   8   9
ATOM      9  C   UNL     1       0.529   5.368  -8.151  1.00  0.00     0.006 C 
BRANCH   9  10
ATOM     10  C   UNL     1       0.581   6.780  -7.555  1.00  0.00     0.053 C 
BRANCH  10  11
ATOM     11  C   UNL     1      -0.784   7.391  -7.539  1.00  0.00     0.041 C 
ATOM     12  O   UNL     1      -0.980   8.491  -6.959  1.00  0.00    -0.550 OA
ATOM     13  O   UNL     1      -1.853   6.720  -8.122  1.00  0.00    -0.550 OA
ENDBRANCH  10  11
ENDBRANCH   9  10
ENDBRANCH   8   9
ENDBRANCH   1   8
TORSDOF 8
ENDMDL
MODEL 3
REMARK VINA RESULT:     0.215     11.406     13.334
REMARK INTER + INTRA:           0.269
REMARK INTER:                   0.687
REMARK INTRA:                  -0.418
REMARK UNBOUND:                -0.047
REMARK SMILES O=C([O-])CCCCCCCC(=O)[O-]
REMARK SMILES IDX 7 1 6 2 5 3 4 4 2 5 1 6 3 7 8 8 9 9 10 10 11 11 12 12 13 13
REMARK H PARENT
REMARK Flexibility Score: inf
ROOT
ATOM      1  C   UNL     1       0.557   6.089 -10.754  1.00  0.00     0.000 C 
ENDROOT
BRANCH   1   2
ATOM      2  C   UNL     1       1.154   5.184  -9.662  1.00  0.00     0.000 C 
BRANCH   2   3
ATOM      3  C   UNL     1       0.367   5.240  -8.345  1.00  0.00     0.006 C 
BRANCH   3   4
ATOM      4  C   UNL     1       0.573   6.585  -7.641  1.00  0.00     0.053 C 
BRANCH   4   5
ATOM      5  C   UNL     1      -0.710   7.354  -7.595  1.00  0.00     0.041 C 
ATOM      6  O   UNL     1      -0.757   8.474  -7.022  1.00  0.00    -0.550 OA
ATOM      7  O   UNL     1      -1.865   6.812  -8.143  1.00  0.00    -0.550 OA
ENDBRANCH   4   5
ENDBRANCH   3   4
ENDBRANCH   2   3
ENDBRANCH   1   2
BRANCH   1   8
ATOM      8  C   UNL     1      -0.808   5.634 -11.308  1.00  0.00     0.000 C 
BRANCH   8   9
ATOM      9  C   UNL     1      -0.926   5.644 -12.842  1.00  0.00     0.006 C 
BRANCH   9  10
ATOM     10  C   UNL     1      -1.885   4.571 -13.372  1.00  0.00     0.053 C 
BRANCH  10  11
ATOM     11  C   UNL     1      -3.299   4.921 -13.034  1.00  0.00     0.041 C 
ATOM     12  O   UNL     1      -4.125   4.015 -12.744  1.00  0.00    -0.550 OA
ATOM     13  O   UNL     1      -3.720   6.244 -13.087  1.00  0.00    -0.550 OA
ENDBRANCH  10  11
ENDBRANCH   9  10
ENDBRANCH   8   9
ENDBRANCH   1   8
TORSDOF 8
ENDMDL
MODEL 4
REMARK VINA RESULT:     0.808      0.621      6.861
REMARK INTER + INTRA:           1.139
REMARK INTER:                   1.475
REMARK INTRA:                  -0.336
REMARK UNBOUND:                -0.047
REMARK SMILES O=C([O-])CCCCCCCC(=O)[O-]
REMARK SMILES IDX 7 1 6 2 5 3 4 4 2 5 1 6 3 7 8 8 9 9 10 10 11 11 12 12 13 13
REMARK H PARENT
REMARK Flexibility Score: inf
ROOT
ATOM      1  C   UNL     1      11.773   8.161  -7.094  1.00  0.00     0.000 C 
ENDROOT
BRANCH   1   2
ATOM      2  C   UNL     1      12.728   7.456  -8.074  1.00  0.00     0.000 C 
BRANCH   2   3
ATOM      3  C   UNL     1      12.277   7.576  -9.536  1.00  0.00     0.006 C 
BRANCH   3   4
ATOM      4  C   UNL     1      12.504   8.996 -10.065  1.00  0.00     0.053 C 
BRANCH   4   5
ATOM      5  C   UNL     1      13.716   9.041 -10.941  1.00  0.00     0.041 C 
ATOM      6  O   UNL     1      14.052  10.116 -11.504  1.00  0.00    -0.550 OA
ATOM      7  O   UNL     1      14.448   7.884 -11.174  1.00  0.00    -0.550 OA
ENDBRANCH   4   5
ENDBRANCH   3   4
ENDBRANCH   2   3
ENDBRANCH   1   2
BRANCH   1   8
ATOM      8  C   UNL     1      11.265   7.286  -5.931  1.00  0.00     0.000 C 
BRANCH   8   9
ATOM      9  C   UNL     1       9.742   7.071  -5.893  1.00  0.00     0.006 C 
BRANCH   9  10
ATOM     10  C   UNL     1       8.961   8.238  -6.510  1.00  0.00     0.053 C 
BRANCH  10  11
ATOM     11  C   UNL     1       7.512   8.147  -6.148  1.00  0.00     0.041 C 
ATOM     12  O   UNL     1       6.996   7.031  -5.875  1.00  0.00    -0.550 OA
ATOM     13  O   UNL     1       6.720   9.288  -6.160  1.00  0.00    -0.550 OA
ENDBRANCH  10  11
ENDBRANCH   9  10
ENDBRANCH   8   9
ENDBRANCH   1   8
TORSDOF 8
ENDMDL
MODEL 5
REMARK VINA RESULT:     1.285     11.078     12.434
REMARK INTER + INTRA:           1.839
REMARK INTER:                   1.965
REMARK INTRA:                  -0.126
REMARK UNBOUND:                -0.047
REMARK SMILES O=C([O-])CCCCCCCC(=O)[O-]
REMARK SMILES IDX 7 1 6 2 5 3 4 4 2 5 1 6 3 7 8 8 9 9 10 10 11 11 12 12 13 13
REMARK H PARENT
REMARK Flexibility Score: inf
ROOT
ATOM      1  C   UNL     1       0.386   6.011 -10.799  1.00  0.00     0.000 C 
ENDROOT
BRANCH   1   2
ATOM      2  C   UNL     1       1.211   5.379  -9.665  1.00  0.00     0.000 C 
BRANCH   2   3
ATOM      3  C   UNL     1       0.463   5.356  -8.324  1.00  0.00     0.006 C 
BRANCH   3   4
ATOM      4  C   UNL     1       0.610   6.695  -7.593  1.00  0.00     0.053 C 
BRANCH   4   5
ATOM      5  C   UNL     1      -0.705   7.406  -7.534  1.00  0.00     0.041 C 
ATOM      6  O   UNL     1      -0.789   8.538  -6.987  1.00  0.00    -0.550 OA
ATOM      7  O   UNL     1      -1.847   6.798  -8.038  1.00  0.00    -0.550 OA
ENDBRANCH   4   5
ENDBRANCH   3   4
ENDBRANCH   2   3
ENDBRANCH   1   2
BRANCH   1   8
ATOM      8  C   UNL     1      -1.102   5.607 -10.830  1.00  0.00     0.000 C 
BRANCH   8   9
ATOM      9  C   UNL     1      -1.834   5.911 -12.150  1.00  0.00     0.006 C 
BRANCH   9  10
ATOM     10  C   UNL     1      -1.655   4.805 -13.197  1.00  0.00     0.053 C 
BRANCH  10  11
ATOM     11  C   UNL     1      -0.698   5.242 -14.260  1.00  0.00     0.041 C 
ATOM     12  O   UNL     1       0.263   6.004 -13.975  1.00  0.00    -0.550 OA
ATOM     13  O   UNL     1      -0.896   4.849 -15.579  1.00  0.00    -0.550 OA
ENDBRANCH  10  11
ENDBRANCH   9  10
ENDBRANCH   8   9
ENDBRANCH   1   8
TORSDOF 8
ENDMDL
MODEL 6
REMARK VINA RESULT:     1.493     11.053     13.328
REMARK INTER + INTRA:           2.144
REMARK INTER:                   2.416
REMARK INTRA:                  -0.272
REMARK UNBOUND:                -0.047
REMARK SMILES O=C([O-])CCCCCCCC(=O)[O-]
REMARK SMILES IDX 7 1 6 2 5 3 4 4 2 5 1 6 3 7 8 8 9 9 10 10 11 11 12 12 13 13
REMARK H PARENT
REMARK Flexibility Score: inf
ROOT
ATOM      1  C   UNL     1       0.392   6.080 -10.762  1.00  0.00     0.000 C 
ENDROOT
BRANCH   1   2
ATOM      2  C   UNL     1      -1.010   5.452 -10.840  1.00  0.00     0.000 C 
BRANCH   2   3
ATOM      3  C   UNL     1      -1.796   5.900 -12.081  1.00  0.00     0.006 C 
BRANCH   3   4
ATOM      4  C   UNL     1      -1.729   4.839 -13.184  1.00  0.00     0.053 C 
BRANCH   4   5
ATOM      5  C   UNL     1      -0.733   5.232 -14.228  1.00  0.00     0.041 C 
ATOM      6  O   UNL     1       0.222   6.000 -13.937  1.00  0.00    -0.550 OA
ATOM      7  O   UNL     1      -0.885   4.790 -15.536  1.00  0.00    -0.550 OA
ENDBRANCH   4   5
ENDBRANCH   3   4
ENDBRANCH   2   3
ENDBRANCH   1   2
BRANCH   1   8
ATOM      8  C   UNL     1       1.225   5.673  -9.529  1.00  0.00     0.000 C 
BRANCH   8   9
ATOM      9  C   UNL     1       0.418   5.476  -8.233  1.00  0.00     0.006 C 
BRANCH   9  10
ATOM     10  C   UNL     1       0.509   6.680  -7.287  1.00  0.00     0.053 C 
BRANCH  10  11
ATOM     11  C   UNL     1      -0.713   7.534  -7.410  1.00  0.00     0.041 C 
ATOM     12  O   UNL     1      -1.778   7.054  -7.881  1.00  0.00    -0.550 OA
ATOM     13  O   UNL     1      -0.662   8.875  -7.051  1.00  0.00    -0.550 OA
ENDBRANCH  10  11
ENDBRANCH   9  10
ENDBRANCH   8   9
ENDBRANCH   1   8
TORSDOF 8
ENDMDL
