MODEL 1
REMARK VINA RESULT:    -4.739      0.000      0.000
REMARK INTER + INTRA:          -5.164
REMARK INTER:                  -5.155
REMARK INTRA:                  -0.010
REMARK UNBOUND:                -0.010
REMARK SMILES OCc1ccccc1
REMARK SMILES IDX 2 1 3 2 6 3 5 4 7 5 4 6 8 7 1 8
REMARK H PARENT 1 9
REMARK Flexibility Score: inf
ROOT
ATOM      1  C   UNL     1      -9.935  74.248  25.550  1.00  0.00     0.191 C 
ENDROOT
BRANCH   1   2
ATOM      2  C   UNL     1     -10.361  74.226  26.992  1.00  0.00    -0.023 A 
ATOM      3  C   UNL     1     -11.128  74.110  29.688  1.00  0.00     0.000 A 
ATOM      4  C   UNL     1      -9.856  74.573  29.343  1.00  0.00     0.000 A 
ATOM      5  C   UNL     1     -12.016  73.695  28.690  1.00  0.00     0.000 A 
ATOM      6  C   UNL     1      -9.469  74.626  28.001  1.00  0.00     0.006 A 
ATOM      7  C   UNL     1     -11.633  73.747  27.347  1.00  0.00     0.006 A 
ENDBRANCH   1   2
BRANCH   1   8
ATOM      8  O   UNL     1     -10.528  75.332  24.890  1.00  0.00    -0.392 OA
ATOM      9  H   UNL     1     -10.574  76.073  25.549  1.00  0.00     0.211 HD
ENDBRANCH   1   8
TORSDOF 2
ENDMDL
MODEL 2
REMARK VINA RESULT:    -4.727      0.056      1.714
REMARK INTER + INTRA:          -5.152
REMARK INTER:                  -5.141
REMARK INTRA:                  -0.011
REMARK UNBOUND:                -0.010
REMARK SMILES OCc1ccccc1
REMARK SMILES IDX 2 1 3 2 6 3 5 4 7 5 4 6 8 7 1 8
REMARK H PARENT 1 9
REMARK Flexibility Score: inf
ROOT
ATOM      1  C   UNL     1      -9.905  74.256  25.561  1.00  0.00     0.191 C 
ENDROOT
BRANCH   1   2
ATOM      2  C   UNL     1     -10.345  74.174  26.996  1.00  0.00    -0.023 A 
ATOM      3  C   UNL     1     -11.195  74.095  29.670  1.00  0.00     0.000 A 
ATOM      4  C   UNL     1     -12.045  73.650  28.653  1.00  0.00     0.000 A 
ATOM      5  C   UNL     1      -9.925  74.588  29.354  1.00  0.00     0.000 A 
ATOM      6  C   UNL     1     -11.626  73.695  27.320  1.00  0.00     0.006 A 
ATOM      7  C   UNL     1      -9.502  74.633  28.023  1.00  0.00     0.006 A 
ENDBRANCH   1   2
BRANCH   1   8
ATOM      8  O   UNL     1     -10.526  75.343  24.930  1.00  0.00    -0.392 OA
ATOM      9  H   UNL     1     -11.504  75.186  24.994  1.00  0.00     0.211 HD
ENDBRANCH   1   8
TORSDOF 2
ENDMDL
MODEL 3
REMARK VINA RESULT:    -4.649      3.409      4.797
REMARK INTER + INTRA:          -5.067
REMARK INTER:                  -5.047
REMARK INTRA:                  -0.019
REMARK UNBOUND:                -0.010
REMARK SMILES OCc1ccccc1
REMARK SMILES IDX 2 1 3 2 6 3 5 4 7 5 4 6 8 7 1 8
REMARK H PARENT 1 9
REMARK Flexibility Score: inf
ROOT
ATOM      1  C   UNL     1     -11.042  73.967  32.854  1.00  0.00     0.191 C 
ENDROOT
BRANCH   1   2
ATOM      2  C   UNL     1     -11.159  73.594  31.402  1.00  0.00    -0.023 A 
ATOM      3  C   UNL     1     -11.299  72.878  28.692  1.00  0.00     0.000 A 
ATOM      4  C   UNL     1     -11.547  71.923  29.681  1.00  0.00     0.000 A 
ATOM      5  C   UNL     1     -10.971  74.189  29.053  1.00  0.00     0.000 A 
ATOM      6  C   UNL     1     -11.472  72.275  31.031  1.00  0.00     0.006 A 
ATOM      7  C   UNL     1     -10.895  74.545  30.403  1.00  0.00     0.006 A 
ENDBRANCH   1   2
BRANCH   1   8
ATOM      8  O   UNL     1     -10.932  75.358  32.985  1.00  0.00    -0.392 OA
ATOM      9  H   UNL     1     -11.785  75.742  32.652  1.00  0.00     0.211 HD
ENDBRANCH   1   8
TORSDOF 2
ENDMDL
MODEL 4
REMARK VINA RESULT:    -4.630      3.400      4.639
REMARK INTER + INTRA:          -5.045
REMARK INTER:                  -5.026
REMARK INTRA:                  -0.020
REMARK UNBOUND:                -0.010
REMARK SMILES OCc1ccccc1
REMARK SMILES IDX 2 1 3 2 6 3 5 4 7 5 4 6 8 7 1 8
REMARK H PARENT 1 9
REMARK Flexibility Score: inf
ROOT
ATOM      1  C   UNL     1     -11.068  73.969  32.855  1.00  0.00     0.191 C 
ENDROOT
BRANCH   1   2
ATOM      2  C   UNL     1     -11.113  73.587  31.402  1.00  0.00    -0.023 A 
ATOM      3  C   UNL     1     -11.276  72.896  28.687  1.00  0.00     0.000 A 
ATOM      4  C   UNL     1     -10.913  74.193  29.057  1.00  0.00     0.000 A 
ATOM      5  C   UNL     1     -11.567  71.944  29.669  1.00  0.00     0.000 A 
ATOM      6  C   UNL     1     -10.837  74.542  30.408  1.00  0.00     0.006 A 
ATOM      7  C   UNL     1     -11.492  72.289  31.022  1.00  0.00     0.006 A 
ENDBRANCH   1   2
BRANCH   1   8
ATOM      8  O   UNL     1     -10.894  75.353  32.984  1.00  0.00    -0.392 OA
ATOM      9  H   UNL     1      -9.915  75.515  33.011  1.00  0.00     0.211 HD
ENDBRANCH   1   8
TORSDOF 2
ENDMDL
MODEL 5
REMARK VINA RESULT:    -4.612      3.671      5.115
REMARK INTER + INTRA:          -5.026
REMARK INTER:                  -5.016
REMARK INTRA:                  -0.010
REMARK UNBOUND:                -0.010
REMARK SMILES OCc1ccccc1
REMARK SMILES IDX 2 1 3 2 6 3 5 4 7 5 4 6 8 7 1 8
REMARK H PARENT 1 9
REMARK Flexibility Score: inf
ROOT
ATOM      1  C   UNL     1     -11.842  72.748  32.686  1.00  0.00     0.191 C 
ENDROOT
BRANCH   1   2
ATOM      2  C   UNL     1     -11.115  73.405  31.546  1.00  0.00    -0.023 A 
ATOM      3  C   UNL     1      -9.705  74.573  29.419  1.00  0.00     0.000 A 
ATOM      4  C   UNL     1     -10.752  73.685  29.159  1.00  0.00     0.000 A 
ATOM      5  C   UNL     1      -9.353  74.873  30.739  1.00  0.00     0.000 A 
ATOM      6  C   UNL     1     -11.451  73.097  30.217  1.00  0.00     0.006 A 
ATOM      7  C   UNL     1     -10.052  74.288  31.800  1.00  0.00     0.006 A 
ENDBRANCH   1   2
BRANCH   1   8
ATOM      8  O   UNL     1     -11.306  71.476  32.928  1.00  0.00    -0.392 OA
ATOM      9  H   UNL     1     -11.798  70.844  32.342  1.00  0.00     0.211 HD
ENDBRANCH   1   8
TORSDOF 2
ENDMDL
MODEL 6
REMARK VINA RESULT:    -4.605      1.726      2.110
REMARK INTER + INTRA:          -5.018
REMARK INTER:                  -5.008
REMARK INTRA:                  -0.010
REMARK UNBOUND:                -0.010
REMARK SMILES OCc1ccccc1
REMARK SMILES IDX 2 1 3 2 6 3 5 4 7 5 4 6 8 7 1 8
REMARK H PARENT 1 9
REMARK Flexibility Score: inf
ROOT
ATOM      1  C   UNL     1     -10.038  74.782  27.443  1.00  0.00     0.191 C 
ENDROOT
BRANCH   1   2
ATOM      2  C   UNL     1     -10.592  73.989  28.594  1.00  0.00    -0.023 A 
ATOM      3  C   UNL     1     -11.557  72.470  30.748  1.00  0.00     0.000 A 
ATOM      4  C   UNL     1     -10.932  73.698  30.982  1.00  0.00     0.000 A 
ATOM      5  C   UNL     1     -11.694  71.994  29.440  1.00  0.00     0.000 A 
ATOM      6  C   UNL     1     -10.445  74.453  29.912  1.00  0.00     0.006 A 
ATOM      7  C   UNL     1     -11.209  72.747  28.366  1.00  0.00     0.006 A 
ENDBRANCH   1   2
BRANCH   1   8
ATOM      8  O   UNL     1      -8.658  74.567  27.332  1.00  0.00    -0.392 OA
ATOM      9  H   UNL     1      -8.479  74.363  26.376  1.00  0.00     0.211 HD
ENDBRANCH   1   8
TORSDOF 2
ENDMDL
MODEL 7
REMARK VINA RESULT:    -4.599      1.688      2.526
REMARK INTER + INTRA:          -5.012
REMARK INTER:                  -5.002
REMARK INTRA:                  -0.009
REMARK UNBOUND:                -0.010
REMARK SMILES OCc1ccccc1
REMARK SMILES IDX 2 1 3 2 6 3 5 4 7 5 4 6 8 7 1 8
REMARK H PARENT 1 9
REMARK Flexibility Score: inf
ROOT
ATOM      1  C   UNL     1     -10.084  74.777  27.401  1.00  0.00     0.191 C 
ENDROOT
BRANCH   1   2
ATOM      2  C   UNL     1     -10.573  73.976  28.575  1.00  0.00    -0.023 A 
ATOM      3  C   UNL     1     -11.556  72.517  30.762  1.00  0.00     0.000 A 
ATOM      4  C   UNL     1     -11.710  72.021  29.465  1.00  0.00     0.000 A 
ATOM      5  C   UNL     1     -10.920  73.746  30.970  1.00  0.00     0.000 A 
ATOM      6  C   UNL     1     -11.226  72.748  28.374  1.00  0.00     0.006 A 
ATOM      7  C   UNL     1     -10.435  74.476  29.881  1.00  0.00     0.006 A 
ENDBRANCH   1   2
BRANCH   1   8
ATOM      8  O   UNL     1      -8.707  74.585  27.227  1.00  0.00    -0.392 OA
ATOM      9  H   UNL     1      -8.490  73.706  27.635  1.00  0.00     0.211 HD
ENDBRANCH   1   8
TORSDOF 2
ENDMDL
MODEL 8
REMARK VINA RESULT:    -4.592      4.429      5.940
REMARK INTER + INTRA:          -5.004
REMARK INTER:                  -4.986
REMARK INTRA:                  -0.018
REMARK UNBOUND:                -0.010
REMARK SMILES OCc1ccccc1
REMARK SMILES IDX 2 1 3 2 6 3 5 4 7 5 4 6 8 7 1 8
REMARK H PARENT 1 9
REMARK Flexibility Score: inf
ROOT
ATOM      1  C   UNL     1     -10.813  72.962  34.245  1.00  0.00     0.191 C 
ENDROOT
BRANCH   1   2
ATOM      2  C   UNL     1     -10.978  73.245  32.778  1.00  0.00    -0.023 A 
ATOM      3  C   UNL     1     -11.208  73.755  30.028  1.00  0.00     0.000 A 
ATOM      4  C   UNL     1     -11.464  72.475  30.525  1.00  0.00     0.000 A 
ATOM      5  C   UNL     1     -10.829  74.781  30.900  1.00  0.00     0.000 A 
ATOM      6  C   UNL     1     -11.344  72.217  31.893  1.00  0.00     0.006 A 
ATOM      7  C   UNL     1     -10.709  74.527  32.269  1.00  0.00     0.006 A 
ENDBRANCH   1   2
BRANCH   1   8
ATOM      8  O   UNL     1     -10.861  74.158  34.974  1.00  0.00    -0.392 OA
ATOM      9  H   UNL     1      -9.920  74.432  35.130  1.00  0.00     0.211 HD
ENDBRANCH   1   8
TORSDOF 2
ENDMDL
MODEL 9
REMARK VINA RESULT:    -4.579      2.576      3.472
REMARK INTER + INTRA:          -4.990
REMARK INTER:                  -4.970
REMARK INTRA:                  -0.019
REMARK UNBOUND:                -0.010
REMARK SMILES OCc1ccccc1
REMARK SMILES IDX 2 1 3 2 6 3 5 4 7 5 4 6 8 7 1 8
REMARK H PARENT 1 9
REMARK Flexibility Score: inf
ROOT
ATOM      1  C   UNL     1     -11.390  73.372  28.474  1.00  0.00     0.191 C 
ENDROOT
BRANCH   1   2
ATOM      2  C   UNL     1     -11.281  73.552  29.962  1.00  0.00    -0.023 A 
ATOM      3  C   UNL     1     -11.003  73.856  32.738  1.00  0.00     0.000 A 
ATOM      4  C   UNL     1     -10.615  74.888  31.880  1.00  0.00     0.000 A 
ATOM      5  C   UNL     1     -11.522  72.668  32.213  1.00  0.00     0.000 A 
ATOM      6  C   UNL     1     -10.746  74.736  30.497  1.00  0.00     0.006 A 
ATOM      7  C   UNL     1     -11.656  72.513  30.830  1.00  0.00     0.006 A 
ENDBRANCH   1   2
BRANCH   1   8
ATOM      8  O   UNL     1     -12.051  72.172  28.181  1.00  0.00    -0.392 OA
ATOM      9  H   UNL     1     -12.947  72.232  28.605  1.00  0.00     0.211 HD
ENDBRANCH   1   8
TORSDOF 2
ENDMDL
