MODEL 1
REMARK VINA RESULT:    -2.904      0.000      0.000
REMARK INTER + INTRA:          -3.159
REMARK INTER:                  -3.159
REMARK INTRA:                   0.000
REMARK UNBOUND:                 0.000
REMARK SMILES [NH3+]CC(=O)[O-]
REMARK SMILES IDX 2 1 1 2 3 6 4 7 5 8
REMARK H PARENT 1 3 1 4 1 5
REMARK Flexibility Score: inf
ROOT
ATOM      1  C   UNL     1      23.030  -3.477  -0.738  1.00  0.00     0.312 C 
ENDROOT
BRANCH   1   2
ATOM      2  N   UNL     1      22.971  -3.072  -2.141  1.00  0.00    -0.353 N 
ATOM      3  H   UNL     1      23.804  -3.440  -2.656  1.00  0.00     0.344 HD
ATOM      4  H   UNL     1      22.943  -2.029  -2.213  1.00  0.00     0.344 HD
ATOM      5  H   UNL     1      22.105  -3.465  -2.574  1.00  0.00     0.344 HD
ENDBRANCH   1   2
BRANCH   1   6
ATOM      6  C   UNL     1      24.010  -2.631   0.015  1.00  0.00     0.096 C 
ATOM      7  O   UNL     1      25.014  -3.159   0.561  1.00  0.00    -0.544 OA
ATOM      8  O   UNL     1      23.842  -1.254   0.070  1.00  0.00    -0.544 OA
ENDBRANCH   1   6
TORSDOF 2
ENDMDL
MODEL 2
REMARK VINA RESULT:    -2.804     14.805     15.158
REMARK INTER + INTRA:          -3.050
REMARK INTER:                  -3.050
REMARK INTRA:                   0.000
REMARK UNBOUND:                 0.000
REMARK SMILES [NH3+]CC(=O)[O-]
REMARK SMILES IDX 2 1 1 2 3 6 4 7 5 8
REMARK H PARENT 1 3 1 4 1 5
REMARK Flexibility Score: inf
ROOT
ATOM      1  C   UNL     1      33.020  -3.599  10.037  1.00  0.00     0.312 C 
ENDROOT
BRANCH   1   2
ATOM      2  N   UNL     1      33.668  -3.054   8.846  1.00  0.00    -0.353 N 
ATOM      3  H   UNL     1      33.076  -2.300   8.429  1.00  0.00     0.344 HD
ATOM      4  H   UNL     1      33.823  -3.813   8.142  1.00  0.00     0.344 HD
ATOM      5  H   UNL     1      34.593  -2.648   9.116  1.00  0.00     0.344 HD
ENDBRANCH   1   2
BRANCH   1   6
ATOM      6  C   UNL     1      33.989  -3.675  11.177  1.00  0.00     0.096 C 
ATOM      7  O   UNL     1      34.226  -2.655  11.876  1.00  0.00    -0.544 OA
ATOM      8  O   UNL     1      34.591  -4.885  11.498  1.00  0.00    -0.544 OA
ENDBRANCH   1   6
TORSDOF 2
ENDMDL
MODEL 3
REMARK VINA RESULT:    -2.641     15.193     15.667
REMARK INTER + INTRA:          -2.873
REMARK INTER:                  -2.873
REMARK INTRA:                   0.000
REMARK UNBOUND:                 0.000
REMARK SMILES [NH3+]CC(=O)[O-]
REMARK SMILES IDX 2 1 1 2 3 6 4 7 5 8
REMARK H PARENT 1 3 1 4 1 5
REMARK Flexibility Score: inf
ROOT
ATOM      1  C   UNL     1      34.016  -2.785  11.864  1.00  0.00     0.312 C 
ENDROOT
BRANCH   1   2
ATOM      2  N   UNL     1      34.793  -3.454  12.905  1.00  0.00    -0.353 N 
ATOM      3  H   UNL     1      34.666  -2.961  13.819  1.00  0.00     0.344 HD
ATOM      4  H   UNL     1      35.806  -3.465  12.646  1.00  0.00     0.344 HD
ATOM      5  H   UNL     1      34.457  -4.439  13.002  1.00  0.00     0.344 HD
ENDBRANCH   1   2
BRANCH   1   6
ATOM      6  C   UNL     1      33.733  -3.722  10.732  1.00  0.00     0.096 C 
ATOM      7  O   UNL     1      33.846  -4.966  10.895  1.00  0.00    -0.544 OA
ATOM      8  O   UNL     1      33.296  -3.227   9.510  1.00  0.00    -0.544 OA
ENDBRANCH   1   6
TORSDOF 2
ENDMDL
MODEL 4
REMARK VINA RESULT:    -2.561      2.428      2.604
REMARK INTER + INTRA:          -2.785
REMARK INTER:                  -2.785
REMARK INTRA:                   0.000
REMARK UNBOUND:                 0.000
REMARK SMILES [NH3+]CC(=O)[O-]
REMARK SMILES IDX 2 1 1 2 3 6 4 7 5 8
REMARK H PARENT 1 3 1 4 1 5
REMARK Flexibility Score: inf
ROOT
ATOM      1  C   UNL     1      23.134  -3.398  -0.721  1.00  0.00     0.312 C 
ENDROOT
BRANCH   1   2
ATOM      2  N   UNL     1      22.978  -3.070  -2.137  1.00  0.00    -0.353 N 
ATOM      3  H   UNL     1      21.972  -2.884  -2.354  1.00  0.00     0.344 HD
ATOM      4  H   UNL     1      23.329  -3.858  -2.729  1.00  0.00     0.344 HD
ATOM      5  H   UNL     1      23.534  -2.211  -2.352  1.00  0.00     0.344 HD
ENDBRANCH   1   2
BRANCH   1   6
ATOM      6  C   UNL     1      21.851  -3.925  -0.158  1.00  0.00     0.096 C 
ATOM      7  O   UNL     1      21.853  -4.956   0.565  1.00  0.00    -0.544 OA
ATOM      8  O   UNL     1      20.660  -3.249  -0.388  1.00  0.00    -0.544 OA
ENDBRANCH   1   6
TORSDOF 2
ENDMDL
MODEL 5
REMARK VINA RESULT:    -2.550      2.346      2.470
REMARK INTER + INTRA:          -2.773
REMARK INTER:                  -2.773
REMARK INTRA:                   0.000
REMARK UNBOUND:                 0.000
REMARK SMILES [NH3+]CC(=O)[O-]
REMARK SMILES IDX 2 1 1 2 3 6 4 7 5 8
REMARK H PARENT 1 3 1 4 1 5
REMARK Flexibility Score: inf
ROOT
ATOM      1  C   UNL     1      24.706  -3.081   0.623  1.00  0.00     0.312 C 
ENDROOT
BRANCH   1   2
ATOM      2  N   UNL     1      25.770  -2.159   1.016  1.00  0.00    -0.353 N 
ATOM      3  H   UNL     1      26.012  -2.299   2.024  1.00  0.00     0.344 HD
ATOM      4  H   UNL     1      25.466  -1.171   0.858  1.00  0.00     0.344 HD
ATOM      5  H   UNL     1      26.619  -2.349   0.436  1.00  0.00     0.344 HD
ENDBRANCH   1   2
BRANCH   1   6
ATOM      6  C   UNL     1      23.743  -2.409  -0.305  1.00  0.00     0.096 C 
ATOM      7  O   UNL     1      23.104  -3.085  -1.154  1.00  0.00    -0.544 OA
ATOM      8  O   UNL     1      23.512  -1.044  -0.199  1.00  0.00    -0.544 OA
ENDBRANCH   1   6
TORSDOF 2
ENDMDL
MODEL 6
REMARK VINA RESULT:    -2.536     12.430     12.705
REMARK INTER + INTRA:          -2.758
REMARK INTER:                  -2.758
REMARK INTRA:                   0.000
REMARK UNBOUND:                 0.000
REMARK SMILES [NH3+]CC(=O)[O-]
REMARK SMILES IDX 2 1 1 2 3 6 4 7 5 8
REMARK H PARENT 1 3 1 4 1 5
REMARK Flexibility Score: inf
ROOT
ATOM      1  C   UNL     1      29.682   3.137   9.906  1.00  0.00     0.312 C 
ENDROOT
BRANCH   1   2
ATOM      2  N   UNL     1      29.748   3.569   8.511  1.00  0.00    -0.353 N 
ATOM      3  H   UNL     1      29.985   2.757   7.895  1.00  0.00     0.344 HD
ATOM      4  H   UNL     1      30.469   4.319   8.401  1.00  0.00     0.344 HD
ATOM      5  H   UNL     1      28.817   3.949   8.227  1.00  0.00     0.344 HD
ENDBRANCH   1   2
BRANCH   1   6
ATOM      6  C   UNL     1      28.476   2.281  10.137  1.00  0.00     0.096 C 
ATOM      7  O   UNL     1      28.575   1.211  10.793  1.00  0.00    -0.544 OA
ATOM      8  O   UNL     1      27.233   2.690   9.671  1.00  0.00    -0.544 OA
ENDBRANCH   1   6
TORSDOF 2
ENDMDL
MODEL 7
REMARK VINA RESULT:    -2.523      9.537      9.938
REMARK INTER + INTRA:          -2.744
REMARK INTER:                  -2.744
REMARK INTRA:                   0.000
REMARK UNBOUND:                 0.000
REMARK SMILES [NH3+]CC(=O)[O-]
REMARK SMILES IDX 2 1 1 2 3 6 4 7 5 8
REMARK H PARENT 1 3 1 4 1 5
REMARK Flexibility Score: inf
ROOT
ATOM      1  C   UNL     1      26.324   7.204   2.247  1.00  0.00     0.312 C 
ENDROOT
BRANCH   1   2
ATOM      2  N   UNL     1      27.623   7.150   1.578  1.00  0.00    -0.353 N 
ATOM      3  H   UNL     1      28.369   7.515   2.214  1.00  0.00     0.344 HD
ATOM      4  H   UNL     1      27.598   7.717   0.699  1.00  0.00     0.344 HD
ATOM      5  H   UNL     1      27.841   6.157   1.335  1.00  0.00     0.344 HD
ENDBRANCH   1   2
BRANCH   1   6
ATOM      6  C   UNL     1      25.929   5.847   2.741  1.00  0.00     0.096 C 
ATOM      7  O   UNL     1      24.860   5.314   2.343  1.00  0.00    -0.544 OA
ATOM      8  O   UNL     1      26.766   5.149   3.602  1.00  0.00    -0.544 OA
ENDBRANCH   1   6
TORSDOF 2
ENDMDL
MODEL 8
REMARK VINA RESULT:    -2.473      2.857      3.164
REMARK INTER + INTRA:          -2.690
REMARK INTER:                  -2.690
REMARK INTRA:                   0.000
REMARK UNBOUND:                 0.000
REMARK SMILES [NH3+]CC(=O)[O-]
REMARK SMILES IDX 2 1 1 2 3 6 4 7 5 8
REMARK H PARENT 1 3 1 4 1 5
REMARK Flexibility Score: inf
ROOT
ATOM      1  C   UNL     1      25.107  -1.213   1.779  1.00  0.00     0.312 C 
ENDROOT
BRANCH   1   2
ATOM      2  N   UNL     1      26.474  -1.569   2.151  1.00  0.00    -0.353 N 
ATOM      3  H   UNL     1      26.562  -1.618   3.193  1.00  0.00     0.344 HD
ATOM      4  H   UNL     1      27.146  -0.862   1.772  1.00  0.00     0.344 HD
ATOM      5  H   UNL     1      26.706  -2.506   1.749  1.00  0.00     0.344 HD
ENDBRANCH   1   2
BRANCH   1   6
ATOM      6  C   UNL     1      24.641  -2.044   0.624  1.00  0.00     0.096 C 
ATOM      7  O   UNL     1      24.986  -3.251   0.531  1.00  0.00    -0.544 OA
ATOM      8  O   UNL     1      23.785  -1.499  -0.324  1.00  0.00    -0.544 OA
ENDBRANCH   1   6
TORSDOF 2
ENDMDL
MODEL 9
REMARK VINA RESULT:    -2.298      3.206      3.693
REMARK INTER + INTRA:          -2.500
REMARK INTER:                  -2.500
REMARK INTRA:                   0.000
REMARK UNBOUND:                 0.000
REMARK SMILES [NH3+]CC(=O)[O-]
REMARK SMILES IDX 2 1 1 2 3 6 4 7 5 8
REMARK H PARENT 1 3 1 4 1 5
REMARK Flexibility Score: inf
ROOT
ATOM      1  C   UNL     1      24.777  -1.925   1.697  1.00  0.00     0.312 C 
ENDROOT
BRANCH   1   2
ATOM      2  N   UNL     1      25.504  -2.645   0.654  1.00  0.00    -0.353 N 
ATOM      3  H   UNL     1      24.936  -2.675  -0.224  1.00  0.00     0.344 HD
ATOM      4  H   UNL     1      25.718  -3.618   0.971  1.00  0.00     0.344 HD
ATOM      5  H   UNL     1      26.402  -2.147   0.458  1.00  0.00     0.344 HD
ENDBRANCH   1   2
BRANCH   1   6
ATOM      6  C   UNL     1      25.591  -0.779   2.213  1.00  0.00     0.096 C 
ATOM      7  O   UNL     1      25.133   0.393   2.171  1.00  0.00    -0.544 OA
ATOM      8  O   UNL     1      26.834  -1.011   2.786  1.00  0.00    -0.544 OA
ENDBRANCH   1   6
TORSDOF 2
ENDMDL
