MODEL 1
REMARK VINA RESULT:    -3.990      0.000      0.000
REMARK INTER + INTRA:          -6.771
REMARK INTER:                  -6.089
REMARK INTRA:                  -0.683
REMARK UNBOUND:                -0.683
REMARK SMILES CCCCCCCCCCC(=O)[O-]
REMARK SMILES IDX 7 1 8 2 9 3 10 4 11 5 12 6 13 7 6 8 5 9 4 10 3 11 2 12 1 13
REMARK H PARENT
REMARK Flexibility Score: inf
ROOT
ATOM      1  C   UNL     1      19.660  -7.158  46.051  1.00  0.00     0.000 C 
ENDROOT
BRANCH   1   2
ATOM      2  C   UNL     1      19.639  -6.581  47.477  1.00  0.00     0.000 C 
BRANCH   2   3
ATOM      3  C   UNL     1      20.827  -7.054  48.330  1.00  0.00     0.006 C 
BRANCH   3   4
ATOM      4  C   UNL     1      20.422  -7.199  49.800  1.00  0.00     0.053 C 
BRANCH   4   5
ATOM      5  C   UNL     1      21.624  -7.102  50.686  1.00  0.00     0.041 C 
ATOM      6  O   UNL     1      22.150  -8.145  51.155  1.00  0.00    -0.550 OA
ATOM      7  O   UNL     1      22.134  -5.858  51.032  1.00  0.00    -0.550 OA
ENDBRANCH   4   5
ENDBRANCH   3   4
ENDBRANCH   2   3
ENDBRANCH   1   2
BRANCH   1   8
ATOM      8  C   UNL     1      18.284  -7.247  45.361  1.00  0.00     0.000 C 
BRANCH   8   9
ATOM      9  C   UNL     1      18.272  -6.854  43.873  1.00  0.00    -0.000 C 
BRANCH   9  10
ATOM     10  C   UNL     1      19.674  -6.538  43.329  1.00  0.00    -0.000 C 
BRANCH  10  11
ATOM     11  C   UNL     1      19.703  -5.162  42.654  1.00  0.00    -0.000 C 
BRANCH  11  12
ATOM     12  C   UNL     1      19.070  -4.093  43.554  1.00  0.00    -0.003 C 
ATOM     13  C   UNL     1      20.029  -3.666  44.661  1.00  0.00     0.004 C 
ENDBRANCH  11  12
ENDBRANCH  10  11
ENDBRANCH   9  10
ENDBRANCH   8   9
ENDBRANCH   1   8
TORSDOF 9
ENDMDL
MODEL 2
REMARK VINA RESULT:    -3.957      4.310      5.632
REMARK INTER + INTRA:          -6.722
REMARK INTER:                  -5.802
REMARK INTRA:                  -0.921
REMARK UNBOUND:                -0.683
REMARK SMILES CCCCCCCCCCC(=O)[O-]
REMARK SMILES IDX 7 1 8 2 9 3 10 4 11 5 12 6 13 7 6 8 5 9 4 10 3 11 2 12 1 13
REMARK H PARENT
REMARK Flexibility Score: inf
ROOT
ATOM      1  C   UNL     1      19.748  -3.855  44.719  1.00  0.00     0.000 C 
ENDROOT
BRANCH   1   2
ATOM      2  C   UNL     1      20.862  -3.920  45.779  1.00  0.00     0.000 C 
BRANCH   2   3
ATOM      3  C   UNL     1      22.160  -3.238  45.322  1.00  0.00     0.006 C 
BRANCH   3   4
ATOM      4  C   UNL     1      22.207  -1.780  45.790  1.00  0.00     0.053 C 
BRANCH   4   5
ATOM      5  C   UNL     1      23.085  -0.969  44.890  1.00  0.00     0.041 C 
ATOM      6  O   UNL     1      24.321  -1.205  44.830  1.00  0.00    -0.550 OA
ATOM      7  O   UNL     1      22.547   0.078  44.154  1.00  0.00    -0.550 OA
ENDBRANCH   4   5
ENDBRANCH   3   4
ENDBRANCH   2   3
ENDBRANCH   1   2
BRANCH   1   8
ATOM      8  C   UNL     1      20.231  -3.923  43.256  1.00  0.00     0.000 C 
BRANCH   8   9
ATOM      9  C   UNL     1      19.980  -5.266  42.547  1.00  0.00    -0.000 C 
BRANCH   9  10
ATOM     10  C   UNL     1      20.905  -6.386  43.047  1.00  0.00    -0.000 C 
BRANCH  10  11
ATOM     11  C   UNL     1      20.095  -7.601  43.511  1.00  0.00    -0.000 C 
BRANCH  11  12
ATOM     12  C   UNL     1      19.807  -7.530  45.015  1.00  0.00    -0.003 C 
ATOM     13  C   UNL     1      18.340  -7.209  45.281  1.00  0.00     0.004 C 
ENDBRANCH  11  12
ENDBRANCH  10  11
ENDBRANCH   9  10
ENDBRANCH   8   9
ENDBRANCH   1   8
TORSDOF 9
ENDMDL
MODEL 3
REMARK VINA RESULT:    -3.944      3.477      6.657
REMARK INTER + INTRA:          -6.702
REMARK INTER:                  -6.185
REMARK INTRA:                  -0.516
REMARK UNBOUND:                -0.683
REMARK SMILES CCCCCCCCCCC(=O)[O-]
REMARK SMILES IDX 7 1 8 2 9 3 10 4 11 5 12 6 13 7 6 8 5 9 4 10 3 11 2 12 1 13
REMARK H PARENT
REMARK Flexibility Score: inf
ROOT
ATOM      1  C   UNL     1      19.874  -6.383  47.781  1.00  0.00     0.000 C 
ENDROOT
BRANCH   1   2
ATOM      2  C   UNL     1      20.139  -6.618  46.283  1.00  0.00     0.000 C 
BRANCH   2   3
ATOM      3  C   UNL     1      18.884  -7.064  45.518  1.00  0.00     0.006 C 
BRANCH   3   4
ATOM      4  C   UNL     1      18.908  -6.546  44.077  1.00  0.00     0.053 C 
BRANCH   4   5
ATOM      5  C   UNL     1      20.157  -6.987  43.382  1.00  0.00     0.041 C 
ATOM      6  O   UNL     1      20.925  -6.137  42.860  1.00  0.00    -0.550 OA
ATOM      7  O   UNL     1      20.448  -8.340  43.269  1.00  0.00    -0.550 OA
ENDBRANCH   4   5
ENDBRANCH   3   4
ENDBRANCH   2   3
ENDBRANCH   1   2
BRANCH   1   8
ATOM      8  C   UNL     1      20.431  -7.470  48.723  1.00  0.00     0.000 C 
BRANCH   8   9
ATOM      9  C   UNL     1      20.256  -7.185  50.225  1.00  0.00    -0.000 C 
BRANCH   9  10
ATOM     10  C   UNL     1      21.421  -7.717  51.073  1.00  0.00    -0.000 C 
BRANCH  10  11
ATOM     11  C   UNL     1      22.763  -7.185  50.558  1.00  0.00    -0.000 C 
BRANCH  11  12
ATOM     12  C   UNL     1      23.175  -5.912  51.307  1.00  0.00    -0.003 C 
ATOM     13  C   UNL     1      23.163  -4.699  50.381  1.00  0.00     0.004 C 
ENDBRANCH  11  12
ENDBRANCH  10  11
ENDBRANCH   9  10
ENDBRANCH   8   9
ENDBRANCH   1   8
TORSDOF 9
ENDMDL
MODEL 4
REMARK VINA RESULT:    -3.904      3.274      6.571
REMARK INTER + INTRA:          -6.640
REMARK INTER:                  -6.188
REMARK INTRA:                  -0.453
REMARK UNBOUND:                -0.683
REMARK SMILES CCCCCCCCCCC(=O)[O-]
REMARK SMILES IDX 7 1 8 2 9 3 10 4 11 5 12 6 13 7 6 8 5 9 4 10 3 11 2 12 1 13
REMARK H PARENT
REMARK Flexibility Score: inf
ROOT
ATOM      1  C   UNL     1      20.198  -6.846  46.334  1.00  0.00     0.000 C 
ENDROOT
BRANCH   1   2
ATOM      2  C   UNL     1      18.962  -6.688  45.431  1.00  0.00     0.000 C 
BRANCH   2   3
ATOM      3  C   UNL     1      19.307  -6.730  43.935  1.00  0.00     0.006 C 
BRANCH   3   4
ATOM      4  C   UNL     1      20.127  -5.502  43.526  1.00  0.00     0.053 C 
BRANCH   4   5
ATOM      5  C   UNL     1      19.400  -4.244  43.883  1.00  0.00     0.041 C 
ATOM      6  O   UNL     1      18.361  -3.914  43.254  1.00  0.00    -0.550 OA
ATOM      7  O   UNL     1      19.897  -3.413  44.877  1.00  0.00    -0.550 OA
ENDBRANCH   4   5
ENDBRANCH   3   4
ENDBRANCH   2   3
ENDBRANCH   1   2
BRANCH   1   8
ATOM      8  C   UNL     1      19.974  -6.490  47.818  1.00  0.00     0.000 C 
BRANCH   8   9
ATOM      9  C   UNL     1      20.430  -7.562  48.824  1.00  0.00    -0.000 C 
BRANCH   9  10
ATOM     10  C   UNL     1      20.379  -7.075  50.280  1.00  0.00    -0.000 C 
BRANCH  10  11
ATOM     11  C   UNL     1      21.697  -7.371  51.004  1.00  0.00    -0.000 C 
BRANCH  11  12
ATOM     12  C   UNL     1      22.817  -6.448  50.510  1.00  0.00    -0.003 C 
ATOM     13  C   UNL     1      22.859  -5.151  51.313  1.00  0.00     0.004 C 
ENDBRANCH  11  12
ENDBRANCH  10  11
ENDBRANCH   9  10
ENDBRANCH   8   9
ENDBRANCH   1   8
TORSDOF 9
ENDMDL
MODEL 5
REMARK VINA RESULT:    -3.869      4.461      5.488
REMARK INTER + INTRA:          -6.587
REMARK INTER:                  -5.587
REMARK INTRA:                  -0.999
REMARK UNBOUND:                -0.683
REMARK SMILES CCCCCCCCCCC(=O)[O-]
REMARK SMILES IDX 7 1 8 2 9 3 10 4 11 5 12 6 13 7 6 8 5 9 4 10 3 11 2 12 1 13
REMARK H PARENT
REMARK Flexibility Score: inf
ROOT
ATOM      1  C   UNL     1      21.804  -5.519  44.915  1.00  0.00     0.000 C 
ENDROOT
BRANCH   1   2
ATOM      2  C   UNL     1      22.479  -4.167  44.623  1.00  0.00     0.000 C 
BRANCH   2   3
ATOM      3  C   UNL     1      21.506  -2.982  44.718  1.00  0.00     0.006 C 
BRANCH   3   4
ATOM      4  C   UNL     1      22.079  -1.872  45.605  1.00  0.00     0.053 C 
BRANCH   4   5
ATOM      5  C   UNL     1      23.001  -0.996  44.818  1.00  0.00     0.041 C 
ATOM      6  O   UNL     1      24.248  -1.134  44.921  1.00  0.00    -0.550 OA
ATOM      7  O   UNL     1      22.484   0.007  44.008  1.00  0.00    -0.550 OA
ENDBRANCH   4   5
ENDBRANCH   3   4
ENDBRANCH   2   3
ENDBRANCH   1   2
BRANCH   1   8
ATOM      8  C   UNL     1      21.644  -6.448  43.694  1.00  0.00     0.000 C 
BRANCH   8   9
ATOM      9  C   UNL     1      20.314  -7.219  43.629  1.00  0.00    -0.000 C 
BRANCH   9  10
ATOM     10  C   UNL     1      19.176  -6.508  44.375  1.00  0.00    -0.000 C 
BRANCH  10  11
ATOM     11  C   UNL     1      18.179  -5.886  43.391  1.00  0.00    -0.000 C 
BRANCH  11  12
ATOM     12  C   UNL     1      18.426  -4.380  43.234  1.00  0.00    -0.003 C 
ATOM     13  C   UNL     1      19.264  -4.086  41.993  1.00  0.00     0.004 C 
ENDBRANCH  11  12
ENDBRANCH  10  11
ENDBRANCH   9  10
ENDBRANCH   8   9
ENDBRANCH   1   8
TORSDOF 9
ENDMDL
MODEL 6
REMARK VINA RESULT:    -3.863      3.532      6.529
REMARK INTER + INTRA:          -6.579
REMARK INTER:                  -5.835
REMARK INTRA:                  -0.744
REMARK UNBOUND:                -0.683
REMARK SMILES CCCCCCCCCCC(=O)[O-]
REMARK SMILES IDX 7 1 8 2 9 3 10 4 11 5 12 6 13 7 6 8 5 9 4 10 3 11 2 12 1 13
REMARK H PARENT
REMARK Flexibility Score: inf
ROOT
ATOM      1  C   UNL     1      20.260  -7.515  48.903  1.00  0.00     0.000 C 
ENDROOT
BRANCH   1   2
ATOM      2  C   UNL     1      19.866  -6.351  47.976  1.00  0.00     0.000 C 
BRANCH   2   3
ATOM      3  C   UNL     1      19.964  -6.715  46.487  1.00  0.00     0.006 C 
BRANCH   3   4
ATOM      4  C   UNL     1      18.593  -7.110  45.928  1.00  0.00     0.053 C 
BRANCH   4   5
ATOM      5  C   UNL     1      18.669  -7.313  44.448  1.00  0.00     0.041 C 
ATOM      6  O   UNL     1      19.369  -8.245  43.972  1.00  0.00    -0.550 OA
ATOM      7  O   UNL     1      18.006  -6.443  43.592  1.00  0.00    -0.550 OA
ENDBRANCH   4   5
ENDBRANCH   3   4
ENDBRANCH   2   3
ENDBRANCH   1   2
BRANCH   1   8
ATOM      8  C   UNL     1      20.560  -7.116  50.363  1.00  0.00     0.000 C 
BRANCH   8   9
ATOM      9  C   UNL     1      21.734  -7.868  51.017  1.00  0.00    -0.000 C 
BRANCH   9  10
ATOM     10  C   UNL     1      22.914  -6.947  51.361  1.00  0.00    -0.000 C 
BRANCH  10  11
ATOM     11  C   UNL     1      22.566  -5.480  51.080  1.00  0.00    -0.000 C 
BRANCH  11  12
ATOM     12  C   UNL     1      23.604  -4.835  50.154  1.00  0.00    -0.003 C 
ATOM     13  C   UNL     1      23.332  -5.181  48.693  1.00  0.00     0.004 C 
ENDBRANCH  11  12
ENDBRANCH  10  11
ENDBRANCH   9  10
ENDBRANCH   8   9
ENDBRANCH   1   8
TORSDOF 9
ENDMDL
MODEL 7
REMARK VINA RESULT:    -3.847      4.013      5.720
REMARK INTER + INTRA:          -6.554
REMARK INTER:                  -5.202
REMARK INTRA:                  -1.352
REMARK UNBOUND:                -0.683
REMARK SMILES CCCCCCCCCCC(=O)[O-]
REMARK SMILES IDX 7 1 8 2 9 3 10 4 11 5 12 6 13 7 6 8 5 9 4 10 3 11 2 12 1 13
REMARK H PARENT
REMARK Flexibility Score: inf
ROOT
ATOM      1  C   UNL     1      21.338  -5.190  46.937  1.00  0.00     0.000 C 
ENDROOT
BRANCH   1   2
ATOM      2  C   UNL     1      21.484  -3.989  45.986  1.00  0.00     0.000 C 
BRANCH   2   3
ATOM      3  C   UNL     1      20.224  -3.737  45.145  1.00  0.00     0.006 C 
BRANCH   3   4
ATOM      4  C   UNL     1      20.544  -3.789  43.648  1.00  0.00     0.053 C 
BRANCH   4   5
ATOM      5  C   UNL     1      19.301  -4.039  42.854  1.00  0.00     0.041 C 
ATOM      6  O   UNL     1      18.172  -3.971  43.407  1.00  0.00    -0.550 OA
ATOM      7  O   UNL     1      19.392  -4.395  41.515  1.00  0.00    -0.550 OA
ENDBRANCH   4   5
ENDBRANCH   3   4
ENDBRANCH   2   3
ENDBRANCH   1   2
BRANCH   1   8
ATOM      8  C   UNL     1      19.908  -5.752  47.067  1.00  0.00     0.000 C 
BRANCH   8   9
ATOM      9  C   UNL     1      19.685  -7.129  46.417  1.00  0.00    -0.000 C 
BRANCH   9  10
ATOM     10  C   UNL     1      18.677  -7.086  45.260  1.00  0.00    -0.000 C 
BRANCH  10  11
ATOM     11  C   UNL     1      19.297  -7.636  43.970  1.00  0.00    -0.000 C 
BRANCH  11  12
ATOM     12  C   UNL     1      20.776  -7.986  44.176  1.00  0.00    -0.003 C 
ATOM     13  C   UNL     1      21.668  -7.188  43.230  1.00  0.00     0.004 C 
ENDBRANCH  11  12
ENDBRANCH  10  11
ENDBRANCH   9  10
ENDBRANCH   8   9
ENDBRANCH   1   8
TORSDOF 9
ENDMDL
MODEL 8
REMARK VINA RESULT:    -3.824      1.282      2.585
REMARK INTER + INTRA:          -6.518
REMARK INTER:                  -5.533
REMARK INTRA:                  -0.985
REMARK UNBOUND:                -0.683
REMARK SMILES CCCCCCCCCCC(=O)[O-]
REMARK SMILES IDX 7 1 8 2 9 3 10 4 11 5 12 6 13 7 6 8 5 9 4 10 3 11 2 12 1 13
REMARK H PARENT
REMARK Flexibility Score: inf
ROOT
ATOM      1  C   UNL     1      20.710  -4.987  46.901  1.00  0.00     0.000 C 
ENDROOT
BRANCH   1   2
ATOM      2  C   UNL     1      19.868  -6.230  47.240  1.00  0.00     0.000 C 
BRANCH   2   3
ATOM      3  C   UNL     1      20.653  -7.282  48.038  1.00  0.00     0.006 C 
BRANCH   3   4
ATOM      4  C   UNL     1      20.262  -7.251  49.518  1.00  0.00     0.053 C 
BRANCH   4   5
ATOM      5  C   UNL     1      21.456  -6.954  50.369  1.00  0.00     0.041 C 
ATOM      6  O   UNL     1      22.194  -5.969  50.104  1.00  0.00    -0.550 OA
ATOM      7  O   UNL     1      21.783  -7.794  51.426  1.00  0.00    -0.550 OA
ENDBRANCH   4   5
ENDBRANCH   3   4
ENDBRANCH   2   3
ENDBRANCH   1   2
BRANCH   1   8
ATOM      8  C   UNL     1      20.605  -4.504  45.439  1.00  0.00     0.000 C 
BRANCH   8   9
ATOM      9  C   UNL     1      21.835  -4.804  44.563  1.00  0.00    -0.000 C 
BRANCH   9  10
ATOM     10  C   UNL     1      21.936  -6.283  44.164  1.00  0.00    -0.000 C 
BRANCH  10  11
ATOM     11  C   UNL     1      20.858  -6.649  43.137  1.00  0.00    -0.000 C 
BRANCH  11  12
ATOM     12  C   UNL     1      19.950  -7.767  43.664  1.00  0.00    -0.003 C 
ATOM     13  C   UNL     1      18.540  -7.251  43.934  1.00  0.00     0.004 C 
ENDBRANCH  11  12
ENDBRANCH  10  11
ENDBRANCH   9  10
ENDBRANCH   8   9
ENDBRANCH   1   8
TORSDOF 9
ENDMDL
MODEL 9
REMARK VINA RESULT:    -3.782      3.148      5.798
REMARK INTER + INTRA:          -6.454
REMARK INTER:                  -5.202
REMARK INTRA:                  -1.252
REMARK UNBOUND:                -0.683
REMARK SMILES CCCCCCCCCCC(=O)[O-]
REMARK SMILES IDX 7 1 8 2 9 3 10 4 11 5 12 6 13 7 6 8 5 9 4 10 3 11 2 12 1 13
REMARK H PARENT
REMARK Flexibility Score: inf
ROOT
ATOM      1  C   UNL     1      21.558  -7.708  51.117  1.00  0.00     0.000 C 
ENDROOT
BRANCH   1   2
ATOM      2  C   UNL     1      20.428  -7.125  50.249  1.00  0.00     0.000 C 
BRANCH   2   3
ATOM      3  C   UNL     1      20.593  -7.451  48.757  1.00  0.00     0.006 C 
BRANCH   3   4
ATOM      4  C   UNL     1      19.874  -6.416  47.887  1.00  0.00     0.053 C 
BRANCH   4   5
ATOM      5  C   UNL     1      20.016  -6.760  46.438  1.00  0.00     0.041 C 
ATOM      6  O   UNL     1      19.123  -6.423  45.617  1.00  0.00    -0.550 OA
ATOM      7  O   UNL     1      21.110  -7.496  46.003  1.00  0.00    -0.550 OA
ENDBRANCH   4   5
ENDBRANCH   3   4
ENDBRANCH   2   3
ENDBRANCH   1   2
BRANCH   1   8
ATOM      8  C   UNL     1      22.900  -6.951  51.039  1.00  0.00     0.000 C 
BRANCH   8   9
ATOM      9  C   UNL     1      22.808  -5.432  51.269  1.00  0.00    -0.000 C 
BRANCH   9  10
ATOM     10  C   UNL     1      23.334  -4.616  50.079  1.00  0.00    -0.000 C 
BRANCH  10  11
ATOM     11  C   UNL     1      23.837  -5.537  48.962  1.00  0.00    -0.000 C 
BRANCH  11  12
ATOM     12  C   UNL     1      23.316  -5.078  47.594  1.00  0.00    -0.003 C 
ATOM     13  C   UNL     1      22.496  -3.797  47.717  1.00  0.00     0.004 C 
ENDBRANCH  11  12
ENDBRANCH  10  11
ENDBRANCH   9  10
ENDBRANCH   8   9
ENDBRANCH   1   8
TORSDOF 9
ENDMDL
