MODEL 1
REMARK VINA RESULT:    -4.410      0.000      0.000
REMARK INTER + INTRA:          -4.818
REMARK INTER:                  -4.797
REMARK INTRA:                  -0.021
REMARK UNBOUND:                -0.021
REMARK SMILES OCc1ccco1
REMARK SMILES IDX 2 1 3 2 5 3 6 4 4 5 7 6 1 7
REMARK H PARENT 1 8
REMARK Flexibility Score: inf
ROOT
ATOM      1  C   UNL     1      31.163  17.375  -7.200  1.00  0.00     0.231 C 
ENDROOT
BRANCH   1   2
ATOM      2  C   UNL     1      31.296  16.382  -8.310  1.00  0.00     0.129 A 
ATOM      3  C   UNL     1      30.844  14.911  -9.877  1.00  0.00     0.042 A 
ATOM      4  C   UNL     1      32.192  15.210  -9.848  1.00  0.00     0.195 A 
ATOM      5  C   UNL     1      30.262  15.672  -8.885  1.00  0.00     0.048 A 
ATOM      6  O   UNL     1      32.431  16.092  -8.905  1.00  0.00    -0.467 OA
ENDBRANCH   1   2
BRANCH   1   7
ATOM      7  O   UNL     1      32.417  17.632  -6.632  1.00  0.00    -0.388 OA
ATOM      8  H   UNL     1      32.430  18.596  -6.394  1.00  0.00     0.211 HD
ENDBRANCH   1   7
TORSDOF 2
ENDMDL
MODEL 2
REMARK VINA RESULT:    -4.043      1.200      2.705
REMARK INTER + INTRA:          -4.418
REMARK INTER:                  -4.402
REMARK INTRA:                  -0.016
REMARK UNBOUND:                -0.021
REMARK SMILES OCc1ccco1
REMARK SMILES IDX 2 1 3 2 5 3 6 4 4 5 7 6 1 7
REMARK H PARENT 1 8
REMARK Flexibility Score: inf
ROOT
ATOM      1  C   UNL     1      33.682  15.290  -9.940  1.00  0.00     0.231 C 
ENDROOT
BRANCH   1   2
ATOM      2  C   UNL     1      32.339  15.575  -9.346  1.00  0.00     0.129 A 
ATOM      3  C   UNL     1      30.185  15.557  -8.919  1.00  0.00     0.042 A 
ATOM      4  C   UNL     1      30.863  16.364  -8.027  1.00  0.00     0.195 A 
ATOM      5  C   UNL     1      31.140  15.042  -9.771  1.00  0.00     0.048 A 
ATOM      6  O   UNL     1      32.146  16.353  -8.305  1.00  0.00    -0.467 OA
ENDBRANCH   1   2
BRANCH   1   7
ATOM      7  O   UNL     1      34.451  14.534  -9.047  1.00  0.00    -0.388 OA
ATOM      8  H   UNL     1      34.099  14.722  -8.138  1.00  0.00     0.211 HD
ENDBRANCH   1   7
TORSDOF 2
ENDMDL
MODEL 3
REMARK VINA RESULT:    -3.850      1.633      3.326
REMARK INTER + INTRA:          -4.208
REMARK INTER:                  -4.195
REMARK INTRA:                  -0.013
REMARK UNBOUND:                -0.021
REMARK SMILES OCc1ccco1
REMARK SMILES IDX 2 1 3 2 5 3 6 4 4 5 7 6 1 7
REMARK H PARENT 1 8
REMARK Flexibility Score: inf
ROOT
ATOM      1  C   UNL     1      30.714  14.803 -10.057  1.00  0.00     0.231 C 
ENDROOT
BRANCH   1   2
ATOM      2  C   UNL     1      31.125  15.720  -8.949  1.00  0.00     0.129 A 
ATOM      3  C   UNL     1      32.317  16.847  -7.490  1.00  0.00     0.042 A 
ATOM      4  C   UNL     1      30.984  17.200  -7.421  1.00  0.00     0.195 A 
ATOM      5  C   UNL     1      32.411  15.893  -8.480  1.00  0.00     0.048 A 
ATOM      6  O   UNL     1      30.298  16.513  -8.306  1.00  0.00    -0.467 OA
ENDBRANCH   1   2
BRANCH   1   7
ATOM      7  O   UNL     1      31.036  13.480  -9.730  1.00  0.00    -0.388 OA
ATOM      8  H   UNL     1      31.681  13.167 -10.416  1.00  0.00     0.211 HD
ENDBRANCH   1   7
TORSDOF 2
ENDMDL
MODEL 4
REMARK VINA RESULT:    -3.258     13.465     14.979
REMARK INTER + INTRA:          -3.564
REMARK INTER:                  -3.552
REMARK INTRA:                  -0.013
REMARK UNBOUND:                -0.021
REMARK SMILES OCc1ccco1
REMARK SMILES IDX 2 1 3 2 5 3 6 4 4 5 7 6 1 7
REMARK H PARENT 1 8
REMARK Flexibility Score: inf
ROOT
ATOM      1  C   UNL     1      35.074  21.259   3.637  1.00  0.00     0.231 C 
ENDROOT
BRANCH   1   2
ATOM      2  C   UNL     1      34.448  22.437   4.314  1.00  0.00     0.129 A 
ATOM      3  C   UNL     1      33.018  23.975   4.955  1.00  0.00     0.042 A 
ATOM      4  C   UNL     1      34.212  24.088   5.640  1.00  0.00     0.195 A 
ATOM      5  C   UNL     1      33.168  22.904   4.100  1.00  0.00     0.048 A 
ATOM      6  O   UNL     1      35.044  23.155   5.238  1.00  0.00    -0.467 OA
ENDBRANCH   1   2
BRANCH   1   7
ATOM      7  O   UNL     1      35.125  21.470   2.255  1.00  0.00    -0.388 OA
ATOM      8  H   UNL     1      36.079  21.618   2.024  1.00  0.00     0.211 HD
ENDBRANCH   1   7
TORSDOF 2
ENDMDL
MODEL 5
REMARK VINA RESULT:    -3.011     14.873     16.243
REMARK INTER + INTRA:          -3.296
REMARK INTER:                  -3.274
REMARK INTRA:                  -0.022
REMARK UNBOUND:                -0.021
REMARK SMILES OCc1ccco1
REMARK SMILES IDX 2 1 3 2 5 3 6 4 4 5 7 6 1 7
REMARK H PARENT 1 8
REMARK Flexibility Score: inf
ROOT
ATOM      1  C   UNL     1      31.367  24.035   7.070  1.00  0.00     0.231 C 
ENDROOT
BRANCH   1   2
ATOM      2  C   UNL     1      32.359  23.933   5.955  1.00  0.00     0.129 A 
ATOM      3  C   UNL     1      34.198  24.067   4.762  1.00  0.00     0.042 A 
ATOM      4  C   UNL     1      33.206  23.398   4.074  1.00  0.00     0.195 A 
ATOM      5  C   UNL     1      33.653  24.411   5.981  1.00  0.00     0.048 A 
ATOM      6  O   UNL     1      32.122  23.331   4.812  1.00  0.00    -0.467 OA
ENDBRANCH   1   2
BRANCH   1   7
ATOM      7  O   UNL     1      30.195  23.346   6.735  1.00  0.00    -0.388 OA
ATOM      8  H   UNL     1      30.048  23.492   5.764  1.00  0.00     0.211 HD
ENDBRANCH   1   7
TORSDOF 2
ENDMDL
MODEL 6
REMARK VINA RESULT:    -2.994     15.185     16.445
REMARK INTER + INTRA:          -3.277
REMARK INTER:                  -3.262
REMARK INTRA:                  -0.015
REMARK UNBOUND:                -0.021
REMARK SMILES OCc1ccco1
REMARK SMILES IDX 2 1 3 2 5 3 6 4 4 5 7 6 1 7
REMARK H PARENT 1 8
REMARK Flexibility Score: inf
ROOT
ATOM      1  C   UNL     1      32.486  25.059   7.001  1.00  0.00     0.231 C 
ENDROOT
BRANCH   1   2
ATOM      2  C   UNL     1      33.150  24.366   5.853  1.00  0.00     0.129 A 
ATOM      3  C   UNL     1      33.504  23.250   3.995  1.00  0.00     0.042 A 
ATOM      4  C   UNL     1      34.692  23.684   4.550  1.00  0.00     0.195 A 
ATOM      5  C   UNL     1      32.505  23.694   4.835  1.00  0.00     0.048 A 
ATOM      6  O   UNL     1      34.448  24.349   5.656  1.00  0.00    -0.467 OA
ENDBRANCH   1   2
BRANCH   1   7
ATOM      7  O   UNL     1      32.831  24.432   8.204  1.00  0.00    -0.388 OA
ATOM      8  H   UNL     1      32.267  23.618   8.272  1.00  0.00     0.211 HD
ENDBRANCH   1   7
TORSDOF 2
ENDMDL
MODEL 7
REMARK VINA RESULT:    -2.904      1.595      2.416
REMARK INTER + INTRA:          -3.180
REMARK INTER:                  -3.165
REMARK INTRA:                  -0.015
REMARK UNBOUND:                -0.021
REMARK SMILES OCc1ccco1
REMARK SMILES IDX 2 1 3 2 5 3 6 4 4 5 7 6 1 7
REMARK H PARENT 1 8
REMARK Flexibility Score: inf
ROOT
ATOM      1  C   UNL     1      30.630  16.129  -8.251  1.00  0.00     0.231 C 
ENDROOT
BRANCH   1   2
ATOM      2  C   UNL     1      31.969  15.732  -8.786  1.00  0.00     0.129 A 
ATOM      3  C   UNL     1      33.597  15.115 -10.125  1.00  0.00     0.042 A 
ATOM      4  C   UNL     1      34.066  15.357  -8.849  1.00  0.00     0.195 A 
ATOM      5  C   UNL     1      32.241  15.361 -10.087  1.00  0.00     0.048 A 
ATOM      6  O   UNL     1      33.073  15.726  -8.074  1.00  0.00    -0.467 OA
ENDBRANCH   1   2
BRANCH   1   7
ATOM      7  O   UNL     1      29.615  15.497  -8.979  1.00  0.00    -0.388 OA
ATOM      8  H   UNL     1      29.953  15.393  -9.907  1.00  0.00     0.211 HD
ENDBRANCH   1   7
TORSDOF 2
ENDMDL
MODEL 8
REMARK VINA RESULT:    -2.804     22.785     23.152
REMARK INTER + INTRA:          -3.070
REMARK INTER:                  -3.058
REMARK INTRA:                  -0.012
REMARK UNBOUND:                -0.021
REMARK SMILES OCc1ccco1
REMARK SMILES IDX 2 1 3 2 5 3 6 4 4 5 7 6 1 7
REMARK H PARENT 1 8
REMARK Flexibility Score: inf
ROOT
ATOM      1  C   UNL     1      17.687  24.203   9.197  1.00  0.00     0.231 C 
ENDROOT
BRANCH   1   2
ATOM      2  C   UNL     1      17.239  22.869   8.691  1.00  0.00     0.129 A 
ATOM      3  C   UNL     1      16.870  20.713   8.499  1.00  0.00     0.042 A 
ATOM      4  C   UNL     1      16.266  21.415   7.474  1.00  0.00     0.195 A 
ATOM      5  C   UNL     1      17.496  21.652   9.289  1.00  0.00     0.048 A 
ATOM      6  O   UNL     1      16.502  22.699   7.618  1.00  0.00    -0.467 OA
ENDBRANCH   1   2
BRANCH   1   7
ATOM      7  O   UNL     1      19.067  24.350   9.008  1.00  0.00    -0.388 OA
ATOM      8  H   UNL     1      19.200  24.584   8.053  1.00  0.00     0.211 HD
ENDBRANCH   1   7
TORSDOF 2
ENDMDL
MODEL 9
REMARK VINA RESULT:    -2.791     21.526     22.392
REMARK INTER + INTRA:          -3.056
REMARK INTER:                  -3.043
REMARK INTRA:                  -0.014
REMARK UNBOUND:                -0.021
REMARK SMILES OCc1ccco1
REMARK SMILES IDX 2 1 3 2 5 3 6 4 4 5 7 6 1 7
REMARK H PARENT 1 8
REMARK Flexibility Score: inf
ROOT
ATOM      1  C   UNL     1      16.681  23.034   5.973  1.00  0.00     0.231 C 
ENDROOT
BRANCH   1   2
ATOM      2  C   UNL     1      16.723  22.085   7.129  1.00  0.00     0.129 A 
ATOM      3  C   UNL     1      16.418  20.337   8.422  1.00  0.00     0.042 A 
ATOM      4  C   UNL     1      17.272  21.249   9.011  1.00  0.00     0.195 A 
ATOM      5  C   UNL     1      16.065  20.875   7.202  1.00  0.00     0.048 A 
ATOM      6  O   UNL     1      17.437  22.280   8.214  1.00  0.00    -0.467 OA
ENDBRANCH   1   2
BRANCH   1   7
ATOM      7  O   UNL     1      17.514  22.578   4.945  1.00  0.00    -0.388 OA
ATOM      8  H   UNL     1      17.063  21.790   4.543  1.00  0.00     0.211 HD
ENDBRANCH   1   7
TORSDOF 2
ENDMDL
