MODEL 1
REMARK VINA RESULT:    -3.562      0.000      0.000
REMARK INTER + INTRA:         -14.295
REMARK INTER:                  -8.975
REMARK INTRA:                  -5.321
REMARK UNBOUND:                -5.321
REMARK SMILES CCCCCCCCCCCCCCCCCCCCCCCCCCCC(=O)[O-]
REMARK SMILES IDX 15 1 16 2 17 3 18 4 19 5 20 6 21 7 22 8 23 9 24 10 25 11
REMARK SMILES IDX 26 12 27 13 28 14 29 15 30 16 14 17 13 18 12 19 11 20 10 21
REMARK SMILES IDX 9 22 8 23 7 24 6 25 5 26 4 27 3 28 2 29 1 30
REMARK H PARENT
REMARK Flexibility Score: inf
ROOT
ATOM      1  C   UNL     1      28.725  32.752  20.953  1.00  0.00     0.000 C 
ENDROOT
BRANCH   1   2
ATOM      2  C   UNL     1      27.272  33.184  20.673  1.00  0.00     0.000 C 
BRANCH   2   3
ATOM      3  C   UNL     1      27.147  34.499  19.869  1.00  0.00     0.000 C 
BRANCH   3   4
ATOM      4  C   UNL     1      26.800  35.746  20.709  1.00  0.00     0.000 C 
BRANCH   4   5
ATOM      5  C   UNL     1      27.734  36.960  20.516  1.00  0.00     0.000 C 
BRANCH   5   6
ATOM      6  C   UNL     1      29.082  36.877  21.257  1.00  0.00     0.000 C 
BRANCH   6   7
ATOM      7  C   UNL     1      30.205  37.617  20.510  1.00  0.00     0.000 C 
BRANCH   7   8
ATOM      8  C   UNL     1      31.409  36.716  20.201  1.00  0.00     0.000 C 
BRANCH   8   9
ATOM      9  C   UNL     1      30.990  35.298  19.765  1.00  0.00     0.000 C 
BRANCH   9  10
ATOM     10  C   UNL     1      31.964  34.216  20.251  1.00  0.00     0.000 C 
BRANCH  10  11
ATOM     11  C   UNL     1      33.204  34.815  20.948  1.00  0.00     0.000 C 
BRANCH  11  12
ATOM     12  C   UNL     1      34.208  33.746  21.420  1.00  0.00     0.006 C 
BRANCH  12  13
ATOM     13  C   UNL     1      33.940  32.354  20.819  1.00  0.00     0.053 C 
BRANCH  13  14
ATOM     14  C   UNL     1      34.953  31.986  19.776  1.00  0.00     0.041 C 
ATOM     15  O   UNL     1      36.166  31.845  20.089  1.00  0.00    -0.550 OA
ATOM     16  O   UNL     1      34.573  31.892  18.443  1.00  0.00    -0.550 OA
ENDBRANCH  13  14
ENDBRANCH  12  13
ENDBRANCH  11  12
ENDBRANCH  10  11
ENDBRANCH   9  10
ENDBRANCH   8   9
ENDBRANCH   7   8
ENDBRANCH   6   7
ENDBRANCH   5   6
ENDBRANCH   4   5
ENDBRANCH   3   4
ENDBRANCH   2   3
ENDBRANCH   1   2
BRANCH   1  17
ATOM     17  C   UNL     1      29.120  32.676  22.440  1.00  0.00     0.000 C 
BRANCH  17  18
ATOM     18  C   UNL     1      28.305  33.583  23.384  1.00  0.00     0.000 C 
BRANCH  18  19
ATOM     19  C   UNL     1      29.130  34.719  24.026  1.00  0.00     0.000 C 
BRANCH  19  20
ATOM     20  C   UNL     1      30.617  34.649  23.645  1.00  0.00     0.000 C 
BRANCH  20  21
ATOM     21  C   UNL     1      31.407  35.803  24.274  1.00  0.00     0.000 C 
BRANCH  21  22
ATOM     22  C   UNL     1      30.535  37.062  24.383  1.00  0.00    -0.000 C 
BRANCH  22  23
ATOM     23  C   UNL     1      30.441  37.603  25.817  1.00  0.00    -0.000 C 
BRANCH  23  24
ATOM     24  C   UNL     1      30.721  36.522  26.876  1.00  0.00    -0.000 C 
BRANCH  24  25
ATOM     25  C   UNL     1      29.558  36.367  27.868  1.00  0.00    -0.000 C 
BRANCH  25  26
ATOM     26  C   UNL     1      28.219  36.100  27.162  1.00  0.00    -0.000 C 
BRANCH  26  27
ATOM     27  C   UNL     1      27.155  37.115  27.592  1.00  0.00    -0.000 C 
BRANCH  27  28
ATOM     28  C   UNL     1      26.129  37.337  26.473  1.00  0.00    -0.000 C 
BRANCH  28  29
ATOM     29  C   UNL     1      26.664  36.926  25.091  1.00  0.00    -0.003 C 
ATOM     30  C   UNL     1      26.960  38.129  24.192  1.00  0.00     0.004 C 
ENDBRANCH  28  29
ENDBRANCH  27  28
ENDBRANCH  26  27
ENDBRANCH  25  26
ENDBRANCH  24  25
ENDBRANCH  23  24
ENDBRANCH  22  23
ENDBRANCH  21  22
ENDBRANCH  20  21
ENDBRANCH  19  20
ENDBRANCH  18  19
ENDBRANCH  17  18
ENDBRANCH   1  17
TORSDOF 26
ENDMDL
MODEL 2
REMARK VINA RESULT:    -3.451      3.211      7.501
REMARK INTER + INTRA:         -14.018
REMARK INTER:                  -8.376
REMARK INTRA:                  -5.642
REMARK UNBOUND:                -5.321
REMARK SMILES CCCCCCCCCCCCCCCCCCCCCCCCCCCC(=O)[O-]
REMARK SMILES IDX 15 1 16 2 17 3 18 4 19 5 20 6 21 7 22 8 23 9 24 10 25 11
REMARK SMILES IDX 26 12 27 13 28 14 29 15 30 16 14 17 13 18 12 19 11 20 10 21
REMARK SMILES IDX 9 22 8 23 7 24 6 25 5 26 4 27 3 28 2 29 1 30
REMARK H PARENT
REMARK Flexibility Score: inf
ROOT
ATOM      1  C   UNL     1      31.196  32.742  22.941  1.00  0.00     0.000 C 
ENDROOT
BRANCH   1   2
ATOM      2  C   UNL     1      30.000  33.627  23.342  1.00  0.00     0.000 C 
BRANCH   2   3
ATOM      3  C   UNL     1      28.629  33.092  22.866  1.00  0.00     0.000 C 
BRANCH   3   4
ATOM      4  C   UNL     1      28.620  32.504  21.439  1.00  0.00     0.000 C 
BRANCH   4   5
ATOM      5  C   UNL     1      27.701  33.225  20.429  1.00  0.00     0.000 C 
BRANCH   5   6
ATOM      6  C   UNL     1      28.007  34.720  20.213  1.00  0.00     0.000 C 
BRANCH   6   7
ATOM      7  C   UNL     1      26.827  35.620  20.618  1.00  0.00     0.000 C 
BRANCH   7   8
ATOM      8  C   UNL     1      27.164  36.549  21.793  1.00  0.00     0.000 C 
BRANCH   8   9
ATOM      9  C   UNL     1      28.677  36.813  21.924  1.00  0.00     0.000 C 
BRANCH   9  10
ATOM     10  C   UNL     1      29.121  37.010  23.380  1.00  0.00     0.000 C 
BRANCH  10  11
ATOM     11  C   UNL     1      28.044  36.554  24.387  1.00  0.00     0.000 C 
BRANCH  11  12
ATOM     12  C   UNL     1      28.637  36.042  25.715  1.00  0.00     0.006 C 
BRANCH  12  13
ATOM     13  C   UNL     1      30.144  36.322  25.854  1.00  0.00     0.053 C 
BRANCH  13  14
ATOM     14  C   UNL     1      30.486  36.914  27.189  1.00  0.00     0.041 C 
ATOM     15  O   UNL     1      29.935  37.981  27.572  1.00  0.00    -0.550 OA
ATOM     16  O   UNL     1      31.483  36.339  27.967  1.00  0.00    -0.550 OA
ENDBRANCH  13  14
ENDBRANCH  12  13
ENDBRANCH  11  12
ENDBRANCH  10  11
ENDBRANCH   9  10
ENDBRANCH   8   9
ENDBRANCH   7   8
ENDBRANCH   6   7
ENDBRANCH   5   6
ENDBRANCH   4   5
ENDBRANCH   3   4
ENDBRANCH   2   3
ENDBRANCH   1   2
BRANCH   1  17
ATOM     17  C   UNL     1      32.512  33.493  22.661  1.00  0.00     0.000 C 
BRANCH  17  18
ATOM     18  C   UNL     1      32.528  34.975  23.085  1.00  0.00     0.000 C 
BRANCH  18  19
ATOM     19  C   UNL     1      33.732  35.770  22.536  1.00  0.00     0.000 C 
BRANCH  19  20
ATOM     20  C   UNL     1      34.560  34.956  21.530  1.00  0.00     0.000 C 
BRANCH  20  21
ATOM     21  C   UNL     1      34.738  35.716  20.211  1.00  0.00     0.000 C 
BRANCH  21  22
ATOM     22  C   UNL     1      33.443  36.447  19.828  1.00  0.00    -0.000 C 
BRANCH  22  23
ATOM     23  C   UNL     1      32.583  35.659  18.829  1.00  0.00    -0.000 C 
BRANCH  23  24
ATOM     24  C   UNL     1      31.410  34.929  19.507  1.00  0.00    -0.000 C 
BRANCH  24  25
ATOM     25  C   UNL     1      31.363  33.438  19.136  1.00  0.00    -0.000 C 
BRANCH  25  26
ATOM     26  C   UNL     1      32.631  32.979  18.398  1.00  0.00    -0.000 C 
BRANCH  26  27
ATOM     27  C   UNL     1      33.515  32.114  19.303  1.00  0.00    -0.000 C 
BRANCH  27  28
ATOM     28  C   UNL     1      34.993  32.253  18.915  1.00  0.00    -0.000 C 
BRANCH  28  29
ATOM     29  C   UNL     1      35.183  32.621  17.434  1.00  0.00    -0.003 C 
ATOM     30  C   UNL     1      36.066  33.856  17.242  1.00  0.00     0.004 C 
ENDBRANCH  28  29
ENDBRANCH  27  28
ENDBRANCH  26  27
ENDBRANCH  25  26
ENDBRANCH  24  25
ENDBRANCH  23  24
ENDBRANCH  22  23
ENDBRANCH  21  22
ENDBRANCH  20  21
ENDBRANCH  19  20
ENDBRANCH  18  19
ENDBRANCH  17  18
ENDBRANCH   1  17
TORSDOF 26
ENDMDL
MODEL 3
REMARK VINA RESULT:    -3.446      3.606      9.391
REMARK INTER + INTRA:         -14.004
REMARK INTER:                  -8.841
REMARK INTRA:                  -5.163
REMARK UNBOUND:                -5.321
REMARK SMILES CCCCCCCCCCCCCCCCCCCCCCCCCCCC(=O)[O-]
REMARK SMILES IDX 15 1 16 2 17 3 18 4 19 5 20 6 21 7 22 8 23 9 24 10 25 11
REMARK SMILES IDX 26 12 27 13 28 14 29 15 30 16 14 17 13 18 12 19 11 20 10 21
REMARK SMILES IDX 9 22 8 23 7 24 6 25 5 26 4 27 3 28 2 29 1 30
REMARK H PARENT
REMARK Flexibility Score: inf
ROOT
ATOM      1  C   UNL     1      34.084  33.063  18.777  1.00  0.00     0.000 C 
ENDROOT
BRANCH   1   2
ATOM      2  C   UNL     1      34.999  31.867  19.104  1.00  0.00     0.000 C 
BRANCH   2   3
ATOM      3  C   UNL     1      36.390  32.265  19.650  1.00  0.00     0.000 C 
BRANCH   3   4
ATOM      4  C   UNL     1      36.427  32.595  21.157  1.00  0.00     0.000 C 
BRANCH   4   5
ATOM      5  C   UNL     1      36.254  34.086  21.517  1.00  0.00     0.000 C 
BRANCH   5   6
ATOM      6  C   UNL     1      34.954  34.435  22.267  1.00  0.00     0.000 C 
BRANCH   6   7
ATOM      7  C   UNL     1      33.986  33.241  22.339  1.00  0.00     0.000 C 
BRANCH   7   8
ATOM      8  C   UNL     1      32.539  33.666  22.629  1.00  0.00     0.000 C 
BRANCH   8   9
ATOM      9  C   UNL     1      32.192  35.039  22.018  1.00  0.00     0.000 C 
BRANCH   9  10
ATOM     10  C   UNL     1      30.804  35.541  22.440  1.00  0.00     0.000 C 
BRANCH  10  11
ATOM     11  C   UNL     1      30.236  34.753  23.639  1.00  0.00     0.000 C 
BRANCH  11  12
ATOM     12  C   UNL     1      28.847  34.146  23.360  1.00  0.00     0.006 C 
BRANCH  12  13
ATOM     13  C   UNL     1      28.911  32.823  22.575  1.00  0.00     0.053 C 
BRANCH  13  14
ATOM     14  C   UNL     1      28.419  32.978  21.167  1.00  0.00     0.041 C 
ATOM     15  O   UNL     1      29.182  32.731  20.195  1.00  0.00    -0.550 OA
ATOM     16  O   UNL     1      27.148  33.488  20.929  1.00  0.00    -0.550 OA
ENDBRANCH  13  14
ENDBRANCH  12  13
ENDBRANCH  11  12
ENDBRANCH  10  11
ENDBRANCH   9  10
ENDBRANCH   8   9
ENDBRANCH   7   8
ENDBRANCH   6   7
ENDBRANCH   5   6
ENDBRANCH   4   5
ENDBRANCH   3   4
ENDBRANCH   2   3
ENDBRANCH   1   2
BRANCH   1  17
ATOM     17  C   UNL     1      32.571  32.793  18.892  1.00  0.00     0.000 C 
BRANCH  17  18
ATOM     18  C   UNL     1      31.662  33.840  18.218  1.00  0.00     0.000 C 
BRANCH  18  19
ATOM     19  C   UNL     1      32.336  35.214  18.014  1.00  0.00     0.000 C 
BRANCH  19  20
ATOM     20  C   UNL     1      32.457  35.591  16.529  1.00  0.00     0.000 C 
BRANCH  20  21
ATOM     21  C   UNL     1      32.281  34.364  15.627  1.00  0.00     0.000 C 
BRANCH  21  22
ATOM     22  C   UNL     1      33.280  34.400  14.461  1.00  0.00    -0.000 C 
BRANCH  22  23
ATOM     23  C   UNL     1      33.807  33.009  14.081  1.00  0.00    -0.000 C 
BRANCH  23  24
ATOM     24  C   UNL     1      33.737  32.010  15.249  1.00  0.00    -0.000 C 
BRANCH  24  25
ATOM     25  C   UNL     1      35.072  31.282  15.470  1.00  0.00    -0.000 C 
BRANCH  25  26
ATOM     26  C   UNL     1      36.251  32.009  14.806  1.00  0.00    -0.000 C 
BRANCH  26  27
ATOM     27  C   UNL     1      37.112  32.733  15.846  1.00  0.00    -0.000 C 
BRANCH  27  28
ATOM     28  C   UNL     1      36.808  34.237  15.852  1.00  0.00    -0.000 C 
BRANCH  28  29
ATOM     29  C   UNL     1      36.919  34.858  17.254  1.00  0.00    -0.003 C 
ATOM     30  C   UNL     1      35.940  36.015  17.467  1.00  0.00     0.004 C 
ENDBRANCH  28  29
ENDBRANCH  27  28
ENDBRANCH  26  27
ENDBRANCH  25  26
ENDBRANCH  24  25
ENDBRANCH  23  24
ENDBRANCH  22  23
ENDBRANCH  21  22
ENDBRANCH  20  21
ENDBRANCH  19  20
ENDBRANCH  18  19
ENDBRANCH  17  18
ENDBRANCH   1  17
TORSDOF 26
ENDMDL
MODEL 4
REMARK VINA RESULT:    -3.425      1.808      4.044
REMARK INTER + INTRA:         -13.952
REMARK INTER:                  -8.864
REMARK INTRA:                  -5.087
REMARK UNBOUND:                -5.321
REMARK SMILES CCCCCCCCCCCCCCCCCCCCCCCCCCCC(=O)[O-]
REMARK SMILES IDX 15 1 16 2 17 3 18 4 19 5 20 6 21 7 22 8 23 9 24 10 25 11
REMARK SMILES IDX 26 12 27 13 28 14 29 15 30 16 14 17 13 18 12 19 11 20 10 21
REMARK SMILES IDX 9 22 8 23 7 24 6 25 5 26 4 27 3 28 2 29 1 30
REMARK H PARENT
REMARK Flexibility Score: inf
ROOT
ATOM      1  C   UNL     1      28.464  33.127  20.455  1.00  0.00     0.000 C 
ENDROOT
BRANCH   1   2
ATOM      2  C   UNL     1      27.015  33.654  20.472  1.00  0.00     0.000 C 
BRANCH   2   3
ATOM      3  C   UNL     1      26.871  35.121  20.006  1.00  0.00     0.000 C 
BRANCH   3   4
ATOM      4  C   UNL     1      27.227  36.180  21.071  1.00  0.00     0.000 C 
BRANCH   4   5
ATOM      5  C   UNL     1      28.404  37.114  20.714  1.00  0.00     0.000 C 
BRANCH   5   6
ATOM      6  C   UNL     1      29.807  36.500  20.893  1.00  0.00     0.000 C 
BRANCH   6   7
ATOM      7  C   UNL     1      30.826  37.075  19.894  1.00  0.00     0.000 C 
BRANCH   7   8
ATOM      8  C   UNL     1      31.872  36.042  19.452  1.00  0.00     0.000 C 
BRANCH   8   9
ATOM      9  C   UNL     1      31.279  34.626  19.301  1.00  0.00     0.000 C 
BRANCH   9  10
ATOM     10  C   UNL     1      31.955  33.815  18.187  1.00  0.00     0.000 C 
BRANCH  10  11
ATOM     11  C   UNL     1      32.531  32.479  18.703  1.00  0.00     0.000 C 
BRANCH  11  12
ATOM     12  C   UNL     1      34.067  32.407  18.608  1.00  0.00     0.006 C 
BRANCH  12  13
ATOM     13  C   UNL     1      34.640  33.204  17.422  1.00  0.00     0.053 C 
BRANCH  13  14
ATOM     14  C   UNL     1      34.939  32.325  16.244  1.00  0.00     0.041 C 
ATOM     15  O   UNL     1      36.115  32.237  15.798  1.00  0.00    -0.550 OA
ATOM     16  O   UNL     1      33.903  31.679  15.580  1.00  0.00    -0.550 OA
ENDBRANCH  13  14
ENDBRANCH  12  13
ENDBRANCH  11  12
ENDBRANCH  10  11
ENDBRANCH   9  10
ENDBRANCH   8   9
ENDBRANCH   7   8
ENDBRANCH   6   7
ENDBRANCH   5   6
ENDBRANCH   4   5
ENDBRANCH   3   4
ENDBRANCH   2   3
ENDBRANCH   1   2
BRANCH   1  17
ATOM     17  C   UNL     1      28.983  32.569  21.795  1.00  0.00     0.000 C 
BRANCH  17  18
ATOM     18  C   UNL     1      28.293  33.134  23.053  1.00  0.00     0.000 C 
BRANCH  18  19
ATOM     19  C   UNL     1      29.104  34.235  23.769  1.00  0.00     0.000 C 
BRANCH  19  20
ATOM     20  C   UNL     1      28.202  35.252  24.487  1.00  0.00     0.000 C 
BRANCH  20  21
ATOM     21  C   UNL     1      28.908  36.603  24.652  1.00  0.00     0.000 C 
BRANCH  21  22
ATOM     22  C   UNL     1      29.890  36.561  25.831  1.00  0.00    -0.000 C 
BRANCH  22  23
ATOM     23  C   UNL     1      31.359  36.521  25.386  1.00  0.00    -0.000 C 
BRANCH  23  24
ATOM     24  C   UNL     1      31.681  37.575  24.313  1.00  0.00    -0.000 C 
BRANCH  24  25
ATOM     25  C   UNL     1      32.622  37.029  23.227  1.00  0.00    -0.000 C 
BRANCH  25  26
ATOM     26  C   UNL     1      33.121  35.611  23.546  1.00  0.00    -0.000 C 
BRANCH  26  27
ATOM     27  C   UNL     1      32.317  34.556  22.779  1.00  0.00    -0.000 C 
BRANCH  27  28
ATOM     28  C   UNL     1      33.236  33.443  22.257  1.00  0.00    -0.000 C 
BRANCH  28  29
ATOM     29  C   UNL     1      34.716  33.858  22.242  1.00  0.00    -0.003 C 
ATOM     30  C   UNL     1      35.075  34.722  21.032  1.00  0.00     0.004 C 
ENDBRANCH  28  29
ENDBRANCH  27  28
ENDBRANCH  26  27
ENDBRANCH  25  26
ENDBRANCH  24  25
ENDBRANCH  23  24
ENDBRANCH  22  23
ENDBRANCH  21  22
ENDBRANCH  20  21
ENDBRANCH  19  20
ENDBRANCH  18  19
ENDBRANCH  17  18
ENDBRANCH   1  17
TORSDOF 26
ENDMDL
MODEL 5
REMARK VINA RESULT:    -3.389      3.660      7.445
REMARK INTER + INTRA:         -13.861
REMARK INTER:                  -8.215
REMARK INTRA:                  -5.646
REMARK UNBOUND:                -5.321
REMARK SMILES CCCCCCCCCCCCCCCCCCCCCCCCCCCC(=O)[O-]
REMARK SMILES IDX 15 1 16 2 17 3 18 4 19 5 20 6 21 7 22 8 23 9 24 10 25 11
REMARK SMILES IDX 26 12 27 13 28 14 29 15 30 16 14 17 13 18 12 19 11 20 10 21
REMARK SMILES IDX 9 22 8 23 7 24 6 25 5 26 4 27 3 28 2 29 1 30
REMARK H PARENT
REMARK Flexibility Score: inf
ROOT
ATOM      1  C   UNL     1      33.263  35.324  22.155  1.00  0.00     0.000 C 
ENDROOT
BRANCH   1   2
ATOM      2  C   UNL     1      33.988  36.162  21.083  1.00  0.00     0.000 C 
BRANCH   2   3
ATOM      3  C   UNL     1      35.518  35.942  21.037  1.00  0.00     0.000 C 
BRANCH   3   4
ATOM      4  C   UNL     1      36.167  36.173  19.656  1.00  0.00     0.000 C 
BRANCH   4   5
ATOM      5  C   UNL     1      35.183  36.318  18.474  1.00  0.00     0.000 C 
BRANCH   5   6
ATOM      6  C   UNL     1      35.608  35.606  17.175  1.00  0.00     0.000 C 
BRANCH   6   7
ATOM      7  C   UNL     1      34.913  36.193  15.934  1.00  0.00     0.000 C 
BRANCH   7   8
ATOM      8  C   UNL     1      33.403  35.918  15.914  1.00  0.00     0.000 C 
BRANCH   8   9
ATOM      9  C   UNL     1      32.831  35.862  14.483  1.00  0.00     0.000 C 
BRANCH   9  10
ATOM     10  C   UNL     1      32.280  34.476  14.119  1.00  0.00     0.000 C 
BRANCH  10  11
ATOM     11  C   UNL     1      32.652  33.405  15.165  1.00  0.00     0.000 C 
BRANCH  11  12
ATOM     12  C   UNL     1      33.726  32.419  14.665  1.00  0.00     0.006 C 
BRANCH  12  13
ATOM     13  C   UNL     1      34.880  32.220  15.664  1.00  0.00     0.053 C 
BRANCH  13  14
ATOM     14  C   UNL     1      36.219  32.232  14.988  1.00  0.00     0.041 C 
ATOM     15  O   UNL     1      37.186  32.856  15.502  1.00  0.00    -0.550 OA
ATOM     16  O   UNL     1      36.373  31.633  13.744  1.00  0.00    -0.550 OA
ENDBRANCH  13  14
ENDBRANCH  12  13
ENDBRANCH  11  12
ENDBRANCH  10  11
ENDBRANCH   9  10
ENDBRANCH   8   9
ENDBRANCH   7   8
ENDBRANCH   6   7
ENDBRANCH   5   6
ENDBRANCH   4   5
ENDBRANCH   3   4
ENDBRANCH   2   3
ENDBRANCH   1   2
BRANCH   1  17
ATOM     17  C   UNL     1      33.698  33.849  22.250  1.00  0.00     0.000 C 
BRANCH  17  18
ATOM     18  C   UNL     1      32.561  32.843  22.523  1.00  0.00     0.000 C 
BRANCH  18  19
ATOM     19  C   UNL     1      31.273  33.491  23.074  1.00  0.00     0.000 C 
BRANCH  19  20
ATOM     20  C   UNL     1      30.079  32.524  23.057  1.00  0.00     0.000 C 
BRANCH  20  21
ATOM     21  C   UNL     1      28.828  33.194  22.477  1.00  0.00     0.000 C 
BRANCH  21  22
ATOM     22  C   UNL     1      28.689  32.881  20.980  1.00  0.00    -0.000 C 
BRANCH  22  23
ATOM     23  C   UNL     1      29.478  33.853  20.090  1.00  0.00    -0.000 C 
BRANCH  23  24
ATOM     24  C   UNL     1      30.600  33.155  19.302  1.00  0.00    -0.000 C 
BRANCH  24  25
ATOM     25  C   UNL     1      31.641  34.151  18.769  1.00  0.00    -0.000 C 
BRANCH  25  26
ATOM     26  C   UNL     1      33.054  33.550  18.717  1.00  0.00    -0.000 C 
BRANCH  26  27
ATOM     27  C   UNL     1      33.012  32.025  18.866  1.00  0.00    -0.000 C 
BRANCH  27  28
ATOM     28  C   UNL     1      34.368  31.486  19.339  1.00  0.00    -0.000 C 
BRANCH  28  29
ATOM     29  C   UNL     1      35.480  32.546  19.275  1.00  0.00    -0.003 C 
ATOM     30  C   UNL     1      36.598  32.291  20.290  1.00  0.00     0.004 C 
ENDBRANCH  28  29
ENDBRANCH  27  28
ENDBRANCH  26  27
ENDBRANCH  25  26
ENDBRANCH  24  25
ENDBRANCH  23  24
ENDBRANCH  22  23
ENDBRANCH  21  22
ENDBRANCH  20  21
ENDBRANCH  19  20
ENDBRANCH  18  19
ENDBRANCH  17  18
ENDBRANCH   1  17
TORSDOF 26
ENDMDL
MODEL 6
REMARK VINA RESULT:    -3.370      1.890      3.077
REMARK INTER + INTRA:         -13.813
REMARK INTER:                  -8.128
REMARK INTRA:                  -5.685
REMARK UNBOUND:                -5.321
REMARK SMILES CCCCCCCCCCCCCCCCCCCCCCCCCCCC(=O)[O-]
REMARK SMILES IDX 15 1 16 2 17 3 18 4 19 5 20 6 21 7 22 8 23 9 24 10 25 11
REMARK SMILES IDX 26 12 27 13 28 14 29 15 30 16 14 17 13 18 12 19 11 20 10 21
REMARK SMILES IDX 9 22 8 23 7 24 6 25 5 26 4 27 3 28 2 29 1 30
REMARK H PARENT
REMARK Flexibility Score: inf
ROOT
ATOM      1  C   UNL     1      28.610  32.751  20.934  1.00  0.00     0.000 C 
ENDROOT
BRANCH   1   2
ATOM      2  C   UNL     1      27.625  33.700  20.224  1.00  0.00     0.000 C 
BRANCH   2   3
ATOM      3  C   UNL     1      27.022  34.788  21.142  1.00  0.00     0.000 C 
BRANCH   3   4
ATOM      4  C   UNL     1      27.176  36.234  20.627  1.00  0.00     0.000 C 
BRANCH   4   5
ATOM      5  C   UNL     1      28.319  37.051  21.268  1.00  0.00     0.000 C 
BRANCH   5   6
ATOM      6  C   UNL     1      29.622  37.112  20.449  1.00  0.00     0.000 C 
BRANCH   6   7
ATOM      7  C   UNL     1      30.578  35.955  20.789  1.00  0.00     0.000 C 
BRANCH   7   8
ATOM      8  C   UNL     1      31.472  35.556  19.606  1.00  0.00     0.000 C 
BRANCH   8   9
ATOM      9  C   UNL     1      31.164  34.139  19.083  1.00  0.00     0.000 C 
BRANCH   9  10
ATOM     10  C   UNL     1      32.159  33.673  18.011  1.00  0.00     0.000 C 
BRANCH  10  11
ATOM     11  C   UNL     1      33.274  32.780  18.595  1.00  0.00     0.000 C 
BRANCH  11  12
ATOM     12  C   UNL     1      34.667  33.438  18.537  1.00  0.00     0.006 C 
BRANCH  12  13
ATOM     13  C   UNL     1      34.927  34.193  17.222  1.00  0.00     0.053 C 
BRANCH  13  14
ATOM     14  C   UNL     1      34.998  33.268  16.044  1.00  0.00     0.041 C 
ATOM     15  O   UNL     1      34.187  33.392  15.087  1.00  0.00    -0.550 OA
ATOM     16  O   UNL     1      35.897  32.208  16.048  1.00  0.00    -0.550 OA
ENDBRANCH  13  14
ENDBRANCH  12  13
ENDBRANCH  11  12
ENDBRANCH  10  11
ENDBRANCH   9  10
ENDBRANCH   8   9
ENDBRANCH   7   8
ENDBRANCH   6   7
ENDBRANCH   5   6
ENDBRANCH   4   5
ENDBRANCH   3   4
ENDBRANCH   2   3
ENDBRANCH   1   2
BRANCH   1  17
ATOM     17  C   UNL     1      28.868  33.055  22.422  1.00  0.00     0.000 C 
BRANCH  17  18
ATOM     18  C   UNL     1      30.168  32.459  23.000  1.00  0.00     0.000 C 
BRANCH  18  19
ATOM     19  C   UNL     1      31.353  33.448  23.022  1.00  0.00     0.000 C 
BRANCH  19  20
ATOM     20  C   UNL     1      32.604  32.876  22.337  1.00  0.00     0.000 C 
BRANCH  20  21
ATOM     21  C   UNL     1      33.692  33.945  22.181  1.00  0.00     0.000 C 
BRANCH  21  22
ATOM     22  C   UNL     1      33.370  35.175  23.042  1.00  0.00    -0.000 C 
BRANCH  22  23
ATOM     23  C   UNL     1      33.927  36.480  22.454  1.00  0.00    -0.000 C 
BRANCH  23  24
ATOM     24  C   UNL     1      33.048  37.699  22.784  1.00  0.00    -0.000 C 
BRANCH  24  25
ATOM     25  C   UNL     1      32.204  37.480  24.049  1.00  0.00    -0.000 C 
BRANCH  25  26
ATOM     26  C   UNL     1      30.773  38.020  23.899  1.00  0.00    -0.000 C 
BRANCH  26  27
ATOM     27  C   UNL     1      29.853  37.460  24.989  1.00  0.00    -0.000 C 
BRANCH  27  28
ATOM     28  C   UNL     1      29.629  35.955  24.792  1.00  0.00    -0.000 C 
BRANCH  28  29
ATOM     29  C   UNL     1      28.139  35.576  24.780  1.00  0.00    -0.003 C 
ATOM     30  C   UNL     1      27.219  36.798  24.826  1.00  0.00     0.004 C 
ENDBRANCH  28  29
ENDBRANCH  27  28
ENDBRANCH  26  27
ENDBRANCH  25  26
ENDBRANCH  24  25
ENDBRANCH  23  24
ENDBRANCH  22  23
ENDBRANCH  21  22
ENDBRANCH  20  21
ENDBRANCH  19  20
ENDBRANCH  18  19
ENDBRANCH  17  18
ENDBRANCH   1  17
TORSDOF 26
ENDMDL
MODEL 7
REMARK VINA RESULT:    -3.324      2.798      5.408
REMARK INTER + INTRA:         -13.697
REMARK INTER:                  -8.176
REMARK INTRA:                  -5.521
REMARK UNBOUND:                -5.321
REMARK SMILES CCCCCCCCCCCCCCCCCCCCCCCCCCCC(=O)[O-]
REMARK SMILES IDX 15 1 16 2 17 3 18 4 19 5 20 6 21 7 22 8 23 9 24 10 25 11
REMARK SMILES IDX 26 12 27 13 28 14 29 15 30 16 14 17 13 18 12 19 11 20 10 21
REMARK SMILES IDX 9 22 8 23 7 24 6 25 5 26 4 27 3 28 2 29 1 30
REMARK H PARENT
REMARK Flexibility Score: inf
ROOT
ATOM      1  C   UNL     1      28.342  33.181  20.374  1.00  0.00     0.000 C 
ENDROOT
BRANCH   1   2
ATOM      2  C   UNL     1      26.899  33.720  20.410  1.00  0.00     0.000 C 
BRANCH   2   3
ATOM      3  C   UNL     1      26.789  35.248  20.197  1.00  0.00     0.000 C 
BRANCH   3   4
ATOM      4  C   UNL     1      27.466  36.107  21.286  1.00  0.00     0.000 C 
BRANCH   4   5
ATOM      5  C   UNL     1      28.574  37.061  20.789  1.00  0.00     0.000 C 
BRANCH   5   6
ATOM      6  C   UNL     1      29.991  36.455  20.746  1.00  0.00     0.000 C 
BRANCH   6   7
ATOM      7  C   UNL     1      30.915  37.205  19.771  1.00  0.00     0.000 C 
BRANCH   7   8
ATOM      8  C   UNL     1      31.872  36.267  19.021  1.00  0.00     0.000 C 
BRANCH   8   9
ATOM      9  C   UNL     1      31.736  34.799  19.471  1.00  0.00     0.000 C 
BRANCH   9  10
ATOM     10  C   UNL     1      33.067  34.037  19.420  1.00  0.00     0.000 C 
BRANCH  10  11
ATOM     11  C   UNL     1      32.865  32.512  19.302  1.00  0.00     0.000 C 
BRANCH  11  12
ATOM     12  C   UNL     1      33.624  31.892  18.112  1.00  0.00     0.006 C 
BRANCH  12  13
ATOM     13  C   UNL     1      34.241  32.943  17.172  1.00  0.00     0.053 C 
BRANCH  13  14
ATOM     14  C   UNL     1      34.954  32.314  16.013  1.00  0.00     0.041 C 
ATOM     15  O   UNL     1      36.213  32.268  15.988  1.00  0.00    -0.550 OA
ATOM     16  O   UNL     1      34.230  31.864  14.915  1.00  0.00    -0.550 OA
ENDBRANCH  13  14
ENDBRANCH  12  13
ENDBRANCH  11  12
ENDBRANCH  10  11
ENDBRANCH   9  10
ENDBRANCH   8   9
ENDBRANCH   7   8
ENDBRANCH   6   7
ENDBRANCH   5   6
ENDBRANCH   4   5
ENDBRANCH   3   4
ENDBRANCH   2   3
ENDBRANCH   1   2
BRANCH   1  17
ATOM     17  C   UNL     1      28.788  32.394  21.621  1.00  0.00     0.000 C 
BRANCH  17  18
ATOM     18  C   UNL     1      28.732  33.178  22.948  1.00  0.00     0.000 C 
BRANCH  18  19
ATOM     19  C   UNL     1      30.060  33.870  23.323  1.00  0.00     0.000 C 
BRANCH  19  20
ATOM     20  C   UNL     1      31.283  33.136  22.752  1.00  0.00     0.000 C 
BRANCH  20  21
ATOM     21  C   UNL     1      32.575  33.917  23.018  1.00  0.00     0.000 C 
BRANCH  21  22
ATOM     22  C   UNL     1      32.260  35.365  23.422  1.00  0.00    -0.000 C 
BRANCH  22  23
ATOM     23  C   UNL     1      33.506  36.262  23.452  1.00  0.00    -0.000 C 
BRANCH  23  24
ATOM     24  C   UNL     1      33.831  36.871  22.077  1.00  0.00    -0.000 C 
BRANCH  24  25
ATOM     25  C   UNL     1      35.084  36.243  21.446  1.00  0.00    -0.000 C 
BRANCH  25  26
ATOM     26  C   UNL     1      35.978  35.551  22.487  1.00  0.00    -0.000 C 
BRANCH  26  27
ATOM     27  C   UNL     1      36.833  34.456  21.841  1.00  0.00    -0.000 C 
BRANCH  27  28
ATOM     28  C   UNL     1      36.024  33.165  21.666  1.00  0.00    -0.000 C 
BRANCH  28  29
ATOM     29  C   UNL     1      36.424  32.383  20.404  1.00  0.00    -0.003 C 
ATOM     30  C   UNL     1      37.221  33.232  19.411  1.00  0.00     0.004 C 
ENDBRANCH  28  29
ENDBRANCH  27  28
ENDBRANCH  26  27
ENDBRANCH  25  26
ENDBRANCH  24  25
ENDBRANCH  23  24
ENDBRANCH  22  23
ENDBRANCH  21  22
ENDBRANCH  20  21
ENDBRANCH  19  20
ENDBRANCH  18  19
ENDBRANCH  17  18
ENDBRANCH   1  17
TORSDOF 26
ENDMDL
MODEL 8
REMARK VINA RESULT:    -3.318      2.123      4.829
REMARK INTER + INTRA:         -13.681
REMARK INTER:                  -8.812
REMARK INTRA:                  -4.869
REMARK UNBOUND:                -5.321
REMARK SMILES CCCCCCCCCCCCCCCCCCCCCCCCCCCC(=O)[O-]
REMARK SMILES IDX 15 1 16 2 17 3 18 4 19 5 20 6 21 7 22 8 23 9 24 10 25 11
REMARK SMILES IDX 26 12 27 13 28 14 29 15 30 16 14 17 13 18 12 19 11 20 10 21
REMARK SMILES IDX 9 22 8 23 7 24 6 25 5 26 4 27 3 28 2 29 1 30
REMARK H PARENT
REMARK Flexibility Score: inf
ROOT
ATOM      1  C   UNL     1      29.163  37.598  20.374  1.00  0.00     0.000 C 
ENDROOT
BRANCH   1   2
ATOM      2  C   UNL     1      29.971  36.358  20.803  1.00  0.00     0.000 C 
BRANCH   2   3
ATOM      3  C   UNL     1      31.238  36.102  19.953  1.00  0.00     0.000 C 
BRANCH   3   4
ATOM      4  C   UNL     1      31.359  34.676  19.378  1.00  0.00     0.000 C 
BRANCH   4   5
ATOM      5  C   UNL     1      32.085  33.654  20.279  1.00  0.00     0.000 C 
BRANCH   5   6
ATOM      6  C   UNL     1      33.245  34.225  21.118  1.00  0.00     0.000 C 
BRANCH   6   7
ATOM      7  C   UNL     1      34.551  33.437  20.919  1.00  0.00     0.000 C 
BRANCH   7   8
ATOM      8  C   UNL     1      34.933  33.284  19.440  1.00  0.00     0.000 C 
BRANCH   8   9
ATOM      9  C   UNL     1      35.020  31.808  19.001  1.00  0.00     0.000 C 
BRANCH   9  10
ATOM     10  C   UNL     1      34.077  31.480  17.835  1.00  0.00     0.000 C 
BRANCH  10  11
ATOM     11  C   UNL     1      33.517  32.750  17.160  1.00  0.00     0.000 C 
BRANCH  11  12
ATOM     12  C   UNL     1      33.986  32.915  15.701  1.00  0.00     0.006 C 
BRANCH  12  13
ATOM     13  C   UNL     1      34.762  31.696  15.171  1.00  0.00     0.053 C 
BRANCH  13  14
ATOM     14  C   UNL     1      36.198  32.020  14.889  1.00  0.00     0.041 C 
ATOM     15  O   UNL     1      36.781  31.512  13.893  1.00  0.00    -0.550 OA
ATOM     16  O   UNL     1      36.920  32.807  15.779  1.00  0.00    -0.550 OA
ENDBRANCH  13  14
ENDBRANCH  12  13
ENDBRANCH  11  12
ENDBRANCH  10  11
ENDBRANCH   9  10
ENDBRANCH   8   9
ENDBRANCH   7   8
ENDBRANCH   6   7
ENDBRANCH   5   6
ENDBRANCH   4   5
ENDBRANCH   3   4
ENDBRANCH   2   3
ENDBRANCH   1   2
BRANCH   1  17
ATOM     17  C   UNL     1      27.632  37.435  20.403  1.00  0.00     0.000 C 
BRANCH  17  18
ATOM     18  C   UNL     1      27.119  36.145  21.075  1.00  0.00     0.000 C 
BRANCH  18  19
ATOM     19  C   UNL     1      26.759  35.022  20.078  1.00  0.00     0.000 C 
BRANCH  19  20
ATOM     20  C   UNL     1      26.913  33.623  20.694  1.00  0.00     0.000 C 
BRANCH  20  21
ATOM     21  C   UNL     1      28.312  33.051  20.433  1.00  0.00     0.000 C 
BRANCH  21  22
ATOM     22  C   UNL     1      29.001  32.680  21.754  1.00  0.00    -0.000 C 
BRANCH  22  23
ATOM     23  C   UNL     1      28.221  33.152  22.990  1.00  0.00    -0.000 C 
BRANCH  23  24
ATOM     24  C   UNL     1      28.940  34.281  23.748  1.00  0.00    -0.000 C 
BRANCH  24  25
ATOM     25  C   UNL     1      30.461  34.248  23.531  1.00  0.00    -0.000 C 
BRANCH  25  26
ATOM     26  C   UNL     1      31.167  35.460  24.157  1.00  0.00    -0.000 C 
BRANCH  26  27
ATOM     27  C   UNL     1      30.155  36.436  24.767  1.00  0.00    -0.000 C 
BRANCH  27  28
ATOM     28  C   UNL     1      30.205  37.792  24.049  1.00  0.00    -0.000 C 
BRANCH  28  29
ATOM     29  C   UNL     1      28.840  38.497  24.022  1.00  0.00    -0.003 C 
ATOM     30  C   UNL     1      27.691  37.574  24.435  1.00  0.00     0.004 C 
ENDBRANCH  28  29
ENDBRANCH  27  28
ENDBRANCH  26  27
ENDBRANCH  25  26
ENDBRANCH  24  25
ENDBRANCH  23  24
ENDBRANCH  22  23
ENDBRANCH  21  22
ENDBRANCH  20  21
ENDBRANCH  19  20
ENDBRANCH  18  19
ENDBRANCH  17  18
ENDBRANCH   1  17
TORSDOF 26
ENDMDL
MODEL 9
REMARK VINA RESULT:    -3.301      3.573      8.164
REMARK INTER + INTRA:         -13.639
REMARK INTER:                  -7.792
REMARK INTRA:                  -5.847
REMARK UNBOUND:                -5.321
REMARK SMILES CCCCCCCCCCCCCCCCCCCCCCCCCCCC(=O)[O-]
REMARK SMILES IDX 15 1 16 2 17 3 18 4 19 5 20 6 21 7 22 8 23 9 24 10 25 11
REMARK SMILES IDX 26 12 27 13 28 14 29 15 30 16 14 17 13 18 12 19 11 20 10 21
REMARK SMILES IDX 9 22 8 23 7 24 6 25 5 26 4 27 3 28 2 29 1 30
REMARK H PARENT
REMARK Flexibility Score: inf
ROOT
ATOM      1  C   UNL     1      32.427  33.124  22.619  1.00  0.00     0.000 C 
ENDROOT
BRANCH   1   2
ATOM      2  C   UNL     1      32.061  34.566  23.023  1.00  0.00     0.000 C 
BRANCH   2   3
ATOM      3  C   UNL     1      32.541  35.644  22.024  1.00  0.00     0.000 C 
BRANCH   3   4
ATOM      4  C   UNL     1      31.419  36.506  21.408  1.00  0.00     0.000 C 
BRANCH   4   5
ATOM      5  C   UNL     1      31.006  36.132  19.968  1.00  0.00     0.000 C 
BRANCH   5   6
ATOM      6  C   UNL     1      31.705  34.888  19.387  1.00  0.00     0.000 C 
BRANCH   6   7
ATOM      7  C   UNL     1      30.754  33.684  19.275  1.00  0.00     0.000 C 
BRANCH   7   8
ATOM      8  C   UNL     1      29.394  33.938  19.939  1.00  0.00     0.000 C 
BRANCH   8   9
ATOM      9  C   UNL     1      28.948  32.769  20.841  1.00  0.00     0.000 C 
BRANCH   9  10
ATOM     10  C   UNL     1      27.927  33.197  21.904  1.00  0.00     0.000 C 
BRANCH  10  11
ATOM     11  C   UNL     1      28.533  33.219  23.323  1.00  0.00     0.000 C 
BRANCH  11  12
ATOM     12  C   UNL     1      28.513  34.619  23.968  1.00  0.00     0.006 C 
BRANCH  12  13
ATOM     13  C   UNL     1      28.168  35.741  22.971  1.00  0.00     0.053 C 
BRANCH  13  14
ATOM     14  C   UNL     1      27.836  37.029  23.664  1.00  0.00     0.041 C 
ATOM     15  O   UNL     1      26.642  37.303  23.960  1.00  0.00    -0.550 OA
ATOM     16  O   UNL     1      28.834  37.968  23.896  1.00  0.00    -0.550 OA
ENDBRANCH  13  14
ENDBRANCH  12  13
ENDBRANCH  11  12
ENDBRANCH  10  11
ENDBRANCH   9  10
ENDBRANCH   8   9
ENDBRANCH   7   8
ENDBRANCH   6   7
ENDBRANCH   5   6
ENDBRANCH   4   5
ENDBRANCH   3   4
ENDBRANCH   2   3
ENDBRANCH   1   2
BRANCH   1  17
ATOM     17  C   UNL     1      33.812  32.949  21.968  1.00  0.00     0.000 C 
BRANCH  17  18
ATOM     18  C   UNL     1      33.821  32.165  20.640  1.00  0.00     0.000 C 
BRANCH  18  19
ATOM     19  C   UNL     1      35.223  32.023  20.007  1.00  0.00     0.000 C 
BRANCH  19  20
ATOM     20  C   UNL     1      35.228  32.377  18.512  1.00  0.00     0.000 C 
BRANCH  20  21
ATOM     21  C   UNL     1      33.854  32.130  17.877  1.00  0.00     0.000 C 
BRANCH  21  22
ATOM     22  C   UNL     1      33.592  33.135  16.745  1.00  0.00    -0.000 C 
BRANCH  22  23
ATOM     23  C   UNL     1      34.878  33.593  16.042  1.00  0.00    -0.000 C 
BRANCH  23  24
ATOM     24  C   UNL     1      34.895  35.107  15.770  1.00  0.00    -0.000 C 
BRANCH  24  25
ATOM     25  C   UNL     1      35.445  35.905  16.963  1.00  0.00    -0.000 C 
BRANCH  25  26
ATOM     26  C   UNL     1      34.355  36.727  17.668  1.00  0.00    -0.000 C 
BRANCH  26  27
ATOM     27  C   UNL     1      34.671  36.903  19.157  1.00  0.00    -0.000 C 
BRANCH  27  28
ATOM     28  C   UNL     1      35.533  35.742  19.672  1.00  0.00    -0.000 C 
BRANCH  28  29
ATOM     29  C   UNL     1      36.042  35.974  21.104  1.00  0.00    -0.003 C 
ATOM     30  C   UNL     1      36.989  34.869  21.579  1.00  0.00     0.004 C 
ENDBRANCH  28  29
ENDBRANCH  27  28
ENDBRANCH  26  27
ENDBRANCH  25  26
ENDBRANCH  24  25
ENDBRANCH  23  24
ENDBRANCH  22  23
ENDBRANCH  21  22
ENDBRANCH  20  21
ENDBRANCH  19  20
ENDBRANCH  18  19
ENDBRANCH  17  18
ENDBRANCH   1  17
TORSDOF 26
ENDMDL
