MODEL 1
REMARK VINA RESULT:    -5.258      0.000      0.000
REMARK INTER + INTRA:          -5.412
REMARK INTER:                  -5.412
REMARK INTRA:                   0.000
REMARK UNBOUND:                 0.000
REMARK SMILES Oc1ccc2[nH]ccc2c1
REMARK SMILES IDX 3 1 4 2 5 3 9 4 8 5 7 6 6 7 10 8 2 9 1 11
REMARK H PARENT 6 10 1 12
REMARK Flexibility Score: inf
ROOT
ATOM      1  C   UNL     1      31.139  11.442  37.118  1.00  0.00     0.048 A 
ATOM      2  C   UNL     1      31.894  12.619  36.960  1.00  0.00     0.030 A 
ATOM      3  C   UNL     1      32.118  13.404  38.090  1.00  0.00     0.046 A 
ATOM      4  C   UNL     1      31.627  13.053  39.320  1.00  0.00     0.003 A 
ATOM      5  C   UNL     1      32.019  14.026  40.213  1.00  0.00     0.028 A 
ATOM      6  C   UNL     1      32.746  14.941  39.458  1.00  0.00     0.083 A 
ATOM      7  N   UNL     1      32.804  14.556  38.162  1.00  0.00    -0.361 N 
ATOM      8  C   UNL     1      30.877  11.894  39.510  1.00  0.00     0.056 A 
ATOM      9  C   UNL     1      30.631  11.076  38.386  1.00  0.00     0.116 A 
ATOM     10  H   UNL     1      33.286  15.055  37.381  1.00  0.00     0.166 HD
ENDROOT
BRANCH   9  11
ATOM     11  O   UNL     1      29.888   9.906  38.515  1.00  0.00    -0.508 OA
ATOM     12  H   UNL     1      28.944   9.917  38.885  1.00  0.00     0.293 HD
ENDBRANCH   9  11
TORSDOF 1
ENDMDL
MODEL 2
REMARK VINA RESULT:    -5.130      1.641      2.373
REMARK INTER + INTRA:          -5.280
REMARK INTER:                  -5.280
REMARK INTRA:                   0.000
REMARK UNBOUND:                 0.000
REMARK SMILES Oc1ccc2[nH]ccc2c1
REMARK SMILES IDX 3 1 4 2 5 3 9 4 8 5 7 6 6 7 10 8 2 9 1 11
REMARK H PARENT 6 10 1 12
REMARK Flexibility Score: inf
ROOT
ATOM      1  C   UNL     1      30.670  10.045  37.855  1.00  0.00     0.048 A 
ATOM      2  C   UNL     1      30.612  10.743  39.076  1.00  0.00     0.030 A 
ATOM      3  C   UNL     1      31.029  12.072  39.086  1.00  0.00     0.046 A 
ATOM      4  C   UNL     1      31.484  12.693  37.952  1.00  0.00     0.003 A 
ATOM      5  C   UNL     1      31.814  13.986  38.294  1.00  0.00     0.028 A 
ATOM      6  C   UNL     1      31.535  14.084  39.654  1.00  0.00     0.083 A 
ATOM      7  N   UNL     1      31.056  12.913  40.132  1.00  0.00    -0.361 N 
ATOM      8  C   UNL     1      31.554  12.030  36.728  1.00  0.00     0.056 A 
ATOM      9  C   UNL     1      31.139  10.683  36.683  1.00  0.00     0.116 A 
ATOM     10  H   UNL     1      30.767  12.710  41.115  1.00  0.00     0.166 HD
ENDROOT
BRANCH   9  11
ATOM     11  O   UNL     1      31.186   9.969  35.488  1.00  0.00    -0.508 OA
ATOM     12  H   UNL     1      30.837   9.019  35.426  1.00  0.00     0.293 HD
ENDBRANCH   9  11
TORSDOF 1
ENDMDL
MODEL 3
REMARK VINA RESULT:    -5.098      2.031      3.656
REMARK INTER + INTRA:          -5.247
REMARK INTER:                  -5.247
REMARK INTRA:                   0.000
REMARK UNBOUND:                 0.000
REMARK SMILES Oc1ccc2[nH]ccc2c1
REMARK SMILES IDX 3 1 4 2 5 3 9 4 8 5 7 6 6 7 10 8 2 9 1 11
REMARK H PARENT 6 10 1 12
REMARK Flexibility Score: inf
ROOT
ATOM      1  C   UNL     1      31.166  12.075  38.160  1.00  0.00     0.048 A 
ATOM      2  C   UNL     1      32.077  12.715  37.299  1.00  0.00     0.030 A 
ATOM      3  C   UNL     1      32.453  12.044  36.137  1.00  0.00     0.046 A 
ATOM      4  C   UNL     1      31.961  10.803  35.830  1.00  0.00     0.003 A 
ATOM      5  C   UNL     1      32.522  10.422  34.631  1.00  0.00     0.028 A 
ATOM      6  C   UNL     1      33.348  11.480  34.264  1.00  0.00     0.083 A 
ATOM      7  N   UNL     1      33.302  12.468  35.187  1.00  0.00    -0.361 N 
ATOM      8  C   UNL     1      31.058  10.143  36.661  1.00  0.00     0.056 A 
ATOM      9  C   UNL     1      30.656  10.794  37.846  1.00  0.00     0.116 A 
ATOM     10  H   UNL     1      33.822  13.374  35.161  1.00  0.00     0.166 HD
ENDROOT
BRANCH   9  11
ATOM     11  O   UNL     1      29.755  10.185  38.716  1.00  0.00    -0.508 OA
ATOM     12  H   UNL     1      29.270  10.715  39.431  1.00  0.00     0.293 HD
ENDBRANCH   9  11
TORSDOF 1
ENDMDL
MODEL 4
REMARK VINA RESULT:    -5.011      2.461      3.865
REMARK INTER + INTRA:          -5.158
REMARK INTER:                  -5.158
REMARK INTRA:                   0.000
REMARK UNBOUND:                 0.000
REMARK SMILES Oc1ccc2[nH]ccc2c1
REMARK SMILES IDX 3 1 4 2 5 3 9 4 8 5 7 6 6 7 10 8 2 9 1 11
REMARK H PARENT 6 10 1 12
REMARK Flexibility Score: inf
ROOT
ATOM      1  C   UNL     1      30.684  11.497  38.793  1.00  0.00     0.048 A 
ATOM      2  C   UNL     1      30.710  10.577  37.728  1.00  0.00     0.030 A 
ATOM      3  C   UNL     1      31.534  10.865  36.641  1.00  0.00     0.046 A 
ATOM      4  C   UNL     1      32.298  12.001  36.597  1.00  0.00     0.003 A 
ATOM      5  C   UNL     1      32.988  11.988  35.405  1.00  0.00     0.028 A 
ATOM      6  C   UNL     1      32.596  10.813  34.771  1.00  0.00     0.083 A 
ATOM      7  N   UNL     1      31.708  10.131  35.531  1.00  0.00    -0.361 N 
ATOM      8  C   UNL     1      32.295  12.931  37.635  1.00  0.00     0.056 A 
ATOM      9  C   UNL     1      31.472  12.671  38.751  1.00  0.00     0.116 A 
ATOM     10  H   UNL     1      31.253   9.220  35.297  1.00  0.00     0.166 HD
ENDROOT
BRANCH   9  11
ATOM     11  O   UNL     1      31.427  13.564  39.819  1.00  0.00    -0.508 OA
ATOM     12  H   UNL     1      32.182  14.217  39.993  1.00  0.00     0.293 HD
ENDBRANCH   9  11
TORSDOF 1
ENDMDL
MODEL 5
REMARK VINA RESULT:    -5.003      2.594      4.094
REMARK INTER + INTRA:          -5.149
REMARK INTER:                  -5.149
REMARK INTRA:                   0.000
REMARK UNBOUND:                 0.000
REMARK SMILES Oc1ccc2[nH]ccc2c1
REMARK SMILES IDX 3 1 4 2 5 3 9 4 8 5 7 6 6 7 10 8 2 9 1 11
REMARK H PARENT 6 10 1 12
REMARK Flexibility Score: inf
ROOT
ATOM      1  C   UNL     1      31.835  13.748  39.659  1.00  0.00     0.048 A 
ATOM      2  C   UNL     1      31.071  12.590  39.891  1.00  0.00     0.030 A 
ATOM      3  C   UNL     1      30.894  11.705  38.829  1.00  0.00     0.046 A 
ATOM      4  C   UNL     1      31.440  11.942  37.595  1.00  0.00     0.003 A 
ATOM      5  C   UNL     1      31.084  10.891  36.779  1.00  0.00     0.028 A 
ATOM      6  C   UNL     1      30.320  10.049  37.581  1.00  0.00     0.083 A 
ATOM      7  N   UNL     1      30.208  10.551  38.833  1.00  0.00    -0.361 N 
ATOM      8  C   UNL     1      32.201  13.079  37.333  1.00  0.00     0.056 A 
ATOM      9  C   UNL     1      32.400  13.996  38.387  1.00  0.00     0.116 A 
ATOM     10  H   UNL     1      29.692  10.124  39.634  1.00  0.00     0.166 HD
ENDROOT
BRANCH   9  11
ATOM     11  O   UNL     1      33.152  15.151  38.185  1.00  0.00    -0.508 OA
ATOM     12  H   UNL     1      34.125  15.204  38.467  1.00  0.00     0.293 HD
ENDBRANCH   9  11
TORSDOF 1
ENDMDL
MODEL 6
REMARK VINA RESULT:    -4.524      3.491      4.521
REMARK INTER + INTRA:          -4.656
REMARK INTER:                  -4.656
REMARK INTRA:                   0.000
REMARK UNBOUND:                 0.000
REMARK SMILES Oc1ccc2[nH]ccc2c1
REMARK SMILES IDX 3 1 4 2 5 3 9 4 8 5 7 6 6 7 10 8 2 9 1 11
REMARK H PARENT 6 10 1 12
REMARK Flexibility Score: inf
ROOT
ATOM      1  C   UNL     1      33.733  10.456  33.281  1.00  0.00     0.048 A 
ATOM      2  C   UNL     1      34.179  11.441  34.183  1.00  0.00     0.030 A 
ATOM      3  C   UNL     1      33.362  11.743  35.271  1.00  0.00     0.046 A 
ATOM      4  C   UNL     1      32.163  11.111  35.469  1.00  0.00     0.003 A 
ATOM      5  C   UNL     1      31.608  11.631  36.617  1.00  0.00     0.028 A 
ATOM      6  C   UNL     1      32.524  12.576  37.068  1.00  0.00     0.083 A 
ATOM      7  N   UNL     1      33.594  12.640  36.242  1.00  0.00    -0.361 N 
ATOM      8  C   UNL     1      31.693  10.132  34.594  1.00  0.00     0.056 A 
ATOM      9  C   UNL     1      32.496   9.802  33.482  1.00  0.00     0.116 A 
ATOM     10  H   UNL     1      34.427  13.262  36.344  1.00  0.00     0.166 HD
ENDROOT
BRANCH   9  11
ATOM     11  O   UNL     1      32.079   8.832  32.574  1.00  0.00    -0.508 OA
ATOM     12  H   UNL     1      32.696   8.083  32.281  1.00  0.00     0.293 HD
ENDBRANCH   9  11
TORSDOF 1
ENDMDL
MODEL 7
REMARK VINA RESULT:    -4.503      1.895      3.254
REMARK INTER + INTRA:          -4.634
REMARK INTER:                  -4.634
REMARK INTRA:                   0.000
REMARK UNBOUND:                 0.000
REMARK SMILES Oc1ccc2[nH]ccc2c1
REMARK SMILES IDX 3 1 4 2 5 3 9 4 8 5 7 6 6 7 10 8 2 9 1 11
REMARK H PARENT 6 10 1 12
REMARK Flexibility Score: inf
ROOT
ATOM      1  C   UNL     1      32.672  13.944  39.513  1.00  0.00     0.048 A 
ATOM      2  C   UNL     1      33.312  13.800  38.268  1.00  0.00     0.030 A 
ATOM      3  C   UNL     1      32.770  12.891  37.361  1.00  0.00     0.046 A 
ATOM      4  C   UNL     1      31.652  12.156  37.657  1.00  0.00     0.003 A 
ATOM      5  C   UNL     1      31.378  11.364  36.564  1.00  0.00     0.028 A 
ATOM      6  C   UNL     1      32.370  11.667  35.637  1.00  0.00     0.083 A 
ATOM      7  N   UNL     1      33.217  12.601  36.129  1.00  0.00    -0.361 N 
ATOM      8  C   UNL     1      30.996  12.276  38.880  1.00  0.00     0.056 A 
ATOM      9  C   UNL     1      31.518  13.187  39.823  1.00  0.00     0.116 A 
ATOM     10  H   UNL     1      34.048  13.009  35.645  1.00  0.00     0.166 HD
ENDROOT
BRANCH   9  11
ATOM     11  O   UNL     1      30.905  13.350  41.062  1.00  0.00    -0.508 OA
ATOM     12  H   UNL     1      30.208  14.070  41.216  1.00  0.00     0.293 HD
ENDBRANCH   9  11
TORSDOF 1
ENDMDL
MODEL 8
REMARK VINA RESULT:    -4.408     19.061     20.077
REMARK INTER + INTRA:          -4.537
REMARK INTER:                  -4.537
REMARK INTRA:                   0.000
REMARK UNBOUND:                 0.000
REMARK SMILES Oc1ccc2[nH]ccc2c1
REMARK SMILES IDX 3 1 4 2 5 3 9 4 8 5 7 6 6 7 10 8 2 9 1 11
REMARK H PARENT 6 10 1 12
REMARK Flexibility Score: inf
ROOT
ATOM      1  C   UNL     1      42.284   2.770  24.539  1.00  0.00     0.048 A 
ATOM      2  C   UNL     1      43.655   2.550  24.307  1.00  0.00     0.030 A 
ATOM      3  C   UNL     1      44.566   3.202  25.136  1.00  0.00     0.046 A 
ATOM      4  C   UNL     1      44.157   4.030  26.147  1.00  0.00     0.003 A 
ATOM      5  C   UNL     1      45.287   4.510  26.771  1.00  0.00     0.028 A 
ATOM      6  C   UNL     1      46.353   3.932  26.087  1.00  0.00     0.083 A 
ATOM      7  N   UNL     1      45.906   3.133  25.090  1.00  0.00    -0.361 N 
ATOM      8  C   UNL     1      42.808   4.268  26.403  1.00  0.00     0.056 A 
ATOM      9  C   UNL     1      41.857   3.624  25.582  1.00  0.00     0.116 A 
ATOM     10  H   UNL     1      46.489   2.579  24.423  1.00  0.00     0.166 HD
ENDROOT
BRANCH   9  11
ATOM     11  O   UNL     1      40.495   3.823  25.790  1.00  0.00    -0.508 OA
ATOM     12  H   UNL     1      39.996   4.579  25.333  1.00  0.00     0.293 HD
ENDBRANCH   9  11
TORSDOF 1
ENDMDL
