MODEL 1
REMARK VINA RESULT:    -5.481      0.000      0.000
REMARK INTER + INTRA:          -6.729
REMARK INTER:                  -6.442
REMARK INTRA:                  -0.287
REMARK UNBOUND:                -0.287
REMARK SMILES O=c1c(O)c(-c2ccc(O)cc2)oc2cc(O)cc(O)c12
REMARK SMILES IDX 5 1 3 2 2 3 1 4 21 5 19 6 18 7 16 8 15 9 14 10 13 11 6 12
REMARK SMILES IDX 7 13 8 14 9 15 12 16 11 17 10 18 4 20 20 22 17 24
REMARK H PARENT 10 19 4 21 20 23 17 25
REMARK Flexibility Score: inf
ROOT
ATOM      1  C   UNL     1      -0.728  -5.275  -2.822  1.00  0.00     0.180 A 
ATOM      2  C   UNL     1       0.581  -4.792  -2.648  1.00  0.00     0.208 A 
ATOM      3  C   UNL     1       1.057  -4.569  -1.346  1.00  0.00     0.238 A 
ATOM      4  O   UNL     1       2.210  -4.086  -1.198  1.00  0.00    -0.285 OA
ATOM      5  C   UNL     1       0.226  -4.848  -0.234  1.00  0.00     0.111 A 
ATOM      6  C   UNL     1       0.619  -4.697   1.130  1.00  0.00     0.134 A 
ATOM      7  C   UNL     1      -0.329  -4.876   2.145  1.00  0.00     0.093 A 
ATOM      8  C   UNL     1      -1.636  -5.263   1.851  1.00  0.00     0.123 A 
ATOM      9  C   UNL     1      -2.014  -5.471   0.524  1.00  0.00     0.094 A 
ATOM     10  C   UNL     1      -1.102  -5.265  -0.514  1.00  0.00     0.146 A 
ATOM     11  O   UNL     1      -1.506  -5.463  -1.762  1.00  0.00    -0.452 OA
ENDROOT
BRANCH   1  12
ATOM     12  C   UNL     1      -1.291  -5.558  -4.161  1.00  0.00     0.021 A 
ATOM     13  C   UNL     1      -1.148  -6.841  -4.715  1.00  0.00     0.016 A 
ATOM     14  C   UNL     1      -1.653  -7.125  -5.988  1.00  0.00     0.047 A 
ATOM     15  C   UNL     1      -2.292  -6.127  -6.729  1.00  0.00     0.115 A 
ATOM     16  C   UNL     1      -1.919  -4.553  -4.921  1.00  0.00     0.016 A 
ATOM     17  C   UNL     1      -2.422  -4.838  -6.194  1.00  0.00     0.047 A 
BRANCH  15  18
ATOM     18  O   UNL     1      -2.791  -6.423  -7.995  1.00  0.00    -0.508 OA
ATOM     19  H   UNL     1      -3.165  -7.339  -8.216  1.00  0.00     0.293 HD
ENDBRANCH  15  18
ENDBRANCH   1  12
BRANCH   2  20
ATOM     20  O   UNL     1       1.378  -4.503  -3.759  1.00  0.00    -0.502 OA
ATOM     21  H   UNL     1       1.681  -3.563  -3.982  1.00  0.00     0.293 HD
ENDBRANCH   2  20
BRANCH   6  22
ATOM     22  O   UNL     1       1.923  -4.401   1.538  1.00  0.00    -0.507 OA
ATOM     23  H   UNL     1       2.737  -4.454   0.945  1.00  0.00     0.293 HD
ENDBRANCH   6  22
BRANCH   8  24
ATOM     24  O   UNL     1      -2.548  -5.449   2.887  1.00  0.00    -0.508 OA
ATOM     25  H   UNL     1      -2.875  -4.672   3.450  1.00  0.00     0.293 HD
ENDBRANCH   8  24
TORSDOF 5
ENDMDL
MODEL 2
REMARK VINA RESULT:    -5.352     13.561     14.507
REMARK INTER + INTRA:          -6.577
REMARK INTER:                  -6.346
REMARK INTRA:                  -0.231
REMARK UNBOUND:                -0.287
REMARK SMILES O=c1c(O)c(-c2ccc(O)cc2)oc2cc(O)cc(O)c12
REMARK SMILES IDX 5 1 3 2 2 3 1 4 21 5 19 6 18 7 16 8 15 9 14 10 13 11 6 12
REMARK SMILES IDX 7 13 8 14 9 15 12 16 11 17 10 18 4 20 20 22 17 24
REMARK H PARENT 10 19 4 21 20 23 17 25
REMARK Flexibility Score: inf
ROOT
ATOM      1  C   UNL     1       1.418   8.725  -2.428  1.00  0.00     0.180 A 
ATOM      2  C   UNL     1       1.836   7.444  -2.026  1.00  0.00     0.208 A 
ATOM      3  C   UNL     1       1.057   6.733  -1.099  1.00  0.00     0.238 A 
ATOM      4  O   UNL     1       1.465   5.611  -0.702  1.00  0.00    -0.285 OA
ATOM      5  C   UNL     1      -0.138   7.304  -0.598  1.00  0.00     0.111 A 
ATOM      6  C   UNL     1      -1.025   6.656   0.315  1.00  0.00     0.134 A 
ATOM      7  C   UNL     1      -2.109   7.367   0.845  1.00  0.00     0.093 A 
ATOM      8  C   UNL     1      -2.376   8.676   0.447  1.00  0.00     0.123 A 
ATOM      9  C   UNL     1      -1.549   9.298  -0.490  1.00  0.00     0.094 A 
ATOM     10  C   UNL     1      -0.438   8.628  -1.009  1.00  0.00     0.146 A 
ATOM     11  O   UNL     1       0.328   9.260  -1.890  1.00  0.00    -0.452 OA
ENDROOT
BRANCH   1  12
ATOM     12  C   UNL     1       2.172   9.524  -3.420  1.00  0.00     0.021 A 
ATOM     13  C   UNL     1       2.859  10.676  -3.001  1.00  0.00     0.016 A 
ATOM     14  C   UNL     1       3.559  11.459  -3.925  1.00  0.00     0.047 A 
ATOM     15  C   UNL     1       3.568  11.109  -5.279  1.00  0.00     0.115 A 
ATOM     16  C   UNL     1       2.169   9.190  -4.787  1.00  0.00     0.016 A 
ATOM     17  C   UNL     1       2.869   9.974  -5.709  1.00  0.00     0.047 A 
BRANCH  15  18
ATOM     18  O   UNL     1       4.270  11.898  -6.188  1.00  0.00    -0.508 OA
ATOM     19  H   UNL     1       5.005  11.509  -6.768  1.00  0.00     0.293 HD
ENDBRANCH  15  18
ENDBRANCH   1  12
BRANCH   2  20
ATOM     20  O   UNL     1       3.030   6.908  -2.516  1.00  0.00    -0.502 OA
ATOM     21  H   UNL     1       3.484   7.261  -3.349  1.00  0.00     0.293 HD
ENDBRANCH   2  20
BRANCH   6  22
ATOM     22  O   UNL     1      -0.901   5.321   0.708  1.00  0.00    -0.507 OA
ATOM     23  H   UNL     1      -0.204   4.681   0.358  1.00  0.00     0.293 HD
ENDBRANCH   6  22
BRANCH   8  24
ATOM     24  O   UNL     1      -3.473   9.347   0.982  1.00  0.00    -0.508 OA
ATOM     25  H   UNL     1      -4.097   9.893   0.399  1.00  0.00     0.293 HD
ENDBRANCH   8  24
TORSDOF 5
ENDMDL
MODEL 3
REMARK VINA RESULT:    -5.167     14.105     15.908
REMARK INTER + INTRA:          -6.360
REMARK INTER:                  -6.074
REMARK INTRA:                  -0.286
REMARK UNBOUND:                -0.287
REMARK SMILES O=c1c(O)c(-c2ccc(O)cc2)oc2cc(O)cc(O)c12
REMARK SMILES IDX 5 1 3 2 2 3 1 4 21 5 19 6 18 7 16 8 15 9 14 10 13 11 6 12
REMARK SMILES IDX 7 13 8 14 9 15 12 16 11 17 10 18 4 20 20 22 17 24
REMARK H PARENT 10 19 4 21 20 23 17 25
REMARK Flexibility Score: inf
ROOT
ATOM      1  C   UNL     1       0.778   9.137  -1.569  1.00  0.00     0.180 A 
ATOM      2  C   UNL     1       1.103   7.783  -1.764  1.00  0.00     0.208 A 
ATOM      3  C   UNL     1       1.999   7.438  -2.788  1.00  0.00     0.238 A 
ATOM      4  O   UNL     1       2.244   6.220  -2.992  1.00  0.00    -0.285 OA
ATOM      5  C   UNL     1       2.572   8.451  -3.594  1.00  0.00     0.111 A 
ATOM      6  C   UNL     1       3.522   8.219  -4.634  1.00  0.00     0.134 A 
ATOM      7  C   UNL     1       3.921   9.282  -5.454  1.00  0.00     0.093 A 
ATOM      8  C   UNL     1       3.457  10.578  -5.230  1.00  0.00     0.123 A 
ATOM      9  C   UNL     1       2.574  10.826  -4.179  1.00  0.00     0.094 A 
ATOM     10  C   UNL     1       2.128   9.780  -3.367  1.00  0.00     0.146 A 
ATOM     11  O   UNL     1       1.281  10.057  -2.384  1.00  0.00    -0.452 OA
ENDROOT
BRANCH   1  12
ATOM     12  C   UNL     1      -0.138   9.581  -0.494  1.00  0.00     0.021 A 
ATOM     13  C   UNL     1       0.368   9.807   0.796  1.00  0.00     0.016 A 
ATOM     14  C   UNL     1      -0.484  10.206   1.832  1.00  0.00     0.047 A 
ATOM     15  C   UNL     1      -1.852  10.367   1.595  1.00  0.00     0.115 A 
ATOM     16  C   UNL     1      -1.520   9.727  -0.722  1.00  0.00     0.016 A 
ATOM     17  C   UNL     1      -2.369  10.124   0.315  1.00  0.00     0.047 A 
BRANCH  15  18
ATOM     18  O   UNL     1      -2.688  10.765   2.635  1.00  0.00    -0.508 OA
ATOM     19  H   UNL     1      -3.555  10.277   2.834  1.00  0.00     0.293 HD
ENDBRANCH  15  18
ENDBRANCH   1  12
BRANCH   2  20
ATOM     20  O   UNL     1       0.510   6.796  -0.971  1.00  0.00    -0.502 OA
ATOM     21  H   UNL     1       0.458   5.826  -1.257  1.00  0.00     0.293 HD
ENDBRANCH   2  20
BRANCH   6  22
ATOM     22  O   UNL     1       4.118   6.979  -4.884  1.00  0.00    -0.507 OA
ATOM     23  H   UNL     1       4.872   6.825  -5.536  1.00  0.00     0.293 HD
ENDBRANCH   6  22
BRANCH   8  24
ATOM     24  O   UNL     1       3.889  11.614  -6.055  1.00  0.00    -0.508 OA
ATOM     25  H   UNL     1       3.280  12.025  -6.753  1.00  0.00     0.293 HD
ENDBRANCH   8  24
TORSDOF 5
ENDMDL
MODEL 4
REMARK VINA RESULT:    -5.035      2.439      3.647
REMARK INTER + INTRA:          -6.205
REMARK INTER:                  -5.943
REMARK INTRA:                  -0.263
REMARK UNBOUND:                -0.287
REMARK SMILES O=c1c(O)c(-c2ccc(O)cc2)oc2cc(O)cc(O)c12
REMARK SMILES IDX 5 1 3 2 2 3 1 4 21 5 19 6 18 7 16 8 15 9 14 10 13 11 6 12
REMARK SMILES IDX 7 13 8 14 9 15 12 16 11 17 10 18 4 20 20 22 17 24
REMARK H PARENT 10 19 4 21 20 23 17 25
REMARK Flexibility Score: inf
ROOT
ATOM      1  C   UNL     1      -0.778  -4.953  -4.819  1.00  0.00     0.180 A 
ATOM      2  C   UNL     1      -1.500  -4.183  -3.890  1.00  0.00     0.208 A 
ATOM      3  C   UNL     1      -0.885  -3.823  -2.680  1.00  0.00     0.238 A 
ATOM      4  O   UNL     1      -1.555  -3.181  -1.829  1.00  0.00    -0.285 OA
ATOM      5  C   UNL     1       0.448  -4.222  -2.420  1.00  0.00     0.111 A 
ATOM      6  C   UNL     1       1.182  -3.880  -1.245  1.00  0.00     0.134 A 
ATOM      7  C   UNL     1       2.449  -4.439  -1.035  1.00  0.00     0.093 A 
ATOM      8  C   UNL     1       3.034  -5.275  -1.986  1.00  0.00     0.123 A 
ATOM      9  C   UNL     1       2.349  -5.569  -3.166  1.00  0.00     0.094 A 
ATOM     10  C   UNL     1       1.068  -5.055  -3.388  1.00  0.00     0.146 A 
ATOM     11  O   UNL     1       0.447  -5.367  -4.518  1.00  0.00    -0.452 OA
ENDROOT
BRANCH   1  12
ATOM     12  C   UNL     1      -1.349  -5.349  -6.126  1.00  0.00     0.021 A 
ATOM     13  C   UNL     1      -2.195  -6.467  -6.200  1.00  0.00     0.016 A 
ATOM     14  C   UNL     1      -2.729  -6.873  -7.428  1.00  0.00     0.047 A 
ATOM     15  C   UNL     1      -2.409  -6.178  -8.597  1.00  0.00     0.115 A 
ATOM     16  C   UNL     1      -1.015  -4.665  -7.310  1.00  0.00     0.016 A 
ATOM     17  C   UNL     1      -1.548  -5.074  -8.537  1.00  0.00     0.047 A 
BRANCH  15  18
ATOM     18  O   UNL     1      -2.947  -6.593  -9.814  1.00  0.00    -0.508 OA
ATOM     19  H   UNL     1      -3.910  -6.901  -9.889  1.00  0.00     0.293 HD
ENDBRANCH  15  18
ENDBRANCH   1  12
BRANCH   2  20
ATOM     20  O   UNL     1      -2.823  -3.818  -4.156  1.00  0.00    -0.502 OA
ATOM     21  H   UNL     1      -3.128  -2.852  -4.172  1.00  0.00     0.293 HD
ENDBRANCH   2  20
BRANCH   6  22
ATOM     22  O   UNL     1       0.728  -2.982  -0.275  1.00  0.00    -0.507 OA
ATOM     23  H   UNL     1       1.177  -2.109  -0.043  1.00  0.00     0.293 HD
ENDBRANCH   6  22
BRANCH   8  24
ATOM     24  O   UNL     1       4.302  -5.801  -1.751  1.00  0.00    -0.508 OA
ATOM     25  H   UNL     1       5.130  -5.397  -2.174  1.00  0.00     0.293 HD
ENDBRANCH   8  24
TORSDOF 5
ENDMDL
MODEL 5
REMARK VINA RESULT:    -5.034     14.756     16.404
REMARK INTER + INTRA:          -6.204
REMARK INTER:                  -5.917
REMARK INTRA:                  -0.288
REMARK UNBOUND:                -0.287
REMARK SMILES O=c1c(O)c(-c2ccc(O)cc2)oc2cc(O)cc(O)c12
REMARK SMILES IDX 5 1 3 2 2 3 1 4 21 5 19 6 18 7 16 8 15 9 14 10 13 11 6 12
REMARK SMILES IDX 7 13 8 14 9 15 12 16 11 17 10 18 4 20 20 22 17 24
REMARK H PARENT 10 19 4 21 20 23 17 25
REMARK Flexibility Score: inf
ROOT
ATOM      1  C   UNL     1       0.785  10.062  -1.826  1.00  0.00     0.180 A 
ATOM      2  C   UNL     1       1.206  11.378  -2.084  1.00  0.00     0.208 A 
ATOM      3  C   UNL     1       2.123  11.609  -3.122  1.00  0.00     0.238 A 
ATOM      4  O   UNL     1       2.537  12.782  -3.313  1.00  0.00    -0.285 OA
ATOM      5  C   UNL     1       2.595  10.524  -3.900  1.00  0.00     0.111 A 
ATOM      6  C   UNL     1       3.494  10.647  -5.002  1.00  0.00     0.134 A 
ATOM      7  C   UNL     1       3.997   9.493  -5.615  1.00  0.00     0.093 A 
ATOM      8  C   UNL     1       3.582   8.224  -5.211  1.00  0.00     0.123 A 
ATOM      9  C   UNL     1       2.657   8.095  -4.174  1.00  0.00     0.094 A 
ATOM     10  C   UNL     1       2.166   9.226  -3.518  1.00  0.00     0.146 A 
ATOM     11  O   UNL     1       1.296   9.058  -2.530  1.00  0.00    -0.452 OA
ENDROOT
BRANCH   1  12
ATOM     12  C   UNL     1      -0.198   9.742  -0.766  1.00  0.00     0.021 A 
ATOM     13  C   UNL     1       0.253   9.254   0.471  1.00  0.00     0.016 A 
ATOM     14  C   UNL     1      -0.659   8.925   1.479  1.00  0.00     0.047 A 
ATOM     15  C   UNL     1      -2.032   9.065   1.257  1.00  0.00     0.115 A 
ATOM     16  C   UNL     1      -1.582   9.862  -0.990  1.00  0.00     0.016 A 
ATOM     17  C   UNL     1      -2.492   9.531   0.019  1.00  0.00     0.047 A 
BRANCH  15  18
ATOM     18  O   UNL     1      -2.929   8.734   2.270  1.00  0.00    -0.508 OA
ATOM     19  H   UNL     1      -2.637   8.205   3.085  1.00  0.00     0.293 HD
ENDBRANCH  15  18
ENDBRANCH   1  12
BRANCH   2  20
ATOM     20  O   UNL     1       0.745  12.433  -1.291  1.00  0.00    -0.502 OA
ATOM     21  H   UNL     1      -0.185  12.820  -1.388  1.00  0.00     0.293 HD
ENDBRANCH   2  20
BRANCH   6  22
ATOM     22  O   UNL     1       3.901  11.870  -5.544  1.00  0.00    -0.507 OA
ATOM     23  H   UNL     1       3.279  12.622  -5.798  1.00  0.00     0.293 HD
ENDBRANCH   6  22
BRANCH   8  24
ATOM     24  O   UNL     1       4.089   7.098  -5.855  1.00  0.00    -0.508 OA
ATOM     25  H   UNL     1       3.493   6.320  -6.110  1.00  0.00     0.293 HD
ENDBRANCH   8  24
TORSDOF 5
ENDMDL
MODEL 6
REMARK VINA RESULT:    -5.003     10.045     11.908
REMARK INTER + INTRA:          -6.167
REMARK INTER:                  -5.905
REMARK INTRA:                  -0.263
REMARK UNBOUND:                -0.287
REMARK SMILES O=c1c(O)c(-c2ccc(O)cc2)oc2cc(O)cc(O)c12
REMARK SMILES IDX 5 1 3 2 2 3 1 4 21 5 19 6 18 7 16 8 15 9 14 10 13 11 6 12
REMARK SMILES IDX 7 13 8 14 9 15 12 16 11 17 10 18 4 20 20 22 17 24
REMARK H PARENT 10 19 4 21 20 23 17 25
REMARK Flexibility Score: inf
ROOT
ATOM      1  C   UNL     1      -7.853  -1.603  -9.579  1.00  0.00     0.180 A 
ATOM      2  C   UNL     1      -6.647  -2.325  -9.522  1.00  0.00     0.208 A 
ATOM      3  C   UNL     1      -5.435  -1.639  -9.697  1.00  0.00     0.238 A 
ATOM      4  O   UNL     1      -4.363  -2.299  -9.698  1.00  0.00    -0.285 OA
ATOM      5  C   UNL     1      -5.440  -0.240  -9.910  1.00  0.00     0.111 A 
ATOM      6  C   UNL     1      -4.268   0.562 -10.060  1.00  0.00     0.134 A 
ATOM      7  C   UNL     1      -4.396   1.915 -10.398  1.00  0.00     0.093 A 
ATOM      8  C   UNL     1      -5.651   2.509 -10.527  1.00  0.00     0.123 A 
ATOM      9  C   UNL     1      -6.803   1.748 -10.324  1.00  0.00     0.094 A 
ATOM     10  C   UNL     1      -6.708   0.387 -10.022  1.00  0.00     0.146 A 
ATOM     11  O   UNL     1      -7.828  -0.303  -9.847  1.00  0.00    -0.452 OA
ENDROOT
BRANCH   1  12
ATOM     12  C   UNL     1      -9.169  -2.250  -9.379  1.00  0.00     0.021 A 
ATOM     13  C   UNL     1      -9.781  -2.918 -10.453  1.00  0.00     0.016 A 
ATOM     14  C   UNL     1     -11.035  -3.518 -10.293  1.00  0.00     0.047 A 
ATOM     15  C   UNL     1     -11.698  -3.444  -9.064  1.00  0.00     0.115 A 
ATOM     16  C   UNL     1      -9.851  -2.163  -8.151  1.00  0.00     0.016 A 
ATOM     17  C   UNL     1     -11.104  -2.763  -7.994  1.00  0.00     0.047 A 
BRANCH  15  18
ATOM     18  O   UNL     1     -12.945  -4.046  -8.919  1.00  0.00    -0.508 OA
ATOM     19  H   UNL     1     -13.801  -3.552  -9.144  1.00  0.00     0.293 HD
ENDBRANCH  15  18
ENDBRANCH   1  12
BRANCH   2  20
ATOM     20  O   UNL     1      -6.665  -3.709  -9.332  1.00  0.00    -0.502 OA
ATOM     21  H   UNL     1      -6.000  -4.328  -9.779  1.00  0.00     0.293 HD
ENDBRANCH   2  20
BRANCH   6  22
ATOM     22  O   UNL     1      -2.968   0.087  -9.863  1.00  0.00    -0.507 OA
ATOM     23  H   UNL     1      -2.225   0.611  -9.428  1.00  0.00     0.293 HD
ENDBRANCH   6  22
BRANCH   8  24
ATOM     24  O   UNL     1      -5.741   3.862 -10.848  1.00  0.00    -0.508 OA
ATOM     25  H   UNL     1      -6.623   4.289 -11.103  1.00  0.00     0.293 HD
ENDBRANCH   8  24
TORSDOF 5
ENDMDL
MODEL 7
REMARK VINA RESULT:    -4.966     15.459     16.338
REMARK INTER + INTRA:          -6.124
REMARK INTER:                  -5.839
REMARK INTRA:                  -0.285
REMARK UNBOUND:                -0.287
REMARK SMILES O=c1c(O)c(-c2ccc(O)cc2)oc2cc(O)cc(O)c12
REMARK SMILES IDX 5 1 3 2 2 3 1 4 21 5 19 6 18 7 16 8 15 9 14 10 13 11 6 12
REMARK SMILES IDX 7 13 8 14 9 15 12 16 11 17 10 18 4 20 20 22 17 24
REMARK H PARENT 10 19 4 21 20 23 17 25
REMARK Flexibility Score: inf
ROOT
ATOM      1  C   UNL     1       1.877  10.627  -2.234  1.00  0.00     0.180 A 
ATOM      2  C   UNL     1       2.249  11.722  -1.434  1.00  0.00     0.208 A 
ATOM      3  C   UNL     1       1.409  12.111  -0.378  1.00  0.00     0.238 A 
ATOM      4  O   UNL     1       1.720  13.125   0.299  1.00  0.00    -0.285 OA
ATOM      5  C   UNL     1       0.216  11.391  -0.125  1.00  0.00     0.111 A 
ATOM      6  C   UNL     1      -0.689  11.673   0.943  1.00  0.00     0.134 A 
ATOM      7  C   UNL     1      -1.903  10.980   1.019  1.00  0.00     0.093 A 
ATOM      8  C   UNL     1      -2.216   9.972   0.108  1.00  0.00     0.123 A 
ATOM      9  C   UNL     1      -1.311   9.648  -0.904  1.00  0.00     0.094 A 
ATOM     10  C   UNL     1      -0.107  10.347  -1.029  1.00  0.00     0.146 A 
ATOM     11  O   UNL     1       0.720  10.014  -2.012  1.00  0.00    -0.452 OA
ENDROOT
BRANCH   1  12
ATOM     12  C   UNL     1       2.722  10.142  -3.348  1.00  0.00     0.021 A 
ATOM     13  C   UNL     1       3.678   9.142  -3.106  1.00  0.00     0.016 A 
ATOM     14  C   UNL     1       4.503   8.683  -4.139  1.00  0.00     0.047 A 
ATOM     15  C   UNL     1       4.393   9.230  -5.420  1.00  0.00     0.115 A 
ATOM     16  C   UNL     1       2.630  10.701  -4.636  1.00  0.00     0.016 A 
ATOM     17  C   UNL     1       3.456  10.243  -5.667  1.00  0.00     0.047 A 
BRANCH  15  18
ATOM     18  O   UNL     1       5.220   8.764  -6.440  1.00  0.00    -0.508 OA
ATOM     19  H   UNL     1       4.841   8.437  -7.322  1.00  0.00     0.293 HD
ENDBRANCH  15  18
ENDBRANCH   1  12
BRANCH   2  20
ATOM     20  O   UNL     1       3.419  12.433  -1.715  1.00  0.00    -0.502 OA
ATOM     21  H   UNL     1       4.328  12.142  -1.374  1.00  0.00     0.293 HD
ENDBRANCH   2  20
BRANCH   6  22
ATOM     22  O   UNL     1      -0.432  12.598   1.959  1.00  0.00    -0.507 OA
ATOM     23  H   UNL     1       0.204  13.377   1.881  1.00  0.00     0.293 HD
ENDBRANCH   6  22
BRANCH   8  24
ATOM     24  O   UNL     1      -3.426   9.291   0.224  1.00  0.00    -0.508 OA
ATOM     25  H   UNL     1      -3.795   8.734  -0.537  1.00  0.00     0.293 HD
ENDBRANCH   8  24
TORSDOF 5
ENDMDL
MODEL 8
REMARK VINA RESULT:    -4.958     14.659     16.274
REMARK INTER + INTRA:          -6.115
REMARK INTER:                  -5.906
REMARK INTRA:                  -0.209
REMARK UNBOUND:                -0.287
REMARK SMILES O=c1c(O)c(-c2ccc(O)cc2)oc2cc(O)cc(O)c12
REMARK SMILES IDX 5 1 3 2 2 3 1 4 21 5 19 6 18 7 16 8 15 9 14 10 13 11 6 12
REMARK SMILES IDX 7 13 8 14 9 15 12 16 11 17 10 18 4 20 20 22 17 24
REMARK H PARENT 10 19 4 21 20 23 17 25
REMARK Flexibility Score: inf
ROOT
ATOM      1  C   UNL     1      -0.189   9.869  -0.629  1.00  0.00     0.180 A 
ATOM      2  C   UNL     1       0.314  11.174  -0.485  1.00  0.00     0.208 A 
ATOM      3  C   UNL     1       1.206  11.670  -1.449  1.00  0.00     0.238 A 
ATOM      4  O   UNL     1       1.695  12.818  -1.286  1.00  0.00    -0.285 OA
ATOM      5  C   UNL     1       1.572  10.862  -2.553  1.00  0.00     0.111 A 
ATOM      6  C   UNL     1       2.437  11.278  -3.610  1.00  0.00     0.134 A 
ATOM      7  C   UNL     1       2.834  10.351  -4.582  1.00  0.00     0.093 A 
ATOM      8  C   UNL     1       2.346   9.045  -4.573  1.00  0.00     0.123 A 
ATOM      9  C   UNL     1       1.453   8.645  -3.578  1.00  0.00     0.094 A 
ATOM     10  C   UNL     1       1.067   9.536  -2.573  1.00  0.00     0.146 A 
ATOM     11  O   UNL     1       0.224   9.113  -1.640  1.00  0.00    -0.452 OA
ENDROOT
BRANCH   1  12
ATOM     12  C   UNL     1      -1.152   9.285   0.331  1.00  0.00     0.021 A 
ATOM     13  C   UNL     1      -0.754   8.212   1.145  1.00  0.00     0.016 A 
ATOM     14  C   UNL     1      -1.654   7.631   2.044  1.00  0.00     0.047 A 
ATOM     15  C   UNL     1      -2.966   8.104   2.129  1.00  0.00     0.115 A 
ATOM     16  C   UNL     1      -2.481   9.744   0.408  1.00  0.00     0.016 A 
ATOM     17  C   UNL     1      -3.379   9.161   1.307  1.00  0.00     0.047 A 
BRANCH  15  18
ATOM     18  O   UNL     1      -3.853   7.516   3.029  1.00  0.00    -0.508 OA
ATOM     19  H   UNL     1      -4.843   7.444   2.826  1.00  0.00     0.293 HD
ENDBRANCH  15  18
ENDBRANCH   1  12
BRANCH   2  20
ATOM     20  O   UNL     1      -0.042  11.947   0.624  1.00  0.00    -0.502 OA
ATOM     21  H   UNL     1       0.629  12.233   1.326  1.00  0.00     0.293 HD
ENDBRANCH   2  20
BRANCH   6  22
ATOM     22  O   UNL     1       2.909  12.585  -3.763  1.00  0.00    -0.507 OA
ATOM     23  H   UNL     1       3.229  13.173  -3.009  1.00  0.00     0.293 HD
ENDBRANCH   6  22
BRANCH   8  24
ATOM     24  O   UNL     1       2.749   8.154  -5.565  1.00  0.00    -0.508 OA
ATOM     25  H   UNL     1       2.082   7.569  -6.055  1.00  0.00     0.293 HD
ENDBRANCH   8  24
TORSDOF 5
ENDMDL
MODEL 9
REMARK VINA RESULT:    -4.945      1.730      3.649
REMARK INTER + INTRA:          -6.099
REMARK INTER:                  -6.034
REMARK INTRA:                  -0.065
REMARK UNBOUND:                -0.287
REMARK SMILES O=c1c(O)c(-c2ccc(O)cc2)oc2cc(O)cc(O)c12
REMARK SMILES IDX 5 1 3 2 2 3 1 4 21 5 19 6 18 7 16 8 15 9 14 10 13 11 6 12
REMARK SMILES IDX 7 13 8 14 9 15 12 16 11 17 10 18 4 20 20 22 17 24
REMARK H PARENT 10 19 4 21 20 23 17 25
REMARK Flexibility Score: inf
ROOT
ATOM      1  C   UNL     1      -0.514  -4.798  -1.033  1.00  0.00     0.180 A 
ATOM      2  C   UNL     1      -1.267  -5.291   0.048  1.00  0.00     0.208 A 
ATOM      3  C   UNL     1      -0.730  -5.214   1.343  1.00  0.00     0.238 A 
ATOM      4  O   UNL     1      -1.385  -5.706   2.299  1.00  0.00    -0.285 OA
ATOM      5  C   UNL     1       0.544  -4.630   1.544  1.00  0.00     0.111 A 
ATOM      6  C   UNL     1       1.167  -4.463   2.818  1.00  0.00     0.134 A 
ATOM      7  C   UNL     1       2.484  -3.993   2.886  1.00  0.00     0.093 A 
ATOM      8  C   UNL     1       3.177  -3.622   1.734  1.00  0.00     0.123 A 
ATOM      9  C   UNL     1       2.555  -3.725   0.488  1.00  0.00     0.094 A 
ATOM     10  C   UNL     1       1.255  -4.226   0.385  1.00  0.00     0.146 A 
ATOM     11  O   UNL     1       0.705  -4.317  -0.819  1.00  0.00    -0.452 OA
ENDROOT
BRANCH   1  12
ATOM     12  C   UNL     1      -1.023  -4.822  -2.423  1.00  0.00     0.021 A 
ATOM     13  C   UNL     1      -1.210  -3.612  -3.111  1.00  0.00     0.016 A 
ATOM     14  C   UNL     1      -1.710  -3.609  -4.417  1.00  0.00     0.047 A 
ATOM     15  C   UNL     1      -2.044  -4.813  -5.045  1.00  0.00     0.115 A 
ATOM     16  C   UNL     1      -1.379  -6.028  -3.053  1.00  0.00     0.016 A 
ATOM     17  C   UNL     1      -1.880  -6.023  -4.359  1.00  0.00     0.047 A 
BRANCH  15  18
ATOM     18  O   UNL     1      -2.541  -4.795  -6.346  1.00  0.00    -0.508 OA
ATOM     19  H   UNL     1      -3.289  -5.415  -6.636  1.00  0.00     0.293 HD
ENDBRANCH  15  18
ENDBRANCH   1  12
BRANCH   2  20
ATOM     20  O   UNL     1      -2.513  -5.884  -0.175  1.00  0.00    -0.502 OA
ATOM     21  H   UNL     1      -3.001  -6.409   0.539  1.00  0.00     0.293 HD
ENDBRANCH   2  20
BRANCH   6  22
ATOM     22  O   UNL     1       0.531  -4.718   4.037  1.00  0.00    -0.507 OA
ATOM     23  H   UNL     1      -0.283  -4.228   4.374  1.00  0.00     0.293 HD
ENDBRANCH   6  22
BRANCH   8  24
ATOM     24  O   UNL     1       4.480  -3.142   1.840  1.00  0.00    -0.508 OA
ATOM     25  H   UNL     1       4.730  -2.212   1.525  1.00  0.00     0.293 HD
ENDBRANCH   8  24
TORSDOF 5
ENDMDL
