MODEL 1
REMARK VINA RESULT:    -3.149      0.000      0.000
REMARK INTER + INTRA:          -8.367
REMARK INTER:                  -5.726
REMARK INTRA:                  -2.642
REMARK UNBOUND:                -2.642
REMARK SMILES CCCCCCCCCCCCCC[C@H](C)C(=O)[O-]
REMARK SMILES IDX 9 1 10 2 11 3 12 4 13 5 14 6 15 7 16 8 17 9 18 10 19 11 8 12
REMARK SMILES IDX 7 13 6 14 5 15 4 16 3 17 2 18 1 19
REMARK H PARENT
REMARK Flexibility Score: inf
ROOT
ATOM      1  C   UNL     1      55.148  24.455  52.710  1.00  0.00     0.000 C 
ENDROOT
BRANCH   1   2
ATOM      2  C   UNL     1      55.726  25.761  53.277  1.00  0.00     0.000 C 
BRANCH   2   3
ATOM      3  C   UNL     1      57.156  26.039  52.784  1.00  0.00     0.000 C 
BRANCH   3   4
ATOM      4  C   UNL     1      57.685  24.930  51.859  1.00  0.00     0.000 C 
BRANCH   4   5
ATOM      5  C   UNL     1      58.061  25.459  50.464  1.00  0.00     0.001 C 
BRANCH   5   6
ATOM      6  C   UNL     1      58.152  26.996  50.401  1.00  0.00     0.009 C 
BRANCH   6   7
ATOM      7  C   UNL     1      59.504  27.527  49.863  1.00  0.00     0.032 C 
ATOM      8  C   UNL     1      60.556  26.411  49.847  1.00  0.00     0.014 C 
BRANCH   7   9
ATOM      9  C   UNL     1      60.023  28.682  50.674  1.00  0.00     0.044 C 
ATOM     10  O   UNL     1      61.135  29.210  50.402  1.00  0.00    -0.550 OA
ATOM     11  O   UNL     1      59.257  29.200  51.712  1.00  0.00    -0.550 OA
ENDBRANCH   7   9
ENDBRANCH   6   7
ENDBRANCH   5   6
ENDBRANCH   4   5
ENDBRANCH   3   4
ENDBRANCH   2   3
ENDBRANCH   1   2
BRANCH   1  12
ATOM     12  C   UNL     1      53.949  24.689  51.778  1.00  0.00     0.000 C 
BRANCH  12  13
ATOM     13  C   UNL     1      54.380  24.614  50.305  1.00  0.00    -0.000 C 
BRANCH  13  14
ATOM     14  C   UNL     1      54.437  25.996  49.632  1.00  0.00    -0.000 C 
BRANCH  14  15
ATOM     15  C   UNL     1      53.170  26.831  49.888  1.00  0.00    -0.000 C 
BRANCH  15  16
ATOM     16  C   UNL     1      53.487  28.234  50.430  1.00  0.00    -0.000 C 
BRANCH  16  17
ATOM     17  C   UNL     1      54.973  28.416  50.773  1.00  0.00    -0.000 C 
BRANCH  17  18
ATOM     18  C   UNL     1      55.142  29.215  52.071  1.00  0.00    -0.003 C 
ATOM     19  C   UNL     1      53.931  29.048  52.984  1.00  0.00     0.004 C 
ENDBRANCH  17  18
ENDBRANCH  16  17
ENDBRANCH  15  16
ENDBRANCH  14  15
ENDBRANCH  13  14
ENDBRANCH  12  13
ENDBRANCH   1  12
TORSDOF 14
ENDMDL
MODEL 2
REMARK VINA RESULT:    -3.096      2.311      3.935
REMARK INTER + INTRA:          -8.272
REMARK INTER:                  -5.578
REMARK INTRA:                  -2.694
REMARK UNBOUND:                -2.642
REMARK SMILES CCCCCCCCCCCCCC[C@H](C)C(=O)[O-]
REMARK SMILES IDX 9 1 10 2 11 3 12 4 13 5 14 6 15 7 16 8 17 9 18 10 19 11 8 12
REMARK SMILES IDX 7 13 6 14 5 15 4 16 3 17 2 18 1 19
REMARK H PARENT
REMARK Flexibility Score: inf
ROOT
ATOM      1  C   UNL     1      56.722  28.158  51.881  1.00  0.00     0.000 C 
ENDROOT
BRANCH   1   2
ATOM      2  C   UNL     1      58.051  28.805  51.460  1.00  0.00     0.000 C 
BRANCH   2   3
ATOM      3  C   UNL     1      58.543  28.308  50.089  1.00  0.00     0.000 C 
BRANCH   3   4
ATOM      4  C   UNL     1      60.056  28.036  50.071  1.00  0.00     0.000 C 
BRANCH   4   5
ATOM      5  C   UNL     1      60.382  26.541  49.907  1.00  0.00     0.001 C 
BRANCH   5   6
ATOM      6  C   UNL     1      59.132  25.640  49.938  1.00  0.00     0.009 C 
BRANCH   6   7
ATOM      7  C   UNL     1      59.125  24.611  51.095  1.00  0.00     0.032 C 
ATOM      8  C   UNL     1      58.864  25.306  52.437  1.00  0.00     0.014 C 
BRANCH   7   9
ATOM      9  C   UNL     1      60.416  23.844  51.180  1.00  0.00     0.044 C 
ATOM     10  O   UNL     1      61.098  23.849  52.240  1.00  0.00    -0.550 OA
ATOM     11  O   UNL     1      60.847  23.091  50.094  1.00  0.00    -0.550 OA
ENDBRANCH   7   9
ENDBRANCH   6   7
ENDBRANCH   5   6
ENDBRANCH   4   5
ENDBRANCH   3   4
ENDBRANCH   2   3
ENDBRANCH   1   2
BRANCH   1  12
ATOM     12  C   UNL     1      55.544  28.586  50.994  1.00  0.00     0.000 C 
BRANCH  12  13
ATOM     13  C   UNL     1      54.674  27.376  50.619  1.00  0.00    -0.000 C 
BRANCH  13  14
ATOM     14  C   UNL     1      55.491  26.224  50.009  1.00  0.00    -0.000 C 
BRANCH  14  15
ATOM     15  C   UNL     1      54.910  24.841  50.351  1.00  0.00    -0.000 C 
BRANCH  15  16
ATOM     16  C   UNL     1      54.250  24.804  51.739  1.00  0.00    -0.000 C 
BRANCH  16  17
ATOM     17  C   UNL     1      55.207  24.318  52.838  1.00  0.00    -0.000 C 
BRANCH  17  18
ATOM     18  C   UNL     1      55.400  25.396  53.912  1.00  0.00    -0.003 C 
ATOM     19  C   UNL     1      54.125  26.209  54.114  1.00  0.00     0.004 C 
ENDBRANCH  17  18
ENDBRANCH  16  17
ENDBRANCH  15  16
ENDBRANCH  14  15
ENDBRANCH  13  14
ENDBRANCH  12  13
ENDBRANCH   1  12
TORSDOF 14
ENDMDL
MODEL 3
REMARK VINA RESULT:    -3.082      2.540      5.609
REMARK INTER + INTRA:          -8.246
REMARK INTER:                  -5.698
REMARK INTRA:                  -2.547
REMARK UNBOUND:                -2.642
REMARK SMILES CCCCCCCCCCCCCC[C@H](C)C(=O)[O-]
REMARK SMILES IDX 9 1 10 2 11 3 12 4 13 5 14 6 15 7 16 8 17 9 18 10 19 11 8 12
REMARK SMILES IDX 7 13 6 14 5 15 4 16 3 17 2 18 1 19
REMARK H PARENT
REMARK Flexibility Score: inf
ROOT
ATOM      1  C   UNL     1      57.308  26.498  53.445  1.00  0.00     0.000 C 
ENDROOT
BRANCH   1   2
ATOM      2  C   UNL     1      58.166  27.655  52.909  1.00  0.00     0.000 C 
BRANCH   2   3
ATOM      3  C   UNL     1      57.325  28.749  52.228  1.00  0.00     0.000 C 
BRANCH   3   4
ATOM      4  C   UNL     1      56.562  28.224  51.000  1.00  0.00     0.000 C 
BRANCH   4   5
ATOM      5  C   UNL     1      55.039  28.392  51.141  1.00  0.00     0.001 C 
BRANCH   5   6
ATOM      6  C   UNL     1      54.240  27.570  50.110  1.00  0.00     0.009 C 
BRANCH   6   7
ATOM      7  C   UNL     1      53.681  26.236  50.664  1.00  0.00     0.032 C 
ATOM      8  C   UNL     1      53.787  26.198  52.193  1.00  0.00     0.014 C 
BRANCH   7   9
ATOM      9  C   UNL     1      54.392  25.042  50.090  1.00  0.00     0.044 C 
ATOM     10  O   UNL     1      53.809  23.927  50.004  1.00  0.00    -0.550 OA
ATOM     11  O   UNL     1      55.692  25.171  49.616  1.00  0.00    -0.550 OA
ENDBRANCH   7   9
ENDBRANCH   6   7
ENDBRANCH   5   6
ENDBRANCH   4   5
ENDBRANCH   3   4
ENDBRANCH   2   3
ENDBRANCH   1   2
BRANCH   1  12
ATOM     12  C   UNL     1      57.626  25.156  52.768  1.00  0.00     0.000 C 
BRANCH  12  13
ATOM     13  C   UNL     1      59.120  25.061  52.421  1.00  0.00    -0.000 C 
BRANCH  13  14
ATOM     14  C   UNL     1      59.366  24.548  50.992  1.00  0.00    -0.000 C 
BRANCH  14  15
ATOM     15  C   UNL     1      59.102  25.624  49.924  1.00  0.00    -0.000 C 
BRANCH  15  16
ATOM     16  C   UNL     1      60.301  26.564  49.723  1.00  0.00    -0.000 C 
BRANCH  16  17
ATOM     17  C   UNL     1      59.880  28.026  49.511  1.00  0.00    -0.000 C 
BRANCH  17  18
ATOM     18  C   UNL     1      60.686  28.965  50.417  1.00  0.00    -0.003 C 
ATOM     19  C   UNL     1      61.495  28.180  51.445  1.00  0.00     0.004 C 
ENDBRANCH  17  18
ENDBRANCH  16  17
ENDBRANCH  15  16
ENDBRANCH  14  15
ENDBRANCH  13  14
ENDBRANCH  12  13
ENDBRANCH   1  12
TORSDOF 14
ENDMDL
MODEL 4
REMARK VINA RESULT:    -3.077      1.616      2.417
REMARK INTER + INTRA:          -8.237
REMARK INTER:                  -6.303
REMARK INTRA:                  -1.934
REMARK UNBOUND:                -2.642
REMARK SMILES CCCCCCCCCCCCCC[C@H](C)C(=O)[O-]
REMARK SMILES IDX 9 1 10 2 11 3 12 4 13 5 14 6 15 7 16 8 17 9 18 10 19 11 8 12
REMARK SMILES IDX 7 13 6 14 5 15 4 16 3 17 2 18 1 19
REMARK H PARENT
REMARK Flexibility Score: inf
ROOT
ATOM      1  C   UNL     1      55.133  25.229  50.733  1.00  0.00     0.000 C 
ENDROOT
BRANCH   1   2
ATOM      2  C   UNL     1      56.473  25.938  50.481  1.00  0.00     0.000 C 
BRANCH   2   3
ATOM      3  C   UNL     1      56.703  27.125  51.433  1.00  0.00     0.000 C 
BRANCH   3   4
ATOM      4  C   UNL     1      57.315  28.342  50.718  1.00  0.00     0.000 C 
BRANCH   4   5
ATOM      5  C   UNL     1      58.841  28.421  50.899  1.00  0.00     0.001 C 
BRANCH   5   6
ATOM      6  C   UNL     1      59.620  28.233  49.583  1.00  0.00     0.009 C 
BRANCH   6   7
ATOM      7  C   UNL     1      60.605  27.038  49.597  1.00  0.00     0.032 C 
ATOM      8  C   UNL     1      60.176  25.996  50.638  1.00  0.00     0.014 C 
BRANCH   7   9
ATOM      9  C   UNL     1      62.017  27.470  49.884  1.00  0.00     0.044 C 
ATOM     10  O   UNL     1      62.252  28.595  50.401  1.00  0.00    -0.550 OA
ATOM     11  O   UNL     1      63.073  26.609  49.611  1.00  0.00    -0.550 OA
ENDBRANCH   7   9
ENDBRANCH   6   7
ENDBRANCH   5   6
ENDBRANCH   4   5
ENDBRANCH   3   4
ENDBRANCH   2   3
ENDBRANCH   1   2
BRANCH   1  12
ATOM     12  C   UNL     1      54.337  24.983  49.443  1.00  0.00     0.000 C 
BRANCH  12  13
ATOM     13  C   UNL     1      53.207  26.014  49.293  1.00  0.00    -0.000 C 
BRANCH  13  14
ATOM     14  C   UNL     1      53.035  26.892  50.544  1.00  0.00    -0.000 C 
BRANCH  14  15
ATOM     15  C   UNL     1      53.409  28.364  50.289  1.00  0.00    -0.000 C 
BRANCH  15  16
ATOM     16  C   UNL     1      53.256  29.238  51.544  1.00  0.00    -0.000 C 
BRANCH  16  17
ATOM     17  C   UNL     1      53.561  28.473  52.841  1.00  0.00    -0.000 C 
BRANCH  17  18
ATOM     18  C   UNL     1      54.332  29.356  53.829  1.00  0.00    -0.003 C 
ATOM     19  C   UNL     1      55.279  30.304  53.100  1.00  0.00     0.004 C 
ENDBRANCH  17  18
ENDBRANCH  16  17
ENDBRANCH  15  16
ENDBRANCH  14  15
ENDBRANCH  13  14
ENDBRANCH  12  13
ENDBRANCH   1  12
TORSDOF 14
ENDMDL
MODEL 5
REMARK VINA RESULT:    -3.046      2.756      4.505
REMARK INTER + INTRA:          -8.180
REMARK INTER:                  -6.593
REMARK INTRA:                  -1.587
REMARK UNBOUND:                -2.642
REMARK SMILES CCCCCCCCCCCCCC[C@H](C)C(=O)[O-]
REMARK SMILES IDX 9 1 10 2 11 3 12 4 13 5 14 6 15 7 16 8 17 9 18 10 19 11 8 12
REMARK SMILES IDX 7 13 6 14 5 15 4 16 3 17 2 18 1 19
REMARK H PARENT
REMARK Flexibility Score: inf
ROOT
ATOM      1  C   UNL     1      58.574  28.667  50.745  1.00  0.00     0.000 C 
ENDROOT
BRANCH   1   2
ATOM      2  C   UNL     1      59.323  28.417  49.427  1.00  0.00     0.000 C 
BRANCH   2   3
ATOM      3  C   UNL     1      60.336  27.262  49.532  1.00  0.00     0.000 C 
BRANCH   3   4
ATOM      4  C   UNL     1      61.659  27.699  50.183  1.00  0.00     0.000 C 
BRANCH   4   5
ATOM      5  C   UNL     1      62.505  26.502  50.652  1.00  0.00     0.001 C 
BRANCH   5   6
ATOM      6  C   UNL     1      61.774  25.600  51.664  1.00  0.00     0.009 C 
BRANCH   6   7
ATOM      7  C   UNL     1      62.147  24.101  51.559  1.00  0.00     0.032 C 
ATOM      8  C   UNL     1      63.559  23.934  50.986  1.00  0.00     0.014 C 
BRANCH   7   9
ATOM      9  C   UNL     1      61.174  23.333  50.707  1.00  0.00     0.044 C 
ATOM     10  O   UNL     1      61.476  22.197  50.252  1.00  0.00    -0.550 OA
ATOM     11  O   UNL     1      59.915  23.861  50.445  1.00  0.00    -0.550 OA
ENDBRANCH   7   9
ENDBRANCH   6   7
ENDBRANCH   5   6
ENDBRANCH   4   5
ENDBRANCH   3   4
ENDBRANCH   2   3
ENDBRANCH   1   2
BRANCH   1  12
ATOM     12  C   UNL     1      57.160  28.066  50.750  1.00  0.00     0.000 C 
BRANCH  12  13
ATOM     13  C   UNL     1      57.154  26.687  51.429  1.00  0.00    -0.000 C 
BRANCH  13  14
ATOM     14  C   UNL     1      56.888  25.539  50.441  1.00  0.00    -0.000 C 
BRANCH  14  15
ATOM     15  C   UNL     1      55.460  25.571  49.868  1.00  0.00    -0.000 C 
BRANCH  15  16
ATOM     16  C   UNL     1      54.392  25.252  50.926  1.00  0.00    -0.000 C 
BRANCH  16  17
ATOM     17  C   UNL     1      53.286  26.316  50.993  1.00  0.00    -0.000 C 
BRANCH  17  18
ATOM     18  C   UNL     1      53.511  27.406  49.938  1.00  0.00    -0.003 C 
ATOM     19  C   UNL     1      53.531  28.794  50.574  1.00  0.00     0.004 C 
ENDBRANCH  17  18
ENDBRANCH  16  17
ENDBRANCH  15  16
ENDBRANCH  14  15
ENDBRANCH  13  14
ENDBRANCH  12  13
ENDBRANCH   1  12
TORSDOF 14
ENDMDL
MODEL 6
REMARK VINA RESULT:    -2.988      1.190      3.063
REMARK INTER + INTRA:          -8.076
REMARK INTER:                  -5.329
REMARK INTRA:                  -2.747
REMARK UNBOUND:                -2.642
REMARK SMILES CCCCCCCCCCCCCC[C@H](C)C(=O)[O-]
REMARK SMILES IDX 9 1 10 2 11 3 12 4 13 5 14 6 15 7 16 8 17 9 18 10 19 11 8 12
REMARK SMILES IDX 7 13 6 14 5 15 4 16 3 17 2 18 1 19
REMARK H PARENT
REMARK Flexibility Score: inf
ROOT
ATOM      1  C   UNL     1      54.874  28.370  54.264  1.00  0.00     0.000 C 
ENDROOT
BRANCH   1   2
ATOM      2  C   UNL     1      55.554  27.058  53.842  1.00  0.00     0.000 C 
BRANCH   2   3
ATOM      3  C   UNL     1      56.860  27.293  53.062  1.00  0.00     0.000 C 
BRANCH   3   4
ATOM      4  C   UNL     1      57.090  26.235  51.970  1.00  0.00     0.000 C 
BRANCH   4   5
ATOM      5  C   UNL     1      57.456  26.862  50.613  1.00  0.00     0.001 C 
BRANCH   5   6
ATOM      6  C   UNL     1      57.928  28.325  50.727  1.00  0.00     0.009 C 
BRANCH   6   7
ATOM      7  C   UNL     1      59.352  28.573  50.172  1.00  0.00     0.032 C 
ATOM      8  C   UNL     1      59.878  27.325  49.454  1.00  0.00     0.014 C 
BRANCH   7   9
ATOM      9  C   UNL     1      60.321  28.967  51.252  1.00  0.00     0.044 C 
ATOM     10  O   UNL     1      61.350  29.643  50.977  1.00  0.00    -0.550 OA
ATOM     11  O   UNL     1      60.067  28.616  52.572  1.00  0.00    -0.550 OA
ENDBRANCH   7   9
ENDBRANCH   6   7
ENDBRANCH   5   6
ENDBRANCH   4   5
ENDBRANCH   3   4
ENDBRANCH   2   3
ENDBRANCH   1   2
BRANCH   1  12
ATOM     12  C   UNL     1      55.243  29.551  53.354  1.00  0.00     0.000 C 
BRANCH  12  13
ATOM     13  C   UNL     1      53.981  30.269  52.851  1.00  0.00    -0.000 C 
BRANCH  13  14
ATOM     14  C   UNL     1      53.330  29.558  51.653  1.00  0.00    -0.000 C 
BRANCH  14  15
ATOM     15  C   UNL     1      54.366  28.934  50.702  1.00  0.00    -0.000 C 
BRANCH  15  16
ATOM     16  C   UNL     1      53.843  27.667  50.005  1.00  0.00    -0.000 C 
BRANCH  16  17
ATOM     17  C   UNL     1      53.177  26.686  50.982  1.00  0.00    -0.000 C 
BRANCH  17  18
ATOM     18  C   UNL     1      53.810  25.293  50.875  1.00  0.00    -0.003 C 
ATOM     19  C   UNL     1      54.377  25.050  49.479  1.00  0.00     0.004 C 
ENDBRANCH  17  18
ENDBRANCH  16  17
ENDBRANCH  15  16
ENDBRANCH  14  15
ENDBRANCH  13  14
ENDBRANCH  12  13
ENDBRANCH   1  12
TORSDOF 14
ENDMDL
MODEL 7
REMARK VINA RESULT:    -2.974      2.259      3.623
REMARK INTER + INTRA:          -8.049
REMARK INTER:                  -5.121
REMARK INTRA:                  -2.928
REMARK UNBOUND:                -2.642
REMARK SMILES CCCCCCCCCCCCCC[C@H](C)C(=O)[O-]
REMARK SMILES IDX 9 1 10 2 11 3 12 4 13 5 14 6 15 7 16 8 17 9 18 10 19 11 8 12
REMARK SMILES IDX 7 13 6 14 5 15 4 16 3 17 2 18 1 19
REMARK H PARENT
REMARK Flexibility Score: inf
ROOT
ATOM      1  C   UNL     1      56.201  28.214  53.569  1.00  0.00     0.000 C 
ENDROOT
BRANCH   1   2
ATOM      2  C   UNL     1      57.512  28.068  52.780  1.00  0.00     0.000 C 
BRANCH   2   3
ATOM      3  C   UNL     1      57.413  28.643  51.356  1.00  0.00     0.000 C 
BRANCH   3   4
ATOM      4  C   UNL     1      58.288  27.877  50.350  1.00  0.00     0.000 C 
BRANCH   4   5
ATOM      5  C   UNL     1      58.831  26.559  50.931  1.00  0.00     0.001 C 
BRANCH   5   6
ATOM      6  C   UNL     1      59.740  25.792  49.950  1.00  0.00     0.009 C 
BRANCH   6   7
ATOM      7  C   UNL     1      60.157  24.385  50.445  1.00  0.00     0.032 C 
ATOM      8  C   UNL     1      59.598  24.117  51.847  1.00  0.00     0.014 C 
BRANCH   7   9
ATOM      9  C   UNL     1      61.651  24.211  50.467  1.00  0.00     0.044 C 
ATOM     10  O   UNL     1      62.416  25.208  50.362  1.00  0.00    -0.550 OA
ATOM     11  O   UNL     1      62.198  22.945  50.642  1.00  0.00    -0.550 OA
ENDBRANCH   7   9
ENDBRANCH   6   7
ENDBRANCH   5   6
ENDBRANCH   4   5
ENDBRANCH   3   4
ENDBRANCH   2   3
ENDBRANCH   1   2
BRANCH   1  12
ATOM     12  C   UNL     1      55.575  26.861  53.939  1.00  0.00     0.000 C 
BRANCH  12  13
ATOM     13  C   UNL     1      56.602  25.727  53.796  1.00  0.00    -0.000 C 
BRANCH  13  14
ATOM     14  C   UNL     1      56.096  24.575  52.911  1.00  0.00    -0.000 C 
BRANCH  14  15
ATOM     15  C   UNL     1      54.952  25.006  51.977  1.00  0.00    -0.000 C 
BRANCH  15  16
ATOM     16  C   UNL     1      55.412  25.182  50.521  1.00  0.00    -0.000 C 
BRANCH  16  17
ATOM     17  C   UNL     1      54.840  26.450  49.867  1.00  0.00    -0.000 C 
BRANCH  17  18
ATOM     18  C   UNL     1      53.785  27.102  50.769  1.00  0.00    -0.003 C 
ATOM     19  C   UNL     1      53.828  28.623  50.658  1.00  0.00     0.004 C 
ENDBRANCH  17  18
ENDBRANCH  16  17
ENDBRANCH  15  16
ENDBRANCH  14  15
ENDBRANCH  13  14
ENDBRANCH  12  13
ENDBRANCH   1  12
TORSDOF 14
ENDMDL
MODEL 8
REMARK VINA RESULT:    -2.968      2.650      5.906
REMARK INTER + INTRA:          -8.039
REMARK INTER:                  -5.113
REMARK INTRA:                  -2.926
REMARK UNBOUND:                -2.642
REMARK SMILES CCCCCCCCCCCCCC[C@H](C)C(=O)[O-]
REMARK SMILES IDX 9 1 10 2 11 3 12 4 13 5 14 6 15 7 16 8 17 9 18 10 19 11 8 12
REMARK SMILES IDX 7 13 6 14 5 15 4 16 3 17 2 18 1 19
REMARK H PARENT
REMARK Flexibility Score: inf
ROOT
ATOM      1  C   UNL     1      58.829  27.294  53.483  1.00  0.00     0.000 C 
ENDROOT
BRANCH   1   2
ATOM      2  C   UNL     1      57.407  26.911  53.041  1.00  0.00     0.000 C 
BRANCH   2   3
ATOM      3  C   UNL     1      57.224  25.390  52.890  1.00  0.00     0.000 C 
BRANCH   3   4
ATOM      4  C   UNL     1      57.120  24.954  51.419  1.00  0.00     0.000 C 
BRANCH   4   5
ATOM      5  C   UNL     1      56.670  26.101  50.498  1.00  0.00     0.001 C 
BRANCH   5   6
ATOM      6  C   UNL     1      55.232  25.929  49.972  1.00  0.00     0.009 C 
BRANCH   6   7
ATOM      7  C   UNL     1      54.218  26.937  50.566  1.00  0.00     0.032 C 
ATOM      8  C   UNL     1      54.859  28.321  50.723  1.00  0.00     0.014 C 
BRANCH   7   9
ATOM      9  C   UNL     1      53.685  26.486  51.899  1.00  0.00     0.044 C 
ATOM     10  O   UNL     1      53.182  25.338  52.035  1.00  0.00    -0.550 OA
ATOM     11  O   UNL     1      53.777  27.327  53.002  1.00  0.00    -0.550 OA
ENDBRANCH   7   9
ENDBRANCH   6   7
ENDBRANCH   5   6
ENDBRANCH   4   5
ENDBRANCH   3   4
ENDBRANCH   2   3
ENDBRANCH   1   2
BRANCH   1  12
ATOM     12  C   UNL     1      59.243  28.695  53.008  1.00  0.00     0.000 C 
BRANCH  12  13
ATOM     13  C   UNL     1      58.781  28.940  51.563  1.00  0.00    -0.000 C 
BRANCH  13  14
ATOM     14  C   UNL     1      59.940  28.898  50.553  1.00  0.00    -0.000 C 
BRANCH  14  15
ATOM     15  C   UNL     1      59.815  27.732  49.557  1.00  0.00    -0.000 C 
BRANCH  15  16
ATOM     16  C   UNL     1      60.963  26.718  49.686  1.00  0.00    -0.000 C 
BRANCH  16  17
ATOM     17  C   UNL     1      60.477  25.319  50.092  1.00  0.00    -0.000 C 
BRANCH  17  18
ATOM     18  C   UNL     1      60.874  24.999  51.538  1.00  0.00    -0.003 C 
ATOM     19  C   UNL     1      61.958  25.951  52.037  1.00  0.00     0.004 C 
ENDBRANCH  17  18
ENDBRANCH  16  17
ENDBRANCH  15  16
ENDBRANCH  14  15
ENDBRANCH  13  14
ENDBRANCH  12  13
ENDBRANCH   1  12
TORSDOF 14
ENDMDL
MODEL 9
REMARK VINA RESULT:    -2.959      2.842      6.588
REMARK INTER + INTRA:          -8.023
REMARK INTER:                  -5.636
REMARK INTRA:                  -2.387
REMARK UNBOUND:                -2.642
REMARK SMILES CCCCCCCCCCCCCC[C@H](C)C(=O)[O-]
REMARK SMILES IDX 9 1 10 2 11 3 12 4 13 5 14 6 15 7 16 8 17 9 18 10 19 11 8 12
REMARK SMILES IDX 7 13 6 14 5 15 4 16 3 17 2 18 1 19
REMARK H PARENT
REMARK Flexibility Score: inf
ROOT
ATOM      1  C   UNL     1      60.877  28.103  51.473  1.00  0.00     0.000 C 
ENDROOT
BRANCH   1   2
ATOM      2  C   UNL     1      60.492  28.594  50.069  1.00  0.00     0.000 C 
BRANCH   2   3
ATOM      3  C   UNL     1      58.970  28.608  49.843  1.00  0.00     0.000 C 
BRANCH   3   4
ATOM      4  C   UNL     1      58.181  28.367  51.141  1.00  0.00     0.000 C 
BRANCH   4   5
ATOM      5  C   UNL     1      56.668  28.241  50.893  1.00  0.00     0.001 C 
BRANCH   5   6
ATOM      6  C   UNL     1      56.236  26.819  50.484  1.00  0.00     0.009 C 
BRANCH   6   7
ATOM      7  C   UNL     1      54.832  26.414  50.998  1.00  0.00     0.032 C 
ATOM      8  C   UNL     1      54.792  24.919  51.339  1.00  0.00     0.014 C 
BRANCH   7   9
ATOM      9  C   UNL     1      53.751  26.721  49.998  1.00  0.00     0.044 C 
ATOM     10  O   UNL     1      53.267  27.881  49.911  1.00  0.00    -0.550 OA
ATOM     11  O   UNL     1      53.304  25.727  49.135  1.00  0.00    -0.550 OA
ENDBRANCH   7   9
ENDBRANCH   6   7
ENDBRANCH   5   6
ENDBRANCH   4   5
ENDBRANCH   3   4
ENDBRANCH   2   3
ENDBRANCH   1   2
BRANCH   1  12
ATOM     12  C   UNL     1      62.278  27.476  51.522  1.00  0.00     0.000 C 
BRANCH  12  13
ATOM     13  C   UNL     1      62.472  26.481  50.367  1.00  0.00    -0.000 C 
BRANCH  13  14
ATOM     14  C   UNL     1      62.791  25.058  50.856  1.00  0.00    -0.000 C 
BRANCH  14  15
ATOM     15  C   UNL     1      61.590  24.105  50.724  1.00  0.00    -0.000 C 
BRANCH  15  16
ATOM     16  C   UNL     1      60.400  24.751  49.995  1.00  0.00    -0.000 C 
BRANCH  16  17
ATOM     17  C   UNL     1      59.117  24.751  50.840  1.00  0.00    -0.000 C 
BRANCH  17  18
ATOM     18  C   UNL     1      59.418  24.362  52.293  1.00  0.00    -0.003 C 
ATOM     19  C   UNL     1      58.804  25.360  53.271  1.00  0.00     0.004 C 
ENDBRANCH  17  18
ENDBRANCH  16  17
ENDBRANCH  15  16
ENDBRANCH  14  15
ENDBRANCH  13  14
ENDBRANCH  12  13
ENDBRANCH   1  12
TORSDOF 14
ENDMDL
