MODEL 1
REMARK VINA RESULT:    -3.763      0.000      0.000
REMARK INTER + INTRA:          -3.994
REMARK INTER:                  -3.983
REMARK INTRA:                  -0.011
REMARK UNBOUND:                -0.011
REMARK SMILES O=Cc1ccccc1
REMARK SMILES IDX 6 1 5 2 4 3 3 4 8 5 7 6 2 7 1 8
REMARK H PARENT
REMARK Flexibility Score: inf
ROOT
ATOM      1  C   UNL     1     -19.032  44.038  33.159  1.00  0.00     0.000 A 
ATOM      2  C   UNL     1     -19.263  42.829  33.821  1.00  0.00     0.001 A 
ATOM      3  C   UNL     1     -18.687  41.647  33.344  1.00  0.00     0.011 A 
ATOM      4  C   UNL     1     -17.874  41.668  32.196  1.00  0.00     0.014 A 
ATOM      5  C   UNL     1     -17.647  42.888  31.538  1.00  0.00     0.011 A 
ATOM      6  C   UNL     1     -18.225  44.068  32.018  1.00  0.00     0.001 A 
ENDROOT
BRANCH   4   7
ATOM      7  C   UNL     1     -17.256  40.434  31.676  1.00  0.00     0.260 C 
ATOM      8  O   UNL     1     -17.868  39.333  31.720  1.00  0.00    -0.298 OA
ENDBRANCH   4   7
TORSDOF 1
ENDMDL
MODEL 2
REMARK VINA RESULT:    -3.756      2.895      3.608
REMARK INTER + INTRA:          -3.987
REMARK INTER:                  -3.974
REMARK INTRA:                  -0.013
REMARK UNBOUND:                -0.011
REMARK SMILES O=Cc1ccccc1
REMARK SMILES IDX 6 1 5 2 4 3 3 4 8 5 7 6 2 7 1 8
REMARK H PARENT
REMARK Flexibility Score: inf
ROOT
ATOM      1  C   UNL     1     -19.057  42.410  33.610  1.00  0.00     0.000 A 
ATOM      2  C   UNL     1     -19.032  43.772  33.300  1.00  0.00     0.001 A 
ATOM      3  C   UNL     1     -17.822  44.474  33.323  1.00  0.00     0.011 A 
ATOM      4  C   UNL     1     -16.626  43.815  33.658  1.00  0.00     0.014 A 
ATOM      5  C   UNL     1     -16.662  42.445  33.968  1.00  0.00     0.011 A 
ATOM      6  C   UNL     1     -17.873  41.747  33.945  1.00  0.00     0.001 A 
ENDROOT
BRANCH   4   7
ATOM      7  C   UNL     1     -15.340  44.535  33.687  1.00  0.00     0.260 C 
ATOM      8  O   UNL     1     -14.379  44.121  34.389  1.00  0.00    -0.298 OA
ENDBRANCH   4   7
TORSDOF 1
ENDMDL
MODEL 3
REMARK VINA RESULT:    -3.664      4.112      4.930
REMARK INTER + INTRA:          -3.889
REMARK INTER:                  -3.880
REMARK INTRA:                  -0.009
REMARK UNBOUND:                -0.011
REMARK SMILES O=Cc1ccccc1
REMARK SMILES IDX 6 1 5 2 4 3 3 4 8 5 7 6 2 7 1 8
REMARK H PARENT
REMARK Flexibility Score: inf
ROOT
ATOM      1  C   UNL     1     -13.667  44.869  34.004  1.00  0.00     0.000 A 
ATOM      2  C   UNL     1     -13.242  44.841  32.673  1.00  0.00     0.001 A 
ATOM      3  C   UNL     1     -14.170  44.647  31.645  1.00  0.00     0.011 A 
ATOM      4  C   UNL     1     -15.534  44.479  31.944  1.00  0.00     0.014 A 
ATOM      5  C   UNL     1     -15.951  44.509  33.285  1.00  0.00     0.011 A 
ATOM      6  C   UNL     1     -15.020  44.703  34.310  1.00  0.00     0.001 A 
ENDROOT
BRANCH   4   7
ATOM      7  C   UNL     1     -16.530  44.273  30.876  1.00  0.00     0.260 C 
ATOM      8  O   UNL     1     -17.270  45.216  30.487  1.00  0.00    -0.298 OA
ENDBRANCH   4   7
TORSDOF 1
ENDMDL
MODEL 4
REMARK VINA RESULT:    -3.661      3.533      4.517
REMARK INTER + INTRA:          -3.887
REMARK INTER:                  -3.874
REMARK INTRA:                  -0.013
REMARK UNBOUND:                -0.011
REMARK SMILES O=Cc1ccccc1
REMARK SMILES IDX 6 1 5 2 4 3 3 4 8 5 7 6 2 7 1 8
REMARK H PARENT
REMARK Flexibility Score: inf
ROOT
ATOM      1  C   UNL     1     -16.212  44.913  29.905  1.00  0.00     0.000 A 
ATOM      2  C   UNL     1     -14.889  44.772  30.332  1.00  0.00     0.001 A 
ATOM      3  C   UNL     1     -14.614  44.460  31.668  1.00  0.00     0.011 A 
ATOM      4  C   UNL     1     -15.664  44.288  32.587  1.00  0.00     0.014 A 
ATOM      5  C   UNL     1     -16.991  44.432  32.147  1.00  0.00     0.011 A 
ATOM      6  C   UNL     1     -17.262  44.744  30.811  1.00  0.00     0.001 A 
ENDROOT
BRANCH   4   7
ATOM      7  C   UNL     1     -15.397  43.959  33.999  1.00  0.00     0.260 C 
ATOM      8  O   UNL     1     -14.224  43.975  34.459  1.00  0.00    -0.298 OA
ENDBRANCH   4   7
TORSDOF 1
ENDMDL
MODEL 5
REMARK VINA RESULT:    -3.651      2.248      3.342
REMARK INTER + INTRA:          -3.876
REMARK INTER:                  -3.864
REMARK INTRA:                  -0.012
REMARK UNBOUND:                -0.011
REMARK SMILES O=Cc1ccccc1
REMARK SMILES IDX 6 1 5 2 4 3 3 4 8 5 7 6 2 7 1 8
REMARK H PARENT
REMARK Flexibility Score: inf
ROOT
ATOM      1  C   UNL     1     -18.597  41.530  33.079  1.00  0.00     0.000 A 
ATOM      2  C   UNL     1     -17.676  41.343  32.045  1.00  0.00     0.001 A 
ATOM      3  C   UNL     1     -17.207  42.442  31.318  1.00  0.00     0.011 A 
ATOM      4  C   UNL     1     -17.658  43.739  31.623  1.00  0.00     0.014 A 
ATOM      5  C   UNL     1     -18.583  43.916  32.665  1.00  0.00     0.011 A 
ATOM      6  C   UNL     1     -19.050  42.814  33.389  1.00  0.00     0.001 A 
ENDROOT
BRANCH   4   7
ATOM      7  C   UNL     1     -17.176  44.912  30.870  1.00  0.00     0.260 C 
ATOM      8  O   UNL     1     -16.835  44.813  29.661  1.00  0.00    -0.298 OA
ENDBRANCH   4   7
TORSDOF 1
ENDMDL
MODEL 6
REMARK VINA RESULT:    -3.640      4.021      4.643
REMARK INTER + INTRA:          -3.865
REMARK INTER:                  -3.854
REMARK INTRA:                  -0.011
REMARK UNBOUND:                -0.011
REMARK SMILES O=Cc1ccccc1
REMARK SMILES IDX 6 1 5 2 4 3 3 4 8 5 7 6 2 7 1 8
REMARK H PARENT
REMARK Flexibility Score: inf
ROOT
ATOM      1  C   UNL     1     -13.441  44.598  33.621  1.00  0.00     0.000 A 
ATOM      2  C   UNL     1     -14.665  44.503  34.288  1.00  0.00     0.001 A 
ATOM      3  C   UNL     1     -15.858  44.445  33.558  1.00  0.00     0.011 A 
ATOM      4  C   UNL     1     -15.831  44.480  32.152  1.00  0.00     0.014 A 
ATOM      5  C   UNL     1     -14.595  44.574  31.492  1.00  0.00     0.011 A 
ATOM      6  C   UNL     1     -13.405  44.633  32.225  1.00  0.00     0.001 A 
ENDROOT
BRANCH   4   7
ATOM      7  C   UNL     1     -17.076  44.419  31.363  1.00  0.00     0.260 C 
ATOM      8  O   UNL     1     -17.291  45.232  30.425  1.00  0.00    -0.298 OA
ENDBRANCH   4   7
TORSDOF 1
ENDMDL
MODEL 7
REMARK VINA RESULT:    -3.620      2.947      4.238
REMARK INTER + INTRA:          -3.842
REMARK INTER:                  -3.831
REMARK INTRA:                  -0.011
REMARK UNBOUND:                -0.011
REMARK SMILES O=Cc1ccccc1
REMARK SMILES IDX 6 1 5 2 4 3 3 4 8 5 7 6 2 7 1 8
REMARK H PARENT
REMARK Flexibility Score: inf
ROOT
ATOM      1  C   UNL     1     -14.741  44.725  30.484  1.00  0.00     0.000 A 
ATOM      2  C   UNL     1     -16.047  44.815  29.995  1.00  0.00     0.001 A 
ATOM      3  C   UNL     1     -17.132  44.695  30.869  1.00  0.00     0.011 A 
ATOM      4  C   UNL     1     -16.917  44.484  32.242  1.00  0.00     0.014 A 
ATOM      5  C   UNL     1     -15.601  44.395  32.724  1.00  0.00     0.011 A 
ATOM      6  C   UNL     1     -14.518  44.515  31.847  1.00  0.00     0.001 A 
ENDROOT
BRANCH   4   7
ATOM      7  C   UNL     1     -18.047  44.355  33.181  1.00  0.00     0.260 C 
ATOM      8  O   UNL     1     -19.083  43.711  32.867  1.00  0.00    -0.298 OA
ENDBRANCH   4   7
TORSDOF 1
ENDMDL
MODEL 8
REMARK VINA RESULT:    -3.574      3.741      4.286
REMARK INTER + INTRA:          -3.794
REMARK INTER:                  -3.783
REMARK INTRA:                  -0.011
REMARK UNBOUND:                -0.011
REMARK SMILES O=Cc1ccccc1
REMARK SMILES IDX 6 1 5 2 4 3 3 4 8 5 7 6 2 7 1 8
REMARK H PARENT
REMARK Flexibility Score: inf
ROOT
ATOM      1  C   UNL     1     -17.034  44.740  30.911  1.00  0.00     0.000 A 
ATOM      2  C   UNL     1     -17.543  44.534  32.196  1.00  0.00     0.001 A 
ATOM      3  C   UNL     1     -16.673  44.302  33.265  1.00  0.00     0.011 A 
ATOM      4  C   UNL     1     -15.282  44.274  33.055  1.00  0.00     0.014 A 
ATOM      5  C   UNL     1     -14.780  44.482  31.760  1.00  0.00     0.011 A 
ATOM      6  C   UNL     1     -15.654  44.714  30.692  1.00  0.00     0.001 A 
ENDROOT
BRANCH   4   7
ATOM      7  C   UNL     1     -14.346  44.031  34.169  1.00  0.00     0.260 C 
ATOM      8  O   UNL     1     -13.284  44.700  34.282  1.00  0.00    -0.298 OA
ENDBRANCH   4   7
TORSDOF 1
ENDMDL
MODEL 9
REMARK VINA RESULT:    -3.537      8.324      8.566
REMARK INTER + INTRA:          -3.755
REMARK INTER:                  -3.746
REMARK INTRA:                  -0.009
REMARK UNBOUND:                -0.011
REMARK SMILES O=Cc1ccccc1
REMARK SMILES IDX 6 1 5 2 4 3 3 4 8 5 7 6 2 7 1 8
REMARK H PARENT
REMARK Flexibility Score: inf
ROOT
ATOM      1  C   UNL     1     -26.637  41.481  28.751  1.00  0.00     0.000 A 
ATOM      2  C   UNL     1     -26.012  40.856  27.670  1.00  0.00     0.001 A 
ATOM      3  C   UNL     1     -25.330  39.648  27.857  1.00  0.00     0.011 A 
ATOM      4  C   UNL     1     -25.271  39.058  29.132  1.00  0.00     0.014 A 
ATOM      5  C   UNL     1     -25.903  39.695  30.213  1.00  0.00     0.011 A 
ATOM      6  C   UNL     1     -26.582  40.903  30.022  1.00  0.00     0.001 A 
ENDROOT
BRANCH   4   7
ATOM      7  C   UNL     1     -24.558  37.786  29.352  1.00  0.00     0.260 C 
ATOM      8  O   UNL     1     -23.507  37.741  30.044  1.00  0.00    -0.298 OA
ENDBRANCH   4   7
TORSDOF 1
ENDMDL
