MODEL 1
REMARK VINA RESULT:    -5.191      0.000      0.000
REMARK INTER + INTRA:          -5.875
REMARK INTER:                  -5.647
REMARK INTRA:                  -0.228
REMARK UNBOUND:                -0.228
REMARK SMILES O=C([O-])c1ccccc1O
REMARK SMILES IDX 4 1 9 2 5 3 8 4 6 5 7 6 2 7 1 8 3 9 10 10
REMARK H PARENT 10 11
REMARK Flexibility Score: inf
ROOT
ATOM      1  C   UNL     1     102.124  23.559 199.151  1.00  0.00     0.039 A 
ATOM      2  C   UNL     1     102.982  23.061 200.161  1.00  0.00     0.124 A 
ATOM      3  C   UNL     1     102.695  24.155 198.009  1.00  0.00     0.014 A 
ATOM      4  C   UNL     1     104.374  23.168 200.013  1.00  0.00     0.047 A 
ATOM      5  C   UNL     1     104.082  24.254 197.875  1.00  0.00     0.001 A 
ATOM      6  C   UNL     1     104.920  23.762 198.875  1.00  0.00     0.004 A 
ENDROOT
BRANCH   1   7
ATOM      7  C   UNL     1     100.646  23.470 199.260  1.00  0.00     0.075 C 
ATOM      8  O   UNL     1      99.969  22.831 198.412  1.00  0.00    -0.545 OA
ATOM      9  O   UNL     1      99.982  24.094 200.310  1.00  0.00    -0.545 OA
ENDBRANCH   1   7
BRANCH   2  10
ATOM     10  O   UNL     1     102.462  22.463 201.309  1.00  0.00    -0.507 OA
ATOM     11  H   UNL     1     102.265  22.998 202.147  1.00  0.00     0.293 HD
ENDBRANCH   2  10
TORSDOF 2
ENDMDL
MODEL 2
REMARK VINA RESULT:    -4.910      5.845      7.152
REMARK INTER + INTRA:          -5.568
REMARK INTER:                  -5.321
REMARK INTRA:                  -0.247
REMARK UNBOUND:                -0.228
REMARK SMILES O=C([O-])c1ccccc1O
REMARK SMILES IDX 4 1 9 2 5 3 8 4 6 5 7 6 2 7 1 8 3 9 10 10
REMARK H PARENT 10 11
REMARK Flexibility Score: inf
ROOT
ATOM      1  C   UNL     1     106.078  21.532 194.856  1.00  0.00     0.039 A 
ATOM      2  C   UNL     1     105.557  21.298 193.561  1.00  0.00     0.124 A 
ATOM      3  C   UNL     1     105.582  22.620 195.601  1.00  0.00     0.014 A 
ATOM      4  C   UNL     1     104.565  22.144 193.043  1.00  0.00     0.047 A 
ATOM      5  C   UNL     1     104.594  23.455 195.072  1.00  0.00     0.001 A 
ATOM      6  C   UNL     1     104.086  23.217 193.795  1.00  0.00     0.004 A 
ENDROOT
BRANCH   1   7
ATOM      7  C   UNL     1     107.128  20.665 195.450  1.00  0.00     0.075 C 
ATOM      8  O   UNL     1     108.209  20.445 194.843  1.00  0.00    -0.545 OA
ATOM      9  O   UNL     1     106.932  20.082 196.697  1.00  0.00    -0.545 OA
ENDBRANCH   1   7
BRANCH   2  10
ATOM     10  O   UNL     1     106.018  20.232 192.788  1.00  0.00    -0.507 OA
ATOM     11  H   UNL     1     105.863  19.269 193.061  1.00  0.00     0.293 HD
ENDBRANCH   2  10
TORSDOF 2
ENDMDL
MODEL 3
REMARK VINA RESULT:    -4.896      2.517      3.526
REMARK INTER + INTRA:          -5.553
REMARK INTER:                  -5.310
REMARK INTRA:                  -0.243
REMARK UNBOUND:                -0.228
REMARK SMILES O=C([O-])c1ccccc1O
REMARK SMILES IDX 4 1 9 2 5 3 8 4 6 5 7 6 2 7 1 8 3 9 10 10
REMARK H PARENT 10 11
REMARK Flexibility Score: inf
ROOT
ATOM      1  C   UNL     1     103.345  23.604 198.539  1.00  0.00     0.039 A 
ATOM      2  C   UNL     1     103.753  23.192 199.831  1.00  0.00     0.124 A 
ATOM      3  C   UNL     1     102.002  23.978 198.338  1.00  0.00     0.014 A 
ATOM      4  C   UNL     1     102.822  23.163 200.881  1.00  0.00     0.047 A 
ATOM      5  C   UNL     1     101.087  23.945 199.393  1.00  0.00     0.001 A 
ATOM      6  C   UNL     1     101.496  23.538 200.662  1.00  0.00     0.004 A 
ENDROOT
BRANCH   1   7
ATOM      7  C   UNL     1     104.291  23.652 197.394  1.00  0.00     0.075 C 
ATOM      8  O   UNL     1     105.350  24.331 197.455  1.00  0.00    -0.545 OA
ATOM      9  O   UNL     1     104.019  22.941 196.231  1.00  0.00    -0.545 OA
ENDBRANCH   1   7
BRANCH   2  10
ATOM     10  O   UNL     1     105.072  22.813 200.076  1.00  0.00    -0.507 OA
ATOM     11  H   UNL     1     105.762  23.472 200.416  1.00  0.00     0.293 HD
ENDBRANCH   2  10
TORSDOF 2
ENDMDL
MODEL 4
REMARK VINA RESULT:    -4.828      1.018      2.411
REMARK INTER + INTRA:          -5.480
REMARK INTER:                  -5.227
REMARK INTRA:                  -0.253
REMARK UNBOUND:                -0.228
REMARK SMILES O=C([O-])c1ccccc1O
REMARK SMILES IDX 4 1 9 2 5 3 8 4 6 5 7 6 2 7 1 8 3 9 10 10
REMARK H PARENT 10 11
REMARK Flexibility Score: inf
ROOT
ATOM      1  C   UNL     1     102.382  23.601 199.160  1.00  0.00     0.039 A 
ATOM      2  C   UNL     1     102.935  24.085 197.949  1.00  0.00     0.124 A 
ATOM      3  C   UNL     1     103.253  23.196 200.190  1.00  0.00     0.014 A 
ATOM      4  C   UNL     1     104.328  24.153 197.795  1.00  0.00     0.047 A 
ATOM      5  C   UNL     1     104.639  23.270 200.022  1.00  0.00     0.001 A 
ATOM      6  C   UNL     1     105.175  23.747 198.827  1.00  0.00     0.004 A 
ENDROOT
BRANCH   1   7
ATOM      7  C   UNL     1     100.915  23.509 199.373  1.00  0.00     0.075 C 
ATOM      8  O   UNL     1     100.375  24.004 200.398  1.00  0.00    -0.545 OA
ATOM      9  O   UNL     1     100.109  22.872 198.436  1.00  0.00    -0.545 OA
ENDBRANCH   1   7
BRANCH   2  10
ATOM     10  O   UNL     1     102.111  24.496 196.903  1.00  0.00    -0.507 OA
ATOM     11  H   UNL     1     101.543  23.839 196.380  1.00  0.00     0.293 HD
ENDBRANCH   2  10
TORSDOF 2
ENDMDL
MODEL 5
REMARK VINA RESULT:    -4.637      2.631      4.060
REMARK INTER + INTRA:          -5.272
REMARK INTER:                  -5.023
REMARK INTRA:                  -0.249
REMARK UNBOUND:                -0.228
REMARK SMILES O=C([O-])c1ccccc1O
REMARK SMILES IDX 4 1 9 2 5 3 8 4 6 5 7 6 2 7 1 8 3 9 10 10
REMARK H PARENT 10 11
REMARK Flexibility Score: inf
ROOT
ATOM      1  C   UNL     1     103.674  23.567 198.637  1.00  0.00     0.039 A 
ATOM      2  C   UNL     1     102.358  23.944 198.277  1.00  0.00     0.124 A 
ATOM      3  C   UNL     1     103.930  23.183 199.968  1.00  0.00     0.014 A 
ATOM      4  C   UNL     1     101.338  23.930 199.241  1.00  0.00     0.047 A 
ATOM      5  C   UNL     1     102.905  23.174 200.917  1.00  0.00     0.001 A 
ATOM      6  C   UNL     1     101.611  23.547 200.554  1.00  0.00     0.004 A 
ENDROOT
BRANCH   1   7
ATOM      7  C   UNL     1     104.788  23.565 197.655  1.00  0.00     0.075 C 
ATOM      8  O   UNL     1     105.037  24.580 196.952  1.00  0.00    -0.545 OA
ATOM      9  O   UNL     1     105.580  22.433 197.497  1.00  0.00    -0.545 OA
ENDBRANCH   1   7
BRANCH   2  10
ATOM     10  O   UNL     1     102.059  24.332 196.971  1.00  0.00    -0.507 OA
ATOM     11  H   UNL     1     101.128  24.226 196.583  1.00  0.00     0.293 HD
ENDBRANCH   2  10
TORSDOF 2
ENDMDL
MODEL 6
REMARK VINA RESULT:    -4.618      4.276      5.540
REMARK INTER + INTRA:          -5.251
REMARK INTER:                  -4.997
REMARK INTRA:                  -0.253
REMARK UNBOUND:                -0.228
REMARK SMILES O=C([O-])c1ccccc1O
REMARK SMILES IDX 4 1 9 2 5 3 8 4 6 5 7 6 2 7 1 8 3 9 10 10
REMARK H PARENT 10 11
REMARK Flexibility Score: inf
ROOT
ATOM      1  C   UNL     1     104.929  22.298 195.704  1.00  0.00     0.039 A 
ATOM      2  C   UNL     1     103.943  22.716 194.778  1.00  0.00     0.124 A 
ATOM      3  C   UNL     1     106.058  21.604 195.226  1.00  0.00     0.014 A 
ATOM      4  C   UNL     1     104.102  22.435 193.412  1.00  0.00     0.047 A 
ATOM      5  C   UNL     1     106.204  21.332 193.863  1.00  0.00     0.001 A 
ATOM      6  C   UNL     1     105.227  21.747 192.958  1.00  0.00     0.004 A 
ENDROOT
BRANCH   1   7
ATOM      7  C   UNL     1     104.807  22.570 197.159  1.00  0.00     0.075 C 
ATOM      8  O   UNL     1     105.757  23.089 197.804  1.00  0.00    -0.545 OA
ATOM      9  O   UNL     1     103.634  22.256 197.835  1.00  0.00    -0.545 OA
ENDBRANCH   1   7
BRANCH   2  10
ATOM     10  O   UNL     1     102.809  23.405 195.206  1.00  0.00    -0.507 OA
ATOM     11  H   UNL     1     102.871  24.191 195.844  1.00  0.00     0.293 HD
ENDBRANCH   2  10
TORSDOF 2
ENDMDL
MODEL 7
REMARK VINA RESULT:    -4.591      5.293      6.284
REMARK INTER + INTRA:          -5.222
REMARK INTER:                  -4.968
REMARK INTRA:                  -0.254
REMARK UNBOUND:                -0.228
REMARK SMILES O=C([O-])c1ccccc1O
REMARK SMILES IDX 4 1 9 2 5 3 8 4 6 5 7 6 2 7 1 8 3 9 10 10
REMARK H PARENT 10 11
REMARK Flexibility Score: inf
ROOT
ATOM      1  C   UNL     1     105.622  21.762 195.425  1.00  0.00     0.039 A 
ATOM      2  C   UNL     1     106.662  20.998 194.842  1.00  0.00     0.124 A 
ATOM      3  C   UNL     1     104.627  22.303 194.588  1.00  0.00     0.014 A 
ATOM      4  C   UNL     1     106.686  20.795 193.453  1.00  0.00     0.047 A 
ATOM      5  C   UNL     1     104.664  22.093 193.207  1.00  0.00     0.001 A 
ATOM      6  C   UNL     1     105.692  21.340 192.641  1.00  0.00     0.004 A 
ENDROOT
BRANCH   1   7
ATOM      7  C   UNL     1     105.550  22.005 196.888  1.00  0.00     0.075 C 
ATOM      8  O   UNL     1     105.274  23.146 197.344  1.00  0.00    -0.545 OA
ATOM      9  O   UNL     1     105.787  20.968 197.783  1.00  0.00    -0.545 OA
ENDBRANCH   1   7
BRANCH   2  10
ATOM     10  O   UNL     1     107.668  20.442 195.631  1.00  0.00    -0.507 OA
ATOM     11  H   UNL     1     107.809  20.727 196.594  1.00  0.00     0.293 HD
ENDBRANCH   2  10
TORSDOF 2
ENDMDL
MODEL 8
REMARK VINA RESULT:    -4.581      5.643      6.881
REMARK INTER + INTRA:          -5.211
REMARK INTER:                  -4.972
REMARK INTRA:                  -0.239
REMARK UNBOUND:                -0.228
REMARK SMILES O=C([O-])c1ccccc1O
REMARK SMILES IDX 4 1 9 2 5 3 8 4 6 5 7 6 2 7 1 8 3 9 10 10
REMARK H PARENT 10 11
REMARK Flexibility Score: inf
ROOT
ATOM      1  C   UNL     1     106.502  21.068 195.117  1.00  0.00     0.039 A 
ATOM      2  C   UNL     1     105.410  21.846 195.571  1.00  0.00     0.124 A 
ATOM      3  C   UNL     1     106.647  20.845 193.733  1.00  0.00     0.014 A 
ATOM      4  C   UNL     1     104.497  22.377 194.646  1.00  0.00     0.047 A 
ATOM      5  C   UNL     1     105.731  21.379 192.824  1.00  0.00     0.001 A 
ATOM      6  C   UNL     1     104.657  22.144 193.280  1.00  0.00     0.004 A 
ENDROOT
BRANCH   1   7
ATOM      7  C   UNL     1     107.496  20.485 196.054  1.00  0.00     0.075 C 
ATOM      8  O   UNL     1     108.707  20.370 195.728  1.00  0.00    -0.545 OA
ATOM      9  O   UNL     1     107.101  20.056 197.316  1.00  0.00    -0.545 OA
ENDBRANCH   1   7
BRANCH   2  10
ATOM     10  O   UNL     1     105.227  22.093 196.931  1.00  0.00    -0.507 OA
ATOM     11  H   UNL     1     104.624  21.512 197.503  1.00  0.00     0.293 HD
ENDBRANCH   2  10
TORSDOF 2
ENDMDL
MODEL 9
REMARK VINA RESULT:    -4.539      2.790      3.566
REMARK INTER + INTRA:          -5.165
REMARK INTER:                  -4.921
REMARK INTRA:                  -0.244
REMARK UNBOUND:                -0.228
REMARK SMILES O=C([O-])c1ccccc1O
REMARK SMILES IDX 4 1 9 2 5 3 8 4 6 5 7 6 2 7 1 8 3 9 10 10
REMARK H PARENT 10 11
REMARK Flexibility Score: inf
ROOT
ATOM      1  C   UNL     1     103.515  23.680 197.921  1.00  0.00     0.039 A 
ATOM      2  C   UNL     1     104.597  23.470 198.809  1.00  0.00     0.124 A 
ATOM      3  C   UNL     1     102.202  23.656 198.432  1.00  0.00     0.014 A 
ATOM      4  C   UNL     1     104.349  23.243 200.171  1.00  0.00     0.047 A 
ATOM      5  C   UNL     1     101.971  23.428 199.791  1.00  0.00     0.001 A 
ATOM      6  C   UNL     1     103.042  23.222 200.659  1.00  0.00     0.004 A 
ENDROOT
BRANCH   1   7
ATOM      7  C   UNL     1     103.723  23.926 196.471  1.00  0.00     0.075 C 
ATOM      8  O   UNL     1     104.460  24.865 196.070  1.00  0.00    -0.545 OA
ATOM      9  O   UNL     1     103.104  23.114 195.527  1.00  0.00    -0.545 OA
ENDBRANCH   1   7
BRANCH   2  10
ATOM     10  O   UNL     1     105.913  23.486 198.347  1.00  0.00    -0.507 OA
ATOM     11  H   UNL     1     106.576  24.189 198.650  1.00  0.00     0.293 HD
ENDBRANCH   2  10
TORSDOF 2
ENDMDL
