MODEL 1
REMARK VINA RESULT:    -2.807      0.000      0.000
REMARK INTER + INTRA:          -3.183
REMARK INTER:                  -3.135
REMARK INTRA:                  -0.049
REMARK UNBOUND:                -0.049
REMARK SMILES CCCC(=O)[O-]
REMARK SMILES IDX 3 1 4 2 5 3 6 4 2 5 1 6
REMARK H PARENT
REMARK Flexibility Score: inf
ROOT
ATOM      1  C   UNL     1      25.981  -3.314  52.477  1.00  0.00     0.052 C 
ENDROOT
BRANCH   1   2
ATOM      2  C   UNL     1      26.166  -4.581  51.698  1.00  0.00     0.041 C 
ATOM      3  O   UNL     1      25.431  -4.827  50.706  1.00  0.00    -0.550 OA
ATOM      4  O   UNL     1      27.171  -5.473  52.048  1.00  0.00    -0.550 OA
ENDBRANCH   1   2
BRANCH   1   5
ATOM      5  C   UNL     1      24.699  -3.345  53.317  1.00  0.00     0.003 C 
ATOM      6  C   UNL     1      24.905  -4.029  54.669  1.00  0.00     0.004 C 
ENDBRANCH   1   5
TORSDOF 2
ENDMDL
MODEL 2
REMARK VINA RESULT:    -2.713      1.801      2.348
REMARK INTER + INTRA:          -3.079
REMARK INTER:                  -3.041
REMARK INTRA:                  -0.038
REMARK UNBOUND:                -0.049
REMARK SMILES CCCC(=O)[O-]
REMARK SMILES IDX 3 1 4 2 5 3 6 4 2 5 1 6
REMARK H PARENT
REMARK Flexibility Score: inf
ROOT
ATOM      1  C   UNL     1      26.471  -5.121  51.686  1.00  0.00     0.052 C 
ENDROOT
BRANCH   1   2
ATOM      2  C   UNL     1      27.833  -5.486  52.191  1.00  0.00     0.041 C 
ATOM      3  O   UNL     1      28.038  -5.612  53.427  1.00  0.00    -0.550 OA
ATOM      4  O   UNL     1      28.867  -5.721  51.294  1.00  0.00    -0.550 OA
ENDBRANCH   1   2
BRANCH   1   5
ATOM      5  C   UNL     1      26.131  -3.654  51.977  1.00  0.00     0.003 C 
ATOM      6  C   UNL     1      25.078  -3.508  53.075  1.00  0.00     0.004 C 
ENDBRANCH   1   5
TORSDOF 2
ENDMDL
MODEL 3
REMARK VINA RESULT:    -2.696      1.788      2.240
REMARK INTER + INTRA:          -3.059
REMARK INTER:                  -3.022
REMARK INTRA:                  -0.037
REMARK UNBOUND:                -0.049
REMARK SMILES CCCC(=O)[O-]
REMARK SMILES IDX 3 1 4 2 5 3 6 4 2 5 1 6
REMARK H PARENT
REMARK Flexibility Score: inf
ROOT
ATOM      1  C   UNL     1      26.469  -5.118  51.697  1.00  0.00     0.052 C 
ENDROOT
BRANCH   1   2
ATOM      2  C   UNL     1      27.837  -5.492  52.177  1.00  0.00     0.041 C 
ATOM      3  O   UNL     1      28.769  -5.678  51.352  1.00  0.00    -0.550 OA
ATOM      4  O   UNL     1      28.091  -5.602  53.538  1.00  0.00    -0.550 OA
ENDBRANCH   1   2
BRANCH   1   5
ATOM      5  C   UNL     1      26.146  -3.647  51.989  1.00  0.00     0.003 C 
ATOM      6  C   UNL     1      25.097  -3.490  53.090  1.00  0.00     0.004 C 
ENDBRANCH   1   5
TORSDOF 2
ENDMDL
MODEL 4
REMARK VINA RESULT:    -2.694     16.584     17.476
REMARK INTER + INTRA:          -3.058
REMARK INTER:                  -3.053
REMARK INTRA:                  -0.005
REMARK UNBOUND:                -0.049
REMARK SMILES CCCC(=O)[O-]
REMARK SMILES IDX 3 1 4 2 5 3 6 4 2 5 1 6
REMARK H PARENT
REMARK Flexibility Score: inf
ROOT
ATOM      1  C   UNL     1      16.477   4.762  64.061  1.00  0.00     0.052 C 
ENDROOT
BRANCH   1   2
ATOM      2  C   UNL     1      15.873   3.430  63.736  1.00  0.00     0.041 C 
ATOM      3  O   UNL     1      16.549   2.560  63.127  1.00  0.00    -0.550 OA
ATOM      4  O   UNL     1      14.575   3.139  64.134  1.00  0.00    -0.550 OA
ENDBRANCH   1   2
BRANCH   1   5
ATOM      5  C   UNL     1      17.063   4.790  65.478  1.00  0.00     0.003 C 
ATOM      6  C   UNL     1      17.377   6.210  65.949  1.00  0.00     0.004 C 
ENDBRANCH   1   5
TORSDOF 2
ENDMDL
MODEL 5
REMARK VINA RESULT:    -2.676      2.161      3.304
REMARK INTER + INTRA:          -3.037
REMARK INTER:                  -2.999
REMARK INTRA:                  -0.038
REMARK UNBOUND:                -0.049
REMARK SMILES CCCC(=O)[O-]
REMARK SMILES IDX 3 1 4 2 5 3 6 4 2 5 1 6
REMARK H PARENT
REMARK Flexibility Score: inf
ROOT
ATOM      1  C   UNL     1      26.579  -5.227  51.712  1.00  0.00     0.052 C 
ENDROOT
BRANCH   1   2
ATOM      2  C   UNL     1      26.156  -3.800  51.886  1.00  0.00     0.041 C 
ATOM      3  O   UNL     1      26.651  -2.900  51.158  1.00  0.00    -0.550 OA
ATOM      4  O   UNL     1      25.192  -3.471  52.829  1.00  0.00    -0.550 OA
ENDBRANCH   1   2
BRANCH   1   5
ATOM      5  C   UNL     1      27.914  -5.514  52.411  1.00  0.00     0.003 C 
ATOM      6  C   UNL     1      29.078  -5.610  51.424  1.00  0.00     0.004 C 
ENDBRANCH   1   5
TORSDOF 2
ENDMDL
MODEL 6
REMARK VINA RESULT:    -2.606      2.699      3.291
REMARK INTER + INTRA:          -2.960
REMARK INTER:                  -2.904
REMARK INTRA:                  -0.055
REMARK UNBOUND:                -0.049
REMARK SMILES CCCC(=O)[O-]
REMARK SMILES IDX 3 1 4 2 5 3 6 4 2 5 1 6
REMARK H PARENT
REMARK Flexibility Score: inf
ROOT
ATOM      1  C   UNL     1      27.812  -5.509  52.504  1.00  0.00     0.052 C 
ENDROOT
BRANCH   1   2
ATOM      2  C   UNL     1      29.082  -5.156  51.793  1.00  0.00     0.041 C 
ATOM      3  O   UNL     1      29.500  -5.875  50.848  1.00  0.00    -0.550 OA
ATOM      4  O   UNL     1      29.787  -4.014  52.152  1.00  0.00    -0.550 OA
ENDBRANCH   1   2
BRANCH   1   5
ATOM      5  C   UNL     1      26.576  -5.173  51.660  1.00  0.00     0.003 C 
ATOM      6  C   UNL     1      26.319  -3.669  51.577  1.00  0.00     0.004 C 
ENDBRANCH   1   5
TORSDOF 2
ENDMDL
MODEL 7
REMARK VINA RESULT:    -2.548      2.246      3.148
REMARK INTER + INTRA:          -2.894
REMARK INTER:                  -2.864
REMARK INTRA:                  -0.030
REMARK UNBOUND:                -0.049
REMARK SMILES CCCC(=O)[O-]
REMARK SMILES IDX 3 1 4 2 5 3 6 4 2 5 1 6
REMARK H PARENT
REMARK Flexibility Score: inf
ROOT
ATOM      1  C   UNL     1      25.023  -3.426  53.168  1.00  0.00     0.052 C 
ENDROOT
BRANCH   1   2
ATOM      2  C   UNL     1      25.253  -4.207  54.426  1.00  0.00     0.041 C 
ATOM      3  O   UNL     1      24.530  -4.007  55.437  1.00  0.00    -0.550 OA
ATOM      4  O   UNL     1      26.244  -5.179  54.470  1.00  0.00    -0.550 OA
ENDBRANCH   1   2
BRANCH   1   5
ATOM      5  C   UNL     1      25.822  -3.996  51.990  1.00  0.00     0.003 C 
ATOM      6  C   UNL     1      26.747  -2.956  51.357  1.00  0.00     0.004 C 
ENDBRANCH   1   5
TORSDOF 2
ENDMDL
MODEL 8
REMARK VINA RESULT:    -2.467      1.934      2.254
REMARK INTER + INTRA:          -2.804
REMARK INTER:                  -2.767
REMARK INTRA:                  -0.036
REMARK UNBOUND:                -0.049
REMARK SMILES CCCC(=O)[O-]
REMARK SMILES IDX 3 1 4 2 5 3 6 4 2 5 1 6
REMARK H PARENT
REMARK Flexibility Score: inf
ROOT
ATOM      1  C   UNL     1      25.963  -3.976  51.918  1.00  0.00     0.052 C 
ENDROOT
BRANCH   1   2
ATOM      2  C   UNL     1      27.011  -2.935  51.670  1.00  0.00     0.041 C 
ATOM      3  O   UNL     1      28.177  -3.276  51.338  1.00  0.00    -0.550 OA
ATOM      4  O   UNL     1      26.692  -1.587  51.775  1.00  0.00    -0.550 OA
ENDBRANCH   1   2
BRANCH   1   5
ATOM      5  C   UNL     1      25.008  -3.565  53.045  1.00  0.00     0.003 C 
ATOM      6  C   UNL     1      25.424  -4.141  54.398  1.00  0.00     0.004 C 
ENDBRANCH   1   5
TORSDOF 2
ENDMDL
MODEL 9
REMARK VINA RESULT:    -2.407     17.876     18.213
REMARK INTER + INTRA:          -2.737
REMARK INTER:                  -2.722
REMARK INTRA:                  -0.015
REMARK UNBOUND:                -0.049
REMARK SMILES CCCC(=O)[O-]
REMARK SMILES IDX 3 1 4 2 5 3 6 4 2 5 1 6
REMARK H PARENT
REMARK Flexibility Score: inf
ROOT
ATOM      1  C   UNL     1      17.076   4.543  64.581  1.00  0.00     0.052 C 
ENDROOT
BRANCH   1   2
ATOM      2  C   UNL     1      17.105   5.888  65.239  1.00  0.00     0.041 C 
ATOM      3  O   UNL     1      17.581   6.016  66.398  1.00  0.00    -0.550 OA
ATOM      4  O   UNL     1      16.638   7.005  64.560  1.00  0.00    -0.550 OA
ENDBRANCH   1   2
BRANCH   1   5
ATOM      5  C   UNL     1      15.928   4.429  63.570  1.00  0.00     0.003 C 
ATOM      6  C   UNL     1      14.986   3.267  63.888  1.00  0.00     0.004 C 
ENDBRANCH   1   5
TORSDOF 2
ENDMDL
