MODEL 1
REMARK VINA RESULT:    -5.090      0.000      0.000
REMARK INTER + INTRA:         -10.579
REMARK INTER:                  -9.256
REMARK INTRA:                  -1.322
REMARK UNBOUND:                -1.322
REMARK SMILES CCCCCCCCCCCCCC[C@H](C)C(=O)[O-]
REMARK SMILES IDX 9 1 10 2 11 3 12 4 13 5 14 6 15 7 16 8 17 9 18 10 19 11 8 12
REMARK SMILES IDX 7 13 6 14 5 15 4 16 3 17 2 18 1 19
REMARK H PARENT
REMARK Flexibility Score: inf
ROOT
ATOM      1  C   UNL     1      40.806 117.698  11.173  1.00  0.00     0.000 C 
ENDROOT
BRANCH   1   2
ATOM      2  C   UNL     1      41.238 116.725  12.286  1.00  0.00     0.000 C 
BRANCH   2   3
ATOM      3  C   UNL     1      40.465 116.944  13.597  1.00  0.00     0.000 C 
BRANCH   3   4
ATOM      4  C   UNL     1      39.041 117.478  13.359  1.00  0.00     0.000 C 
BRANCH   4   5
ATOM      5  C   UNL     1      38.750 118.758  14.160  1.00  0.00     0.001 C 
BRANCH   5   6
ATOM      6  C   UNL     1      38.206 119.899  13.280  1.00  0.00     0.009 C 
BRANCH   6   7
ATOM      7  C   UNL     1      36.815 120.377  13.745  1.00  0.00     0.032 C 
ATOM      8  C   UNL     1      36.880 120.910  15.179  1.00  0.00     0.014 C 
BRANCH   7   9
ATOM      9  C   UNL     1      35.801 119.267  13.661  1.00  0.00     0.044 C 
ATOM     10  O   UNL     1      35.387 118.874  12.538  1.00  0.00    -0.550 OA
ATOM     11  O   UNL     1      35.316 118.669  14.817  1.00  0.00    -0.550 OA
ENDBRANCH   7   9
ENDBRANCH   6   7
ENDBRANCH   5   6
ENDBRANCH   4   5
ENDBRANCH   3   4
ENDBRANCH   2   3
ENDBRANCH   1   2
BRANCH   1  12
ATOM     12  C   UNL     1      41.860 117.826  10.062  1.00  0.00     0.000 C 
BRANCH  12  13
ATOM     13  C   UNL     1      42.958 116.753  10.163  1.00  0.00    -0.000 C 
BRANCH  13  14
ATOM     14  C   UNL     1      43.383 116.212   8.780  1.00  0.00    -0.000 C 
BRANCH  14  15
ATOM     15  C   UNL     1      44.193 114.903   8.847  1.00  0.00    -0.000 C 
BRANCH  15  16
ATOM     16  C   UNL     1      45.134 114.780  10.061  1.00  0.00    -0.000 C 
BRANCH  16  17
ATOM     17  C   UNL     1      44.983 113.479  10.869  1.00  0.00    -0.000 C 
BRANCH  17  18
ATOM     18  C   UNL     1      43.661 113.409  11.647  1.00  0.00    -0.003 C 
ATOM     19  C   UNL     1      43.793 114.068  13.017  1.00  0.00     0.004 C 
ENDBRANCH  17  18
ENDBRANCH  16  17
ENDBRANCH  15  16
ENDBRANCH  14  15
ENDBRANCH  13  14
ENDBRANCH  12  13
ENDBRANCH   1  12
TORSDOF 14
ENDMDL
MODEL 2
REMARK VINA RESULT:    -5.064      3.621      8.336
REMARK INTER + INTRA:         -10.531
REMARK INTER:                  -8.988
REMARK INTRA:                  -1.543
REMARK UNBOUND:                -1.322
REMARK SMILES CCCCCCCCCCCCCC[C@H](C)C(=O)[O-]
REMARK SMILES IDX 9 1 10 2 11 3 12 4 13 5 14 6 15 7 16 8 17 9 18 10 19 11 8 12
REMARK SMILES IDX 7 13 6 14 5 15 4 16 3 17 2 18 1 19
REMARK H PARENT
REMARK Flexibility Score: inf
ROOT
ATOM      1  C   UNL     1      39.563 116.910  14.232  1.00  0.00     0.000 C 
ENDROOT
BRANCH   1   2
ATOM      2  C   UNL     1      39.781 118.433  14.170  1.00  0.00     0.000 C 
BRANCH   2   3
ATOM      3  C   UNL     1      39.999 118.943  12.736  1.00  0.00     0.000 C 
BRANCH   3   4
ATOM      4  C   UNL     1      40.005 117.804  11.701  1.00  0.00     0.000 C 
BRANCH   4   5
ATOM      5  C   UNL     1      41.205 117.886  10.743  1.00  0.00     0.001 C 
BRANCH   5   6
ATOM      6  C   UNL     1      42.270 116.811  11.031  1.00  0.00     0.009 C 
BRANCH   6   7
ATOM      7  C   UNL     1      43.391 116.806   9.971  1.00  0.00     0.032 C 
ATOM      8  C   UNL     1      42.798 116.836   8.560  1.00  0.00     0.014 C 
BRANCH   7   9
ATOM      9  C   UNL     1      44.281 115.601  10.123  1.00  0.00     0.044 C 
ATOM     10  O   UNL     1      45.519 115.701   9.917  1.00  0.00    -0.550 OA
ATOM     11  O   UNL     1      43.745 114.373  10.491  1.00  0.00    -0.550 OA
ENDBRANCH   7   9
ENDBRANCH   6   7
ENDBRANCH   5   6
ENDBRANCH   4   5
ENDBRANCH   3   4
ENDBRANCH   2   3
ENDBRANCH   1   2
BRANCH   1  12
ATOM     12  C   UNL     1      38.664 116.491  15.406  1.00  0.00     0.000 C 
BRANCH  12  13
ATOM     13  C   UNL     1      37.180 116.402  15.009  1.00  0.00    -0.000 C 
BRANCH  13  14
ATOM     14  C   UNL     1      36.926 116.882  13.563  1.00  0.00    -0.000 C 
BRANCH  14  15
ATOM     15  C   UNL     1      36.133 118.200  13.478  1.00  0.00    -0.000 C 
BRANCH  15  16
ATOM     16  C   UNL     1      35.513 118.676  14.805  1.00  0.00    -0.000 C 
BRANCH  16  17
ATOM     17  C   UNL     1      36.237 119.860  15.472  1.00  0.00    -0.000 C 
BRANCH  17  18
ATOM     18  C   UNL     1      36.946 120.772  14.461  1.00  0.00    -0.003 C 
ATOM     19  C   UNL     1      37.085 122.191  15.003  1.00  0.00     0.004 C 
ENDBRANCH  17  18
ENDBRANCH  16  17
ENDBRANCH  15  16
ENDBRANCH  14  15
ENDBRANCH  13  14
ENDBRANCH  12  13
ENDBRANCH   1  12
TORSDOF 14
ENDMDL
MODEL 3
REMARK VINA RESULT:    -5.021      4.286      9.088
REMARK INTER + INTRA:         -10.453
REMARK INTER:                  -9.458
REMARK INTRA:                  -0.996
REMARK UNBOUND:                -1.322
REMARK SMILES CCCCCCCCCCCCCC[C@H](C)C(=O)[O-]
REMARK SMILES IDX 9 1 10 2 11 3 12 4 13 5 14 6 15 7 16 8 17 9 18 10 19 11 8 12
REMARK SMILES IDX 7 13 6 14 5 15 4 16 3 17 2 18 1 19
REMARK H PARENT
REMARK Flexibility Score: inf
ROOT
ATOM      1  C   UNL     1      40.347 118.254  12.095  1.00  0.00     0.000 C 
ENDROOT
BRANCH   1   2
ATOM      2  C   UNL     1      41.352 117.266  11.475  1.00  0.00     0.000 C 
BRANCH   2   3
ATOM      3  C   UNL     1      42.117 117.867  10.285  1.00  0.00     0.000 C 
BRANCH   3   4
ATOM      4  C   UNL     1      41.997 117.009   9.013  1.00  0.00     0.000 C 
BRANCH   4   5
ATOM      5  C   UNL     1      43.363 116.685   8.390  1.00  0.00     0.001 C 
BRANCH   5   6
ATOM      6  C   UNL     1      44.314 115.976   9.374  1.00  0.00     0.009 C 
BRANCH   6   7
ATOM      7  C   UNL     1      44.053 114.457   9.440  1.00  0.00     0.032 C 
ATOM      8  C   UNL     1      43.780 114.019  10.881  1.00  0.00     0.014 C 
BRANCH   7   9
ATOM      9  C   UNL     1      45.216 113.679   8.884  1.00  0.00     0.044 C 
ATOM     10  O   UNL     1      45.911 112.955   9.644  1.00  0.00    -0.550 OA
ATOM     11  O   UNL     1      45.529 113.753   7.533  1.00  0.00    -0.550 OA
ENDBRANCH   7   9
ENDBRANCH   6   7
ENDBRANCH   5   6
ENDBRANCH   4   5
ENDBRANCH   3   4
ENDBRANCH   2   3
ENDBRANCH   1   2
BRANCH   1  12
ATOM     12  C   UNL     1      39.296 117.554  12.971  1.00  0.00     0.000 C 
BRANCH  12  13
ATOM     13  C   UNL     1      37.983 117.286  12.216  1.00  0.00    -0.000 C 
BRANCH  13  14
ATOM     14  C   UNL     1      36.742 117.423  13.125  1.00  0.00    -0.000 C 
BRANCH  14  15
ATOM     15  C   UNL     1      35.978 118.748  12.936  1.00  0.00    -0.000 C 
BRANCH  15  16
ATOM     16  C   UNL     1      36.035 119.710  14.138  1.00  0.00    -0.000 C 
BRANCH  16  17
ATOM     17  C   UNL     1      37.267 120.633  14.172  1.00  0.00    -0.000 C 
BRANCH  17  18
ATOM     18  C   UNL     1      37.048 121.890  15.026  1.00  0.00    -0.003 C 
ATOM     19  C   UNL     1      36.545 121.528  16.420  1.00  0.00     0.004 C 
ENDBRANCH  17  18
ENDBRANCH  16  17
ENDBRANCH  15  16
ENDBRANCH  14  15
ENDBRANCH  13  14
ENDBRANCH  12  13
ENDBRANCH   1  12
TORSDOF 14
ENDMDL
MODEL 4
REMARK VINA RESULT:    -4.924      3.951      8.789
REMARK INTER + INTRA:         -10.276
REMARK INTER:                  -8.882
REMARK INTRA:                  -1.394
REMARK UNBOUND:                -1.322
REMARK SMILES CCCCCCCCCCCCCC[C@H](C)C(=O)[O-]
REMARK SMILES IDX 9 1 10 2 11 3 12 4 13 5 14 6 15 7 16 8 17 9 18 10 19 11 8 12
REMARK SMILES IDX 7 13 6 14 5 15 4 16 3 17 2 18 1 19
REMARK H PARENT
REMARK Flexibility Score: inf
ROOT
ATOM      1  C   UNL     1      39.992 118.757  12.637  1.00  0.00     0.000 C 
ENDROOT
BRANCH   1   2
ATOM      2  C   UNL     1      40.095 117.511  11.740  1.00  0.00     0.000 C 
BRANCH   2   3
ATOM      3  C   UNL     1      41.549 117.065  11.508  1.00  0.00     0.000 C 
BRANCH   3   4
ATOM      4  C   UNL     1      42.092 117.518  10.141  1.00  0.00     0.000 C 
BRANCH   4   5
ATOM      5  C   UNL     1      43.477 116.926   9.833  1.00  0.00     0.001 C 
BRANCH   5   6
ATOM      6  C   UNL     1      43.530 115.400  10.036  1.00  0.00     0.009 C 
BRANCH   6   7
ATOM      7  C   UNL     1      44.900 114.810   9.642  1.00  0.00     0.032 C 
ATOM      8  C   UNL     1      44.909 114.410   8.164  1.00  0.00     0.014 C 
BRANCH   7   9
ATOM      9  C   UNL     1      45.245 113.617  10.493  1.00  0.00     0.044 C 
ATOM     10  O   UNL     1      45.831 112.625   9.983  1.00  0.00    -0.550 OA
ATOM     11  O   UNL     1      44.923 113.600  11.844  1.00  0.00    -0.550 OA
ENDBRANCH   7   9
ENDBRANCH   6   7
ENDBRANCH   5   6
ENDBRANCH   4   5
ENDBRANCH   3   4
ENDBRANCH   2   3
ENDBRANCH   1   2
BRANCH   1  12
ATOM     12  C   UNL     1      40.039 118.411  14.134  1.00  0.00     0.000 C 
BRANCH  12  13
ATOM     13  C   UNL     1      39.333 117.082  14.454  1.00  0.00    -0.000 C 
BRANCH  13  14
ATOM     14  C   UNL     1      37.928 117.292  15.060  1.00  0.00    -0.000 C 
BRANCH  14  15
ATOM     15  C   UNL     1      36.796 117.292  14.015  1.00  0.00    -0.000 C 
BRANCH  15  16
ATOM     16  C   UNL     1      35.841 118.498  14.089  1.00  0.00    -0.000 C 
BRANCH  16  17
ATOM     17  C   UNL     1      36.266 119.714  13.245  1.00  0.00    -0.000 C 
BRANCH  17  18
ATOM     18  C   UNL     1      37.166 120.691  14.016  1.00  0.00    -0.003 C 
ATOM     19  C   UNL     1      36.641 120.924  15.429  1.00  0.00     0.004 C 
ENDBRANCH  17  18
ENDBRANCH  16  17
ENDBRANCH  15  16
ENDBRANCH  14  15
ENDBRANCH  13  14
ENDBRANCH  12  13
ENDBRANCH   1  12
TORSDOF 14
ENDMDL
MODEL 5
REMARK VINA RESULT:    -4.868      3.792      8.571
REMARK INTER + INTRA:         -10.174
REMARK INTER:                  -8.688
REMARK INTRA:                  -1.487
REMARK UNBOUND:                -1.322
REMARK SMILES CCCCCCCCCCCCCC[C@H](C)C(=O)[O-]
REMARK SMILES IDX 9 1 10 2 11 3 12 4 13 5 14 6 15 7 16 8 17 9 18 10 19 11 8 12
REMARK SMILES IDX 7 13 6 14 5 15 4 16 3 17 2 18 1 19
REMARK H PARENT
REMARK Flexibility Score: inf
ROOT
ATOM      1  C   UNL     1      40.170 117.992  14.340  1.00  0.00     0.000 C 
ENDROOT
BRANCH   1   2
ATOM      2  C   UNL     1      39.528 118.365  12.992  1.00  0.00     0.000 C 
BRANCH   2   3
ATOM      3  C   UNL     1      39.941 117.416  11.854  1.00  0.00     0.000 C 
BRANCH   3   4
ATOM      4  C   UNL     1      41.163 117.930  11.073  1.00  0.00     0.000 C 
BRANCH   4   5
ATOM      5  C   UNL     1      42.275 116.875  10.958  1.00  0.00     0.001 C 
BRANCH   5   6
ATOM      6  C   UNL     1      43.180 117.095   9.731  1.00  0.00     0.009 C 
BRANCH   6   7
ATOM      7  C   UNL     1      44.360 116.103   9.695  1.00  0.00     0.032 C 
ATOM      8  C   UNL     1      43.862 114.683   9.410  1.00  0.00     0.014 C 
BRANCH   7   9
ATOM      9  C   UNL     1      45.127 116.121  10.990  1.00  0.00     0.044 C 
ATOM     10  O   UNL     1      45.272 115.060  11.653  1.00  0.00    -0.550 OA
ATOM     11  O   UNL     1      45.681 117.304  11.463  1.00  0.00    -0.550 OA
ENDBRANCH   7   9
ENDBRANCH   6   7
ENDBRANCH   5   6
ENDBRANCH   4   5
ENDBRANCH   3   4
ENDBRANCH   2   3
ENDBRANCH   1   2
BRANCH   1  12
ATOM     12  C   UNL     1      39.126 117.691  15.427  1.00  0.00     0.000 C 
BRANCH  12  13
ATOM     13  C   UNL     1      38.421 116.341  15.211  1.00  0.00    -0.000 C 
BRANCH  13  14
ATOM     14  C   UNL     1      36.887 116.449  15.344  1.00  0.00    -0.000 C 
BRANCH  14  15
ATOM     15  C   UNL     1      36.418 117.687  16.133  1.00  0.00    -0.000 C 
BRANCH  15  16
ATOM     16  C   UNL     1      35.500 118.648  15.354  1.00  0.00    -0.000 C 
BRANCH  16  17
ATOM     17  C   UNL     1      36.222 119.821  14.668  1.00  0.00    -0.000 C 
BRANCH  17  18
ATOM     18  C   UNL     1      36.185 119.732  13.136  1.00  0.00    -0.003 C 
ATOM     19  C   UNL     1      35.416 118.498  12.675  1.00  0.00     0.004 C 
ENDBRANCH  17  18
ENDBRANCH  16  17
ENDBRANCH  15  16
ENDBRANCH  14  15
ENDBRANCH  13  14
ENDBRANCH  12  13
ENDBRANCH   1  12
TORSDOF 14
ENDMDL
MODEL 6
REMARK VINA RESULT:    -4.860      1.434      2.368
REMARK INTER + INTRA:         -10.160
REMARK INTER:                  -9.086
REMARK INTRA:                  -1.074
REMARK UNBOUND:                -1.322
REMARK SMILES CCCCCCCCCCCCCC[C@H](C)C(=O)[O-]
REMARK SMILES IDX 9 1 10 2 11 3 12 4 13 5 14 6 15 7 16 8 17 9 18 10 19 11 8 12
REMARK SMILES IDX 7 13 6 14 5 15 4 16 3 17 2 18 1 19
REMARK H PARENT
REMARK Flexibility Score: inf
ROOT
ATOM      1  C   UNL     1      41.267 116.478  12.538  1.00  0.00     0.000 C 
ENDROOT
BRANCH   1   2
ATOM      2  C   UNL     1      40.727 116.381  13.977  1.00  0.00     0.000 C 
BRANCH   2   3
ATOM      3  C   UNL     1      39.588 117.377  14.251  1.00  0.00     0.000 C 
BRANCH   3   4
ATOM      4  C   UNL     1      38.418 116.736  15.017  1.00  0.00     0.000 C 
BRANCH   4   5
ATOM      5  C   UNL     1      37.056 117.039  14.372  1.00  0.00     0.001 C 
BRANCH   5   6
ATOM      6  C   UNL     1      36.325 118.215  15.048  1.00  0.00     0.009 C 
BRANCH   6   7
ATOM      7  C   UNL     1      35.932 119.311  14.037  1.00  0.00     0.032 C 
ATOM      8  C   UNL     1      35.673 118.703  12.656  1.00  0.00     0.014 C 
BRANCH   7   9
ATOM      9  C   UNL     1      37.000 120.367  13.934  1.00  0.00     0.044 C 
ATOM     10  O   UNL     1      36.928 121.408  14.640  1.00  0.00    -0.550 OA
ATOM     11  O   UNL     1      38.071 120.202  13.065  1.00  0.00    -0.550 OA
ENDBRANCH   7   9
ENDBRANCH   6   7
ENDBRANCH   5   6
ENDBRANCH   4   5
ENDBRANCH   3   4
ENDBRANCH   2   3
ENDBRANCH   1   2
BRANCH   1  12
ATOM     12  C   UNL     1      40.470 117.470  11.676  1.00  0.00     0.000 C 
BRANCH  12  13
ATOM     13  C   UNL     1      41.241 117.911  10.420  1.00  0.00    -0.000 C 
BRANCH  13  14
ATOM     14  C   UNL     1      42.652 117.289  10.345  1.00  0.00    -0.000 C 
BRANCH  14  15
ATOM     15  C   UNL     1      43.068 116.861   8.925  1.00  0.00    -0.000 C 
BRANCH  15  16
ATOM     16  C   UNL     1      44.335 115.989   8.851  1.00  0.00    -0.000 C 
BRANCH  16  17
ATOM     17  C   UNL     1      44.129 114.512   9.237  1.00  0.00    -0.000 C 
BRANCH  17  18
ATOM     18  C   UNL     1      45.275 113.953  10.092  1.00  0.00    -0.003 C 
ATOM     19  C   UNL     1      44.750 113.354  11.393  1.00  0.00     0.004 C 
ENDBRANCH  17  18
ENDBRANCH  16  17
ENDBRANCH  15  16
ENDBRANCH  14  15
ENDBRANCH  13  14
ENDBRANCH  12  13
ENDBRANCH   1  12
TORSDOF 14
ENDMDL
MODEL 7
REMARK VINA RESULT:    -4.840      3.930      8.554
REMARK INTER + INTRA:         -10.123
REMARK INTER:                  -8.932
REMARK INTRA:                  -1.191
REMARK UNBOUND:                -1.322
REMARK SMILES CCCCCCCCCCCCCC[C@H](C)C(=O)[O-]
REMARK SMILES IDX 9 1 10 2 11 3 12 4 13 5 14 6 15 7 16 8 17 9 18 10 19 11 8 12
REMARK SMILES IDX 7 13 6 14 5 15 4 16 3 17 2 18 1 19
REMARK H PARENT
REMARK Flexibility Score: inf
ROOT
ATOM      1  C   UNL     1      40.748 117.745  10.944  1.00  0.00     0.000 C 
ENDROOT
BRANCH   1   2
ATOM      2  C   UNL     1      42.233 117.396  10.735  1.00  0.00     0.000 C 
BRANCH   2   3
ATOM      3  C   UNL     1      42.573 117.113   9.262  1.00  0.00     0.000 C 
BRANCH   3   4
ATOM      4  C   UNL     1      43.623 115.999   9.104  1.00  0.00     0.000 C 
BRANCH   4   5
ATOM      5  C   UNL     1      44.138 115.479  10.456  1.00  0.00     0.001 C 
BRANCH   5   6
ATOM      6  C   UNL     1      44.128 113.941  10.544  1.00  0.00     0.009 C 
BRANCH   6   7
ATOM      7  C   UNL     1      43.707 113.443  11.942  1.00  0.00     0.032 C 
ATOM      8  C   UNL     1      42.919 114.526  12.685  1.00  0.00     0.014 C 
BRANCH   7   9
ATOM      9  C   UNL     1      44.904 113.035  12.759  1.00  0.00     0.044 C 
ATOM     10  O   UNL     1      46.057 113.415  12.423  1.00  0.00    -0.550 OA
ATOM     11  O   UNL     1      44.747 112.240  13.888  1.00  0.00    -0.550 OA
ENDBRANCH   7   9
ENDBRANCH   6   7
ENDBRANCH   5   6
ENDBRANCH   4   5
ENDBRANCH   3   4
ENDBRANCH   2   3
ENDBRANCH   1   2
BRANCH   1  12
ATOM     12  C   UNL     1      40.173 117.127  12.229  1.00  0.00     0.000 C 
BRANCH  12  13
ATOM     13  C   UNL     1      39.213 118.079  12.963  1.00  0.00    -0.000 C 
BRANCH  13  14
ATOM     14  C   UNL     1      37.920 117.372  13.423  1.00  0.00    -0.000 C 
BRANCH  14  15
ATOM     15  C   UNL     1      36.683 117.729  12.576  1.00  0.00    -0.000 C 
BRANCH  15  16
ATOM     16  C   UNL     1      35.947 119.013  13.004  1.00  0.00    -0.000 C 
BRANCH  16  17
ATOM     17  C   UNL     1      35.624 119.104  14.506  1.00  0.00    -0.000 C 
BRANCH  17  18
ATOM     18  C   UNL     1      36.430 120.195  15.225  1.00  0.00    -0.003 C 
ATOM     19  C   UNL     1      37.209 121.050  14.230  1.00  0.00     0.004 C 
ENDBRANCH  17  18
ENDBRANCH  16  17
ENDBRANCH  15  16
ENDBRANCH  14  15
ENDBRANCH  13  14
ENDBRANCH  12  13
ENDBRANCH   1  12
TORSDOF 14
ENDMDL
MODEL 8
REMARK VINA RESULT:    -4.838      1.756      2.887
REMARK INTER + INTRA:         -10.120
REMARK INTER:                  -9.298
REMARK INTRA:                  -0.822
REMARK UNBOUND:                -1.322
REMARK SMILES CCCCCCCCCCCCCC[C@H](C)C(=O)[O-]
REMARK SMILES IDX 9 1 10 2 11 3 12 4 13 5 14 6 15 7 16 8 17 9 18 10 19 11 8 12
REMARK SMILES IDX 7 13 6 14 5 15 4 16 3 17 2 18 1 19
REMARK H PARENT
REMARK Flexibility Score: inf
ROOT
ATOM      1  C   UNL     1      41.501 117.924  10.503  1.00  0.00     0.000 C 
ENDROOT
BRANCH   1   2
ATOM      2  C   UNL     1      40.421 117.455  11.495  1.00  0.00     0.000 C 
BRANCH   2   3
ATOM      3  C   UNL     1      40.033 118.545  12.509  1.00  0.00     0.000 C 
BRANCH   3   4
ATOM      4  C   UNL     1      39.171 117.998  13.660  1.00  0.00     0.000 C 
BRANCH   4   5
ATOM      5  C   UNL     1      37.801 117.493  13.181  1.00  0.00     0.001 C 
BRANCH   5   6
ATOM      6  C   UNL     1      36.728 117.548  14.286  1.00  0.00     0.009 C 
BRANCH   6   7
ATOM      7  C   UNL     1      35.784 118.757  14.117  1.00  0.00     0.032 C 
ATOM      8  C   UNL     1      35.494 119.011  12.635  1.00  0.00     0.014 C 
BRANCH   7   9
ATOM      9  C   UNL     1      36.368 119.997  14.740  1.00  0.00     0.044 C 
ATOM     10  O   UNL     1      36.242 120.202  15.976  1.00  0.00    -0.550 OA
ATOM     11  O   UNL     1      37.051 120.921  13.959  1.00  0.00    -0.550 OA
ENDBRANCH   7   9
ENDBRANCH   6   7
ENDBRANCH   5   6
ENDBRANCH   4   5
ENDBRANCH   3   4
ENDBRANCH   2   3
ENDBRANCH   1   2
BRANCH   1  12
ATOM     12  C   UNL     1      42.639 116.904  10.347  1.00  0.00     0.000 C 
BRANCH  12  13
ATOM     13  C   UNL     1      43.116 116.340  11.697  1.00  0.00    -0.000 C 
BRANCH  13  14
ATOM     14  C   UNL     1      44.352 115.426  11.551  1.00  0.00    -0.000 C 
BRANCH  14  15
ATOM     15  C   UNL     1      44.109 114.190  10.663  1.00  0.00    -0.000 C 
BRANCH  15  16
ATOM     16  C   UNL     1      45.286 113.804   9.747  1.00  0.00    -0.000 C 
BRANCH  16  17
ATOM     17  C   UNL     1      45.021 113.979   8.241  1.00  0.00    -0.000 C 
BRANCH  17  18
ATOM     18  C   UNL     1      45.962 113.138   7.366  1.00  0.00    -0.003 C 
ATOM     19  C   UNL     1      45.176 112.264   6.394  1.00  0.00     0.004 C 
ENDBRANCH  17  18
ENDBRANCH  16  17
ENDBRANCH  15  16
ENDBRANCH  14  15
ENDBRANCH  13  14
ENDBRANCH  12  13
ENDBRANCH   1  12
TORSDOF 14
ENDMDL
MODEL 9
REMARK VINA RESULT:    -4.722      4.073      6.955
REMARK INTER + INTRA:          -9.908
REMARK INTER:                  -7.725
REMARK INTRA:                  -2.184
REMARK UNBOUND:                -1.322
REMARK SMILES CCCCCCCCCCCCCC[C@H](C)C(=O)[O-]
REMARK SMILES IDX 9 1 10 2 11 3 12 4 13 5 14 6 15 7 16 8 17 9 18 10 19 11 8 12
REMARK SMILES IDX 7 13 6 14 5 15 4 16 3 17 2 18 1 19
REMARK H PARENT
REMARK Flexibility Score: inf
ROOT
ATOM      1  C   UNL     1      44.581 115.698   9.492  1.00  0.00     0.000 C 
ENDROOT
BRANCH   1   2
ATOM      2  C   UNL     1      44.609 114.187   9.789  1.00  0.00     0.000 C 
BRANCH   2   3
ATOM      3  C   UNL     1      43.745 113.805  11.001  1.00  0.00     0.000 C 
BRANCH   3   4
ATOM      4  C   UNL     1      44.585 113.309  12.191  1.00  0.00     0.000 C 
BRANCH   4   5
ATOM      5  C   UNL     1      45.488 114.408  12.774  1.00  0.00     0.001 C 
BRANCH   5   6
ATOM      6  C   UNL     1      44.843 115.136  13.969  1.00  0.00     0.009 C 
BRANCH   6   7
ATOM      7  C   UNL     1      44.959 116.669  13.845  1.00  0.00     0.032 C 
ATOM      8  C   UNL     1      45.597 117.055  12.508  1.00  0.00     0.014 C 
BRANCH   7   9
ATOM      9  C   UNL     1      45.763 117.249  14.978  1.00  0.00     0.044 C 
ATOM     10  O   UNL     1      46.990 116.985  15.080  1.00  0.00    -0.550 OA
ATOM     11  O   UNL     1      45.161 118.078  15.916  1.00  0.00    -0.550 OA
ENDBRANCH   7   9
ENDBRANCH   6   7
ENDBRANCH   5   6
ENDBRANCH   4   5
ENDBRANCH   3   4
ENDBRANCH   2   3
ENDBRANCH   1   2
BRANCH   1  12
ATOM     12  C   UNL     1      43.597 116.059   8.368  1.00  0.00     0.000 C 
BRANCH  12  13
ATOM     13  C   UNL     1      42.568 117.117   8.802  1.00  0.00    -0.000 C 
BRANCH  13  14
ATOM     14  C   UNL     1      42.498 117.277  10.337  1.00  0.00    -0.000 C 
BRANCH  14  15
ATOM     15  C   UNL     1      41.175 117.888  10.837  1.00  0.00    -0.000 C 
BRANCH  15  16
ATOM     16  C   UNL     1      40.522 117.149  12.020  1.00  0.00    -0.000 C 
BRANCH  16  17
ATOM     17  C   UNL     1      41.448 116.170  12.765  1.00  0.00    -0.000 C 
BRANCH  17  18
ATOM     18  C   UNL     1      41.361 116.310  14.291  1.00  0.00    -0.003 C 
ATOM     19  C   UNL     1      40.669 117.611  14.687  1.00  0.00     0.004 C 
ENDBRANCH  17  18
ENDBRANCH  16  17
ENDBRANCH  15  16
ENDBRANCH  14  15
ENDBRANCH  13  14
ENDBRANCH  12  13
ENDBRANCH   1  12
TORSDOF 14
ENDMDL
