MODEL 1
REMARK VINA RESULT:    -4.496      0.000      0.000
REMARK INTER + INTRA:          -5.063
REMARK INTER:                  -5.021
REMARK INTRA:                  -0.041
REMARK UNBOUND:                -0.041
REMARK SMILES O=C([O-])c1ccc(O)c(O)c1
REMARK SMILES IDX 4 1 11 2 5 3 9 4 6 5 7 6 2 7 1 8 3 9 10 10 8 12
REMARK H PARENT 10 11 8 13
REMARK Flexibility Score: inf
ROOT
ATOM      1  C   UNL     1      -0.960 -14.136  -6.147  1.00  0.00     0.001 A 
ATOM      2  C   UNL     1      -1.995 -14.501  -7.025  1.00  0.00     0.060 A 
ATOM      3  C   UNL     1       0.307 -14.723  -6.305  1.00  0.00     0.014 A 
ATOM      4  C   UNL     1      -1.772 -15.435  -8.043  1.00  0.00     0.158 A 
ATOM      5  C   UNL     1       0.533 -15.656  -7.321  1.00  0.00     0.051 A 
ATOM      6  C   UNL     1      -0.502 -16.017  -8.193  1.00  0.00     0.157 A 
ENDROOT
BRANCH   1   7
ATOM      7  C   UNL     1      -1.205 -13.147  -5.074  1.00  0.00     0.072 C 
ATOM      8  O   UNL     1      -2.321 -13.096  -4.492  1.00  0.00    -0.545 OA
ATOM      9  O   UNL     1      -0.206 -12.258  -4.695  1.00  0.00    -0.545 OA
ENDBRANCH   1   7
BRANCH   4  10
ATOM     10  O   UNL     1      -2.823 -15.773  -8.896  1.00  0.00    -0.504 OA
ATOM     11  H   UNL     1      -3.606 -16.337  -8.587  1.00  0.00     0.293 HD
ENDBRANCH   4  10
BRANCH   6  12
ATOM     12  O   UNL     1      -0.273 -16.948  -9.205  1.00  0.00    -0.504 OA
ATOM     13  H   UNL     1      -0.774 -17.828  -9.240  1.00  0.00     0.293 HD
ENDBRANCH   6  12
TORSDOF 3
ENDMDL
MODEL 2
REMARK VINA RESULT:    -4.416     18.404     19.334
REMARK INTER + INTRA:          -4.974
REMARK INTER:                  -4.931
REMARK INTRA:                  -0.043
REMARK UNBOUND:                -0.041
REMARK SMILES O=C([O-])c1ccc(O)c(O)c1
REMARK SMILES IDX 4 1 11 2 5 3 9 4 6 5 7 6 2 7 1 8 3 9 10 10 8 12
REMARK H PARENT 10 11 8 13
REMARK Flexibility Score: inf
ROOT
ATOM      1  C   UNL     1      13.118 -11.896 -19.278  1.00  0.00     0.001 A 
ATOM      2  C   UNL     1      13.449 -12.713 -18.184  1.00  0.00     0.060 A 
ATOM      3  C   UNL     1      13.466 -10.535 -19.242  1.00  0.00     0.014 A 
ATOM      4  C   UNL     1      14.115 -12.184 -17.072  1.00  0.00     0.158 A 
ATOM      5  C   UNL     1      14.132 -10.004 -18.134  1.00  0.00     0.051 A 
ATOM      6  C   UNL     1      14.459 -10.822 -17.045  1.00  0.00     0.157 A 
ENDROOT
BRANCH   1   7
ATOM      7  C   UNL     1      12.414 -12.464 -20.449  1.00  0.00     0.072 C 
ATOM      8  O   UNL     1      12.480 -11.897 -21.573  1.00  0.00    -0.545 OA
ATOM      9  O   UNL     1      11.668 -13.630 -20.325  1.00  0.00    -0.545 OA
ENDBRANCH   1   7
BRANCH   4  10
ATOM     10  O   UNL     1      14.427 -13.026 -16.004  1.00  0.00    -0.504 OA
ATOM     11  H   UNL     1      15.338 -13.460 -15.909  1.00  0.00     0.293 HD
ENDBRANCH   4  10
BRANCH   6  12
ATOM     12  O   UNL     1      15.123 -10.289 -15.941  1.00  0.00    -0.504 OA
ATOM     13  H   UNL     1      14.723  -9.535 -15.395  1.00  0.00     0.293 HD
ENDBRANCH   6  12
TORSDOF 3
ENDMDL
MODEL 3
REMARK VINA RESULT:    -4.391      1.495      4.329
REMARK INTER + INTRA:          -4.946
REMARK INTER:                  -4.903
REMARK INTRA:                  -0.043
REMARK UNBOUND:                -0.041
REMARK SMILES O=C([O-])c1ccc(O)c(O)c1
REMARK SMILES IDX 4 1 11 2 5 3 9 4 6 5 7 6 2 7 1 8 3 9 10 10 8 12
REMARK H PARENT 10 11 8 13
REMARK Flexibility Score: inf
ROOT
ATOM      1  C   UNL     1       0.014 -16.656  -7.524  1.00  0.00     0.001 A 
ATOM      2  C   UNL     1      -1.131 -15.995  -8.000  1.00  0.00     0.060 A 
ATOM      3  C   UNL     1       0.750 -16.077  -6.476  1.00  0.00     0.014 A 
ATOM      4  C   UNL     1      -1.536 -14.776  -7.442  1.00  0.00     0.158 A 
ATOM      5  C   UNL     1       0.348 -14.860  -5.917  1.00  0.00     0.051 A 
ATOM      6  C   UNL     1      -0.793 -14.205  -6.395  1.00  0.00     0.157 A 
ENDROOT
BRANCH   1   7
ATOM      7  C   UNL     1       0.434 -17.944  -8.119  1.00  0.00     0.072 C 
ATOM      8  O   UNL     1       1.638 -18.314  -8.062  1.00  0.00    -0.545 OA
ATOM      9  O   UNL     1      -0.493 -18.764  -8.751  1.00  0.00    -0.545 OA
ENDBRANCH   1   7
BRANCH   4  10
ATOM     10  O   UNL     1      -2.678 -14.148  -7.941  1.00  0.00    -0.504 OA
ATOM     11  H   UNL     1      -3.248 -13.537  -7.370  1.00  0.00     0.293 HD
ENDBRANCH   4  10
BRANCH   6  12
ATOM     12  O   UNL     1      -1.191 -12.992  -5.835  1.00  0.00    -0.504 OA
ATOM     13  H   UNL     1      -1.272 -12.150  -6.394  1.00  0.00     0.293 HD
ENDBRANCH   6  12
TORSDOF 3
ENDMDL
MODEL 4
REMARK VINA RESULT:    -4.375      2.259      4.441
REMARK INTER + INTRA:          -4.928
REMARK INTER:                  -4.883
REMARK INTRA:                  -0.044
REMARK UNBOUND:                -0.041
REMARK SMILES O=C([O-])c1ccc(O)c(O)c1
REMARK SMILES IDX 4 1 11 2 5 3 9 4 6 5 7 6 2 7 1 8 3 9 10 10 8 12
REMARK H PARENT 10 11 8 13
REMARK Flexibility Score: inf
ROOT
ATOM      1  C   UNL     1      -0.003 -17.320  -7.901  1.00  0.00     0.001 A 
ATOM      2  C   UNL     1      -1.246 -17.387  -8.554  1.00  0.00     0.060 A 
ATOM      3  C   UNL     1       0.350 -16.136  -7.229  1.00  0.00     0.014 A 
ATOM      4  C   UNL     1      -2.121 -16.295  -8.540  1.00  0.00     0.158 A 
ATOM      5  C   UNL     1      -0.522 -15.044  -7.213  1.00  0.00     0.051 A 
ATOM      6  C   UNL     1      -1.758 -15.116  -7.866  1.00  0.00     0.157 A 
ENDROOT
BRANCH   1   7
ATOM      7  C   UNL     1       0.915 -18.479  -7.920  1.00  0.00     0.072 C 
ATOM      8  O   UNL     1       2.067 -18.392  -7.417  1.00  0.00    -0.545 OA
ATOM      9  O   UNL     1       0.520 -19.681  -8.496  1.00  0.00    -0.545 OA
ENDBRANCH   1   7
BRANCH   4  10
ATOM     10  O   UNL     1      -3.346 -16.399  -9.200  1.00  0.00    -0.504 OA
ATOM     11  H   UNL     1      -4.194 -15.990  -8.827  1.00  0.00     0.293 HD
ENDBRANCH   4  10
BRANCH   6  12
ATOM     12  O   UNL     1      -2.626 -14.025  -7.848  1.00  0.00    -0.504 OA
ATOM     13  H   UNL     1      -3.612 -14.134  -7.645  1.00  0.00     0.293 HD
ENDBRANCH   6  12
TORSDOF 3
ENDMDL
MODEL 5
REMARK VINA RESULT:    -4.371      2.340      3.491
REMARK INTER + INTRA:          -4.924
REMARK INTER:                  -4.885
REMARK INTRA:                  -0.039
REMARK UNBOUND:                -0.041
REMARK SMILES O=C([O-])c1ccc(O)c(O)c1
REMARK SMILES IDX 4 1 11 2 5 3 9 4 6 5 7 6 2 7 1 8 3 9 10 10 8 12
REMARK H PARENT 10 11 8 13
REMARK Flexibility Score: inf
ROOT
ATOM      1  C   UNL     1       0.828 -15.976  -6.344  1.00  0.00     0.001 A 
ATOM      2  C   UNL     1       0.137 -16.524  -7.438  1.00  0.00     0.060 A 
ATOM      3  C   UNL     1       0.357 -14.782  -5.769  1.00  0.00     0.014 A 
ATOM      4  C   UNL     1      -1.002 -15.894  -7.952  1.00  0.00     0.158 A 
ATOM      5  C   UNL     1      -0.781 -14.151  -6.281  1.00  0.00     0.051 A 
ATOM      6  C   UNL     1      -1.465 -14.702  -7.372  1.00  0.00     0.157 A 
ENDROOT
BRANCH   1   7
ATOM      7  C   UNL     1       2.031 -16.648  -5.806  1.00  0.00     0.072 C 
ATOM      8  O   UNL     1       1.988 -17.860  -5.464  1.00  0.00    -0.545 OA
ATOM      9  O   UNL     1       3.225 -15.951  -5.669  1.00  0.00    -0.545 OA
ENDBRANCH   1   7
BRANCH   4  10
ATOM     10  O   UNL     1      -1.662 -16.469  -9.040  1.00  0.00    -0.504 OA
ATOM     11  H   UNL     1      -2.149 -17.353  -8.967  1.00  0.00     0.293 HD
ENDBRANCH   4  10
BRANCH   6  12
ATOM     12  O   UNL     1      -2.599 -14.069  -7.879  1.00  0.00    -0.504 OA
ATOM     13  H   UNL     1      -3.273 -14.566  -8.450  1.00  0.00     0.293 HD
ENDBRANCH   6  12
TORSDOF 3
ENDMDL
MODEL 6
REMARK VINA RESULT:    -4.367      2.387      3.738
REMARK INTER + INTRA:          -4.919
REMARK INTER:                  -4.882
REMARK INTRA:                  -0.037
REMARK UNBOUND:                -0.041
REMARK SMILES O=C([O-])c1ccc(O)c(O)c1
REMARK SMILES IDX 4 1 11 2 5 3 9 4 6 5 7 6 2 7 1 8 3 9 10 10 8 12
REMARK H PARENT 10 11 8 13
REMARK Flexibility Score: inf
ROOT
ATOM      1  C   UNL     1       0.816 -15.883  -6.264  1.00  0.00     0.001 A 
ATOM      2  C   UNL     1       0.289 -14.718  -5.680  1.00  0.00     0.060 A 
ATOM      3  C   UNL     1       0.204 -16.404  -7.417  1.00  0.00     0.014 A 
ATOM      4  C   UNL     1      -0.830 -14.084  -6.234  1.00  0.00     0.158 A 
ATOM      5  C   UNL     1      -0.913 -15.773  -7.972  1.00  0.00     0.051 A 
ATOM      6  C   UNL     1      -1.435 -14.613  -7.386  1.00  0.00     0.157 A 
ENDROOT
BRANCH   1   7
ATOM      7  C   UNL     1       1.999 -16.546  -5.673  1.00  0.00     0.072 C 
ATOM      8  O   UNL     1       1.896 -17.685  -5.144  1.00  0.00    -0.545 OA
ATOM      9  O   UNL     1       3.240 -15.921  -5.692  1.00  0.00    -0.545 OA
ENDBRANCH   1   7
BRANCH   4  10
ATOM     10  O   UNL     1      -1.325 -12.930  -5.625  1.00  0.00    -0.504 OA
ATOM     11  H   UNL     1      -1.770 -12.191  -6.156  1.00  0.00     0.293 HD
ENDBRANCH   4  10
BRANCH   6  12
ATOM     12  O   UNL     1      -2.549 -13.986  -7.943  1.00  0.00    -0.504 OA
ATOM     13  H   UNL     1      -2.716 -12.995  -7.820  1.00  0.00     0.293 HD
ENDBRANCH   6  12
TORSDOF 3
ENDMDL
MODEL 7
REMARK VINA RESULT:    -4.226      1.271      2.479
REMARK INTER + INTRA:          -4.761
REMARK INTER:                  -4.722
REMARK INTRA:                  -0.039
REMARK UNBOUND:                -0.041
REMARK SMILES O=C([O-])c1ccc(O)c(O)c1
REMARK SMILES IDX 4 1 11 2 5 3 9 4 6 5 7 6 2 7 1 8 3 9 10 10 8 12
REMARK H PARENT 10 11 8 13
REMARK Flexibility Score: inf
ROOT
ATOM      1  C   UNL     1      -0.625 -13.989  -5.911  1.00  0.00     0.001 A 
ATOM      2  C   UNL     1       0.530 -14.757  -5.689  1.00  0.00     0.060 A 
ATOM      3  C   UNL     1      -1.395 -14.232  -7.061  1.00  0.00     0.014 A 
ATOM      4  C   UNL     1       0.913 -15.751  -6.597  1.00  0.00     0.158 A 
ATOM      5  C   UNL     1      -1.016 -15.225  -7.970  1.00  0.00     0.051 A 
ATOM      6  C   UNL     1       0.137 -15.988  -7.744  1.00  0.00     0.157 A 
ENDROOT
BRANCH   1   7
ATOM      7  C   UNL     1      -1.022 -12.940  -4.946  1.00  0.00     0.072 C 
ATOM      8  O   UNL     1      -0.187 -12.082  -4.552  1.00  0.00    -0.545 OA
ATOM      9  O   UNL     1      -2.323 -12.888  -4.458  1.00  0.00    -0.545 OA
ENDBRANCH   1   7
BRANCH   4  10
ATOM     10  O   UNL     1       2.066 -16.494  -6.343  1.00  0.00    -0.504 OA
ATOM     11  H   UNL     1       2.989 -16.076  -6.351  1.00  0.00     0.293 HD
ENDBRANCH   4  10
BRANCH   6  12
ATOM     12  O   UNL     1       0.512 -16.977  -8.652  1.00  0.00    -0.504 OA
ATOM     13  H   UNL     1       0.438 -16.834  -9.652  1.00  0.00     0.293 HD
ENDBRANCH   6  12
TORSDOF 3
ENDMDL
MODEL 8
REMARK VINA RESULT:    -4.075     18.548     19.152
REMARK INTER + INTRA:          -4.593
REMARK INTER:                  -4.549
REMARK INTRA:                  -0.044
REMARK UNBOUND:                -0.041
REMARK SMILES O=C([O-])c1ccc(O)c(O)c1
REMARK SMILES IDX 4 1 11 2 5 3 9 4 6 5 7 6 2 7 1 8 3 9 10 10 8 12
REMARK H PARENT 10 11 8 13
REMARK Flexibility Score: inf
ROOT
ATOM      1  C   UNL     1      13.958 -12.672 -17.886  1.00  0.00     0.001 A 
ATOM      2  C   UNL     1      13.190 -12.929 -19.035  1.00  0.00     0.060 A 
ATOM      3  C   UNL     1      14.312 -11.345 -17.586  1.00  0.00     0.014 A 
ATOM      4  C   UNL     1      12.782 -11.882 -19.870  1.00  0.00     0.158 A 
ATOM      5  C   UNL     1      13.906 -10.298 -18.418  1.00  0.00     0.051 A 
ATOM      6  C   UNL     1      13.141 -10.560 -19.561  1.00  0.00     0.157 A 
ENDROOT
BRANCH   1   7
ATOM      7  C   UNL     1      14.385 -13.784 -17.009  1.00  0.00     0.072 C 
ATOM      8  O   UNL     1      14.837 -13.552 -15.855  1.00  0.00    -0.545 OA
ATOM      9  O   UNL     1      14.294 -15.100 -17.445  1.00  0.00    -0.545 OA
ENDBRANCH   1   7
BRANCH   4  10
ATOM     10  O   UNL     1      12.021 -12.176 -21.002  1.00  0.00    -0.504 OA
ATOM     11  H   UNL     1      11.664 -11.451 -21.614  1.00  0.00     0.293 HD
ENDBRANCH   4  10
BRANCH   6  12
ATOM     12  O   UNL     1      12.738  -9.513 -20.389  1.00  0.00    -0.504 OA
ATOM     13  H   UNL     1      12.909  -8.545 -20.143  1.00  0.00     0.293 HD
ENDBRANCH   6  12
TORSDOF 3
ENDMDL
MODEL 9
REMARK VINA RESULT:    -4.050     18.621     19.567
REMARK INTER + INTRA:          -4.565
REMARK INTER:                  -4.530
REMARK INTRA:                  -0.036
REMARK UNBOUND:                -0.041
REMARK SMILES O=C([O-])c1ccc(O)c(O)c1
REMARK SMILES IDX 4 1 11 2 5 3 9 4 6 5 7 6 2 7 1 8 3 9 10 10 8 12
REMARK H PARENT 10 11 8 13
REMARK Flexibility Score: inf
ROOT
ATOM      1  C   UNL     1      13.401 -12.702 -19.306  1.00  0.00     0.001 A 
ATOM      2  C   UNL     1      13.371 -11.309 -19.494  1.00  0.00     0.060 A 
ATOM      3  C   UNL     1      13.884 -13.216 -18.090  1.00  0.00     0.014 A 
ATOM      4  C   UNL     1      13.816 -10.443 -18.488  1.00  0.00     0.158 A 
ATOM      5  C   UNL     1      14.329 -12.353 -17.085  1.00  0.00     0.051 A 
ATOM      6  C   UNL     1      14.297 -10.966 -17.277  1.00  0.00     0.157 A 
ENDROOT
BRANCH   1   7
ATOM      7  C   UNL     1      12.928 -13.610 -20.374  1.00  0.00     0.072 C 
ATOM      8  O   UNL     1      13.733 -14.066 -21.230  1.00  0.00    -0.545 OA
ATOM      9  O   UNL     1      11.588 -13.972 -20.449  1.00  0.00    -0.545 OA
ENDBRANCH   1   7
BRANCH   4  10
ATOM     10  O   UNL     1      13.771  -9.066 -18.711  1.00  0.00    -0.504 OA
ATOM     11  H   UNL     1      13.773  -8.672 -19.644  1.00  0.00     0.293 HD
ENDBRANCH   4  10
BRANCH   6  12
ATOM     12  O   UNL     1      14.742 -10.109 -16.271  1.00  0.00    -0.504 OA
ATOM     13  H   UNL     1      14.261 -10.041 -15.381  1.00  0.00     0.293 HD
ENDBRANCH   6  12
TORSDOF 3
ENDMDL
