MODEL 1
REMARK VINA RESULT:    -4.998      0.000      0.000
REMARK INTER + INTRA:          -7.645
REMARK INTER:                  -7.335
REMARK INTRA:                  -0.310
REMARK UNBOUND:                -0.310
REMARK SMILES O=C([O-])CCCCCCCC(=O)[O-]
REMARK SMILES IDX 7 1 6 2 5 3 4 4 2 5 1 6 3 7 8 8 9 9 10 10 11 11 12 12 13 13
REMARK H PARENT
REMARK Flexibility Score: inf
ROOT
ATOM      1  C   UNL     1      10.548 -25.144  21.794  1.00  0.00     0.000 C 
ENDROOT
BRANCH   1   2
ATOM      2  C   UNL     1      11.655 -24.759  20.800  1.00  0.00     0.000 C 
BRANCH   2   3
ATOM      3  C   UNL     1      12.378 -23.460  21.196  1.00  0.00     0.006 C 
BRANCH   3   4
ATOM      4  C   UNL     1      13.307 -22.940  20.091  1.00  0.00     0.053 C 
BRANCH   4   5
ATOM      5  C   UNL     1      14.671 -23.537  20.233  1.00  0.00     0.041 C 
ATOM      6  O   UNL     1      15.507 -23.026  21.024  1.00  0.00    -0.550 OA
ATOM      7  O   UNL     1      15.003 -24.687  19.529  1.00  0.00    -0.550 OA
ENDBRANCH   4   5
ENDBRANCH   3   4
ENDBRANCH   2   3
ENDBRANCH   1   2
BRANCH   1   8
ATOM      8  C   UNL     1      10.270 -24.045  22.833  1.00  0.00     0.000 C 
BRANCH   8   9
ATOM      9  C   UNL     1       9.398 -24.517  24.017  1.00  0.00     0.006 C 
BRANCH   9  10
ATOM     10  C   UNL     1       9.643 -23.686  25.284  1.00  0.00     0.053 C 
BRANCH  10  11
ATOM     11  C   UNL     1      10.143 -24.557  26.392  1.00  0.00     0.041 C 
ATOM     12  O   UNL     1      11.219 -24.276  26.983  1.00  0.00    -0.550 OA
ATOM     13  O   UNL     1       9.395 -25.651  26.807  1.00  0.00    -0.550 OA
ENDBRANCH  10  11
ENDBRANCH   9  10
ENDBRANCH   8   9
ENDBRANCH   1   8
TORSDOF 8
ENDMDL
MODEL 2
REMARK VINA RESULT:    -4.962      1.005      6.002
REMARK INTER + INTRA:          -7.593
REMARK INTER:                  -7.186
REMARK INTRA:                  -0.407
REMARK UNBOUND:                -0.310
REMARK SMILES O=C([O-])CCCCCCCC(=O)[O-]
REMARK SMILES IDX 7 1 6 2 5 3 4 4 2 5 1 6 3 7 8 8 9 9 10 10 11 11 12 12 13 13
REMARK H PARENT
REMARK Flexibility Score: inf
ROOT
ATOM      1  C   UNL     1      10.889 -24.899  21.523  1.00  0.00     0.000 C 
ENDROOT
BRANCH   1   2
ATOM      2  C   UNL     1      10.843 -24.009  22.775  1.00  0.00     0.000 C 
BRANCH   2   3
ATOM      3  C   UNL     1       9.660 -24.349  23.697  1.00  0.00     0.006 C 
BRANCH   3   4
ATOM      4  C   UNL     1       9.661 -23.523  24.990  1.00  0.00     0.053 C 
BRANCH   4   5
ATOM      5  C   UNL     1      10.144 -24.352  26.138  1.00  0.00     0.041 C 
ATOM      6  O   UNL     1      11.182 -24.018  26.768  1.00  0.00    -0.550 OA
ATOM      7  O   UNL     1       9.421 -25.466  26.544  1.00  0.00    -0.550 OA
ENDBRANCH   4   5
ENDBRANCH   3   4
ENDBRANCH   2   3
ENDBRANCH   1   2
BRANCH   1   8
ATOM      8  C   UNL     1      12.196 -24.741  20.727  1.00  0.00     0.000 C 
BRANCH   8   9
ATOM      9  C   UNL     1      12.511 -23.281  20.336  1.00  0.00     0.006 C 
BRANCH   9  10
ATOM     10  C   UNL     1      14.020 -23.005  20.297  1.00  0.00     0.053 C 
BRANCH  10  11
ATOM     11  C   UNL     1      14.562 -22.860  21.684  1.00  0.00     0.041 C 
ATOM     12  O   UNL     1      13.954 -22.153  22.531  1.00  0.00    -0.550 OA
ATOM     13  O   UNL     1      15.713 -23.543  22.056  1.00  0.00    -0.550 OA
ENDBRANCH  10  11
ENDBRANCH   9  10
ENDBRANCH   8   9
ENDBRANCH   1   8
TORSDOF 8
ENDMDL
MODEL 3
REMARK VINA RESULT:    -4.928      2.584      5.523
REMARK INTER + INTRA:          -7.543
REMARK INTER:                  -7.034
REMARK INTRA:                  -0.509
REMARK UNBOUND:                -0.310
REMARK SMILES O=C([O-])CCCCCCCC(=O)[O-]
REMARK SMILES IDX 7 1 6 2 5 3 4 4 2 5 1 6 3 7 8 8 9 9 10 10 11 11 12 12 13 13
REMARK H PARENT
REMARK Flexibility Score: inf
ROOT
ATOM      1  C   UNL     1      12.822 -23.077  20.250  1.00  0.00     0.000 C 
ENDROOT
BRANCH   1   2
ATOM      2  C   UNL     1      12.225 -24.407  20.735  1.00  0.00     0.000 C 
BRANCH   2   3
ATOM      3  C   UNL     1      11.288 -24.228  21.942  1.00  0.00     0.006 C 
BRANCH   3   4
ATOM      4  C   UNL     1      10.091 -25.188  21.910  1.00  0.00     0.053 C 
BRANCH   4   5
ATOM      5  C   UNL     1       8.943 -24.615  22.677  1.00  0.00     0.041 C 
ATOM      6  O   UNL     1       7.845 -24.390  22.101  1.00  0.00    -0.550 OA
ATOM      7  O   UNL     1       9.067 -24.375  24.039  1.00  0.00    -0.550 OA
ENDBRANCH   4   5
ENDBRANCH   3   4
ENDBRANCH   2   3
ENDBRANCH   1   2
BRANCH   1   8
ATOM      8  C   UNL     1      14.357 -23.045  20.335  1.00  0.00     0.000 C 
BRANCH   8   9
ATOM      9  C   UNL     1      14.941 -24.039  21.363  1.00  0.00     0.006 C 
BRANCH   9  10
ATOM     10  C   UNL     1      15.611 -23.324  22.544  1.00  0.00     0.053 C 
BRANCH  10  11
ATOM     11  C   UNL     1      14.580 -22.773  23.477  1.00  0.00     0.041 C 
ATOM     12  O   UNL     1      13.805 -23.550  24.094  1.00  0.00    -0.550 OA
ATOM     13  O   UNL     1      14.506 -21.405  23.702  1.00  0.00    -0.550 OA
ENDBRANCH  10  11
ENDBRANCH   9  10
ENDBRANCH   8   9
ENDBRANCH   1   8
TORSDOF 8
ENDMDL
MODEL 4
REMARK VINA RESULT:    -4.909      2.337      3.412
REMARK INTER + INTRA:          -7.515
REMARK INTER:                  -6.950
REMARK INTRA:                  -0.565
REMARK UNBOUND:                -0.310
REMARK SMILES O=C([O-])CCCCCCCC(=O)[O-]
REMARK SMILES IDX 7 1 6 2 5 3 4 4 2 5 1 6 3 7 8 8 9 9 10 10 11 11 12 12 13 13
REMARK H PARENT
REMARK Flexibility Score: inf
ROOT
ATOM      1  C   UNL     1      12.485 -23.369  20.421  1.00  0.00     0.000 C 
ENDROOT
BRANCH   1   2
ATOM      2  C   UNL     1      14.004 -23.134  20.408  1.00  0.00     0.000 C 
BRANCH   2   3
ATOM      3  C   UNL     1      14.747 -24.021  21.421  1.00  0.00     0.006 C 
BRANCH   3   4
ATOM      4  C   UNL     1      15.477 -23.207  22.498  1.00  0.00     0.053 C 
BRANCH   4   5
ATOM      5  C   UNL     1      14.503 -22.682  23.503  1.00  0.00     0.041 C 
ATOM      6  O   UNL     1      13.757 -23.474  24.137  1.00  0.00    -0.550 OA
ATOM      7  O   UNL     1      14.452 -21.321  23.778  1.00  0.00    -0.550 OA
ENDBRANCH   4   5
ENDBRANCH   3   4
ENDBRANCH   2   3
ENDBRANCH   1   2
BRANCH   1   8
ATOM      8  C   UNL     1      12.110 -24.822  20.758  1.00  0.00     0.000 C 
BRANCH   8   9
ATOM      9  C   UNL     1      10.746 -24.961  21.469  1.00  0.00     0.006 C 
BRANCH   9  10
ATOM     10  C   UNL     1      10.666 -24.105  22.740  1.00  0.00     0.053 C 
BRANCH  10  11
ATOM     11  C   UNL     1       9.353 -24.308  23.427  1.00  0.00     0.041 C 
ATOM     12  O   UNL     1       9.316 -24.578  24.656  1.00  0.00    -0.550 OA
ATOM     13  O   UNL     1       8.167 -24.152  22.720  1.00  0.00    -0.550 OA
ENDBRANCH  10  11
ENDBRANCH   9  10
ENDBRANCH   8   9
ENDBRANCH   1   8
TORSDOF 8
ENDMDL
MODEL 5
REMARK VINA RESULT:    -4.872      2.546      6.109
REMARK INTER + INTRA:          -7.460
REMARK INTER:                  -7.001
REMARK INTRA:                  -0.460
REMARK UNBOUND:                -0.310
REMARK SMILES O=C([O-])CCCCCCCC(=O)[O-]
REMARK SMILES IDX 7 1 6 2 5 3 4 4 2 5 1 6 3 7 8 8 9 9 10 10 11 11 12 12 13 13
REMARK H PARENT
REMARK Flexibility Score: inf
ROOT
ATOM      1  C   UNL     1      12.595 -22.667  21.898  1.00  0.00     0.000 C 
ENDROOT
BRANCH   1   2
ATOM      2  C   UNL     1      11.632 -23.679  22.538  1.00  0.00     0.000 C 
BRANCH   2   3
ATOM      3  C   UNL     1      11.028 -24.650  21.511  1.00  0.00     0.006 C 
BRANCH   3   4
ATOM      4  C   UNL     1       9.868 -25.474  22.086  1.00  0.00     0.053 C 
BRANCH   4   5
ATOM      5  C   UNL     1       8.679 -24.601  22.330  1.00  0.00     0.041 C 
ATOM      6  O   UNL     1       7.819 -24.434  21.424  1.00  0.00    -0.550 OA
ATOM      7  O   UNL     1       8.492 -24.011  23.573  1.00  0.00    -0.550 OA
ENDBRANCH   4   5
ENDBRANCH   3   4
ENDBRANCH   2   3
ENDBRANCH   1   2
BRANCH   1   8
ATOM      8  C   UNL     1      12.761 -22.878  20.383  1.00  0.00     0.000 C 
BRANCH   8   9
ATOM      9  C   UNL     1      14.203 -23.234  19.961  1.00  0.00     0.006 C 
BRANCH   9  10
ATOM     10  C   UNL     1      14.955 -24.001  21.058  1.00  0.00     0.053 C 
BRANCH  10  11
ATOM     11  C   UNL     1      14.858 -25.475  20.827  1.00  0.00     0.041 C 
ATOM     12  O   UNL     1      14.022 -25.934  20.004  1.00  0.00    -0.550 OA
ATOM     13  O   UNL     1      15.724 -26.340  21.484  1.00  0.00    -0.550 OA
ENDBRANCH  10  11
ENDBRANCH   9  10
ENDBRANCH   8   9
ENDBRANCH   1   8
TORSDOF 8
ENDMDL
MODEL 6
REMARK VINA RESULT:    -4.843      1.605      2.440
REMARK INTER + INTRA:          -7.418
REMARK INTER:                  -6.996
REMARK INTRA:                  -0.421
REMARK UNBOUND:                -0.310
REMARK SMILES O=C([O-])CCCCCCCC(=O)[O-]
REMARK SMILES IDX 7 1 6 2 5 3 4 4 2 5 1 6 3 7 8 8 9 9 10 10 11 11 12 12 13 13
REMARK H PARENT
REMARK Flexibility Score: inf
ROOT
ATOM      1  C   UNL     1      12.360 -24.729  20.729  1.00  0.00     0.000 C 
ENDROOT
BRANCH   1   2
ATOM      2  C   UNL     1      12.700 -23.285  20.325  1.00  0.00     0.000 C 
BRANCH   2   3
ATOM      3  C   UNL     1      14.211 -23.001  20.368  1.00  0.00     0.006 C 
BRANCH   3   4
ATOM      4  C   UNL     1      14.984 -24.033  21.199  1.00  0.00     0.053 C 
BRANCH   4   5
ATOM      5  C   UNL     1      15.436 -23.429  22.491  1.00  0.00     0.041 C 
ATOM      6  O   UNL     1      16.658 -23.420  22.793  1.00  0.00    -0.550 OA
ATOM      7  O   UNL     1      14.513 -22.831  23.339  1.00  0.00    -0.550 OA
ENDBRANCH   4   5
ENDBRANCH   3   4
ENDBRANCH   2   3
ENDBRANCH   1   2
BRANCH   1   8
ATOM      8  C   UNL     1      10.938 -24.870  21.297  1.00  0.00     0.000 C 
BRANCH   8   9
ATOM      9  C   UNL     1      10.733 -24.144  22.644  1.00  0.00     0.006 C 
BRANCH   9  10
ATOM     10  C   UNL     1       9.465 -24.614  23.369  1.00  0.00     0.053 C 
BRANCH  10  11
ATOM     11  C   UNL     1       9.461 -24.133  24.785  1.00  0.00     0.041 C 
ATOM     12  O   UNL     1       9.526 -24.957  25.735  1.00  0.00    -0.550 OA
ATOM     13  O   UNL     1       9.435 -22.770  25.056  1.00  0.00    -0.550 OA
ENDBRANCH  10  11
ENDBRANCH   9  10
ENDBRANCH   8   9
ENDBRANCH   1   8
TORSDOF 8
ENDMDL
MODEL 7
REMARK VINA RESULT:    -4.759      2.167      2.852
REMARK INTER + INTRA:          -7.294
REMARK INTER:                  -6.641
REMARK INTRA:                  -0.654
REMARK UNBOUND:                -0.310
REMARK SMILES O=C([O-])CCCCCCCC(=O)[O-]
REMARK SMILES IDX 7 1 6 2 5 3 4 4 2 5 1 6 3 7 8 8 9 9 10 10 11 11 12 12 13 13
REMARK H PARENT
REMARK Flexibility Score: inf
ROOT
ATOM      1  C   UNL     1      12.165 -23.941  20.744  1.00  0.00     0.000 C 
ENDROOT
BRANCH   1   2
ATOM      2  C   UNL     1      13.137 -22.935  20.108  1.00  0.00     0.000 C 
BRANCH   2   3
ATOM      3  C   UNL     1      14.551 -23.512  19.930  1.00  0.00     0.006 C 
BRANCH   3   4
ATOM      4  C   UNL     1      14.621 -25.013  20.238  1.00  0.00     0.053 C 
BRANCH   4   5
ATOM      5  C   UNL     1      15.391 -25.253  21.497  1.00  0.00     0.041 C 
ATOM      6  O   UNL     1      15.499 -24.339  22.357  1.00  0.00    -0.550 OA
ATOM      7  O   UNL     1      15.950 -26.500  21.744  1.00  0.00    -0.550 OA
ENDBRANCH   4   5
ENDBRANCH   3   4
ENDBRANCH   2   3
ENDBRANCH   1   2
BRANCH   1   8
ATOM      8  C   UNL     1      11.875 -23.636  22.224  1.00  0.00     0.000 C 
BRANCH   8   9
ATOM      9  C   UNL     1      12.444 -22.282  22.701  1.00  0.00     0.006 C 
BRANCH   9  10
ATOM     10  C   UNL     1      13.074 -22.378  24.097  1.00  0.00     0.053 C 
BRANCH  10  11
ATOM     11  C   UNL     1      12.030 -22.678  25.124  1.00  0.00     0.041 C 
ATOM     12  O   UNL     1      12.144 -23.688  25.867  1.00  0.00    -0.550 OA
ATOM     13  O   UNL     1      10.953 -21.816  25.293  1.00  0.00    -0.550 OA
ENDBRANCH  10  11
ENDBRANCH   9  10
ENDBRANCH   8   9
ENDBRANCH   1   8
TORSDOF 8
ENDMDL
MODEL 8
REMARK VINA RESULT:    -4.754      1.915      6.579
REMARK INTER + INTRA:          -7.287
REMARK INTER:                  -6.902
REMARK INTRA:                  -0.384
REMARK UNBOUND:                -0.310
REMARK SMILES O=C([O-])CCCCCCCC(=O)[O-]
REMARK SMILES IDX 7 1 6 2 5 3 4 4 2 5 1 6 3 7 8 8 9 9 10 10 11 11 12 12 13 13
REMARK H PARENT
REMARK Flexibility Score: inf
ROOT
ATOM      1  C   UNL     1      13.521 -21.753  24.119  1.00  0.00     0.000 C 
ENDROOT
BRANCH   1   2
ATOM      2  C   UNL     1      12.097 -22.143  24.548  1.00  0.00     0.000 C 
BRANCH   2   3
ATOM      3  C   UNL     1      12.079 -23.346  25.506  1.00  0.00     0.006 C 
BRANCH   3   4
ATOM      4  C   UNL     1      10.818 -23.390  26.378  1.00  0.00     0.053 C 
BRANCH   4   5
ATOM      5  C   UNL     1       9.922 -24.505  25.945  1.00  0.00     0.041 C 
ATOM      6  O   UNL     1       9.544 -25.374  26.775  1.00  0.00    -0.550 OA
ATOM      7  O   UNL     1       9.462 -24.560  24.635  1.00  0.00    -0.550 OA
ENDBRANCH   4   5
ENDBRANCH   3   4
ENDBRANCH   2   3
ENDBRANCH   1   2
BRANCH   1   8
ATOM      8  C   UNL     1      13.848 -22.182  22.679  1.00  0.00     0.000 C 
BRANCH   8   9
ATOM      9  C   UNL     1      12.621 -22.686  21.888  1.00  0.00     0.006 C 
BRANCH   9  10
ATOM     10  C   UNL     1      12.927 -22.863  20.395  1.00  0.00     0.053 C 
BRANCH  10  11
ATOM     11  C   UNL     1      14.047 -23.834  20.201  1.00  0.00     0.041 C 
ATOM     12  O   UNL     1      13.916 -25.034  20.561  1.00  0.00    -0.550 OA
ATOM     13  O   UNL     1      15.221 -23.427  19.578  1.00  0.00    -0.550 OA
ENDBRANCH  10  11
ENDBRANCH   9  10
ENDBRANCH   8   9
ENDBRANCH   1   8
TORSDOF 8
ENDMDL
MODEL 9
REMARK VINA RESULT:    -4.664      2.541      5.851
REMARK INTER + INTRA:          -7.155
REMARK INTER:                  -6.549
REMARK INTRA:                  -0.606
REMARK UNBOUND:                -0.310
REMARK SMILES O=C([O-])CCCCCCCC(=O)[O-]
REMARK SMILES IDX 7 1 6 2 5 3 4 4 2 5 1 6 3 7 8 8 9 9 10 10 11 11 12 12 13 13
REMARK H PARENT
REMARK Flexibility Score: inf
ROOT
ATOM      1  C   UNL     1      14.205 -22.153  22.516  1.00  0.00     0.000 C 
ENDROOT
BRANCH   1   2
ATOM      2  C   UNL     1      14.470 -22.547  23.978  1.00  0.00     0.000 C 
BRANCH   2   3
ATOM      3  C   UNL     1      13.179 -22.642  24.807  1.00  0.00     0.006 C 
BRANCH   3   4
ATOM      4  C   UNL     1      11.915 -22.448  23.959  1.00  0.00     0.053 C 
BRANCH   4   5
ATOM      5  C   UNL     1      10.707 -22.911  24.709  1.00  0.00     0.041 C 
ATOM      6  O   UNL     1      10.227 -24.055  24.492  1.00  0.00    -0.550 OA
ATOM      7  O   UNL     1      10.140 -22.101  25.683  1.00  0.00    -0.550 OA
ENDBRANCH   4   5
ENDBRANCH   3   4
ENDBRANCH   2   3
ENDBRANCH   1   2
BRANCH   1   8
ATOM      8  C   UNL     1      14.967 -23.036  21.513  1.00  0.00     0.000 C 
BRANCH   8   9
ATOM      9  C   UNL     1      14.227 -23.231  20.172  1.00  0.00     0.006 C 
BRANCH   9  10
ATOM     10  C   UNL     1      12.703 -23.262  20.350  1.00  0.00     0.053 C 
BRANCH  10  11
ATOM     11  C   UNL     1      12.246 -24.639  20.711  1.00  0.00     0.041 C 
ATOM     12  O   UNL     1      11.147 -24.807  21.303  1.00  0.00    -0.550 OA
ATOM     13  O   UNL     1      13.010 -25.742  20.351  1.00  0.00    -0.550 OA
ENDBRANCH  10  11
ENDBRANCH   9  10
ENDBRANCH   8   9
ENDBRANCH   1   8
TORSDOF 8
ENDMDL
