MODEL 1
REMARK VINA RESULT:    -7.037      0.000      0.000
REMARK INTER + INTRA:          -8.795
REMARK INTER:                  -8.477
REMARK INTRA:                  -0.318
REMARK UNBOUND:                -0.318
REMARK SMILES O=c1c(O)c(-c2ccc(O)c(O)c2)oc2cc(O)cc(O)c12
REMARK SMILES IDX 5 1 3 2 2 3 1 4 22 5 20 6 19 7 17 8 16 9 15 10 14 11 6 12
REMARK SMILES IDX 7 13 8 14 9 15 13 16 11 17 10 18 12 20 4 22 21 24 18 26
REMARK H PARENT 10 19 12 21 4 23 21 25 18 27
REMARK Flexibility Score: inf
ROOT
ATOM      1  C   UNL     1     126.420 132.745 130.703  1.00  0.00     0.180 A 
ATOM      2  C   UNL     1     125.153 132.941 131.285  1.00  0.00     0.208 A 
ATOM      3  C   UNL     1     124.277 133.873 130.708  1.00  0.00     0.238 A 
ATOM      4  O   UNL     1     123.144 134.066 131.228  1.00  0.00    -0.285 OA
ATOM      5  C   UNL     1     124.672 134.576 129.551  1.00  0.00     0.111 A 
ATOM      6  C   UNL     1     123.848 135.529 128.904  1.00  0.00     0.134 A 
ATOM      7  C   UNL     1     124.310 136.180 127.751  1.00  0.00     0.093 A 
ATOM      8  C   UNL     1     125.578 135.895 127.232  1.00  0.00     0.123 A 
ATOM      9  C   UNL     1     126.394 134.957 127.866  1.00  0.00     0.094 A 
ATOM     10  C   UNL     1     125.953 134.299 129.018  1.00  0.00     0.146 A 
ATOM     11  O   UNL     1     126.752 133.415 129.603  1.00  0.00    -0.452 OA
ENDROOT
BRANCH   1  12
ATOM     12  C   UNL     1     127.405 131.794 131.265  1.00  0.00     0.025 A 
ATOM     13  C   UNL     1     128.358 132.251 132.189  1.00  0.00     0.016 A 
ATOM     14  C   UNL     1     129.284 131.367 132.748  1.00  0.00     0.051 A 
ATOM     15  C   UNL     1     129.261 130.009 132.403  1.00  0.00     0.157 A 
ATOM     16  C   UNL     1     127.372 130.426 130.937  1.00  0.00     0.062 A 
ATOM     17  C   UNL     1     128.300 129.537 131.499  1.00  0.00     0.158 A 
BRANCH  15  18
ATOM     18  O   UNL     1     130.184 129.124 132.956  1.00  0.00    -0.504 OA
ATOM     19  H   UNL     1     130.636 128.411 132.394  1.00  0.00     0.293 HD
ENDBRANCH  15  18
BRANCH  17  20
ATOM     20  O   UNL     1     128.271 128.183 131.168  1.00  0.00    -0.504 OA
ATOM     21  H   UNL     1     128.640 127.845 130.288  1.00  0.00     0.293 HD
ENDBRANCH  17  20
ENDBRANCH   1  12
BRANCH   2  22
ATOM     22  O   UNL     1     124.767 132.196 132.403  1.00  0.00    -0.502 OA
ATOM     23  H   UNL     1     125.372 132.071 133.206  1.00  0.00     0.293 HD
ENDBRANCH   2  22
BRANCH   6  24
ATOM     24  O   UNL     1     122.579 135.833 129.398  1.00  0.00    -0.507 OA
ATOM     25  H   UNL     1     122.448 136.456 130.186  1.00  0.00     0.293 HD
ENDBRANCH   6  24
BRANCH   8  26
ATOM     26  O   UNL     1     126.036 136.541 126.085  1.00  0.00    -0.508 OA
ATOM     27  H   UNL     1     125.788 136.215 125.158  1.00  0.00     0.293 HD
ENDBRANCH   8  26
TORSDOF 6
ENDMDL
MODEL 2
REMARK VINA RESULT:    -6.612      4.922      9.968
REMARK INTER + INTRA:          -8.282
REMARK INTER:                  -8.007
REMARK INTRA:                  -0.275
REMARK UNBOUND:                -0.318
REMARK SMILES O=c1c(O)c(-c2ccc(O)c(O)c2)oc2cc(O)cc(O)c12
REMARK SMILES IDX 5 1 3 2 2 3 1 4 22 5 20 6 19 7 17 8 16 9 15 10 14 11 6 12
REMARK SMILES IDX 7 13 8 14 9 15 13 16 11 17 10 18 12 20 4 22 21 24 18 26
REMARK H PARENT 10 19 12 21 4 23 21 25 18 27
REMARK Flexibility Score: inf
ROOT
ATOM      1  C   UNL     1     131.890 129.163 130.550  1.00  0.00     0.180 A 
ATOM      2  C   UNL     1     131.687 128.530 129.309  1.00  0.00     0.208 A 
ATOM      3  C   UNL     1     132.425 127.375 129.007  1.00  0.00     0.238 A 
ATOM      4  O   UNL     1     132.260 126.807 127.893  1.00  0.00    -0.285 OA
ATOM      5  C   UNL     1     133.335 126.863 129.954  1.00  0.00     0.111 A 
ATOM      6  C   UNL     1     134.115 125.702 129.729  1.00  0.00     0.134 A 
ATOM      7  C   UNL     1     134.992 125.250 130.727  1.00  0.00     0.093 A 
ATOM      8  C   UNL     1     135.103 125.934 131.941  1.00  0.00     0.123 A 
ATOM      9  C   UNL     1     134.337 127.079 132.167  1.00  0.00     0.094 A 
ATOM     10  C   UNL     1     133.459 127.547 131.185  1.00  0.00     0.146 A 
ATOM     11  O   UNL     1     132.746 128.642 131.425  1.00  0.00    -0.452 OA
ENDROOT
BRANCH   1  12
ATOM     12  C   UNL     1     131.163 130.394 130.934  1.00  0.00     0.025 A 
ATOM     13  C   UNL     1     130.163 130.328 131.917  1.00  0.00     0.016 A 
ATOM     14  C   UNL     1     129.479 131.481 132.310  1.00  0.00     0.051 A 
ATOM     15  C   UNL     1     129.796 132.720 131.737  1.00  0.00     0.157 A 
ATOM     16  C   UNL     1     131.492 131.643 130.376  1.00  0.00     0.062 A 
ATOM     17  C   UNL     1     130.808 132.801 130.772  1.00  0.00     0.158 A 
BRANCH  15  18
ATOM     18  O   UNL     1     129.115 133.872 132.124  1.00  0.00    -0.504 OA
ATOM     19  H   UNL     1     129.316 134.772 131.703  1.00  0.00     0.293 HD
ENDBRANCH  15  18
BRANCH  17  20
ATOM     20  O   UNL     1     131.131 134.037 130.213  1.00  0.00    -0.504 OA
ATOM     21  H   UNL     1     132.036 134.466 130.363  1.00  0.00     0.293 HD
ENDBRANCH  17  20
ENDBRANCH   1  12
BRANCH   2  22
ATOM     22  O   UNL     1     130.743 129.030 128.408  1.00  0.00    -0.502 OA
ATOM     23  H   UNL     1     131.004 129.589 127.604  1.00  0.00     0.293 HD
ENDBRANCH   2  22
BRANCH   6  24
ATOM     24  O   UNL     1     134.024 124.998 128.528  1.00  0.00    -0.507 OA
ATOM     25  H   UNL     1     133.142 124.882 128.043  1.00  0.00     0.293 HD
ENDBRANCH   6  24
BRANCH   8  26
ATOM     26  O   UNL     1     135.974 125.484 132.933  1.00  0.00    -0.508 OA
ATOM     27  H   UNL     1     136.001 125.915 133.850  1.00  0.00     0.293 HD
ENDBRANCH   8  26
TORSDOF 6
ENDMDL
MODEL 3
REMARK VINA RESULT:    -6.607      1.534      3.106
REMARK INTER + INTRA:          -8.277
REMARK INTER:                  -7.991
REMARK INTRA:                  -0.286
REMARK UNBOUND:                -0.318
REMARK SMILES O=c1c(O)c(-c2ccc(O)c(O)c2)oc2cc(O)cc(O)c12
REMARK SMILES IDX 5 1 3 2 2 3 1 4 22 5 20 6 19 7 17 8 16 9 15 10 14 11 6 12
REMARK SMILES IDX 7 13 8 14 9 15 13 16 11 17 10 18 12 20 4 22 21 24 18 26
REMARK H PARENT 10 19 12 21 4 23 21 25 18 27
REMARK Flexibility Score: inf
ROOT
ATOM      1  C   UNL     1     127.526 132.691 129.236  1.00  0.00     0.180 A 
ATOM      2  C   UNL     1     127.973 132.742 127.902  1.00  0.00     0.208 A 
ATOM      3  C   UNL     1     127.356 133.635 127.013  1.00  0.00     0.238 A 
ATOM      4  O   UNL     1     127.740 133.680 125.812  1.00  0.00    -0.285 OA
ATOM      5  C   UNL     1     126.321 134.474 127.474  1.00  0.00     0.111 A 
ATOM      6  C   UNL     1     125.650 135.405 126.644  1.00  0.00     0.134 A 
ATOM      7  C   UNL     1     124.636 136.212 127.182  1.00  0.00     0.093 A 
ATOM      8  C   UNL     1     124.282 136.106 128.531  1.00  0.00     0.123 A 
ATOM      9  C   UNL     1     124.940 135.190 129.353  1.00  0.00     0.094 A 
ATOM     10  C   UNL     1     125.952 134.375 128.836  1.00  0.00     0.146 A 
ATOM     11  O   UNL     1     126.557 133.509 129.640  1.00  0.00    -0.452 OA
ENDROOT
BRANCH   1  12
ATOM     12  C   UNL     1     128.113 131.763 130.229  1.00  0.00     0.025 A 
ATOM     13  C   UNL     1     128.957 132.267 131.231  1.00  0.00     0.016 A 
ATOM     14  C   UNL     1     129.506 131.412 132.191  1.00  0.00     0.051 A 
ATOM     15  C   UNL     1     129.206 130.044 132.171  1.00  0.00     0.157 A 
ATOM     16  C   UNL     1     127.799 130.392 130.225  1.00  0.00     0.062 A 
ATOM     17  C   UNL     1     128.347 129.533 131.189  1.00  0.00     0.158 A 
BRANCH  15  18
ATOM     18  O   UNL     1     129.752 129.187 133.124  1.00  0.00    -0.504 OA
ATOM     19  H   UNL     1     130.460 129.504 133.778  1.00  0.00     0.293 HD
ENDBRANCH  15  18
BRANCH  17  20
ATOM     20  O   UNL     1     128.040 128.174 131.181  1.00  0.00    -0.504 OA
ATOM     21  H   UNL     1     128.753 127.469 131.324  1.00  0.00     0.293 HD
ENDBRANCH  17  20
ENDBRANCH   1  12
BRANCH   2  22
ATOM     22  O   UNL     1     129.033 131.934 127.482  1.00  0.00    -0.502 OA
ATOM     23  H   UNL     1     129.883 131.830 128.024  1.00  0.00     0.293 HD
ENDBRANCH   2  22
BRANCH   6  24
ATOM     24  O   UNL     1     125.983 135.533 125.295  1.00  0.00    -0.507 OA
ATOM     25  H   UNL     1     126.901 135.843 125.000  1.00  0.00     0.293 HD
ENDBRANCH   6  24
BRANCH   8  26
ATOM     26  O   UNL     1     123.276 136.909 129.066  1.00  0.00    -0.508 OA
ATOM     27  H   UNL     1     123.137 136.990 130.067  1.00  0.00     0.293 HD
ENDBRANCH   8  26
TORSDOF 6
ENDMDL
MODEL 4
REMARK VINA RESULT:    -6.592      0.772      1.498
REMARK INTER + INTRA:          -8.258
REMARK INTER:                  -7.946
REMARK INTRA:                  -0.312
REMARK UNBOUND:                -0.318
REMARK SMILES O=c1c(O)c(-c2ccc(O)c(O)c2)oc2cc(O)cc(O)c12
REMARK SMILES IDX 5 1 3 2 2 3 1 4 22 5 20 6 19 7 17 8 16 9 15 10 14 11 6 12
REMARK SMILES IDX 7 13 8 14 9 15 13 16 11 17 10 18 12 20 4 22 21 24 18 26
REMARK H PARENT 10 19 12 21 4 23 21 25 18 27
REMARK Flexibility Score: inf
ROOT
ATOM      1  C   UNL     1     126.655 132.483 130.468  1.00  0.00     0.180 A 
ATOM      2  C   UNL     1     125.457 132.661 131.187  1.00  0.00     0.208 A 
ATOM      3  C   UNL     1     124.537 133.624 130.745  1.00  0.00     0.238 A 
ATOM      4  O   UNL     1     123.466 133.801 131.388  1.00  0.00    -0.285 OA
ATOM      5  C   UNL     1     124.818 134.375 129.585  1.00  0.00     0.111 A 
ATOM      6  C   UNL     1     123.942 135.362 129.070  1.00  0.00     0.134 A 
ATOM      7  C   UNL     1     124.290 136.061 127.905  1.00  0.00     0.093 A 
ATOM      8  C   UNL     1     125.493 135.791 127.245  1.00  0.00     0.123 A 
ATOM      9  C   UNL     1     126.360 134.820 127.748  1.00  0.00     0.094 A 
ATOM     10  C   UNL     1     126.033 134.114 128.910  1.00  0.00     0.146 A 
ATOM     11  O   UNL     1     126.879 133.200 129.369  1.00  0.00    -0.452 OA
ENDROOT
BRANCH   1  12
ATOM     12  C   UNL     1     127.682 131.501 130.882  1.00  0.00     0.025 A 
ATOM     13  C   UNL     1     127.560 130.162 130.478  1.00  0.00     0.016 A 
ATOM     14  C   UNL     1     128.529 129.222 130.839  1.00  0.00     0.051 A 
ATOM     15  C   UNL     1     129.642 129.611 131.595  1.00  0.00     0.157 A 
ATOM     16  C   UNL     1     128.812 131.891 131.623  1.00  0.00     0.062 A 
ATOM     17  C   UNL     1     129.787 130.949 131.984  1.00  0.00     0.158 A 
BRANCH  15  18
ATOM     18  O   UNL     1     130.610 128.677 131.960  1.00  0.00    -0.504 OA
ATOM     19  H   UNL     1     131.388 128.455 131.349  1.00  0.00     0.293 HD
ENDBRANCH  15  18
BRANCH  17  20
ATOM     20  O   UNL     1     130.903 131.336 132.724  1.00  0.00    -0.504 OA
ATOM     21  H   UNL     1     131.546 130.654 133.108  1.00  0.00     0.293 HD
ENDBRANCH  17  20
ENDBRANCH   1  12
BRANCH   2  22
ATOM     22  O   UNL     1     125.181 131.869 132.304  1.00  0.00    -0.502 OA
ATOM     23  H   UNL     1     125.850 131.207 132.679  1.00  0.00     0.293 HD
ENDBRANCH   2  22
BRANCH   6  24
ATOM     24  O   UNL     1     122.734 135.652 129.706  1.00  0.00    -0.507 OA
ATOM     25  H   UNL     1     121.894 135.866 129.182  1.00  0.00     0.293 HD
ENDBRANCH   6  24
BRANCH   8  26
ATOM     26  O   UNL     1     125.838 136.485 126.086  1.00  0.00    -0.508 OA
ATOM     27  H   UNL     1     125.138 136.944 125.515  1.00  0.00     0.293 HD
ENDBRANCH   8  26
TORSDOF 6
ENDMDL
MODEL 5
REMARK VINA RESULT:    -6.558      1.352      1.404
REMARK INTER + INTRA:          -8.218
REMARK INTER:                  -8.000
REMARK INTRA:                  -0.218
REMARK UNBOUND:                -0.318
REMARK SMILES O=c1c(O)c(-c2ccc(O)c(O)c2)oc2cc(O)cc(O)c12
REMARK SMILES IDX 5 1 3 2 2 3 1 4 22 5 20 6 19 7 17 8 16 9 15 10 14 11 6 12
REMARK SMILES IDX 7 13 8 14 9 15 13 16 11 17 10 18 12 20 4 22 21 24 18 26
REMARK H PARENT 10 19 12 21 4 23 21 25 18 27
REMARK Flexibility Score: inf
ROOT
ATOM      1  C   UNL     1     127.187 132.745 129.823  1.00  0.00     0.180 A 
ATOM      2  C   UNL     1     126.354 133.350 130.783  1.00  0.00     0.208 A 
ATOM      3  C   UNL     1     125.497 134.387 130.382  1.00  0.00     0.238 A 
ATOM      4  O   UNL     1     124.755 134.944 131.236  1.00  0.00    -0.285 OA
ATOM      5  C   UNL     1     125.472 134.786 129.030  1.00  0.00     0.111 A 
ATOM      6  C   UNL     1     124.634 135.820 128.543  1.00  0.00     0.134 A 
ATOM      7  C   UNL     1     124.661 136.151 127.180  1.00  0.00     0.093 A 
ATOM      8  C   UNL     1     125.506 135.471 126.297  1.00  0.00     0.123 A 
ATOM      9  C   UNL     1     126.334 134.452 126.773  1.00  0.00     0.094 A 
ATOM     10  C   UNL     1     126.324 134.108 128.128  1.00  0.00     0.146 A 
ATOM     11  O   UNL     1     127.125 133.138 128.553  1.00  0.00    -0.452 OA
ENDROOT
BRANCH   1  12
ATOM     12  C   UNL     1     128.131 131.659 130.172  1.00  0.00     0.025 A 
ATOM     13  C   UNL     1     129.509 131.926 130.206  1.00  0.00     0.016 A 
ATOM     14  C   UNL     1     130.416 130.922 130.553  1.00  0.00     0.051 A 
ATOM     15  C   UNL     1     129.957 129.640 130.886  1.00  0.00     0.157 A 
ATOM     16  C   UNL     1     127.673 130.378 130.528  1.00  0.00     0.062 A 
ATOM     17  C   UNL     1     128.583 129.369 130.878  1.00  0.00     0.158 A 
BRANCH  15  18
ATOM     18  O   UNL     1     130.858 128.635 131.231  1.00  0.00    -0.504 OA
ATOM     19  H   UNL     1     131.849 128.721 131.035  1.00  0.00     0.293 HD
ENDBRANCH  15  18
BRANCH  17  20
ATOM     20  O   UNL     1     128.129 128.098 131.224  1.00  0.00    -0.504 OA
ATOM     21  H   UNL     1     127.895 127.860 132.180  1.00  0.00     0.293 HD
ENDBRANCH  17  20
ENDBRANCH   1  12
BRANCH   2  22
ATOM     22  O   UNL     1     126.362 132.903 132.107  1.00  0.00    -0.502 OA
ATOM     23  H   UNL     1     125.516 132.821 132.657  1.00  0.00     0.293 HD
ENDBRANCH   2  22
BRANCH   6  24
ATOM     24  O   UNL     1     123.780 136.515 129.400  1.00  0.00    -0.507 OA
ATOM     25  H   UNL     1     122.797 136.639 129.187  1.00  0.00     0.293 HD
ENDBRANCH   6  24
BRANCH   8  26
ATOM     26  O   UNL     1     125.532 135.801 124.943  1.00  0.00    -0.508 OA
ATOM     27  H   UNL     1     126.303 136.319 124.538  1.00  0.00     0.293 HD
ENDBRANCH   8  26
TORSDOF 6
ENDMDL
MODEL 6
REMARK VINA RESULT:    -6.509      4.772      9.748
REMARK INTER + INTRA:          -8.158
REMARK INTER:                  -7.920
REMARK INTRA:                  -0.238
REMARK UNBOUND:                -0.318
REMARK SMILES O=c1c(O)c(-c2ccc(O)c(O)c2)oc2cc(O)cc(O)c12
REMARK SMILES IDX 5 1 3 2 2 3 1 4 22 5 20 6 19 7 17 8 16 9 15 10 14 11 6 12
REMARK SMILES IDX 7 13 8 14 9 15 13 16 11 17 10 18 12 20 4 22 21 24 18 26
REMARK H PARENT 10 19 12 21 4 23 21 25 18 27
REMARK Flexibility Score: inf
ROOT
ATOM      1  C   UNL     1     131.821 129.263 130.485  1.00  0.00     0.180 A 
ATOM      2  C   UNL     1     132.274 128.928 131.775  1.00  0.00     0.208 A 
ATOM      3  C   UNL     1     133.094 127.800 131.936  1.00  0.00     0.238 A 
ATOM      4  O   UNL     1     133.496 127.483 133.089  1.00  0.00    -0.285 OA
ATOM      5  C   UNL     1     133.463 127.041 130.806  1.00  0.00     0.111 A 
ATOM      6  C   UNL     1     134.290 125.893 130.881  1.00  0.00     0.134 A 
ATOM      7  C   UNL     1     134.620 125.197 129.709  1.00  0.00     0.093 A 
ATOM      8  C   UNL     1     134.142 125.627 128.466  1.00  0.00     0.123 A 
ATOM      9  C   UNL     1     133.327 126.757 128.388  1.00  0.00     0.094 A 
ATOM     10  C   UNL     1     132.984 127.463 129.544  1.00  0.00     0.146 A 
ATOM     11  O   UNL     1     132.203 128.532 129.441  1.00  0.00    -0.452 OA
ENDROOT
BRANCH   1  12
ATOM     12  C   UNL     1     130.939 130.425 130.238  1.00  0.00     0.025 A 
ATOM     13  C   UNL     1     129.579 130.214 129.960  1.00  0.00     0.016 A 
ATOM     14  C   UNL     1     128.723 131.297 129.745  1.00  0.00     0.051 A 
ATOM     15  C   UNL     1     129.212 132.608 129.819  1.00  0.00     0.157 A 
ATOM     16  C   UNL     1     131.420 131.743 130.332  1.00  0.00     0.062 A 
ATOM     17  C   UNL     1     130.562 132.832 130.118  1.00  0.00     0.158 A 
BRANCH  15  18
ATOM     18  O   UNL     1     128.363 133.692 129.602  1.00  0.00    -0.504 OA
ATOM     19  H   UNL     1     128.695 134.547 129.171  1.00  0.00     0.293 HD
ENDBRANCH  15  18
BRANCH  17  20
ATOM     20  O   UNL     1     131.042 134.138 130.205  1.00  0.00    -0.504 OA
ATOM     21  H   UNL     1     131.708 134.503 129.535  1.00  0.00     0.293 HD
ENDBRANCH  17  20
ENDBRANCH   1  12
BRANCH   2  22
ATOM     22  O   UNL     1     131.933 129.724 132.872  1.00  0.00    -0.502 OA
ATOM     23  H   UNL     1     132.214 129.494 133.818  1.00  0.00     0.293 HD
ENDBRANCH   2  22
BRANCH   6  24
ATOM     24  O   UNL     1     134.783 125.442 132.106  1.00  0.00    -0.507 OA
ATOM     25  H   UNL     1     134.297 124.739 132.650  1.00  0.00     0.293 HD
ENDBRANCH   6  24
BRANCH   8  26
ATOM     26  O   UNL     1     134.471 124.935 127.301  1.00  0.00    -0.508 OA
ATOM     27  H   UNL     1     134.511 125.401 126.402  1.00  0.00     0.293 HD
ENDBRANCH   8  26
TORSDOF 6
ENDMDL
MODEL 7
REMARK VINA RESULT:    -6.455      2.720      7.721
REMARK INTER + INTRA:          -8.093
REMARK INTER:                  -7.825
REMARK INTRA:                  -0.269
REMARK UNBOUND:                -0.318
REMARK SMILES O=c1c(O)c(-c2ccc(O)c(O)c2)oc2cc(O)cc(O)c12
REMARK SMILES IDX 5 1 3 2 2 3 1 4 22 5 20 6 19 7 17 8 16 9 15 10 14 11 6 12
REMARK SMILES IDX 7 13 8 14 9 15 13 16 11 17 10 18 12 20 4 22 21 24 18 26
REMARK H PARENT 10 19 12 21 4 23 21 25 18 27
REMARK Flexibility Score: inf
ROOT
ATOM      1  C   UNL     1     129.153 131.198 131.119  1.00  0.00     0.180 A 
ATOM      2  C   UNL     1     130.202 131.835 131.808  1.00  0.00     0.208 A 
ATOM      3  C   UNL     1     131.442 131.184 131.909  1.00  0.00     0.238 A 
ATOM      4  O   UNL     1     132.386 131.740 132.534  1.00  0.00    -0.285 OA
ATOM      5  C   UNL     1     131.618 129.923 131.304  1.00  0.00     0.111 A 
ATOM      6  C   UNL     1     132.836 129.202 131.356  1.00  0.00     0.134 A 
ATOM      7  C   UNL     1     132.933 127.956 130.720  1.00  0.00     0.093 A 
ATOM      8  C   UNL     1     131.839 127.418 130.034  1.00  0.00     0.123 A 
ATOM      9  C   UNL     1     130.636 128.124 129.981  1.00  0.00     0.094 A 
ATOM     10  C   UNL     1     130.517 129.367 130.611  1.00  0.00     0.146 A 
ATOM     11  O   UNL     1     129.360 130.014 130.549  1.00  0.00    -0.452 OA
ENDROOT
BRANCH   1  12
ATOM     12  C   UNL     1     127.812 131.812 130.986  1.00  0.00     0.025 A 
ATOM     13  C   UNL     1     127.612 132.839 130.050  1.00  0.00     0.016 A 
ATOM     14  C   UNL     1     126.350 133.418 129.893  1.00  0.00     0.051 A 
ATOM     15  C   UNL     1     125.267 132.967 130.658  1.00  0.00     0.157 A 
ATOM     16  C   UNL     1     126.717 131.348 131.737  1.00  0.00     0.062 A 
ATOM     17  C   UNL     1     125.449 131.927 131.578  1.00  0.00     0.158 A 
BRANCH  15  18
ATOM     18  O   UNL     1     124.007 133.542 130.506  1.00  0.00    -0.504 OA
ATOM     19  H   UNL     1     123.840 134.283 129.834  1.00  0.00     0.293 HD
ENDBRANCH  15  18
BRANCH  17  20
ATOM     20  O   UNL     1     124.366 131.471 132.328  1.00  0.00    -0.504 OA
ATOM     21  H   UNL     1     123.424 131.476 131.956  1.00  0.00     0.293 HD
ENDBRANCH  17  20
ENDBRANCH   1  12
BRANCH   2  22
ATOM     22  O   UNL     1     130.017 133.107 132.356  1.00  0.00    -0.502 OA
ATOM     23  H   UNL     1     129.642 133.880 131.819  1.00  0.00     0.293 HD
ENDBRANCH   2  22
BRANCH   6  24
ATOM     24  O   UNL     1     133.945 129.714 132.030  1.00  0.00    -0.507 OA
ATOM     25  H   UNL     1     134.510 129.137 132.642  1.00  0.00     0.293 HD
ENDBRANCH   6  24
BRANCH   8  26
ATOM     26  O   UNL     1     131.936 126.180 129.402  1.00  0.00    -0.508 OA
ATOM     27  H   UNL     1     131.270 125.438 129.583  1.00  0.00     0.293 HD
ENDBRANCH   8  26
TORSDOF 6
ENDMDL
MODEL 8
REMARK VINA RESULT:    -6.417      2.378      6.667
REMARK INTER + INTRA:          -8.047
REMARK INTER:                  -7.715
REMARK INTRA:                  -0.332
REMARK UNBOUND:                -0.318
REMARK SMILES O=c1c(O)c(-c2ccc(O)c(O)c2)oc2cc(O)cc(O)c12
REMARK SMILES IDX 5 1 3 2 2 3 1 4 22 5 20 6 19 7 17 8 16 9 15 10 14 11 6 12
REMARK SMILES IDX 7 13 8 14 9 15 13 16 11 17 10 18 12 20 4 22 21 24 18 26
REMARK H PARENT 10 19 12 21 4 23 21 25 18 27
REMARK Flexibility Score: inf
ROOT
ATOM      1  C   UNL     1     126.597 133.845 128.397  1.00  0.00     0.180 A 
ATOM      2  C   UNL     1     125.754 133.421 129.441  1.00  0.00     0.208 A 
ATOM      3  C   UNL     1     126.331 132.957 130.634  1.00  0.00     0.238 A 
ATOM      4  O   UNL     1     125.585 132.563 131.572  1.00  0.00    -0.285 OA
ATOM      5  C   UNL     1     127.734 132.944 130.770  1.00  0.00     0.111 A 
ATOM      6  C   UNL     1     128.395 132.496 131.940  1.00  0.00     0.134 A 
ATOM      7  C   UNL     1     129.796 132.525 132.001  1.00  0.00     0.093 A 
ATOM      8  C   UNL     1     130.547 132.992 130.917  1.00  0.00     0.123 A 
ATOM      9  C   UNL     1     129.900 133.434 129.762  1.00  0.00     0.094 A 
ATOM     10  C   UNL     1     128.505 133.412 129.680  1.00  0.00     0.146 A 
ATOM     11  O   UNL     1     127.916 133.833 128.567  1.00  0.00    -0.452 OA
ENDROOT
BRANCH   1  12
ATOM     12  C   UNL     1     126.065 134.330 127.103  1.00  0.00     0.025 A 
ATOM     13  C   UNL     1     125.918 135.709 126.890  1.00  0.00     0.016 A 
ATOM     14  C   UNL     1     125.438 136.190 125.669  1.00  0.00     0.051 A 
ATOM     15  C   UNL     1     125.112 135.299 124.638  1.00  0.00     0.157 A 
ATOM     16  C   UNL     1     125.756 133.440 126.059  1.00  0.00     0.062 A 
ATOM     17  C   UNL     1     125.276 133.921 124.832  1.00  0.00     0.158 A 
BRANCH  15  18
ATOM     18  O   UNL     1     124.631 135.773 123.420  1.00  0.00    -0.504 OA
ATOM     19  H   UNL     1     125.236 136.247 122.759  1.00  0.00     0.293 HD
ENDBRANCH  15  18
BRANCH  17  20
ATOM     20  O   UNL     1     124.964 133.037 123.800  1.00  0.00    -0.504 OA
ATOM     21  H   UNL     1     124.005 132.801 123.577  1.00  0.00     0.293 HD
ENDBRANCH  17  20
ENDBRANCH   1  12
BRANCH   2  22
ATOM     22  O   UNL     1     124.365 133.489 129.299  1.00  0.00    -0.502 OA
ATOM     23  H   UNL     1     123.848 134.351 129.428  1.00  0.00     0.293 HD
ENDBRANCH   2  22
BRANCH   6  24
ATOM     24  O   UNL     1     127.672 132.026 133.037  1.00  0.00    -0.507 OA
ATOM     25  H   UNL     1     127.253 131.104 133.044  1.00  0.00     0.293 HD
ENDBRANCH   6  24
BRANCH   8  26
ATOM     26  O   UNL     1     131.939 133.021 130.979  1.00  0.00    -0.508 OA
ATOM     27  H   UNL     1     132.448 133.893 131.071  1.00  0.00     0.293 HD
ENDBRANCH   8  26
TORSDOF 6
ENDMDL
MODEL 9
REMARK VINA RESULT:    -6.344      2.477      3.642
REMARK INTER + INTRA:          -7.959
REMARK INTER:                  -7.653
REMARK INTRA:                  -0.306
REMARK UNBOUND:                -0.318
REMARK SMILES O=c1c(O)c(-c2ccc(O)c(O)c2)oc2cc(O)cc(O)c12
REMARK SMILES IDX 5 1 3 2 2 3 1 4 22 5 20 6 19 7 17 8 16 9 15 10 14 11 6 12
REMARK SMILES IDX 7 13 8 14 9 15 13 16 11 17 10 18 12 20 4 22 21 24 18 26
REMARK H PARENT 10 19 12 21 4 23 21 25 18 27
REMARK Flexibility Score: inf
ROOT
ATOM      1  C   UNL     1     129.265 131.426 130.655  1.00  0.00     0.180 A 
ATOM      2  C   UNL     1     128.108 131.070 131.375  1.00  0.00     0.208 A 
ATOM      3  C   UNL     1     126.892 131.694 131.056  1.00  0.00     0.238 A 
ATOM      4  O   UNL     1     125.852 131.392 131.703  1.00  0.00    -0.285 OA
ATOM      5  C   UNL     1     126.847 132.642 130.014  1.00  0.00     0.111 A 
ATOM      6  C   UNL     1     125.661 133.313 129.627  1.00  0.00     0.134 A 
ATOM      7  C   UNL     1     125.697 134.236 128.572  1.00  0.00     0.093 A 
ATOM      8  C   UNL     1     126.894 134.501 127.897  1.00  0.00     0.123 A 
ATOM      9  C   UNL     1     128.065 133.843 128.275  1.00  0.00     0.094 A 
ATOM     10  C   UNL     1     128.051 132.921 129.326  1.00  0.00     0.146 A 
ATOM     11  O   UNL     1     129.181 132.313 129.667  1.00  0.00    -0.452 OA
ENDROOT
BRANCH   1  12
ATOM     12  C   UNL     1     130.587 130.827 130.944  1.00  0.00     0.025 A 
ATOM     13  C   UNL     1     130.922 129.585 130.380  1.00  0.00     0.016 A 
ATOM     14  C   UNL     1     132.172 129.011 130.623  1.00  0.00     0.051 A 
ATOM     15  C   UNL     1     133.112 129.677 131.420  1.00  0.00     0.157 A 
ATOM     16  C   UNL     1     131.542 131.502 131.726  1.00  0.00     0.062 A 
ATOM     17  C   UNL     1     132.798 130.927 131.968  1.00  0.00     0.158 A 
BRANCH  15  18
ATOM     18  O   UNL     1     134.360 129.108 131.666  1.00  0.00    -0.504 OA
ATOM     19  H   UNL     1     134.672 128.280 131.171  1.00  0.00     0.293 HD
ENDBRANCH  15  18
BRANCH  17  20
ATOM     20  O   UNL     1     133.741 131.595 132.749  1.00  0.00    -0.504 OA
ATOM     21  H   UNL     1     134.731 131.549 132.539  1.00  0.00     0.293 HD
ENDBRANCH  17  20
ENDBRANCH   1  12
BRANCH   2  22
ATOM     22  O   UNL     1     128.170 130.092 132.370  1.00  0.00    -0.502 OA
ATOM     23  H   UNL     1     127.746 130.218 133.282  1.00  0.00     0.293 HD
ENDBRANCH   2  22
BRANCH   6  24
ATOM     24  O   UNL     1     124.453 133.068 130.280  1.00  0.00    -0.507 OA
ATOM     25  H   UNL     1     123.664 133.699 130.197  1.00  0.00     0.293 HD
ENDBRANCH   6  24
BRANCH   8  26
ATOM     26  O   UNL     1     126.929 135.419 126.849  1.00  0.00    -0.508 OA
ATOM     27  H   UNL     1     126.109 135.953 126.584  1.00  0.00     0.293 HD
ENDBRANCH   8  26
TORSDOF 6
ENDMDL
