MODEL 1
REMARK VINA RESULT:    -5.636      0.000      0.000
REMARK INTER + INTRA:          -6.597
REMARK INTER:                  -6.459
REMARK INTRA:                  -0.137
REMARK UNBOUND:                -0.137
REMARK SMILES O=C([O-])C=Cc1ccc(O)cc1
REMARK SMILES IDX 6 1 7 2 12 3 8 4 11 5 9 6 5 7 4 8 2 9 1 10 3 11 10 12
REMARK H PARENT 10 13
REMARK Flexibility Score: inf
ROOT
ATOM      1  C   UNL     1     -12.652   0.921  -9.627  1.00  0.00    -0.025 A 
ATOM      2  C   UNL     1     -14.053   1.032  -9.632  1.00  0.00     0.012 A 
ATOM      3  C   UNL     1     -11.882   2.035  -9.237  1.00  0.00     0.012 A 
ATOM      4  C   UNL     1     -14.673   2.221  -9.235  1.00  0.00     0.047 A 
ATOM      5  C   UNL     1     -12.506   3.223  -8.840  1.00  0.00     0.047 A 
ATOM      6  C   UNL     1     -13.900   3.318  -8.836  1.00  0.00     0.115 A 
ENDROOT
BRANCH   1   7
ATOM      7  C   UNL     1     -12.040  -0.358 -10.067  1.00  0.00     0.010 C 
ATOM      8  C   UNL     1     -10.868  -0.819  -9.612  1.00  0.00     0.025 C 
BRANCH   8   9
ATOM      9  C   UNL     1     -10.305  -2.100 -10.069  1.00  0.00     0.064 C 
ATOM     10  O   UNL     1      -9.351  -2.102 -10.889  1.00  0.00    -0.545 OA
ATOM     11  O   UNL     1     -10.811  -3.311  -9.610  1.00  0.00    -0.545 OA
ENDBRANCH   8   9
ENDBRANCH   1   7
BRANCH   6  12
ATOM     12  O   UNL     1     -14.507   4.507  -8.438  1.00  0.00    -0.508 OA
ATOM     13  H   UNL     1     -14.660   4.723  -7.460  1.00  0.00     0.293 HD
ENDBRANCH   6  12
TORSDOF 3
ENDMDL
MODEL 2
REMARK VINA RESULT:    -4.778     16.355     17.840
REMARK INTER + INTRA:          -5.614
REMARK INTER:                  -5.460
REMARK INTRA:                  -0.154
REMARK UNBOUND:                -0.137
REMARK SMILES O=C([O-])C=Cc1ccc(O)cc1
REMARK SMILES IDX 6 1 7 2 12 3 8 4 11 5 9 6 5 7 4 8 2 9 1 10 3 11 10 12
REMARK H PARENT 10 13
REMARK Flexibility Score: inf
ROOT
ATOM      1  C   UNL     1      -9.925   5.907   6.310  1.00  0.00    -0.025 A 
ATOM      2  C   UNL     1      -9.845   5.655   7.691  1.00  0.00     0.012 A 
ATOM      3  C   UNL     1     -10.751   5.086   5.516  1.00  0.00     0.012 A 
ATOM      4  C   UNL     1     -10.591   4.623   8.270  1.00  0.00     0.047 A 
ATOM      5  C   UNL     1     -11.496   4.056   6.099  1.00  0.00     0.047 A 
ATOM      6  C   UNL     1     -11.420   3.823   7.474  1.00  0.00     0.115 A 
ENDROOT
BRANCH   1   7
ATOM      7  C   UNL     1      -9.105   7.006   5.742  1.00  0.00     0.010 C 
ATOM      8  C   UNL     1      -8.430   7.893   6.485  1.00  0.00     0.025 C 
BRANCH   8   9
ATOM      9  C   UNL     1      -7.619   8.961   5.876  1.00  0.00     0.064 C 
ATOM     10  O   UNL     1      -7.907   9.379   4.726  1.00  0.00    -0.545 OA
ATOM     11  O   UNL     1      -6.538   9.514   6.552  1.00  0.00    -0.545 OA
ENDBRANCH   8   9
ENDBRANCH   1   7
BRANCH   6  12
ATOM     12  O   UNL     1     -12.168   2.793   8.040  1.00  0.00    -0.508 OA
ATOM     13  H   UNL     1     -12.398   2.786   9.027  1.00  0.00     0.293 HD
ENDBRANCH   6  12
TORSDOF 3
ENDMDL
MODEL 3
REMARK VINA RESULT:    -4.648     17.160     17.782
REMARK INTER + INTRA:          -5.464
REMARK INTER:                  -5.325
REMARK INTRA:                  -0.140
REMARK UNBOUND:                -0.137
REMARK SMILES O=C([O-])C=Cc1ccc(O)cc1
REMARK SMILES IDX 6 1 7 2 12 3 8 4 11 5 9 6 5 7 4 8 2 9 1 10 3 11 10 12
REMARK H PARENT 10 13
REMARK Flexibility Score: inf
ROOT
ATOM      1  C   UNL     1     -10.326   6.255   6.527  1.00  0.00    -0.025 A 
ATOM      2  C   UNL     1     -10.168   4.874   6.735  1.00  0.00     0.012 A 
ATOM      3  C   UNL     1     -11.625   6.801   6.547  1.00  0.00     0.012 A 
ATOM      4  C   UNL     1     -11.278   4.060   6.981  1.00  0.00     0.047 A 
ATOM      5  C   UNL     1     -12.733   5.984   6.795  1.00  0.00     0.047 A 
ATOM      6  C   UNL     1     -12.563   4.615   7.014  1.00  0.00     0.115 A 
ENDROOT
BRANCH   1   7
ATOM      7  C   UNL     1      -9.118   7.075   6.258  1.00  0.00     0.010 C 
ATOM      8  C   UNL     1      -9.119   8.414   6.227  1.00  0.00     0.025 C 
BRANCH   8   9
ATOM      9  C   UNL     1      -7.893   9.187   5.968  1.00  0.00     0.064 C 
ATOM     10  O   UNL     1      -7.159   9.527   6.931  1.00  0.00    -0.545 OA
ATOM     11  O   UNL     1      -7.534   9.550   4.675  1.00  0.00    -0.545 OA
ENDBRANCH   8   9
ENDBRANCH   1   7
BRANCH   6  12
ATOM     12  O   UNL     1     -13.677   3.814   7.260  1.00  0.00    -0.508 OA
ATOM     13  H   UNL     1     -13.675   3.115   7.993  1.00  0.00     0.293 HD
ENDBRANCH   6  12
TORSDOF 3
ENDMDL
MODEL 4
REMARK VINA RESULT:    -4.592     14.833     16.682
REMARK INTER + INTRA:          -5.400
REMARK INTER:                  -5.256
REMARK INTRA:                  -0.144
REMARK UNBOUND:                -0.137
REMARK SMILES O=C([O-])C=Cc1ccc(O)cc1
REMARK SMILES IDX 6 1 7 2 12 3 8 4 11 5 9 6 5 7 4 8 2 9 1 10 3 11 10 12
REMARK H PARENT 10 13
REMARK Flexibility Score: inf
ROOT
ATOM      1  C   UNL     1     -12.965   4.683   5.759  1.00  0.00    -0.025 A 
ATOM      2  C   UNL     1     -13.457   4.962   7.045  1.00  0.00     0.012 A 
ATOM      3  C   UNL     1     -11.911   3.757   5.620  1.00  0.00     0.012 A 
ATOM      4  C   UNL     1     -12.926   4.315   8.166  1.00  0.00     0.047 A 
ATOM      5  C   UNL     1     -11.383   3.112   6.743  1.00  0.00     0.047 A 
ATOM      6  C   UNL     1     -11.889   3.386   8.016  1.00  0.00     0.115 A 
ENDROOT
BRANCH   1   7
ATOM      7  C   UNL     1     -13.553   5.403   4.602  1.00  0.00     0.010 C 
ATOM      8  C   UNL     1     -13.730   6.731   4.563  1.00  0.00     0.025 C 
BRANCH   8   9
ATOM      9  C   UNL     1     -14.308   7.405   3.389  1.00  0.00     0.064 C 
ATOM     10  O   UNL     1     -14.743   8.580   3.499  1.00  0.00    -0.545 OA
ATOM     11  O   UNL     1     -14.382   6.763   2.158  1.00  0.00    -0.545 OA
ENDBRANCH   8   9
ENDBRANCH   1   7
BRANCH   6  12
ATOM     12  O   UNL     1     -11.354   2.735   9.125  1.00  0.00    -0.508 OA
ATOM     13  H   UNL     1     -10.712   3.203   9.755  1.00  0.00     0.293 HD
ENDBRANCH   6  12
TORSDOF 3
ENDMDL
MODEL 5
REMARK VINA RESULT:    -4.466      5.889      7.871
REMARK INTER + INTRA:          -5.256
REMARK INTER:                  -5.117
REMARK INTRA:                  -0.139
REMARK UNBOUND:                -0.137
REMARK SMILES O=C([O-])C=Cc1ccc(O)cc1
REMARK SMILES IDX 6 1 7 2 12 3 8 4 11 5 9 6 5 7 4 8 2 9 1 10 3 11 10 12
REMARK H PARENT 10 13
REMARK Flexibility Score: inf
ROOT
ATOM      1  C   UNL     1     -11.572  -5.841  -7.158  1.00  0.00    -0.025 A 
ATOM      2  C   UNL     1     -11.410  -6.349  -5.858  1.00  0.00     0.012 A 
ATOM      3  C   UNL     1     -12.803  -6.033  -7.815  1.00  0.00     0.012 A 
ATOM      4  C   UNL     1     -12.462  -7.012  -5.218  1.00  0.00     0.047 A 
ATOM      5  C   UNL     1     -13.853  -6.697  -7.172  1.00  0.00     0.047 A 
ATOM      6  C   UNL     1     -13.687  -7.185  -5.874  1.00  0.00     0.115 A 
ENDROOT
BRANCH   1   7
ATOM      7  C   UNL     1     -10.422  -5.153  -7.799  1.00  0.00     0.010 C 
ATOM      8  C   UNL     1     -10.550  -4.226  -8.758  1.00  0.00     0.025 C 
BRANCH   8   9
ATOM      9  C   UNL     1      -9.381  -3.562  -9.357  1.00  0.00     0.064 C 
ATOM     10  O   UNL     1      -9.438  -3.157 -10.547  1.00  0.00    -0.545 OA
ATOM     11  O   UNL     1      -8.211  -3.375  -8.630  1.00  0.00    -0.545 OA
ENDBRANCH   8   9
ENDBRANCH   1   7
BRANCH   6  12
ATOM     12  O   UNL     1     -14.742  -7.844  -5.246  1.00  0.00    -0.508 OA
ATOM     13  H   UNL     1     -15.346  -7.369  -4.587  1.00  0.00     0.293 HD
ENDBRANCH   6  12
TORSDOF 3
ENDMDL
MODEL 6
REMARK VINA RESULT:    -4.279      5.959      7.562
REMARK INTER + INTRA:          -5.042
REMARK INTER:                  -4.893
REMARK INTRA:                  -0.148
REMARK UNBOUND:                -0.137
REMARK SMILES O=C([O-])C=Cc1ccc(O)cc1
REMARK SMILES IDX 6 1 7 2 12 3 8 4 11 5 9 6 5 7 4 8 2 9 1 10 3 11 10 12
REMARK H PARENT 10 13
REMARK Flexibility Score: inf
ROOT
ATOM      1  C   UNL     1     -11.532  -5.135  -8.361  1.00  0.00    -0.025 A 
ATOM      2  C   UNL     1     -10.888  -5.145  -7.112  1.00  0.00     0.012 A 
ATOM      3  C   UNL     1     -10.998  -4.339  -9.395  1.00  0.00     0.012 A 
ATOM      4  C   UNL     1      -9.724  -4.398  -6.906  1.00  0.00     0.047 A 
ATOM      5  C   UNL     1      -9.833  -3.594  -9.185  1.00  0.00     0.047 A 
ATOM      6  C   UNL     1      -9.193  -3.623  -7.944  1.00  0.00     0.115 A 
ENDROOT
BRANCH   1   7
ATOM      7  C   UNL     1     -12.771  -5.935  -8.527  1.00  0.00     0.010 C 
ATOM      8  C   UNL     1     -13.059  -7.022  -7.798  1.00  0.00     0.025 C 
BRANCH   8   9
ATOM      9  C   UNL     1     -14.307  -7.779  -7.990  1.00  0.00     0.064 C 
ATOM     10  O   UNL     1     -14.985  -8.123  -6.987  1.00  0.00    -0.545 OA
ATOM     11  O   UNL     1     -14.749  -8.124  -9.262  1.00  0.00    -0.545 OA
ENDBRANCH   8   9
ENDBRANCH   1   7
BRANCH   6  12
ATOM     12  O   UNL     1      -8.033  -2.876  -7.750  1.00  0.00    -0.508 OA
ATOM     13  H   UNL     1      -7.734  -2.593  -6.824  1.00  0.00     0.293 HD
ENDBRANCH   6  12
TORSDOF 3
ENDMDL
MODEL 7
REMARK VINA RESULT:    -4.234     17.065     17.884
REMARK INTER + INTRA:          -4.990
REMARK INTER:                  -4.838
REMARK INTRA:                  -0.151
REMARK UNBOUND:                -0.137
REMARK SMILES O=C([O-])C=Cc1ccc(O)cc1
REMARK SMILES IDX 6 1 7 2 12 3 8 4 11 5 9 6 5 7 4 8 2 9 1 10 3 11 10 12
REMARK H PARENT 10 13
REMARK Flexibility Score: inf
ROOT
ATOM      1  C   UNL     1      -9.311   8.458   6.108  1.00  0.00    -0.025 A 
ATOM      2  C   UNL     1      -7.941   8.324   5.820  1.00  0.00     0.012 A 
ATOM      3  C   UNL     1      -9.884   9.745   6.101  1.00  0.00     0.012 A 
ATOM      4  C   UNL     1      -7.168   9.447   5.508  1.00  0.00     0.047 A 
ATOM      5  C   UNL     1      -9.108  10.865   5.788  1.00  0.00     0.047 A 
ATOM      6  C   UNL     1      -7.751  10.719   5.489  1.00  0.00     0.115 A 
ENDROOT
BRANCH   1   7
ATOM      7  C   UNL     1     -10.087   7.238   6.444  1.00  0.00     0.010 C 
ATOM      8  C   UNL     1      -9.539   6.025   6.598  1.00  0.00     0.025 C 
BRANCH   8   9
ATOM      9  C   UNL     1     -10.347   4.844   6.944  1.00  0.00     0.064 C 
ATOM     10  O   UNL     1     -11.022   4.271   6.050  1.00  0.00    -0.545 OA
ATOM     11  O   UNL     1     -10.379   4.352   8.243  1.00  0.00    -0.545 OA
ENDBRANCH   8   9
ENDBRANCH   1   7
BRANCH   6  12
ATOM     12  O   UNL     1      -6.990  11.844   5.178  1.00  0.00    -0.508 OA
ATOM     13  H   UNL     1      -6.493  11.922   4.299  1.00  0.00     0.293 HD
ENDBRANCH   6  12
TORSDOF 3
ENDMDL
