MODEL 1
REMARK VINA RESULT:    -3.590      0.000      0.000
REMARK INTER + INTRA:          -5.180
REMARK INTER:                  -4.640
REMARK INTRA:                  -0.540
REMARK UNBOUND:                -0.540
REMARK SMILES C=CC(=O)CCCCC
REMARK SMILES IDX 6 1 7 2 8 3 9 4 5 5 3 6 4 7 2 8 1 9
REMARK H PARENT
REMARK Flexibility Score: inf
ROOT
ATOM      1  C   UNL     1      15.486  19.043  58.107  1.00  0.00     0.008 C 
ENDROOT
BRANCH   1   2
ATOM      2  C   UNL     1      15.669  17.906  57.091  1.00  0.00     0.000 C 
BRANCH   2   3
ATOM      3  C   UNL     1      14.640  18.009  55.960  1.00  0.00    -0.003 C 
ATOM      4  C   UNL     1      14.075  16.639  55.601  1.00  0.00     0.004 C 
ENDBRANCH   2   3
ENDBRANCH   1   2
BRANCH   1   5
ATOM      5  C   UNL     1      14.006  19.276  58.455  1.00  0.00     0.080 C 
BRANCH   5   6
ATOM      6  C   UNL     1      13.433  18.242  59.398  1.00  0.00     0.155 C 
ATOM      7  O   UNL     1      14.115  17.842  60.381  1.00  0.00    -0.295 OA
BRANCH   6   8
ATOM      8  C   UNL     1      12.061  17.714  59.246  1.00  0.00     0.039 C 
ATOM      9  C   UNL     1      11.416  17.655  58.081  1.00  0.00     0.012 C 
ENDBRANCH   6   8
ENDBRANCH   5   6
ENDBRANCH   1   5
TORSDOF 5
ENDMDL
MODEL 2
REMARK VINA RESULT:    -3.557      1.649      2.349
REMARK INTER + INTRA:          -5.136
REMARK INTER:                  -5.018
REMARK INTRA:                  -0.118
REMARK UNBOUND:                -0.540
REMARK SMILES C=CC(=O)CCCCC
REMARK SMILES IDX 6 1 7 2 8 3 9 4 5 5 3 6 4 7 2 8 1 9
REMARK H PARENT
REMARK Flexibility Score: inf
ROOT
ATOM      1  C   UNL     1      14.525  18.741  58.596  1.00  0.00     0.008 C 
ENDROOT
BRANCH   1   2
ATOM      2  C   UNL     1      15.117  17.852  57.492  1.00  0.00     0.000 C 
BRANCH   2   3
ATOM      3  C   UNL     1      16.090  18.643  56.613  1.00  0.00    -0.003 C 
ATOM      4  C   UNL     1      17.372  18.975  57.371  1.00  0.00     0.004 C 
ENDBRANCH   2   3
ENDBRANCH   1   2
BRANCH   1   5
ATOM      5  C   UNL     1      13.740  17.927  59.638  1.00  0.00     0.080 C 
BRANCH   5   6
ATOM      6  C   UNL     1      12.247  17.912  59.400  1.00  0.00     0.155 C 
ATOM      7  O   UNL     1      11.789  17.470  58.312  1.00  0.00    -0.295 OA
BRANCH   6   8
ATOM      8  C   UNL     1      11.282  18.350  60.431  1.00  0.00     0.039 C 
ATOM      9  C   UNL     1      10.146  17.707  60.701  1.00  0.00     0.012 C 
ENDBRANCH   6   8
ENDBRANCH   5   6
ENDBRANCH   1   5
TORSDOF 5
ENDMDL
MODEL 3
REMARK VINA RESULT:    -3.553     10.216     11.737
REMARK INTER + INTRA:          -5.132
REMARK INTER:                  -4.575
REMARK INTRA:                  -0.557
REMARK UNBOUND:                -0.540
REMARK SMILES C=CC(=O)CCCCC
REMARK SMILES IDX 6 1 7 2 8 3 9 4 5 5 3 6 4 7 2 8 1 9
REMARK H PARENT
REMARK Flexibility Score: inf
ROOT
ATOM      1  C   UNL     1      22.650  11.928  53.175  1.00  0.00     0.008 C 
ENDROOT
BRANCH   1   2
ATOM      2  C   UNL     1      21.276  12.080  52.504  1.00  0.00     0.000 C 
BRANCH   2   3
ATOM      3  C   UNL     1      20.274  12.745  53.453  1.00  0.00    -0.003 C 
ATOM      4  C   UNL     1      18.984  11.936  53.548  1.00  0.00     0.004 C 
ENDBRANCH   2   3
ENDBRANCH   1   2
BRANCH   1   5
ATOM      5  C   UNL     1      22.629  10.891  54.310  1.00  0.00     0.080 C 
BRANCH   5   6
ATOM      6  C   UNL     1      22.111   9.535  53.886  1.00  0.00     0.155 C 
ATOM      7  O   UNL     1      22.730   8.872  53.009  1.00  0.00    -0.295 OA
BRANCH   6   8
ATOM      8  C   UNL     1      20.921   8.918  54.509  1.00  0.00     0.039 C 
ATOM      9  C   UNL     1      19.996   8.243  53.827  1.00  0.00     0.012 C 
ENDBRANCH   6   8
ENDBRANCH   5   6
ENDBRANCH   1   5
TORSDOF 5
ENDMDL
MODEL 4
REMARK VINA RESULT:    -3.544      1.845      4.336
REMARK INTER + INTRA:          -5.120
REMARK INTER:                  -4.921
REMARK INTRA:                  -0.199
REMARK UNBOUND:                -0.540
REMARK SMILES C=CC(=O)CCCCC
REMARK SMILES IDX 6 1 7 2 8 3 9 4 5 5 3 6 4 7 2 8 1 9
REMARK H PARENT
REMARK Flexibility Score: inf
ROOT
ATOM      1  C   UNL     1      13.484  19.360  58.426  1.00  0.00     0.008 C 
ENDROOT
BRANCH   1   2
ATOM      2  C   UNL     1      12.046  18.857  58.628  1.00  0.00     0.000 C 
BRANCH   2   3
ATOM      3  C   UNL     1      11.968  17.881  59.807  1.00  0.00    -0.003 C 
ATOM      4  C   UNL     1      10.534  17.731  60.306  1.00  0.00     0.004 C 
ENDBRANCH   2   3
ENDBRANCH   1   2
BRANCH   1   5
ATOM      5  C   UNL     1      14.512  18.219  58.497  1.00  0.00     0.080 C 
BRANCH   5   6
ATOM      6  C   UNL     1      15.197  17.932  57.179  1.00  0.00     0.155 C 
ATOM      7  O   UNL     1      14.780  16.995  56.446  1.00  0.00    -0.295 OA
BRANCH   6   8
ATOM      8  C   UNL     1      16.318  18.756  56.680  1.00  0.00     0.039 C 
ATOM      9  C   UNL     1      17.474  18.900  57.326  1.00  0.00     0.012 C 
ENDBRANCH   6   8
ENDBRANCH   5   6
ENDBRANCH   1   5
TORSDOF 5
ENDMDL
MODEL 5
REMARK VINA RESULT:    -3.542      1.600      3.980
REMARK INTER + INTRA:          -5.118
REMARK INTER:                  -4.856
REMARK INTRA:                  -0.262
REMARK UNBOUND:                -0.540
REMARK SMILES C=CC(=O)CCCCC
REMARK SMILES IDX 6 1 7 2 8 3 9 4 5 5 3 6 4 7 2 8 1 9
REMARK H PARENT
REMARK Flexibility Score: inf
ROOT
ATOM      1  C   UNL     1      13.143  19.378  58.534  1.00  0.00     0.008 C 
ENDROOT
BRANCH   1   2
ATOM      2  C   UNL     1      11.978  18.377  58.550  1.00  0.00     0.000 C 
BRANCH   2   3
ATOM      3  C   UNL     1      11.809  17.754  59.940  1.00  0.00    -0.003 C 
ATOM      4  C   UNL     1      10.340  17.703  60.347  1.00  0.00     0.004 C 
ENDBRANCH   2   3
ENDBRANCH   1   2
BRANCH   1   5
ATOM      5  C   UNL     1      14.484  18.712  58.884  1.00  0.00     0.080 C 
BRANCH   5   6
ATOM      6  C   UNL     1      15.584  18.995  57.884  1.00  0.00     0.155 C 
ATOM      7  O   UNL     1      16.487  19.829  58.164  1.00  0.00    -0.295 OA
BRANCH   6   8
ATOM      8  C   UNL     1      15.676  18.281  56.594  1.00  0.00     0.039 C 
ATOM      9  C   UNL     1      14.992  17.172  56.312  1.00  0.00     0.012 C 
ENDBRANCH   6   8
ENDBRANCH   5   6
ENDBRANCH   1   5
TORSDOF 5
ENDMDL
MODEL 6
REMARK VINA RESULT:    -3.539      2.725      4.962
REMARK INTER + INTRA:          -5.114
REMARK INTER:                  -4.570
REMARK INTRA:                  -0.543
REMARK UNBOUND:                -0.540
REMARK SMILES C=CC(=O)CCCCC
REMARK SMILES IDX 6 1 7 2 8 3 9 4 5 5 3 6 4 7 2 8 1 9
REMARK H PARENT
REMARK Flexibility Score: inf
ROOT
ATOM      1  C   UNL     1      11.635  17.871  60.486  1.00  0.00     0.008 C 
ENDROOT
BRANCH   1   2
ATOM      2  C   UNL     1      10.145  17.509  60.389  1.00  0.00     0.000 C 
BRANCH   2   3
ATOM      3  C   UNL     1       9.279  18.561  61.091  1.00  0.00    -0.003 C 
ATOM      4  C   UNL     1      10.047  19.245  62.217  1.00  0.00     0.004 C 
ENDBRANCH   2   3
ENDBRANCH   1   2
BRANCH   1   5
ATOM      5  C   UNL     1      12.311  17.919  59.105  1.00  0.00     0.080 C 
BRANCH   5   6
ATOM      6  C   UNL     1      12.510  19.321  58.573  1.00  0.00     0.155 C 
ATOM      7  O   UNL     1      13.672  19.802  58.490  1.00  0.00    -0.295 OA
BRANCH   6   8
ATOM      8  C   UNL     1      11.383  20.143  58.085  1.00  0.00     0.039 C 
ATOM      9  C   UNL     1      10.817  21.119  58.796  1.00  0.00     0.012 C 
ENDBRANCH   6   8
ENDBRANCH   5   6
ENDBRANCH   1   5
TORSDOF 5
ENDMDL
MODEL 7
REMARK VINA RESULT:    -3.531      9.329     10.484
REMARK INTER + INTRA:          -5.103
REMARK INTER:                  -4.558
REMARK INTRA:                  -0.545
REMARK UNBOUND:                -0.540
REMARK SMILES C=CC(=O)CCCCC
REMARK SMILES IDX 6 1 7 2 8 3 9 4 5 5 3 6 4 7 2 8 1 9
REMARK H PARENT
REMARK Flexibility Score: inf
ROOT
ATOM      1  C   UNL     1      18.693  11.787  52.193  1.00  0.00     0.008 C 
ENDROOT
BRANCH   1   2
ATOM      2  C   UNL     1      19.754  12.895  52.104  1.00  0.00     0.000 C 
BRANCH   2   3
ATOM      3  C   UNL     1      20.667  12.880  53.335  1.00  0.00    -0.003 C 
ATOM      4  C   UNL     1      21.965  12.131  53.050  1.00  0.00     0.004 C 
ENDBRANCH   2   3
ENDBRANCH   1   2
BRANCH   1   5
ATOM      5  C   UNL     1      18.270  11.505  53.644  1.00  0.00     0.080 C 
BRANCH   5   6
ATOM      6  C   UNL     1      18.378  10.049  54.037  1.00  0.00     0.155 C 
ATOM      7  O   UNL     1      17.415   9.484  54.625  1.00  0.00    -0.295 OA
BRANCH   6   8
ATOM      8  C   UNL     1      19.562   9.230  53.705  1.00  0.00     0.039 C 
ATOM      9  C   UNL     1      20.536   8.953  54.571  1.00  0.00     0.012 C 
ENDBRANCH   6   8
ENDBRANCH   5   6
ENDBRANCH   1   5
TORSDOF 5
ENDMDL
MODEL 8
REMARK VINA RESULT:    -3.498      9.558     10.554
REMARK INTER + INTRA:          -5.061
REMARK INTER:                  -4.790
REMARK INTRA:                  -0.271
REMARK UNBOUND:                -0.540
REMARK SMILES C=CC(=O)CCCCC
REMARK SMILES IDX 6 1 7 2 8 3 9 4 5 5 3 6 4 7 2 8 1 9
REMARK H PARENT
REMARK Flexibility Score: inf
ROOT
ATOM      1  C   UNL     1      18.593  11.594  53.693  1.00  0.00     0.008 C 
ENDROOT
BRANCH   1   2
ATOM      2  C   UNL     1      19.524  12.178  52.620  1.00  0.00     0.000 C 
BRANCH   2   3
ATOM      3  C   UNL     1      20.746  12.847  53.259  1.00  0.00    -0.003 C 
ATOM      4  C   UNL     1      21.973  11.945  53.179  1.00  0.00     0.004 C 
ENDBRANCH   2   3
ENDBRANCH   1   2
BRANCH   1   5
ATOM      5  C   UNL     1      18.267  10.113  53.433  1.00  0.00     0.080 C 
BRANCH   5   6
ATOM      6  C   UNL     1      18.919   9.165  54.415  1.00  0.00     0.155 C 
ATOM      7  O   UNL     1      20.142   9.295  54.695  1.00  0.00    -0.295 OA
BRANCH   6   8
ATOM      8  C   UNL     1      18.156   8.110  55.113  1.00  0.00     0.039 C 
ATOM      9  C   UNL     1      16.865   7.862  54.893  1.00  0.00     0.012 C 
ENDBRANCH   6   8
ENDBRANCH   5   6
ENDBRANCH   1   5
TORSDOF 5
ENDMDL
MODEL 9
REMARK VINA RESULT:    -3.489      9.270     10.255
REMARK INTER + INTRA:          -5.049
REMARK INTER:                  -4.634
REMARK INTRA:                  -0.416
REMARK UNBOUND:                -0.540
REMARK SMILES C=CC(=O)CCCCC
REMARK SMILES IDX 6 1 7 2 8 3 9 4 5 5 3 6 4 7 2 8 1 9
REMARK H PARENT
REMARK Flexibility Score: inf
ROOT
ATOM      1  C   UNL     1       7.769  25.038  56.286  1.00  0.00     0.008 C 
ENDROOT
BRANCH   1   2
ATOM      2  C   UNL     1       7.988  23.972  57.371  1.00  0.00     0.000 C 
BRANCH   2   3
ATOM      3  C   UNL     1       8.921  22.864  56.871  1.00  0.00    -0.003 C 
ATOM      4  C   UNL     1       9.287  23.071  55.404  1.00  0.00     0.004 C 
ENDBRANCH   2   3
ENDBRANCH   1   2
BRANCH   1   5
ATOM      5  C   UNL     1       6.416  25.752  56.440  1.00  0.00     0.080 C 
BRANCH   5   6
ATOM      6  C   UNL     1       5.465  25.510  55.289  1.00  0.00     0.155 C 
ATOM      7  O   UNL     1       4.345  26.090  55.268  1.00  0.00    -0.295 OA
BRANCH   6   8
ATOM      8  C   UNL     1       5.822  24.651  54.141  1.00  0.00     0.039 C 
ATOM      9  C   UNL     1       5.197  23.511  53.848  1.00  0.00     0.012 C 
ENDBRANCH   6   8
ENDBRANCH   5   6
ENDBRANCH   1   5
TORSDOF 5
ENDMDL
