MODEL 1
REMARK VINA RESULT:    -3.229      0.000      0.000
REMARK INTER + INTRA:          -6.194
REMARK INTER:                  -4.927
REMARK INTRA:                  -1.267
REMARK UNBOUND:                -1.267
REMARK SMILES CCCCCCCCCCC(=O)[O-]
REMARK SMILES IDX 7 1 8 2 9 3 10 4 11 5 12 6 13 7 6 8 5 9 4 10 3 11 2 12 1 13
REMARK H PARENT
REMARK Flexibility Score: inf
ROOT
ATOM      1  C   UNL     1       6.870 -30.584  13.653  1.00  0.00     0.000 C 
ENDROOT
BRANCH   1   2
ATOM      2  C   UNL     1       6.766 -29.979  15.063  1.00  0.00     0.000 C 
BRANCH   2   3
ATOM      3  C   UNL     1       7.713 -30.657  16.068  1.00  0.00     0.006 C 
BRANCH   3   4
ATOM      4  C   UNL     1       8.691 -29.660  16.704  1.00  0.00     0.053 C 
BRANCH   4   5
ATOM      5  C   UNL     1       8.432 -29.482  18.169  1.00  0.00     0.041 C 
ATOM      6  O   UNL     1       9.060 -28.610  18.824  1.00  0.00    -0.550 OA
ATOM      7  O   UNL     1       7.515 -30.302  18.817  1.00  0.00    -0.550 OA
ENDBRANCH   4   5
ENDBRANCH   3   4
ENDBRANCH   2   3
ENDBRANCH   1   2
BRANCH   1   8
ATOM      8  C   UNL     1       7.199 -29.535  12.580  1.00  0.00     0.000 C 
BRANCH   8   9
ATOM      9  C   UNL     1       8.582 -29.792  11.969  1.00  0.00    -0.000 C 
BRANCH   9  10
ATOM     10  C   UNL     1       9.681 -29.093  12.783  1.00  0.00    -0.000 C 
BRANCH  10  11
ATOM     11  C   UNL     1      10.679 -30.082  13.406  1.00  0.00    -0.000 C 
BRANCH  11  12
ATOM     12  C   UNL     1      10.505 -31.512  12.871  1.00  0.00    -0.003 C 
ATOM     13  C   UNL     1      10.137 -32.477  13.994  1.00  0.00     0.004 C 
ENDBRANCH  11  12
ENDBRANCH  10  11
ENDBRANCH   9  10
ENDBRANCH   8   9
ENDBRANCH   1   8
TORSDOF 9
ENDMDL
MODEL 2
REMARK VINA RESULT:    -3.156      1.309      2.050
REMARK INTER + INTRA:          -6.084
REMARK INTER:                  -5.368
REMARK INTRA:                  -0.716
REMARK UNBOUND:                -1.267
REMARK SMILES CCCCCCCCCCC(=O)[O-]
REMARK SMILES IDX 7 1 8 2 9 3 10 4 11 5 12 6 13 7 6 8 5 9 4 10 3 11 2 12 1 13
REMARK H PARENT
REMARK Flexibility Score: inf
ROOT
ATOM      1  C   UNL     1       7.214 -30.989  15.211  1.00  0.00     0.000 C 
ENDROOT
BRANCH   1   2
ATOM      2  C   UNL     1       6.552 -29.840  15.991  1.00  0.00     0.000 C 
BRANCH   2   3
ATOM      3  C   UNL     1       7.011 -29.781  17.459  1.00  0.00     0.006 C 
BRANCH   3   4
ATOM      4  C   UNL     1       8.484 -30.176  17.620  1.00  0.00     0.053 C 
BRANCH   4   5
ATOM      5  C   UNL     1       9.297 -29.064  18.209  1.00  0.00     0.041 C 
ATOM      6  O   UNL     1       9.261 -28.838  19.447  1.00  0.00    -0.550 OA
ATOM      7  O   UNL     1      10.073 -28.258  17.385  1.00  0.00    -0.550 OA
ENDBRANCH   4   5
ENDBRANCH   3   4
ENDBRANCH   2   3
ENDBRANCH   1   2
BRANCH   1   8
ATOM      8  C   UNL     1       6.716 -31.086  13.761  1.00  0.00     0.000 C 
BRANCH   8   9
ATOM      9  C   UNL     1       7.121 -29.844  12.958  1.00  0.00    -0.000 C 
BRANCH   9  10
ATOM     10  C   UNL     1       8.375 -30.120  12.114  1.00  0.00    -0.000 C 
BRANCH  10  11
ATOM     11  C   UNL     1       9.554 -29.206  12.486  1.00  0.00    -0.000 C 
BRANCH  11  12
ATOM     12  C   UNL     1      10.393 -29.766  13.644  1.00  0.00    -0.003 C 
ATOM     13  C   UNL     1      11.434 -28.752  14.108  1.00  0.00     0.004 C 
ENDBRANCH  11  12
ENDBRANCH  10  11
ENDBRANCH   9  10
ENDBRANCH   8   9
ENDBRANCH   1   8
TORSDOF 9
ENDMDL
MODEL 3
REMARK VINA RESULT:    -3.145      1.430      2.747
REMARK INTER + INTRA:          -6.067
REMARK INTER:                  -4.867
REMARK INTRA:                  -1.200
REMARK UNBOUND:                -1.267
REMARK SMILES CCCCCCCCCCC(=O)[O-]
REMARK SMILES IDX 7 1 8 2 9 3 10 4 11 5 12 6 13 7 6 8 5 9 4 10 3 11 2 12 1 13
REMARK H PARENT
REMARK Flexibility Score: inf
ROOT
ATOM      1  C   UNL     1       6.806 -32.272  16.348  1.00  0.00     0.000 C 
ENDROOT
BRANCH   1   2
ATOM      2  C   UNL     1       6.020 -30.976  16.086  1.00  0.00     0.000 C 
BRANCH   2   3
ATOM      3  C   UNL     1       6.567 -29.782  16.887  1.00  0.00     0.006 C 
BRANCH   3   4
ATOM      4  C   UNL     1       7.461 -30.227  18.052  1.00  0.00     0.053 C 
BRANCH   4   5
ATOM      5  C   UNL     1       8.717 -29.413  18.132  1.00  0.00     0.041 C 
ATOM      6  O   UNL     1       9.301 -29.042  17.080  1.00  0.00    -0.550 OA
ATOM      7  O   UNL     1       9.258 -29.091  19.370  1.00  0.00    -0.550 OA
ENDBRANCH   4   5
ENDBRANCH   3   4
ENDBRANCH   2   3
ENDBRANCH   1   2
BRANCH   1   8
ATOM      8  C   UNL     1       7.672 -32.693  15.152  1.00  0.00     0.000 C 
BRANCH   8   9
ATOM      9  C   UNL     1       9.099 -32.147  15.290  1.00  0.00    -0.000 C 
BRANCH   9  10
ATOM     10  C   UNL     1       9.553 -31.463  13.991  1.00  0.00    -0.000 C 
BRANCH  10  11
ATOM     11  C   UNL     1       9.091 -30.001  13.898  1.00  0.00    -0.000 C 
BRANCH  11  12
ATOM     12  C   UNL     1       8.378 -29.690  12.573  1.00  0.00    -0.003 C 
ATOM     13  C   UNL     1       6.865 -29.822  12.720  1.00  0.00     0.004 C 
ENDBRANCH  11  12
ENDBRANCH  10  11
ENDBRANCH   9  10
ENDBRANCH   8   9
ENDBRANCH   1   8
TORSDOF 9
ENDMDL
MODEL 4
REMARK VINA RESULT:    -3.112      1.305      2.393
REMARK INTER + INTRA:          -6.016
REMARK INTER:                  -4.852
REMARK INTRA:                  -1.165
REMARK UNBOUND:                -1.267
REMARK SMILES CCCCCCCCCCC(=O)[O-]
REMARK SMILES IDX 7 1 8 2 9 3 10 4 11 5 12 6 13 7 6 8 5 9 4 10 3 11 2 12 1 13
REMARK H PARENT
REMARK Flexibility Score: inf
ROOT
ATOM      1  C   UNL     1       8.368 -32.154  15.637  1.00  0.00     0.000 C 
ENDROOT
BRANCH   1   2
ATOM      2  C   UNL     1       7.244 -31.191  15.219  1.00  0.00     0.000 C 
BRANCH   2   3
ATOM      3  C   UNL     1       7.339 -29.828  15.928  1.00  0.00     0.006 C 
BRANCH   3   4
ATOM      4  C   UNL     1       8.643 -29.679  16.721  1.00  0.00     0.053 C 
BRANCH   4   5
ATOM      5  C   UNL     1       8.388 -29.533  18.190  1.00  0.00     0.041 C 
ATOM      6  O   UNL     1       7.401 -30.105  18.723  1.00  0.00    -0.550 OA
ATOM      7  O   UNL     1       9.225 -28.739  18.966  1.00  0.00    -0.550 OA
ENDBRANCH   4   5
ENDBRANCH   3   4
ENDBRANCH   2   3
ENDBRANCH   1   2
BRANCH   1   8
ATOM      8  C   UNL     1       9.107 -32.761  14.435  1.00  0.00     0.000 C 
BRANCH   8   9
ATOM      9  C   UNL     1       8.543 -32.221  13.115  1.00  0.00    -0.000 C 
BRANCH   9  10
ATOM     10  C   UNL     1       9.656 -31.609  12.251  1.00  0.00    -0.000 C 
BRANCH  10  11
ATOM     11  C   UNL     1      10.708 -30.859  13.083  1.00  0.00    -0.000 C 
BRANCH  11  12
ATOM     12  C   UNL     1      10.339 -29.385  13.311  1.00  0.00    -0.003 C 
ATOM     13  C   UNL     1      11.402 -28.676  14.146  1.00  0.00     0.004 C 
ENDBRANCH  11  12
ENDBRANCH  10  11
ENDBRANCH   9  10
ENDBRANCH   8   9
ENDBRANCH   1   8
TORSDOF 9
ENDMDL
MODEL 5
REMARK VINA RESULT:    -3.104      2.618      4.896
REMARK INTER + INTRA:          -6.004
REMARK INTER:                  -5.284
REMARK INTRA:                  -0.720
REMARK UNBOUND:                -1.267
REMARK SMILES CCCCCCCCCCC(=O)[O-]
REMARK SMILES IDX 7 1 8 2 9 3 10 4 11 5 12 6 13 7 6 8 5 9 4 10 3 11 2 12 1 13
REMARK H PARENT
REMARK Flexibility Score: inf
ROOT
ATOM      1  C   UNL     1       6.410 -30.252  14.192  1.00  0.00     0.000 C 
ENDROOT
BRANCH   1   2
ATOM      2  C   UNL     1       7.142 -30.457  12.855  1.00  0.00     0.000 C 
BRANCH   2   3
ATOM      3  C   UNL     1       8.394 -29.571  12.725  1.00  0.00     0.006 C 
BRANCH   3   4
ATOM      4  C   UNL     1       9.209 -29.528  14.023  1.00  0.00     0.053 C 
BRANCH   4   5
ATOM      5  C   UNL     1      10.682 -29.602  13.759  1.00  0.00     0.041 C 
ATOM      6  O   UNL     1      11.158 -30.549  13.081  1.00  0.00    -0.550 OA
ATOM      7  O   UNL     1      11.533 -28.638  14.287  1.00  0.00    -0.550 OA
ENDBRANCH   4   5
ENDBRANCH   3   4
ENDBRANCH   2   3
ENDBRANCH   1   2
BRANCH   1   8
ATOM      8  C   UNL     1       6.202 -31.565  14.962  1.00  0.00     0.000 C 
BRANCH   8   9
ATOM      9  C   UNL     1       6.410 -31.356  16.467  1.00  0.00    -0.000 C 
BRANCH   9  10
ATOM     10  C   UNL     1       6.073 -29.914  16.874  1.00  0.00    -0.000 C 
BRANCH  10  11
ATOM     11  C   UNL     1       6.805 -29.471  18.151  1.00  0.00    -0.000 C 
BRANCH  11  12
ATOM     12  C   UNL     1       8.315 -29.744  18.091  1.00  0.00    -0.003 C 
ATOM     13  C   UNL     1       9.102 -28.629  18.774  1.00  0.00     0.004 C 
ENDBRANCH  11  12
ENDBRANCH  10  11
ENDBRANCH   9  10
ENDBRANCH   8   9
ENDBRANCH   1   8
TORSDOF 9
ENDMDL
MODEL 6
REMARK VINA RESULT:    -3.051      1.227      2.309
REMARK INTER + INTRA:          -5.923
REMARK INTER:                  -5.020
REMARK INTRA:                  -0.903
REMARK UNBOUND:                -1.267
REMARK SMILES CCCCCCCCCCC(=O)[O-]
REMARK SMILES IDX 7 1 8 2 9 3 10 4 11 5 12 6 13 7 6 8 5 9 4 10 3 11 2 12 1 13
REMARK H PARENT
REMARK Flexibility Score: inf
ROOT
ATOM      1  C   UNL     1       9.974 -29.418  14.614  1.00  0.00     0.000 C 
ENDROOT
BRANCH   1   2
ATOM      2  C   UNL     1       8.524 -29.856  14.353  1.00  0.00     0.000 C 
BRANCH   2   3
ATOM      3  C   UNL     1       7.662 -29.841  15.627  1.00  0.00     0.006 C 
BRANCH   3   4
ATOM      4  C   UNL     1       8.444 -30.314  16.859  1.00  0.00     0.053 C 
BRANCH   4   5
ATOM      5  C   UNL     1       8.005 -29.604  18.104  1.00  0.00     0.041 C 
ATOM      6  O   UNL     1       6.782 -29.520  18.389  1.00  0.00    -0.550 OA
ATOM      7  O   UNL     1       8.948 -29.009  18.933  1.00  0.00    -0.550 OA
ENDBRANCH   4   5
ENDBRANCH   3   4
ENDBRANCH   2   3
ENDBRANCH   1   2
BRANCH   1   8
ATOM      8  C   UNL     1      10.886 -29.626  13.396  1.00  0.00     0.000 C 
BRANCH   8   9
ATOM      9  C   UNL     1      10.109 -30.247  12.229  1.00  0.00    -0.000 C 
BRANCH   9  10
ATOM     10  C   UNL     1      10.641 -31.649  11.898  1.00  0.00    -0.000 C 
BRANCH  10  11
ATOM     11  C   UNL     1       9.693 -32.768  12.360  1.00  0.00    -0.000 C 
BRANCH  11  12
ATOM     12  C   UNL     1      10.116 -33.385  13.701  1.00  0.00    -0.003 C 
ATOM     13  C   UNL     1      11.625 -33.603  13.753  1.00  0.00     0.004 C 
ENDBRANCH  11  12
ENDBRANCH  10  11
ENDBRANCH   9  10
ENDBRANCH   8   9
ENDBRANCH   1   8
TORSDOF 9
ENDMDL
MODEL 7
REMARK VINA RESULT:    -2.974      2.118      4.462
REMARK INTER + INTRA:          -5.805
REMARK INTER:                  -5.031
REMARK INTRA:                  -0.774
REMARK UNBOUND:                -1.267
REMARK SMILES CCCCCCCCCCC(=O)[O-]
REMARK SMILES IDX 7 1 8 2 9 3 10 4 11 5 12 6 13 7 6 8 5 9 4 10 3 11 2 12 1 13
REMARK H PARENT
REMARK Flexibility Score: inf
ROOT
ATOM      1  C   UNL     1       7.779 -30.040  12.928  1.00  0.00     0.000 C 
ENDROOT
BRANCH   1   2
ATOM      2  C   UNL     1       8.717 -31.259  12.921  1.00  0.00     0.000 C 
BRANCH   2   3
ATOM      3  C   UNL     1      10.188 -30.873  13.157  1.00  0.00     0.006 C 
BRANCH   3   4
ATOM      4  C   UNL     1      10.406 -29.355  13.091  1.00  0.00     0.053 C 
BRANCH   4   5
ATOM      5  C   UNL     1      11.094 -28.838  14.317  1.00  0.00     0.041 C 
ATOM      6  O   UNL     1      10.479 -28.778  15.414  1.00  0.00    -0.550 OA
ATOM      7  O   UNL     1      12.409 -28.395  14.241  1.00  0.00    -0.550 OA
ENDBRANCH   4   5
ENDBRANCH   3   4
ENDBRANCH   2   3
ENDBRANCH   1   2
BRANCH   1   8
ATOM      8  C   UNL     1       6.424 -30.338  13.588  1.00  0.00     0.000 C 
BRANCH   8   9
ATOM      9  C   UNL     1       6.616 -30.921  14.994  1.00  0.00    -0.000 C 
BRANCH   9  10
ATOM     10  C   UNL     1       7.204 -29.870  15.948  1.00  0.00    -0.000 C 
BRANCH  10  11
ATOM     11  C   UNL     1       8.016 -30.497  17.092  1.00  0.00    -0.000 C 
BRANCH  11  12
ATOM     12  C   UNL     1       7.840 -29.748  18.421  1.00  0.00    -0.003 C 
ATOM     13  C   UNL     1       9.027 -28.829  18.695  1.00  0.00     0.004 C 
ENDBRANCH  11  12
ENDBRANCH  10  11
ENDBRANCH   9  10
ENDBRANCH   8   9
ENDBRANCH   1   8
TORSDOF 9
ENDMDL
MODEL 8
REMARK VINA RESULT:    -2.892      2.687      4.909
REMARK INTER + INTRA:          -5.680
REMARK INTER:                  -4.903
REMARK INTRA:                  -0.777
REMARK UNBOUND:                -1.267
REMARK SMILES CCCCCCCCCCC(=O)[O-]
REMARK SMILES IDX 7 1 8 2 9 3 10 4 11 5 12 6 13 7 6 8 5 9 4 10 3 11 2 12 1 13
REMARK H PARENT
REMARK Flexibility Score: inf
ROOT
ATOM      1  C   UNL     1       6.661 -30.488  14.048  1.00  0.00     0.000 C 
ENDROOT
BRANCH   1   2
ATOM      2  C   UNL     1       7.581 -29.868  12.982  1.00  0.00     0.000 C 
BRANCH   2   3
ATOM      3  C   UNL     1       8.971 -29.509  13.537  1.00  0.00     0.006 C 
BRANCH   3   4
ATOM      4  C   UNL     1      10.103 -30.079  12.675  1.00  0.00     0.053 C 
BRANCH   4   5
ATOM      5  C   UNL     1      10.678 -31.331  13.267  1.00  0.00     0.041 C 
ATOM      6  O   UNL     1      11.780 -31.779  12.857  1.00  0.00    -0.550 OA
ATOM      7  O   UNL     1       9.978 -32.018  14.252  1.00  0.00    -0.550 OA
ENDBRANCH   4   5
ENDBRANCH   3   4
ENDBRANCH   2   3
ENDBRANCH   1   2
BRANCH   1   8
ATOM      8  C   UNL     1       6.868 -29.872  15.440  1.00  0.00     0.000 C 
BRANCH   8   9
ATOM      9  C   UNL     1       6.849 -30.955  16.526  1.00  0.00    -0.000 C 
BRANCH   9  10
ATOM     10  C   UNL     1       8.068 -30.827  17.452  1.00  0.00    -0.000 C 
BRANCH  10  11
ATOM     11  C   UNL     1       7.899 -29.722  18.506  1.00  0.00    -0.000 C 
BRANCH  11  12
ATOM     12  C   UNL     1       9.186 -28.913  18.726  1.00  0.00    -0.003 C 
ATOM     13  C   UNL     1       9.811 -28.505  17.395  1.00  0.00     0.004 C 
ENDBRANCH  11  12
ENDBRANCH  10  11
ENDBRANCH   9  10
ENDBRANCH   8   9
ENDBRANCH   1   8
TORSDOF 9
ENDMDL
MODEL 9
REMARK VINA RESULT:    -2.772      1.818      2.862
REMARK INTER + INTRA:          -5.497
REMARK INTER:                  -4.379
REMARK INTRA:                  -1.118
REMARK UNBOUND:                -1.267
REMARK SMILES CCCCCCCCCCC(=O)[O-]
REMARK SMILES IDX 7 1 8 2 9 3 10 4 11 5 12 6 13 7 6 8 5 9 4 10 3 11 2 12 1 13
REMARK H PARENT
REMARK Flexibility Score: inf
ROOT
ATOM      1  C   UNL     1       8.241 -33.078  14.595  1.00  0.00     0.000 C 
ENDROOT
BRANCH   1   2
ATOM      2  C   UNL     1       7.035 -33.604  15.391  1.00  0.00     0.000 C 
BRANCH   2   3
ATOM      3  C   UNL     1       6.999 -33.068  16.833  1.00  0.00     0.006 C 
BRANCH   3   4
ATOM      4  C   UNL     1       8.042 -31.967  17.066  1.00  0.00     0.053 C 
BRANCH   4   5
ATOM      5  C   UNL     1       7.401 -30.648  17.373  1.00  0.00     0.041 C 
ATOM      6  O   UNL     1       6.163 -30.489  17.205  1.00  0.00    -0.550 OA
ATOM      7  O   UNL     1       8.177 -29.585  17.819  1.00  0.00    -0.550 OA
ENDBRANCH   4   5
ENDBRANCH   3   4
ENDBRANCH   2   3
ENDBRANCH   1   2
BRANCH   1   8
ATOM      8  C   UNL     1       7.850 -32.544  13.208  1.00  0.00     0.000 C 
BRANCH   8   9
ATOM      9  C   UNL     1       6.584 -31.682  13.290  1.00  0.00    -0.000 C 
BRANCH   9  10
ATOM     10  C   UNL     1       6.921 -30.252  13.737  1.00  0.00    -0.000 C 
BRANCH  10  11
ATOM     11  C   UNL     1       8.268 -29.759  13.184  1.00  0.00    -0.000 C 
BRANCH  11  12
ATOM     12  C   UNL     1       9.300 -29.496  14.290  1.00  0.00    -0.003 C 
ATOM     13  C   UNL     1      10.719 -29.497  13.729  1.00  0.00     0.004 C 
ENDBRANCH  11  12
ENDBRANCH  10  11
ENDBRANCH   9  10
ENDBRANCH   8   9
ENDBRANCH   1   8
TORSDOF 9
ENDMDL
