MODEL 1
REMARK VINA RESULT:    -3.393      0.000      0.000
REMARK INTER + INTRA:          -4.871
REMARK INTER:                  -5.178
REMARK INTRA:                   0.307
REMARK UNBOUND:                 0.307
REMARK SMILES CC1=CCC[C@@H](C)C(=O)C[C@@H](C(C)C)C(=O)C1
REMARK SMILES IDX 8 1 9 2 6 3 7 4 5 5 4 6 3 7 2 8 1 9 10 11 11 12 15 13 16 14
REMARK SMILES IDX 17 15 12 17 13 18 14 19
REMARK H PARENT
REMARK Flexibility Score: 70.00
ROOT
ATOM      1  C   UNL     1      -0.383   7.325  -9.141  1.00  0.00     0.136 C 
ATOM      2  O   UNL     1      -0.672   6.260  -9.667  1.00  0.00    -0.299 OA
ENDROOT
BRANCH   1   3
ATOM      3  C   UNL     1       0.784   7.359  -8.171  1.00  0.00     0.053 C 
ATOM      4  C   UNL     1       0.716   8.600  -7.269  1.00  0.00     0.016 C 
BRANCH   3   5
ATOM      5  C   UNL     1       2.120   7.304  -8.949  1.00  0.00     0.015 C 
BRANCH   5   6
ATOM      6  C   UNL     1       2.094   8.156 -10.238  1.00  0.00     0.028 C 
BRANCH   6   7
ATOM      7  C   UNL     1       2.209   9.632  -9.942  1.00  0.00    -0.028 C 
ATOM      8  C   UNL     1       1.547  10.613 -10.599  1.00  0.00    -0.070 CG0
ATOM      9  C   UNL     1       1.756  12.036 -10.149  1.00  0.00     0.039 C 
ATOM     10  G   UNL     1       0.597  10.349 -11.757  1.00  0.00     0.000 G0
ENDBRANCH   6   7
ENDBRANCH   5   6
ENDBRANCH   3   5
ENDBRANCH   1   3
BRANCH   1  11
ATOM     11  C   UNL     1      -1.254   8.527  -9.474  1.00  0.00     0.087 C 
BRANCH  11  12
ATOM     12  C   UNL     1      -1.447   8.877 -10.976  1.00  0.00     0.066 C 
BRANCH  12  13
ATOM     13  C   UNL     1      -0.844  10.232 -11.325  1.00  0.00     0.140 C 
ATOM     14  O   UNL     1      -1.549  11.231 -11.308  1.00  0.00    -0.299 OA
BRANCH  13  15
ATOM     15  C   UNL     1       0.602  10.345 -11.757  1.00  0.00     0.106 CG0
ATOM     16  G   UNL     1       1.543  10.608 -10.592  1.00  0.00     0.000 G0
ENDBRANCH  13  15
ENDBRANCH  12  13
BRANCH  12  17
ATOM     17  C   UNL     1      -2.946   8.769 -11.402  1.00  0.00    -0.006 C 
ATOM     18  C   UNL     1      -3.367   7.378 -11.908  1.00  0.00     0.008 C 
ATOM     19  C   UNL     1      -3.887   9.218 -10.272  1.00  0.00     0.008 C 
ENDBRANCH  12  17
ENDBRANCH  11  12
ENDBRANCH   1  11
TORSDOF 1
ENDMDL
MODEL 2
REMARK VINA RESULT:    -3.364     10.142     12.145
REMARK INTER + INTRA:          -4.827
REMARK INTER:                  -4.403
REMARK INTRA:                  -0.424
REMARK UNBOUND:                 0.307
REMARK SMILES CC1=CCC[C@@H](C)C(=O)C[C@@H](C(C)C)C(=O)C1
REMARK SMILES IDX 8 1 9 2 6 3 7 4 5 5 4 6 3 7 2 8 1 9 10 11 11 12 15 13 16 14
REMARK SMILES IDX 17 15 12 17 13 18 14 19
REMARK H PARENT
REMARK Flexibility Score: 70.00
ROOT
ATOM      1  C   UNL     1       9.235  10.427  -9.169  1.00  0.00     0.136 C 
ATOM      2  O   UNL     1       8.323  10.064  -9.897  1.00  0.00    -0.299 OA
ENDROOT
BRANCH   1   3
ATOM      3  C   UNL     1      10.163  11.521  -9.665  1.00  0.00     0.053 C 
ATOM      4  C   UNL     1       9.375  12.779 -10.057  1.00  0.00     0.016 C 
BRANCH   3   5
ATOM      5  C   UNL     1      11.010  10.998 -10.849  1.00  0.00     0.015 C 
BRANCH   5   6
ATOM      6  C   UNL     1      12.392  10.467 -10.406  1.00  0.00     0.028 C 
BRANCH   6   7
ATOM      7  C   UNL     1      12.402   8.962 -10.275  1.00  0.00    -0.028 C 
ATOM      8  C   UNL     1      12.593   8.282  -9.120  1.00  0.00    -0.070 CG0
ATOM      9  C   UNL     1      12.540   6.777  -9.165  1.00  0.00     0.039 C 
ATOM     10  G   UNL     1      12.846   8.961  -7.783  1.00  0.00     0.000 G0
ENDBRANCH   6   7
ENDBRANCH   5   6
ENDBRANCH   3   5
ENDBRANCH   1   3
BRANCH   1  11
ATOM     11  C   UNL     1       9.390   9.714  -7.835  1.00  0.00     0.087 C 
BRANCH  11  12
ATOM     12  C   UNL     1      10.608  10.103  -6.951  1.00  0.00     0.066 C 
BRANCH  12  13
ATOM     13  C   UNL     1      11.632   8.979  -6.869  1.00  0.00     0.140 C 
ATOM     14  O   UNL     1      11.499   8.099  -6.030  1.00  0.00    -0.299 OA
BRANCH  13  15
ATOM     15  C   UNL     1      12.848   8.974  -7.770  1.00  0.00     0.106 CG0
ATOM     16  G   UNL     1      12.584   8.300  -9.108  1.00  0.00     0.000 G0
ENDBRANCH  13  15
ENDBRANCH  12  13
BRANCH  12  17
ATOM     17  C   UNL     1      10.158  10.599  -5.540  1.00  0.00    -0.006 C 
ATOM     18  C   UNL     1      11.250  11.333  -4.743  1.00  0.00     0.008 C 
ATOM     19  C   UNL     1       8.898  11.476  -5.626  1.00  0.00     0.008 C 
ENDBRANCH  12  17
ENDBRANCH  11  12
ENDBRANCH   1  11
TORSDOF 1
ENDMDL
MODEL 3
REMARK VINA RESULT:    -3.313      1.679      4.185
REMARK INTER + INTRA:          -4.749
REMARK INTER:                  -4.664
REMARK INTRA:                  -0.085
REMARK UNBOUND:                 0.307
REMARK SMILES CC1=CCC[C@@H](C)C(=O)C[C@@H](C(C)C)C(=O)C1
REMARK SMILES IDX 8 1 9 2 6 3 7 4 5 5 4 6 3 7 2 8 1 9 10 11 11 12 15 13 16 14
REMARK SMILES IDX 17 15 12 17 13 18 14 19
REMARK H PARENT
REMARK Flexibility Score: 70.00
ROOT
ATOM      1  C   UNL     1      -1.901   7.660 -10.006  1.00  0.00     0.136 C 
ATOM      2  O   UNL     1      -1.758   6.757  -9.194  1.00  0.00    -0.299 OA
ENDROOT
BRANCH   1   3
ATOM      3  C   UNL     1      -3.309   8.141 -10.311  1.00  0.00     0.053 C 
ATOM      4  C   UNL     1      -3.759   7.684 -11.706  1.00  0.00     0.016 C 
BRANCH   3   5
ATOM      5  C   UNL     1      -3.380   9.681 -10.175  1.00  0.00     0.015 C 
BRANCH   5   6
ATOM      6  C   UNL     1      -3.541  10.393 -11.537  1.00  0.00     0.028 C 
BRANCH   6   7
ATOM      7  C   UNL     1      -2.856  11.739 -11.554  1.00  0.00    -0.028 C 
ATOM      8  C   UNL     1      -1.533  11.938 -11.761  1.00  0.00    -0.070 CG0
ATOM      9  C   UNL     1      -1.022  13.355 -11.777  1.00  0.00     0.039 C 
ATOM     10  G   UNL     1      -0.545  10.805 -11.988  1.00  0.00     0.000 G0
ENDBRANCH   6   7
ENDBRANCH   5   6
ENDBRANCH   3   5
ENDBRANCH   1   3
BRANCH   1  11
ATOM     11  C   UNL     1      -0.649   8.198 -10.681  1.00  0.00     0.087 C 
BRANCH  11  12
ATOM     12  C   UNL     1       0.145   9.309  -9.938  1.00  0.00     0.066 C 
BRANCH  12  13
ATOM     13  C   UNL     1       0.371  10.531 -10.818  1.00  0.00     0.140 C 
ATOM     14  O   UNL     1       1.258  11.324 -10.536  1.00  0.00    -0.299 OA
BRANCH  13  15
ATOM     15  C   UNL     1      -0.534  10.809 -11.999  1.00  0.00     0.106 CG0
ATOM     16  G   UNL     1      -1.526  11.928 -11.726  1.00  0.00     0.000 G0
ENDBRANCH  13  15
ENDBRANCH  12  13
BRANCH  12  17
ATOM     17  C   UNL     1       1.477   8.757  -9.337  1.00  0.00    -0.006 C 
ATOM     18  C   UNL     1       1.311   7.996  -8.009  1.00  0.00     0.008 C 
ATOM     19  C   UNL     1       2.231   7.879 -10.348  1.00  0.00     0.008 C 
ENDBRANCH  12  17
ENDBRANCH  11  12
ENDBRANCH   1  11
TORSDOF 1
ENDMDL
MODEL 4
REMARK VINA RESULT:    -3.267      1.528      4.081
REMARK INTER + INTRA:          -4.680
REMARK INTER:                  -4.444
REMARK INTRA:                  -0.235
REMARK UNBOUND:                 0.307
REMARK SMILES CC1=CCC[C@@H](C)C(=O)C[C@@H](C(C)C)C(=O)C1
REMARK SMILES IDX 8 1 9 2 6 3 7 4 5 5 4 6 3 7 2 8 1 9 10 11 11 12 15 13 16 14
REMARK SMILES IDX 17 15 12 17 13 18 14 19
REMARK H PARENT
REMARK Flexibility Score: 70.00
ROOT
ATOM      1  C   UNL     1       1.424   8.290 -10.264  1.00  0.00     0.136 C 
ATOM      2  O   UNL     1       1.870   7.262 -10.751  1.00  0.00    -0.299 OA
ENDROOT
BRANCH   1   3
ATOM      3  C   UNL     1       0.469   8.180  -9.089  1.00  0.00     0.053 C 
ATOM      4  C   UNL     1       1.200   7.699  -7.827  1.00  0.00     0.016 C 
BRANCH   3   5
ATOM      5  C   UNL     1      -0.704   7.239  -9.449  1.00  0.00     0.015 C 
BRANCH   5   6
ATOM      6  C   UNL     1      -1.419   7.650 -10.756  1.00  0.00     0.028 C 
BRANCH   6   7
ATOM      7  C   UNL     1      -2.318   8.847 -10.555  1.00  0.00    -0.028 C 
ATOM      8  C   UNL     1      -2.108  10.077 -11.081  1.00  0.00    -0.070 CG0
ATOM      9  C   UNL     1      -3.127  11.151 -10.803  1.00  0.00     0.039 C 
ATOM     10  G   UNL     1      -0.904  10.422 -11.943  1.00  0.00     0.000 G0
ENDBRANCH   6   7
ENDBRANCH   5   6
ENDBRANCH   3   5
ENDBRANCH   1   3
BRANCH   1  11
ATOM     11  C   UNL     1       1.832   9.604 -10.914  1.00  0.00     0.087 C 
BRANCH  11  12
ATOM     12  C   UNL     1       1.152  10.902 -10.393  1.00  0.00     0.066 C 
BRANCH  12  13
ATOM     13  C   UNL     1       0.052  11.381 -11.331  1.00  0.00     0.140 C 
ATOM     14  O   UNL     1      -0.087  12.579 -11.538  1.00  0.00    -0.299 OA
BRANCH  13  15
ATOM     15  C   UNL     1      -0.912  10.398 -11.958  1.00  0.00     0.106 CG0
ATOM     16  G   UNL     1      -2.100  10.089 -11.061  1.00  0.00     0.000 G0
ENDBRANCH  13  15
ENDBRANCH  12  13
BRANCH  12  17
ATOM     17  C   UNL     1       2.203  12.017 -10.092  1.00  0.00    -0.006 C 
ATOM     18  C   UNL     1       2.590  12.146  -8.608  1.00  0.00     0.008 C 
ATOM     19  C   UNL     1       3.469  11.846 -10.947  1.00  0.00     0.008 C 
ENDBRANCH  12  17
ENDBRANCH  11  12
ENDBRANCH   1  11
TORSDOF 1
ENDMDL
MODEL 5
REMARK VINA RESULT:    -3.256      9.533     11.223
REMARK INTER + INTRA:          -4.663
REMARK INTER:                  -4.413
REMARK INTRA:                  -0.250
REMARK UNBOUND:                 0.307
REMARK SMILES CC1=CCC[C@@H](C)C(=O)C[C@@H](C(C)C)C(=O)C1
REMARK SMILES IDX 8 1 9 2 6 3 7 4 5 5 4 6 3 7 2 8 1 9 10 11 11 12 15 13 16 14
REMARK SMILES IDX 17 15 12 17 13 18 14 19
REMARK H PARENT
REMARK Flexibility Score: 70.00
ROOT
ATOM      1  C   UNL     1       8.365  11.540  -5.259  1.00  0.00     0.136 C 
ATOM      2  O   UNL     1       7.247  11.478  -4.770  1.00  0.00    -0.299 OA
ENDROOT
BRANCH   1   3
ATOM      3  C   UNL     1       8.991  12.909  -5.460  1.00  0.00     0.053 C 
ATOM      4  C   UNL     1       9.067  13.681  -4.135  1.00  0.00     0.016 C 
BRANCH   3   5
ATOM      5  C   UNL     1       8.198  13.700  -6.526  1.00  0.00     0.015 C 
BRANCH   5   6
ATOM      6  C   UNL     1       7.763  12.821  -7.720  1.00  0.00     0.028 C 
BRANCH   6   7
ATOM      7  C   UNL     1       8.799  12.809  -8.819  1.00  0.00    -0.028 C 
ATOM      8  C   UNL     1       9.398  11.700  -9.314  1.00  0.00    -0.070 CG0
ATOM      9  C   UNL     1      10.390  11.869 -10.436  1.00  0.00     0.039 C 
ATOM     10  G   UNL     1       9.110  10.298  -8.802  1.00  0.00     0.000 G0
ENDBRANCH   6   7
ENDBRANCH   5   6
ENDBRANCH   3   5
ENDBRANCH   1   3
BRANCH   1  11
ATOM     11  C   UNL     1       9.022  10.231  -5.670  1.00  0.00     0.087 C 
BRANCH  11  12
ATOM     12  C   UNL     1      10.347  10.317  -6.478  1.00  0.00     0.066 C 
BRANCH  12  13
ATOM     13  C   UNL     1      10.191   9.758  -7.886  1.00  0.00     0.140 C 
ATOM     14  O   UNL     1      10.976   8.912  -8.292  1.00  0.00    -0.299 OA
BRANCH  13  15
ATOM     15  C   UNL     1       9.116  10.286  -8.812  1.00  0.00     0.106 CG0
ATOM     16  G   UNL     1       9.416  11.687  -9.319  1.00  0.00     0.000 G0
ENDBRANCH  13  15
ENDBRANCH  12  13
BRANCH  12  17
ATOM     17  C   UNL     1      11.533   9.655  -5.706  1.00  0.00    -0.006 C 
ATOM     18  C   UNL     1      12.379  10.634  -4.873  1.00  0.00     0.008 C 
ATOM     19  C   UNL     1      11.050   8.498  -4.815  1.00  0.00     0.008 C 
ENDBRANCH  12  17
ENDBRANCH  11  12
ENDBRANCH   1  11
TORSDOF 1
ENDMDL
MODEL 6
REMARK VINA RESULT:    -3.133      9.667     11.224
REMARK INTER + INTRA:          -4.475
REMARK INTER:                  -4.034
REMARK INTRA:                  -0.441
REMARK UNBOUND:                 0.307
REMARK SMILES CC1=CCC[C@@H](C)C(=O)C[C@@H](C(C)C)C(=O)C1
REMARK SMILES IDX 8 1 9 2 6 3 7 4 5 5 4 6 3 7 2 8 1 9 10 11 11 12 15 13 16 14
REMARK SMILES IDX 17 15 12 17 13 18 14 19
REMARK H PARENT
REMARK Flexibility Score: 70.00
ROOT
ATOM      1  C   UNL     1      10.452   9.975  -5.771  1.00  0.00     0.136 C 
ATOM      2  O   UNL     1      10.264   9.041  -5.006  1.00  0.00    -0.299 OA
ENDROOT
BRANCH   1   3
ATOM      3  C   UNL     1      11.546  10.973  -5.438  1.00  0.00     0.053 C 
ATOM      4  C   UNL     1      12.878  10.261  -5.160  1.00  0.00     0.016 C 
BRANCH   3   5
ATOM      5  C   UNL     1      11.116  11.846  -4.236  1.00  0.00     0.015 C 
BRANCH   5   6
ATOM      6  C   UNL     1      10.520  13.205  -4.668  1.00  0.00     0.028 C 
BRANCH   6   7
ATOM      7  C   UNL     1       9.011  13.206  -4.605  1.00  0.00    -0.028 C 
ATOM      8  C   UNL     1       8.186  13.341  -5.669  1.00  0.00    -0.070 CG0
ATOM      9  C   UNL     1       6.700  13.287  -5.428  1.00  0.00     0.039 C 
ATOM     10  G   UNL     1       8.685  13.534  -7.093  1.00  0.00     0.000 G0
ENDBRANCH   6   7
ENDBRANCH   5   6
ENDBRANCH   3   5
ENDBRANCH   1   3
BRANCH   1  11
ATOM     11  C   UNL     1       9.535  10.084  -6.980  1.00  0.00     0.087 C 
BRANCH  11  12
ATOM     12  C   UNL     1       9.768  11.275  -7.951  1.00  0.00     0.066 C 
BRANCH  12  13
ATOM     13  C   UNL     1       8.605  12.258  -7.933  1.00  0.00     0.140 C 
ATOM     14  O   UNL     1       7.625  12.049  -8.636  1.00  0.00    -0.299 OA
BRANCH  13  15
ATOM     15  C   UNL     1       8.676  13.524  -7.107  1.00  0.00     0.106 CG0
ATOM     16  G   UNL     1       8.187  13.322  -5.682  1.00  0.00     0.000 G0
ENDBRANCH  13  15
ENDBRANCH  12  13
BRANCH  12  17
ATOM     17  C   UNL     1      10.104  10.780  -9.394  1.00  0.00    -0.006 C 
ATOM     18  C   UNL     1      10.863  11.801 -10.259  1.00  0.00     0.008 C 
ATOM     19  C   UNL     1      10.870   9.447  -9.370  1.00  0.00     0.008 C 
ENDBRANCH  12  17
ENDBRANCH  11  12
ENDBRANCH   1  11
TORSDOF 1
ENDMDL
MODEL 7
REMARK VINA RESULT:    -3.112      9.411     11.011
REMARK INTER + INTRA:          -4.443
REMARK INTER:                  -4.338
REMARK INTRA:                  -0.105
REMARK UNBOUND:                 0.307
REMARK SMILES CC1=CCC[C@@H](C)C(=O)C[C@@H](C(C)C)C(=O)C1
REMARK SMILES IDX 8 1 9 2 6 3 7 4 5 5 4 6 3 7 2 8 1 9 10 11 11 12 15 13 16 14
REMARK SMILES IDX 17 15 12 17 13 18 14 19
REMARK H PARENT
REMARK Flexibility Score: 70.00
ROOT
ATOM      1  C   UNL     1      10.184  10.179  -5.368  1.00  0.00     0.136 C 
ATOM      2  O   UNL     1       9.191   9.544  -5.043  1.00  0.00    -0.299 OA
ENDROOT
BRANCH   1   3
ATOM      3  C   UNL     1      11.521   9.461  -5.406  1.00  0.00     0.053 C 
ATOM      4  C   UNL     1      12.686  10.461  -5.374  1.00  0.00     0.016 C 
BRANCH   3   5
ATOM      5  C   UNL     1      11.596   8.553  -6.656  1.00  0.00     0.015 C 
BRANCH   5   6
ATOM      6  C   UNL     1      12.054   9.314  -7.920  1.00  0.00     0.028 C 
BRANCH   6   7
ATOM      7  C   UNL     1      10.959   9.391  -8.959  1.00  0.00    -0.028 C 
ATOM      8  C   UNL     1      10.253  10.505  -9.265  1.00  0.00    -0.070 CG0
ATOM      9  C   UNL     1       9.215  10.410 -10.354  1.00  0.00     0.039 C 
ATOM     10  G   UNL     1      10.463  11.843  -8.575  1.00  0.00     0.000 G0
ENDBRANCH   6   7
ENDBRANCH   5   6
ENDBRANCH   3   5
ENDBRANCH   1   3
BRANCH   1  11
ATOM     11  C   UNL     1      10.000  11.659  -5.665  1.00  0.00     0.087 C 
BRANCH  11  12
ATOM     12  C   UNL     1       8.783  12.067  -6.542  1.00  0.00     0.066 C 
BRANCH  12  13
ATOM     13  C   UNL     1       9.200  12.415  -7.965  1.00  0.00     0.140 C 
ATOM     14  O   UNL     1       8.473  13.116  -8.655  1.00  0.00    -0.299 OA
BRANCH  13  15
ATOM     15  C   UNL     1      10.472  11.847  -8.558  1.00  0.00     0.106 CG0
ATOM     16  G   UNL     1      10.250  10.512  -9.252  1.00  0.00     0.000 G0
ENDBRANCH  13  15
ENDBRANCH  12  13
BRANCH  12  17
ATOM     17  C   UNL     1       7.951  13.208  -5.873  1.00  0.00    -0.006 C 
ATOM     18  C   UNL     1       6.428  12.993  -5.909  1.00  0.00     0.008 C 
ATOM     19  C   UNL     1       8.406  13.464  -4.427  1.00  0.00     0.008 C 
ENDBRANCH  12  17
ENDBRANCH  11  12
ENDBRANCH   1  11
TORSDOF 1
ENDMDL
MODEL 8
REMARK VINA RESULT:    -3.013      9.766     11.442
REMARK INTER + INTRA:          -4.291
REMARK INTER:                  -4.512
REMARK INTRA:                   0.221
REMARK UNBOUND:                 0.307
REMARK SMILES CC1=CCC[C@@H](C)C(=O)C[C@@H](C(C)C)C(=O)C1
REMARK SMILES IDX 8 1 9 2 6 3 7 4 5 5 4 6 3 7 2 8 1 9 10 11 11 12 15 13 16 14
REMARK SMILES IDX 17 15 12 17 13 18 14 19
REMARK H PARENT
REMARK Flexibility Score: 70.00
ROOT
ATOM      1  C   UNL     1       9.287  10.645  -8.742  1.00  0.00     0.136 C 
ATOM      2  O   UNL     1       8.790   9.550  -8.522  1.00  0.00    -0.299 OA
ENDROOT
BRANCH   1   3
ATOM      3  C   UNL     1      10.498  10.719  -9.654  1.00  0.00     0.053 C 
ATOM      4  C   UNL     1      10.094  10.547 -11.125  1.00  0.00     0.016 C 
BRANCH   3   5
ATOM      5  C   UNL     1      11.542   9.659  -9.232  1.00  0.00     0.015 C 
BRANCH   5   6
ATOM      6  C   UNL     1      12.242  10.008  -7.899  1.00  0.00     0.028 C 
BRANCH   6   7
ATOM      7  C   UNL     1      11.943   8.993  -6.822  1.00  0.00    -0.028 C 
ATOM      8  C   UNL     1      11.316   9.260  -5.652  1.00  0.00    -0.070 CG0
ATOM      9  C   UNL     1      11.069   8.117  -4.701  1.00  0.00     0.039 C 
ATOM     10  G   UNL     1      10.841  10.650  -5.257  1.00  0.00     0.000 G0
ENDBRANCH   6   7
ENDBRANCH   5   6
ENDBRANCH   3   5
ENDBRANCH   1   3
BRANCH   1  11
ATOM     11  C   UNL     1       8.670  11.845  -8.039  1.00  0.00     0.087 C 
BRANCH  11  12
ATOM     12  C   UNL     1       9.228  12.218  -6.637  1.00  0.00     0.066 C 
BRANCH  12  13
ATOM     13  C   UNL     1       9.457  10.986  -5.771  1.00  0.00     0.140 C 
ATOM     14  O   UNL     1       8.506  10.287  -5.449  1.00  0.00    -0.299 OA
BRANCH  13  15
ATOM     15  C   UNL     1      10.839  10.654  -5.250  1.00  0.00     0.106 CG0
ATOM     16  G   UNL     1      11.296   9.261  -5.649  1.00  0.00     0.000 G0
ENDBRANCH  13  15
ENDBRANCH  12  13
BRANCH  12  17
ATOM     17  C   UNL     1       8.331  13.282  -5.928  1.00  0.00    -0.006 C 
ATOM     18  C   UNL     1       6.818  13.048  -6.085  1.00  0.00     0.008 C 
ATOM     19  C   UNL     1       8.684  13.416  -4.438  1.00  0.00     0.008 C 
ENDBRANCH  12  17
ENDBRANCH  11  12
ENDBRANCH   1  11
TORSDOF 1
ENDMDL
MODEL 9
REMARK VINA RESULT:    -3.011      2.254      3.865
REMARK INTER + INTRA:          -4.289
REMARK INTER:                  -4.068
REMARK INTRA:                  -0.221
REMARK UNBOUND:                 0.307
REMARK SMILES CC1=CCC[C@@H](C)C(=O)C[C@@H](C(C)C)C(=O)C1
REMARK SMILES IDX 8 1 9 2 6 3 7 4 5 5 4 6 3 7 2 8 1 9 10 11 11 12 15 13 16 14
REMARK SMILES IDX 17 15 12 17 13 18 14 19
REMARK H PARENT
REMARK Flexibility Score: 70.00
ROOT
ATOM      1  C   UNL     1       0.986   9.615 -11.136  1.00  0.00     0.136 C 
ATOM      2  O   UNL     1       1.915   9.169 -11.793  1.00  0.00    -0.299 OA
ENDROOT
BRANCH   1   3
ATOM      3  C   UNL     1       1.091   9.586  -9.622  1.00  0.00     0.053 C 
ATOM      4  C   UNL     1       2.159  10.571  -9.123  1.00  0.00     0.016 C 
BRANCH   3   5
ATOM      5  C   UNL     1       1.389   8.146  -9.141  1.00  0.00     0.015 C 
BRANCH   5   6
ATOM      6  C   UNL     1       0.108   7.358  -8.789  1.00  0.00     0.028 C 
BRANCH   6   7
ATOM      7  C   UNL     1      -0.474   6.659  -9.994  1.00  0.00    -0.028 C 
ATOM      8  C   UNL     1      -1.621   7.011 -10.621  1.00  0.00    -0.070 CG0
ATOM      9  C   UNL     1      -2.040   6.219 -11.834  1.00  0.00     0.039 C 
ATOM     10  G   UNL     1      -2.498   8.168 -10.170  1.00  0.00     0.000 G0
ENDBRANCH   6   7
ENDBRANCH   5   6
ENDBRANCH   3   5
ENDBRANCH   1   3
BRANCH   1  11
ATOM     11  C   UNL     1      -0.226  10.125 -11.899  1.00  0.00     0.087 C 
BRANCH  11  12
ATOM     12  C   UNL     1      -1.510  10.438 -11.079  1.00  0.00     0.066 C 
BRANCH  12  13
ATOM     13  C   UNL     1      -2.532   9.313 -11.175  1.00  0.00     0.140 C 
ATOM     14  O   UNL     1      -3.407   9.362 -12.030  1.00  0.00    -0.299 OA
BRANCH  13  15
ATOM     15  C   UNL     1      -2.519   8.170 -10.184  1.00  0.00     0.106 CG0
ATOM     16  G   UNL     1      -1.622   7.023 -10.623  1.00  0.00     0.000 G0
ENDBRANCH  13  15
ENDBRANCH  12  13
BRANCH  12  17
ATOM     17  C   UNL     1      -2.115  11.824 -11.468  1.00  0.00    -0.006 C 
ATOM     18  C   UNL     1      -3.335  12.246 -10.630  1.00  0.00     0.008 C 
ATOM     19  C   UNL     1      -1.051  12.934 -11.433  1.00  0.00     0.008 C 
ENDBRANCH  12  17
ENDBRANCH  11  12
ENDBRANCH   1  11
TORSDOF 1
ENDMDL
