MODEL 1
REMARK VINA RESULT:    -4.075      0.000      0.000
REMARK INTER + INTRA:          -9.237
REMARK INTER:                  -7.886
REMARK INTRA:                  -1.351
REMARK UNBOUND:                -1.351
REMARK SMILES CCCCCCCCCCCCCCCCCC(=O)[O-]
REMARK SMILES IDX 10 1 11 2 12 3 13 4 14 5 15 6 16 7 17 8 18 9 19 10 20 11
REMARK SMILES IDX 9 12 8 13 7 14 6 15 5 16 4 17 3 18 2 19 1 20
REMARK H PARENT
REMARK Flexibility Score: inf
ROOT
ATOM      1  C   UNL     1      -3.737   8.029  -7.105  1.00  0.00     0.000 C 
ENDROOT
BRANCH   1   2
ATOM      2  C   UNL     1      -3.962   7.952  -8.622  1.00  0.00     0.000 C 
BRANCH   2   3
ATOM      3  C   UNL     1      -4.129   9.336  -9.269  1.00  0.00     0.000 C 
BRANCH   3   4
ATOM      4  C   UNL     1      -5.565   9.600  -9.745  1.00  0.00     0.000 C 
BRANCH   4   5
ATOM      5  C   UNL     1      -6.474   9.972  -8.566  1.00  0.00     0.000 C 
BRANCH   5   6
ATOM      6  C   UNL     1      -7.758   9.129  -8.573  1.00  0.00     0.000 C 
BRANCH   6   7
ATOM      7  C   UNL     1      -7.612   7.803  -7.803  1.00  0.00     0.006 C 
BRANCH   7   8
ATOM      8  C   UNL     1      -8.001   6.560  -8.623  1.00  0.00     0.053 C 
BRANCH   8   9
ATOM      9  C   UNL     1      -7.620   5.280  -7.945  1.00  0.00     0.041 C 
ATOM     10  O   UNL     1      -6.511   4.739  -8.191  1.00  0.00    -0.550 OA
ATOM     11  O   UNL     1      -8.502   4.667  -7.062  1.00  0.00    -0.550 OA
ENDBRANCH   8   9
ENDBRANCH   7   8
ENDBRANCH   6   7
ENDBRANCH   5   6
ENDBRANCH   4   5
ENDBRANCH   3   4
ENDBRANCH   2   3
ENDBRANCH   1   2
BRANCH   1  12
ATOM     12  C   UNL     1      -4.597   6.991  -6.369  1.00  0.00     0.000 C 
BRANCH  12  13
ATOM     13  C   UNL     1      -3.849   5.662  -6.127  1.00  0.00    -0.000 C 
BRANCH  13  14
ATOM     14  C   UNL     1      -3.393   5.462  -4.670  1.00  0.00    -0.000 C 
BRANCH  14  15
ATOM     15  C   UNL     1      -2.630   4.151  -4.402  1.00  0.00    -0.000 C 
BRANCH  15  16
ATOM     16  C   UNL     1      -3.053   3.396  -3.125  1.00  0.00    -0.000 C 
BRANCH  16  17
ATOM     17  C   UNL     1      -2.155   2.204  -2.747  1.00  0.00    -0.000 C 
BRANCH  17  18
ATOM     18  C   UNL     1      -0.701   2.619  -2.466  1.00  0.00    -0.000 C 
BRANCH  18  19
ATOM     19  C   UNL     1      -0.497   3.109  -1.025  1.00  0.00    -0.003 C 
ATOM     20  C   UNL     1      -0.156   4.597  -0.951  1.00  0.00     0.004 C 
ENDBRANCH  18  19
ENDBRANCH  17  18
ENDBRANCH  16  17
ENDBRANCH  15  16
ENDBRANCH  14  15
ENDBRANCH  13  14
ENDBRANCH  12  13
ENDBRANCH   1  12
TORSDOF 16
ENDMDL
MODEL 2
REMARK VINA RESULT:    -4.048      1.017      1.956
REMARK INTER + INTRA:          -9.184
REMARK INTER:                  -7.736
REMARK INTRA:                  -1.448
REMARK UNBOUND:                -1.351
REMARK SMILES CCCCCCCCCCCCCCCCCC(=O)[O-]
REMARK SMILES IDX 10 1 11 2 12 3 13 4 14 5 15 6 16 7 17 8 18 9 19 10 20 11
REMARK SMILES IDX 9 12 8 13 7 14 6 15 5 16 4 17 3 18 2 19 1 20
REMARK H PARENT
REMARK Flexibility Score: inf
ROOT
ATOM      1  C   UNL     1      -4.097   8.015  -8.690  1.00  0.00     0.000 C 
ENDROOT
BRANCH   1   2
ATOM      2  C   UNL     1      -4.240   9.517  -8.981  1.00  0.00     0.000 C 
BRANCH   2   3
ATOM      3  C   UNL     1      -5.705   9.962  -9.106  1.00  0.00     0.000 C 
BRANCH   3   4
ATOM      4  C   UNL     1      -6.542   9.599  -7.870  1.00  0.00     0.000 C 
BRANCH   4   5
ATOM      5  C   UNL     1      -7.904   9.022  -8.280  1.00  0.00     0.000 C 
BRANCH   5   6
ATOM      6  C   UNL     1      -7.949   8.733  -9.788  1.00  0.00     0.000 C 
BRANCH   6   7
ATOM      7  C   UNL     1      -8.211   7.250 -10.110  1.00  0.00     0.006 C 
BRANCH   7   8
ATOM      8  C   UNL     1      -7.060   6.312  -9.708  1.00  0.00     0.053 C 
BRANCH   8   9
ATOM      9  C   UNL     1      -7.457   5.333  -8.646  1.00  0.00     0.041 C 
ATOM     10  O   UNL     1      -8.659   5.245  -8.285  1.00  0.00    -0.550 OA
ATOM     11  O   UNL     1      -6.496   4.538  -8.033  1.00  0.00    -0.550 OA
ENDBRANCH   8   9
ENDBRANCH   7   8
ENDBRANCH   6   7
ENDBRANCH   5   6
ENDBRANCH   4   5
ENDBRANCH   3   4
ENDBRANCH   2   3
ENDBRANCH   1   2
BRANCH   1  12
ATOM     12  C   UNL     1      -3.545   7.780  -7.276  1.00  0.00     0.000 C 
BRANCH  12  13
ATOM     13  C   UNL     1      -4.470   6.894  -6.415  1.00  0.00    -0.000 C 
BRANCH  13  14
ATOM     14  C   UNL     1      -3.837   5.553  -6.000  1.00  0.00    -0.000 C 
BRANCH  14  15
ATOM     15  C   UNL     1      -3.387   5.475  -4.529  1.00  0.00    -0.000 C 
BRANCH  15  16
ATOM     16  C   UNL     1      -2.474   4.279  -4.187  1.00  0.00    -0.000 C 
BRANCH  16  17
ATOM     17  C   UNL     1      -2.991   3.368  -3.058  1.00  0.00    -0.000 C 
BRANCH  17  18
ATOM     18  C   UNL     1      -1.857   2.703  -2.261  1.00  0.00    -0.000 C 
BRANCH  18  19
ATOM     19  C   UNL     1      -0.682   2.278  -3.154  1.00  0.00    -0.003 C 
ATOM     20  C   UNL     1      -0.622   0.766  -3.370  1.00  0.00     0.004 C 
ENDBRANCH  18  19
ENDBRANCH  17  18
ENDBRANCH  16  17
ENDBRANCH  15  16
ENDBRANCH  14  15
ENDBRANCH  13  14
ENDBRANCH  12  13
ENDBRANCH   1  12
TORSDOF 16
ENDMDL
MODEL 3
REMARK VINA RESULT:    -3.852      3.341      7.480
REMARK INTER + INTRA:          -8.806
REMARK INTER:                  -7.533
REMARK INTRA:                  -1.273
REMARK UNBOUND:                -1.351
REMARK SMILES CCCCCCCCCCCCCCCCCC(=O)[O-]
REMARK SMILES IDX 10 1 11 2 12 3 13 4 14 5 15 6 16 7 17 8 18 9 19 10 20 11
REMARK SMILES IDX 9 12 8 13 7 14 6 15 5 16 4 17 3 18 2 19 1 20
REMARK H PARENT
REMARK Flexibility Score: inf
ROOT
ATOM      1  C   UNL     1      -6.158   8.305  -6.766  1.00  0.00     0.000 C 
ENDROOT
BRANCH   1   2
ATOM      2  C   UNL     1      -4.890   8.409  -7.626  1.00  0.00     0.000 C 
BRANCH   2   3
ATOM      3  C   UNL     1      -3.792   7.428  -7.188  1.00  0.00     0.000 C 
BRANCH   3   4
ATOM      4  C   UNL     1      -4.109   6.741  -5.852  1.00  0.00     0.000 C 
BRANCH   4   5
ATOM      5  C   UNL     1      -3.375   5.398  -5.737  1.00  0.00     0.000 C 
BRANCH   5   6
ATOM      6  C   UNL     1      -3.159   5.013  -4.267  1.00  0.00     0.000 C 
BRANCH   6   7
ATOM      7  C   UNL     1      -2.637   3.574  -4.091  1.00  0.00     0.006 C 
BRANCH   7   8
ATOM      8  C   UNL     1      -2.467   3.146  -2.623  1.00  0.00     0.053 C 
BRANCH   8   9
ATOM      9  C   UNL     1      -1.074   2.693  -2.312  1.00  0.00     0.041 C 
ATOM     10  O   UNL     1      -0.537   1.784  -2.996  1.00  0.00    -0.550 OA
ATOM     11  O   UNL     1      -0.378   3.253  -1.247  1.00  0.00    -0.550 OA
ENDBRANCH   8   9
ENDBRANCH   7   8
ENDBRANCH   6   7
ENDBRANCH   5   6
ENDBRANCH   4   5
ENDBRANCH   3   4
ENDBRANCH   2   3
ENDBRANCH   1   2
BRANCH   1  12
ATOM     12  C   UNL     1      -7.338   7.768  -7.590  1.00  0.00     0.000 C 
BRANCH  12  13
ATOM     13  C   UNL     1      -6.999   7.622  -9.089  1.00  0.00    -0.000 C 
BRANCH  13  14
ATOM     14  C   UNL     1      -6.918   6.160  -9.568  1.00  0.00    -0.000 C 
BRANCH  14  15
ATOM     15  C   UNL     1      -7.624   5.138  -8.659  1.00  0.00    -0.000 C 
BRANCH  15  16
ATOM     16  C   UNL     1      -9.106   4.875  -8.998  1.00  0.00    -0.000 C 
BRANCH  16  17
ATOM     17  C   UNL     1      -9.996   4.521  -7.793  1.00  0.00    -0.000 C 
BRANCH  17  18
ATOM     18  C   UNL     1      -9.253   4.629  -6.450  1.00  0.00    -0.000 C 
BRANCH  18  19
ATOM     19  C   UNL     1     -10.125   4.205  -5.260  1.00  0.00    -0.003 C 
ATOM     20  C   UNL     1      -9.748   2.828  -4.714  1.00  0.00     0.004 C 
ENDBRANCH  18  19
ENDBRANCH  17  18
ENDBRANCH  16  17
ENDBRANCH  15  16
ENDBRANCH  14  15
ENDBRANCH  13  14
ENDBRANCH  12  13
ENDBRANCH   1  12
TORSDOF 16
ENDMDL
MODEL 4
REMARK VINA RESULT:    -3.801      1.238      2.198
REMARK INTER + INTRA:          -8.707
REMARK INTER:                  -7.462
REMARK INTRA:                  -1.245
REMARK UNBOUND:                -1.351
REMARK SMILES CCCCCCCCCCCCCCCCCC(=O)[O-]
REMARK SMILES IDX 10 1 11 2 12 3 13 4 14 5 15 6 16 7 17 8 18 9 19 10 20 11
REMARK SMILES IDX 9 12 8 13 7 14 6 15 5 16 4 17 3 18 2 19 1 20
REMARK H PARENT
REMARK Flexibility Score: inf
ROOT
ATOM      1  C   UNL     1      -4.327   7.092  -6.340  1.00  0.00     0.000 C 
ENDROOT
BRANCH   1   2
ATOM      2  C   UNL     1      -3.391   7.775  -7.349  1.00  0.00     0.000 C 
BRANCH   2   3
ATOM      3  C   UNL     1      -4.068   8.039  -8.703  1.00  0.00     0.000 C 
BRANCH   3   4
ATOM      4  C   UNL     1      -4.796   9.390  -8.749  1.00  0.00     0.000 C 
BRANCH   4   5
ATOM      5  C   UNL     1      -6.203   9.235  -9.342  1.00  0.00     0.000 C 
BRANCH   5   6
ATOM      6  C   UNL     1      -7.254   9.076  -8.233  1.00  0.00     0.000 C 
BRANCH   6   7
ATOM      7  C   UNL     1      -8.123   7.815  -8.404  1.00  0.00     0.006 C 
BRANCH   7   8
ATOM      8  C   UNL     1      -7.381   6.627  -9.039  1.00  0.00     0.053 C 
BRANCH   8   9
ATOM      9  C   UNL     1      -7.289   5.447  -8.120  1.00  0.00     0.041 C 
ATOM     10  O   UNL     1      -6.299   4.672  -8.183  1.00  0.00    -0.550 OA
ATOM     11  O   UNL     1      -8.309   5.185  -7.213  1.00  0.00    -0.550 OA
ENDBRANCH   8   9
ENDBRANCH   7   8
ENDBRANCH   6   7
ENDBRANCH   5   6
ENDBRANCH   4   5
ENDBRANCH   3   4
ENDBRANCH   2   3
ENDBRANCH   1   2
BRANCH   1  12
ATOM     12  C   UNL     1      -3.850   5.665  -6.028  1.00  0.00     0.000 C 
BRANCH  12  13
ATOM     13  C   UNL     1      -3.425   5.489  -4.555  1.00  0.00    -0.000 C 
BRANCH  13  14
ATOM     14  C   UNL     1      -2.590   4.221  -4.296  1.00  0.00    -0.000 C 
BRANCH  14  15
ATOM     15  C   UNL     1      -2.964   3.446  -3.019  1.00  0.00    -0.000 C 
BRANCH  15  16
ATOM     16  C   UNL     1      -1.815   2.634  -2.385  1.00  0.00    -0.000 C 
BRANCH  16  17
ATOM     17  C   UNL     1      -0.696   2.221  -3.359  1.00  0.00    -0.000 C 
BRANCH  17  18
ATOM     18  C   UNL     1      -0.474   0.700  -3.402  1.00  0.00    -0.000 C 
BRANCH  18  19
ATOM     19  C   UNL     1      -1.792  -0.088  -3.380  1.00  0.00    -0.003 C 
ATOM     20  C   UNL     1      -1.762  -1.313  -4.294  1.00  0.00     0.004 C 
ENDBRANCH  18  19
ENDBRANCH  17  18
ENDBRANCH  16  17
ENDBRANCH  15  16
ENDBRANCH  14  15
ENDBRANCH  13  14
ENDBRANCH  12  13
ENDBRANCH   1  12
TORSDOF 16
ENDMDL
MODEL 5
REMARK VINA RESULT:    -3.798      2.910      7.743
REMARK INTER + INTRA:          -8.701
REMARK INTER:                  -6.807
REMARK INTRA:                  -1.894
REMARK UNBOUND:                -1.351
REMARK SMILES CCCCCCCCCCCCCCCCCC(=O)[O-]
REMARK SMILES IDX 10 1 11 2 12 3 13 4 14 5 15 6 16 7 17 8 18 9 19 10 20 11
REMARK SMILES IDX 9 12 8 13 7 14 6 15 5 16 4 17 3 18 2 19 1 20
REMARK H PARENT
REMARK Flexibility Score: inf
ROOT
ATOM      1  C   UNL     1      -4.342   9.429  -9.285  1.00  0.00     0.000 C 
ENDROOT
BRANCH   1   2
ATOM      2  C   UNL     1      -3.777   8.959  -7.936  1.00  0.00     0.000 C 
BRANCH   2   3
ATOM      3  C   UNL     1      -3.951   7.448  -7.713  1.00  0.00     0.000 C 
BRANCH   3   4
ATOM      4  C   UNL     1      -4.126   7.083  -6.232  1.00  0.00     0.000 C 
BRANCH   4   5
ATOM      5  C   UNL     1      -3.770   5.612  -5.983  1.00  0.00     0.000 C 
BRANCH   5   6
ATOM      6  C   UNL     1      -3.456   5.364  -4.501  1.00  0.00     0.000 C 
BRANCH   6   7
ATOM      7  C   UNL     1      -2.496   4.180  -4.278  1.00  0.00     0.006 C 
BRANCH   7   8
ATOM      8  C   UNL     1      -2.809   3.353  -3.019  1.00  0.00     0.053 C 
BRANCH   8   9
ATOM      9  C   UNL     1      -1.597   2.673  -2.460  1.00  0.00     0.041 C 
ATOM     10  O   UNL     1      -0.932   3.220  -1.542  1.00  0.00    -0.550 OA
ATOM     11  O   UNL     1      -1.183   1.448  -2.970  1.00  0.00    -0.550 OA
ENDBRANCH   8   9
ENDBRANCH   7   8
ENDBRANCH   6   7
ENDBRANCH   5   6
ENDBRANCH   4   5
ENDBRANCH   3   4
ENDBRANCH   2   3
ENDBRANCH   1   2
BRANCH   1  12
ATOM     12  C   UNL     1      -5.800   8.977  -9.456  1.00  0.00     0.000 C 
BRANCH  12  13
ATOM     13  C   UNL     1      -6.744   9.600  -8.405  1.00  0.00    -0.000 C 
BRANCH  13  14
ATOM     14  C   UNL     1      -8.235   9.520  -8.782  1.00  0.00    -0.000 C 
BRANCH  14  15
ATOM     15  C   UNL     1      -8.549   8.639 -10.006  1.00  0.00    -0.000 C 
BRANCH  15  16
ATOM     16  C   UNL     1      -9.741   7.675  -9.831  1.00  0.00    -0.000 C 
BRANCH  16  17
ATOM     17  C   UNL     1      -9.362   6.239  -9.427  1.00  0.00    -0.000 C 
BRANCH  17  18
ATOM     18  C   UNL     1      -7.919   5.871  -9.814  1.00  0.00    -0.000 C 
BRANCH  18  19
ATOM     19  C   UNL     1      -7.036   5.588  -8.590  1.00  0.00    -0.003 C 
ATOM     20  C   UNL     1      -7.641   6.118  -7.291  1.00  0.00     0.004 C 
ENDBRANCH  18  19
ENDBRANCH  17  18
ENDBRANCH  16  17
ENDBRANCH  15  16
ENDBRANCH  14  15
ENDBRANCH  13  14
ENDBRANCH  12  13
ENDBRANCH   1  12
TORSDOF 16
ENDMDL
MODEL 6
REMARK VINA RESULT:    -3.723      2.898      7.853
REMARK INTER + INTRA:          -8.555
REMARK INTER:                  -6.884
REMARK INTRA:                  -1.671
REMARK UNBOUND:                -1.351
REMARK SMILES CCCCCCCCCCCCCCCCCC(=O)[O-]
REMARK SMILES IDX 10 1 11 2 12 3 13 4 14 5 15 6 16 7 17 8 18 9 19 10 20 11
REMARK SMILES IDX 9 12 8 13 7 14 6 15 5 16 4 17 3 18 2 19 1 20
REMARK H PARENT
REMARK Flexibility Score: inf
ROOT
ATOM      1  C   UNL     1      -3.479   7.538  -8.156  1.00  0.00     0.000 C 
ENDROOT
BRANCH   1   2
ATOM      2  C   UNL     1      -4.248   7.940  -6.889  1.00  0.00     0.000 C 
BRANCH   2   3
ATOM      3  C   UNL     1      -4.644   6.731  -6.026  1.00  0.00     0.000 C 
BRANCH   3   4
ATOM      4  C   UNL     1      -3.482   5.752  -5.808  1.00  0.00     0.000 C 
BRANCH   4   5
ATOM      5  C   UNL     1      -3.396   5.320  -4.338  1.00  0.00     0.000 C 
BRANCH   5   6
ATOM      6  C   UNL     1      -2.659   3.980  -4.199  1.00  0.00     0.000 C 
BRANCH   6   7
ATOM      7  C   UNL     1      -2.851   3.327  -2.817  1.00  0.00     0.006 C 
BRANCH   7   8
ATOM      8  C   UNL     1      -1.577   2.675  -2.253  1.00  0.00     0.053 C 
BRANCH   8   9
ATOM      9  C   UNL     1      -0.881   1.807  -3.255  1.00  0.00     0.041 C 
ATOM     10  O   UNL     1      -1.179   0.587  -3.351  1.00  0.00    -0.550 OA
ATOM     11  O   UNL     1       0.118   2.335  -4.064  1.00  0.00    -0.550 OA
ENDBRANCH   8   9
ENDBRANCH   7   8
ENDBRANCH   6   7
ENDBRANCH   5   6
ENDBRANCH   4   5
ENDBRANCH   3   4
ENDBRANCH   2   3
ENDBRANCH   1   2
BRANCH   1  12
ATOM     12  C   UNL     1      -4.019   8.284  -9.386  1.00  0.00     0.000 C 
BRANCH  12  13
ATOM     13  C   UNL     1      -4.517   9.706  -9.047  1.00  0.00    -0.000 C 
BRANCH  13  14
ATOM     14  C   UNL     1      -5.978   9.967  -9.461  1.00  0.00    -0.000 C 
BRANCH  14  15
ATOM     15  C   UNL     1      -6.977  10.060  -8.294  1.00  0.00    -0.000 C 
BRANCH  15  16
ATOM     16  C   UNL     1      -7.684   8.738  -7.930  1.00  0.00    -0.000 C 
BRANCH  16  17
ATOM     17  C   UNL     1      -7.969   7.804  -9.120  1.00  0.00    -0.000 C 
BRANCH  17  18
ATOM     18  C   UNL     1      -7.245   6.452  -9.005  1.00  0.00    -0.000 C 
BRANCH  18  19
ATOM     19  C   UNL     1      -7.492   5.766  -7.653  1.00  0.00    -0.003 C 
ATOM     20  C   UNL     1      -8.869   5.108  -7.569  1.00  0.00     0.004 C 
ENDBRANCH  18  19
ENDBRANCH  17  18
ENDBRANCH  16  17
ENDBRANCH  15  16
ENDBRANCH  14  15
ENDBRANCH  13  14
ENDBRANCH  12  13
ENDBRANCH   1  12
TORSDOF 16
ENDMDL
MODEL 7
REMARK VINA RESULT:    -3.595      3.251      8.122
REMARK INTER + INTRA:          -8.308
REMARK INTER:                  -7.117
REMARK INTRA:                  -1.191
REMARK UNBOUND:                -1.351
REMARK SMILES CCCCCCCCCCCCCCCCCC(=O)[O-]
REMARK SMILES IDX 10 1 11 2 12 3 13 4 14 5 15 6 16 7 17 8 18 9 19 10 20 11
REMARK SMILES IDX 9 12 8 13 7 14 6 15 5 16 4 17 3 18 2 19 1 20
REMARK H PARENT
REMARK Flexibility Score: inf
ROOT
ATOM      1  C   UNL     1      -4.483   7.851  -7.227  1.00  0.00     0.000 C 
ENDROOT
BRANCH   1   2
ATOM      2  C   UNL     1      -3.347   7.159  -6.461  1.00  0.00     0.000 C 
BRANCH   2   3
ATOM      3  C   UNL     1      -3.714   5.736  -6.012  1.00  0.00     0.000 C 
BRANCH   3   4
ATOM      4  C   UNL     1      -3.404   5.482  -4.529  1.00  0.00     0.000 C 
BRANCH   4   5
ATOM      5  C   UNL     1      -2.653   4.157  -4.345  1.00  0.00     0.000 C 
BRANCH   5   6
ATOM      6  C   UNL     1      -3.005   3.508  -2.998  1.00  0.00     0.000 C 
BRANCH   6   7
ATOM      7  C   UNL     1      -1.791   2.857  -2.307  1.00  0.00     0.006 C 
BRANCH   7   8
ATOM      8  C   UNL     1      -0.737   2.309  -3.285  1.00  0.00     0.053 C 
BRANCH   8   9
ATOM      9  C   UNL     1      -0.688   0.813  -3.302  1.00  0.00     0.041 C 
ATOM     10  O   UNL     1      -1.750   0.146  -3.408  1.00  0.00    -0.550 OA
ATOM     11  O   UNL     1       0.528   0.151  -3.171  1.00  0.00    -0.550 OA
ENDBRANCH   8   9
ENDBRANCH   7   8
ENDBRANCH   6   7
ENDBRANCH   5   6
ENDBRANCH   4   5
ENDBRANCH   3   4
ENDBRANCH   2   3
ENDBRANCH   1   2
BRANCH   1  12
ATOM     12  C   UNL     1      -5.804   7.766  -6.447  1.00  0.00     0.000 C 
BRANCH  12  13
ATOM     13  C   UNL     1      -6.922   7.062  -7.246  1.00  0.00    -0.000 C 
BRANCH  13  14
ATOM     14  C   UNL     1      -6.474   6.559  -8.631  1.00  0.00    -0.000 C 
BRANCH  14  15
ATOM     15  C   UNL     1      -7.614   6.342  -9.643  1.00  0.00    -0.000 C 
BRANCH  15  16
ATOM     16  C   UNL     1      -8.961   5.907  -9.030  1.00  0.00    -0.000 C 
BRANCH  16  17
ATOM     17  C   UNL     1      -9.365   4.449  -9.316  1.00  0.00    -0.000 C 
BRANCH  17  18
ATOM     18  C   UNL     1      -9.939   3.736  -8.080  1.00  0.00    -0.000 C 
BRANCH  18  19
ATOM     19  C   UNL     1      -9.690   4.517  -6.782  1.00  0.00    -0.003 C 
ATOM     20  C   UNL     1      -9.830   3.646  -5.533  1.00  0.00     0.004 C 
ENDBRANCH  18  19
ENDBRANCH  17  18
ENDBRANCH  16  17
ENDBRANCH  15  16
ENDBRANCH  14  15
ENDBRANCH  13  14
ENDBRANCH  12  13
ENDBRANCH   1  12
TORSDOF 16
ENDMDL
MODEL 8
REMARK VINA RESULT:    -3.556      1.417      2.131
REMARK INTER + INTRA:          -8.234
REMARK INTER:                  -6.825
REMARK INTRA:                  -1.409
REMARK UNBOUND:                -1.351
REMARK SMILES CCCCCCCCCCCCCCCCCC(=O)[O-]
REMARK SMILES IDX 10 1 11 2 12 3 13 4 14 5 15 6 16 7 17 8 18 9 19 10 20 11
REMARK SMILES IDX 9 12 8 13 7 14 6 15 5 16 4 17 3 18 2 19 1 20
REMARK H PARENT
REMARK Flexibility Score: inf
ROOT
ATOM      1  C   UNL     1      -3.562   7.383  -7.805  1.00  0.00     0.000 C 
ENDROOT
BRANCH   1   2
ATOM      2  C   UNL     1      -4.022   8.797  -8.188  1.00  0.00     0.000 C 
BRANCH   2   3
ATOM      3  C   UNL     1      -5.536   8.996  -8.018  1.00  0.00     0.000 C 
BRANCH   3   4
ATOM      4  C   UNL     1      -6.313   8.785  -9.325  1.00  0.00     0.000 C 
BRANCH   4   5
ATOM      5  C   UNL     1      -7.345   7.659  -9.175  1.00  0.00     0.000 C 
BRANCH   5   6
ATOM      6  C   UNL     1      -7.482   7.230  -7.707  1.00  0.00     0.000 C 
BRANCH   6   7
ATOM      7  C   UNL     1      -7.601   5.704  -7.534  1.00  0.00     0.006 C 
BRANCH   7   8
ATOM      8  C   UNL     1      -7.842   4.944  -8.850  1.00  0.00     0.053 C 
BRANCH   8   9
ATOM      9  C   UNL     1      -9.279   4.569  -9.045  1.00  0.00     0.041 C 
ATOM     10  O   UNL     1      -9.893   4.933 -10.081  1.00  0.00    -0.550 OA
ATOM     11  O   UNL     1      -9.951   3.841  -8.069  1.00  0.00    -0.550 OA
ENDBRANCH   8   9
ENDBRANCH   7   8
ENDBRANCH   6   7
ENDBRANCH   5   6
ENDBRANCH   4   5
ENDBRANCH   3   4
ENDBRANCH   2   3
ENDBRANCH   1   2
BRANCH   1  12
ATOM     12  C   UNL     1      -3.987   7.038  -6.369  1.00  0.00     0.000 C 
BRANCH  12  13
ATOM     13  C   UNL     1      -3.738   5.556  -6.015  1.00  0.00    -0.000 C 
BRANCH  13  14
ATOM     14  C   UNL     1      -3.290   5.332  -4.558  1.00  0.00    -0.000 C 
BRANCH  14  15
ATOM     15  C   UNL     1      -2.835   3.898  -4.231  1.00  0.00    -0.000 C 
BRANCH  15  16
ATOM     16  C   UNL     1      -2.823   3.540  -2.731  1.00  0.00    -0.000 C 
BRANCH  16  17
ATOM     17  C   UNL     1      -1.540   2.849  -2.237  1.00  0.00    -0.000 C 
BRANCH  17  18
ATOM     18  C   UNL     1      -0.648   2.354  -3.388  1.00  0.00    -0.000 C 
BRANCH  18  19
ATOM     19  C   UNL     1      -0.434   0.834  -3.356  1.00  0.00    -0.003 C 
ATOM     20  C   UNL     1      -1.748   0.054  -3.390  1.00  0.00     0.004 C 
ENDBRANCH  18  19
ENDBRANCH  17  18
ENDBRANCH  16  17
ENDBRANCH  15  16
ENDBRANCH  14  15
ENDBRANCH  13  14
ENDBRANCH  12  13
ENDBRANCH   1  12
TORSDOF 16
ENDMDL
MODEL 9
REMARK VINA RESULT:    -3.505      1.739      2.929
REMARK INTER + INTRA:          -8.133
REMARK INTER:                  -7.091
REMARK INTRA:                  -1.043
REMARK UNBOUND:                -1.351
REMARK SMILES CCCCCCCCCCCCCCCCCC(=O)[O-]
REMARK SMILES IDX 10 1 11 2 12 3 13 4 14 5 15 6 16 7 17 8 18 9 19 10 20 11
REMARK SMILES IDX 9 12 8 13 7 14 6 15 5 16 4 17 3 18 2 19 1 20
REMARK H PARENT
REMARK Flexibility Score: inf
ROOT
ATOM      1  C   UNL     1      -4.012   5.810  -6.026  1.00  0.00     0.000 C 
ENDROOT
BRANCH   1   2
ATOM      2  C   UNL     1      -4.230   7.305  -6.303  1.00  0.00     0.000 C 
BRANCH   2   3
ATOM      3  C   UNL     1      -3.763   7.724  -7.706  1.00  0.00     0.000 C 
BRANCH   3   4
ATOM      4  C   UNL     1      -4.915   8.219  -8.592  1.00  0.00     0.000 C 
BRANCH   4   5
ATOM      5  C   UNL     1      -5.751   9.279  -7.864  1.00  0.00     0.000 C 
BRANCH   5   6
ATOM      6  C   UNL     1      -7.225   8.856  -7.778  1.00  0.00     0.000 C 
BRANCH   6   7
ATOM      7  C   UNL     1      -7.520   7.544  -8.530  1.00  0.00     0.006 C 
BRANCH   7   8
ATOM      8  C   UNL     1      -7.756   6.336  -7.607  1.00  0.00     0.053 C 
BRANCH   8   9
ATOM      9  C   UNL     1      -7.375   5.037  -8.249  1.00  0.00     0.041 C 
ATOM     10  O   UNL     1      -6.253   4.518  -8.010  1.00  0.00    -0.550 OA
ATOM     11  O   UNL     1      -8.247   4.412  -9.133  1.00  0.00    -0.550 OA
ENDBRANCH   8   9
ENDBRANCH   7   8
ENDBRANCH   6   7
ENDBRANCH   5   6
ENDBRANCH   4   5
ENDBRANCH   3   4
ENDBRANCH   2   3
ENDBRANCH   1   2
BRANCH   1  12
ATOM     12  C   UNL     1      -3.482   5.587  -4.602  1.00  0.00     0.000 C 
BRANCH  12  13
ATOM     13  C   UNL     1      -2.707   4.260  -4.456  1.00  0.00    -0.000 C 
BRANCH  13  14
ATOM     14  C   UNL     1      -3.002   3.509  -3.143  1.00  0.00    -0.000 C 
BRANCH  14  15
ATOM     15  C   UNL     1      -1.764   2.925  -2.437  1.00  0.00    -0.000 C 
BRANCH  15  16
ATOM     16  C   UNL     1      -0.692   2.335  -3.377  1.00  0.00    -0.000 C 
BRANCH  16  17
ATOM     17  C   UNL     1      -0.404   0.836  -3.173  1.00  0.00    -0.000 C 
BRANCH  17  18
ATOM     18  C   UNL     1      -1.610  -0.055  -3.516  1.00  0.00    -0.000 C 
BRANCH  18  19
ATOM     19  C   UNL     1      -1.266  -1.139  -4.548  1.00  0.00    -0.003 C 
ATOM     20  C   UNL     1      -2.281  -2.281  -4.565  1.00  0.00     0.004 C 
ENDBRANCH  18  19
ENDBRANCH  17  18
ENDBRANCH  16  17
ENDBRANCH  15  16
ENDBRANCH  14  15
ENDBRANCH  13  14
ENDBRANCH  12  13
ENDBRANCH   1  12
TORSDOF 16
ENDMDL
