MODEL 1
REMARK VINA RESULT:    -3.937      0.000      0.000
REMARK INTER + INTRA:          -4.805
REMARK INTER:                  -4.742
REMARK INTRA:                  -0.063
REMARK UNBOUND:                -0.063
REMARK SMILES CC[C@@H](C)[C@@H]([NH3+])C(=O)[O-]
REMARK SMILES IDX 3 1 4 2 5 3 6 4 7 8 8 9 9 10 2 11 1 12
REMARK H PARENT 6 5 6 6 6 7
REMARK Flexibility Score: inf
ROOT
ATOM      1  C   UNL     1      11.033  26.674  14.613  1.00  0.00     0.050 C 
ATOM      2  C   UNL     1      10.681  26.389  16.087  1.00  0.00     0.014 C 
ENDROOT
BRANCH   1   3
ATOM      3  C   UNL     1       9.758  26.577  13.714  1.00  0.00     0.230 C 
BRANCH   3   4
ATOM      4  N   UNL     1       9.864  27.411  12.509  1.00  0.00    -0.350 N 
ATOM      5  H   UNL     1      10.864  27.672  12.343  1.00  0.00     0.345 HD
ATOM      6  H   UNL     1       9.543  26.881  11.668  1.00  0.00     0.345 HD
ATOM      7  H   UNL     1       9.300  28.286  12.614  1.00  0.00     0.345 HD
ENDBRANCH   3   4
BRANCH   3   8
ATOM      8  C   UNL     1       9.487  25.148  13.305  1.00  0.00     0.099 C 
ATOM      9  O   UNL     1      10.015  24.672  12.266  1.00  0.00    -0.544 OA
ATOM     10  O   UNL     1       8.656  24.350  14.080  1.00  0.00    -0.544 OA
ENDBRANCH   3   8
ENDBRANCH   1   3
BRANCH   1  11
ATOM     11  C   UNL     1      11.726  28.065  14.511  1.00  0.00     0.006 C 
ATOM     12  C   UNL     1      12.399  28.486  15.820  1.00  0.00     0.004 C 
ENDBRANCH   1  11
TORSDOF 4
ENDMDL
MODEL 2
REMARK VINA RESULT:    -3.651      1.615      2.429
REMARK INTER + INTRA:          -4.461
REMARK INTER:                  -4.385
REMARK INTRA:                  -0.076
REMARK UNBOUND:                -0.063
REMARK SMILES CC[C@@H](C)[C@@H]([NH3+])C(=O)[O-]
REMARK SMILES IDX 3 1 4 2 5 3 6 4 7 8 8 9 9 10 2 11 1 12
REMARK H PARENT 6 5 6 6 6 7
REMARK Flexibility Score: inf
ROOT
ATOM      1  C   UNL     1       9.942  25.858  13.404  1.00  0.00     0.050 C 
ATOM      2  C   UNL     1       8.823  25.539  14.415  1.00  0.00     0.014 C 
ENDROOT
BRANCH   1   3
ATOM      3  C   UNL     1       9.337  26.218  12.008  1.00  0.00     0.230 C 
BRANCH   3   4
ATOM      4  N   UNL     1       9.507  27.640  11.680  1.00  0.00    -0.350 N 
ATOM      5  H   UNL     1      10.369  28.012  12.141  1.00  0.00     0.345 HD
ATOM      6  H   UNL     1       9.631  27.766  10.651  1.00  0.00     0.345 HD
ATOM      7  H   UNL     1       8.683  28.195  12.009  1.00  0.00     0.345 HD
ENDBRANCH   3   4
BRANCH   3   8
ATOM      8  C   UNL     1       9.955  25.380  10.914  1.00  0.00     0.099 C 
ATOM      9  O   UNL     1      10.226  24.167  11.116  1.00  0.00    -0.544 OA
ATOM     10  O   UNL     1      10.223  25.946   9.674  1.00  0.00    -0.544 OA
ENDBRANCH   3   8
ENDBRANCH   1   3
BRANCH   1  11
ATOM     11  C   UNL     1      10.839  26.996  13.974  1.00  0.00     0.006 C 
ATOM     12  C   UNL     1      11.078  26.863  15.479  1.00  0.00     0.004 C 
ENDBRANCH   1  11
TORSDOF 4
ENDMDL
MODEL 3
REMARK VINA RESULT:    -3.501      2.675      3.774
REMARK INTER + INTRA:          -4.281
REMARK INTER:                  -4.197
REMARK INTRA:                  -0.084
REMARK UNBOUND:                -0.063
REMARK SMILES CC[C@@H](C)[C@@H]([NH3+])C(=O)[O-]
REMARK SMILES IDX 3 1 4 2 5 3 6 4 7 8 8 9 9 10 2 11 1 12
REMARK H PARENT 6 5 6 6 6 7
REMARK Flexibility Score: inf
ROOT
ATOM      1  C   UNL     1      10.238  25.765  14.240  1.00  0.00     0.050 C 
ATOM      2  C   UNL     1      10.205  25.352  12.755  1.00  0.00     0.014 C 
ENDROOT
BRANCH   1   3
ATOM      3  C   UNL     1      11.278  26.910  14.471  1.00  0.00     0.230 C 
BRANCH   3   4
ATOM      4  N   UNL     1      10.943  28.123  13.713  1.00  0.00    -0.350 N 
ATOM      5  H   UNL     1      10.548  28.848  14.356  1.00  0.00     0.345 HD
ATOM      6  H   UNL     1      11.801  28.532  13.281  1.00  0.00     0.345 HD
ATOM      7  H   UNL     1      10.237  27.912  12.971  1.00  0.00     0.345 HD
ENDBRANCH   3   4
BRANCH   3   8
ATOM      8  C   UNL     1      11.390  27.256  15.937  1.00  0.00     0.099 C 
ATOM      9  O   UNL     1      11.544  28.451  16.300  1.00  0.00    -0.544 OA
ATOM     10  O   UNL     1      11.320  26.252  16.894  1.00  0.00    -0.544 OA
ENDBRANCH   3   8
ENDBRANCH   1   3
BRANCH   1  11
ATOM     11  C   UNL     1       8.803  26.166  14.693  1.00  0.00     0.006 C 
ATOM     12  C   UNL     1       8.159  25.121  15.608  1.00  0.00     0.004 C 
ENDBRANCH   1  11
TORSDOF 4
ENDMDL
MODEL 4
REMARK VINA RESULT:    -3.439      1.659      2.458
REMARK INTER + INTRA:          -4.205
REMARK INTER:                  -4.269
REMARK INTRA:                   0.064
REMARK UNBOUND:                -0.063
REMARK SMILES CC[C@@H](C)[C@@H]([NH3+])C(=O)[O-]
REMARK SMILES IDX 3 1 4 2 5 3 6 4 7 8 8 9 9 10 2 11 1 12
REMARK H PARENT 6 5 6 6 6 7
REMARK Flexibility Score: inf
ROOT
ATOM      1  C   UNL     1       9.753  26.380  13.378  1.00  0.00     0.050 C 
ATOM      2  C   UNL     1      10.319  25.269  12.472  1.00  0.00     0.014 C 
ENDROOT
BRANCH   1   3
ATOM      3  C   UNL     1       8.246  26.114  13.702  1.00  0.00     0.230 C 
BRANCH   3   4
ATOM      4  N   UNL     1       7.495  25.672  12.518  1.00  0.00    -0.350 N 
ATOM      5  H   UNL     1       6.496  25.499  12.774  1.00  0.00     0.345 HD
ATOM      6  H   UNL     1       7.499  26.415  11.784  1.00  0.00     0.345 HD
ATOM      7  H   UNL     1       7.902  24.789  12.131  1.00  0.00     0.345 HD
ENDBRANCH   3   4
BRANCH   3   8
ATOM      8  C   UNL     1       8.098  25.083  14.796  1.00  0.00     0.099 C 
ATOM      9  O   UNL     1       8.298  23.864  14.555  1.00  0.00    -0.544 OA
ATOM     10  O   UNL     1       7.743  25.480  16.079  1.00  0.00    -0.544 OA
ENDBRANCH   3   8
ENDBRANCH   1   3
BRANCH   1  11
ATOM     11  C   UNL     1      10.625  26.489  14.663  1.00  0.00     0.006 C 
ATOM     12  C   UNL     1      11.574  27.690  14.632  1.00  0.00     0.004 C 
ENDBRANCH   1  11
TORSDOF 4
ENDMDL
MODEL 5
REMARK VINA RESULT:    -3.432      3.128      3.960
REMARK INTER + INTRA:          -4.197
REMARK INTER:                  -4.045
REMARK INTRA:                  -0.152
REMARK UNBOUND:                -0.063
REMARK SMILES CC[C@@H](C)[C@@H]([NH3+])C(=O)[O-]
REMARK SMILES IDX 3 1 4 2 5 3 6 4 7 8 8 9 9 10 2 11 1 12
REMARK H PARENT 6 5 6 6 6 7
REMARK Flexibility Score: inf
ROOT
ATOM      1  C   UNL     1       7.809  25.850  12.329  1.00  0.00     0.050 C 
ATOM      2  C   UNL     1       6.510  26.511  11.826  1.00  0.00     0.014 C 
ENDROOT
BRANCH   1   3
ATOM      3  C   UNL     1       9.057  26.494  11.643  1.00  0.00     0.230 C 
BRANCH   3   4
ATOM      4  N   UNL     1       9.898  27.228  12.599  1.00  0.00    -0.350 N 
ATOM      5  H   UNL     1      10.909  27.066  12.382  1.00  0.00     0.345 HD
ATOM      6  H   UNL     1       9.729  28.256  12.520  1.00  0.00     0.345 HD
ATOM      7  H   UNL     1       9.708  26.910  13.577  1.00  0.00     0.345 HD
ENDBRANCH   3   4
BRANCH   3   8
ATOM      8  C   UNL     1       9.895  25.450  10.945  1.00  0.00     0.099 C 
ATOM      9  O   UNL     1      10.108  24.335  11.490  1.00  0.00    -0.544 OA
ATOM     10  O   UNL     1      10.433  25.715   9.692  1.00  0.00    -0.544 OA
ENDBRANCH   3   8
ENDBRANCH   1   3
BRANCH   1  11
ATOM     11  C   UNL     1       7.868  25.950  13.882  1.00  0.00     0.006 C 
ATOM     12  C   UNL     1       8.238  24.621  14.546  1.00  0.00     0.004 C 
ENDBRANCH   1  11
TORSDOF 4
ENDMDL
MODEL 6
REMARK VINA RESULT:    -3.430      2.838      3.689
REMARK INTER + INTRA:          -4.194
REMARK INTER:                  -4.103
REMARK INTRA:                  -0.092
REMARK UNBOUND:                -0.063
REMARK SMILES CC[C@@H](C)[C@@H]([NH3+])C(=O)[O-]
REMARK SMILES IDX 3 1 4 2 5 3 6 4 7 8 8 9 9 10 2 11 1 12
REMARK H PARENT 6 5 6 6 6 7
REMARK Flexibility Score: inf
ROOT
ATOM      1  C   UNL     1       9.638  26.127  12.199  1.00  0.00     0.050 C 
ATOM      2  C   UNL     1      10.082  24.749  11.669  1.00  0.00     0.014 C 
ENDROOT
BRANCH   1   3
ATOM      3  C   UNL     1       8.228  26.504  11.640  1.00  0.00     0.230 C 
BRANCH   3   4
ATOM      4  N   UNL     1       7.291  26.881  12.708  1.00  0.00    -0.350 N 
ATOM      5  H   UNL     1       6.350  26.463  12.522  1.00  0.00     0.345 HD
ATOM      6  H   UNL     1       7.616  26.507  13.628  1.00  0.00     0.345 HD
ATOM      7  H   UNL     1       7.193  27.921  12.763  1.00  0.00     0.345 HD
ENDBRANCH   3   4
BRANCH   3   8
ATOM      8  C   UNL     1       8.322  27.633  10.642  1.00  0.00     0.099 C 
ATOM      9  O   UNL     1       9.394  27.843  10.016  1.00  0.00    -0.544 OA
ATOM     10  O   UNL     1       7.220  28.445  10.406  1.00  0.00    -0.544 OA
ENDBRANCH   3   8
ENDBRANCH   1   3
BRANCH   1  11
ATOM     11  C   UNL     1       9.676  26.114  13.756  1.00  0.00     0.006 C 
ATOM     12  C   UNL     1      10.912  26.816  14.323  1.00  0.00     0.004 C 
ENDBRANCH   1  11
TORSDOF 4
ENDMDL
MODEL 7
REMARK VINA RESULT:    -3.424      2.251      3.318
REMARK INTER + INTRA:          -4.187
REMARK INTER:                  -4.082
REMARK INTRA:                  -0.106
REMARK UNBOUND:                -0.063
REMARK SMILES CC[C@@H](C)[C@@H]([NH3+])C(=O)[O-]
REMARK SMILES IDX 3 1 4 2 5 3 6 4 7 8 8 9 9 10 2 11 1 12
REMARK H PARENT 6 5 6 6 6 7
REMARK Flexibility Score: inf
ROOT
ATOM      1  C   UNL     1       9.154  26.201  13.568  1.00  0.00     0.050 C 
ATOM      2  C   UNL     1      10.542  26.542  14.146  1.00  0.00     0.014 C 
ENDROOT
BRANCH   1   3
ATOM      3  C   UNL     1       9.157  26.342  12.011  1.00  0.00     0.230 C 
BRANCH   3   4
ATOM      4  N   UNL     1      10.264  25.603  11.390  1.00  0.00    -0.350 N 
ATOM      5  H   UNL     1      10.101  24.573  11.480  1.00  0.00     0.345 HD
ATOM      6  H   UNL     1      10.318  25.815  10.368  1.00  0.00     0.345 HD
ATOM      7  H   UNL     1      11.172  25.842  11.851  1.00  0.00     0.345 HD
ENDBRANCH   3   4
BRANCH   3   8
ATOM      8  C   UNL     1       7.851  25.868  11.419  1.00  0.00     0.099 C 
ATOM      9  O   UNL     1       7.841  24.990  10.517  1.00  0.00    -0.544 OA
ATOM     10  O   UNL     1       6.650  26.400  11.872  1.00  0.00    -0.544 OA
ENDBRANCH   3   8
ENDBRANCH   1   3
BRANCH   1  11
ATOM     11  C   UNL     1       8.740  24.775  14.035  1.00  0.00     0.006 C 
ATOM     12  C   UNL     1       7.838  24.796  15.271  1.00  0.00     0.004 C 
ENDBRANCH   1  11
TORSDOF 4
ENDMDL
MODEL 8
REMARK VINA RESULT:    -3.408      2.456      3.798
REMARK INTER + INTRA:          -4.168
REMARK INTER:                  -4.095
REMARK INTRA:                  -0.073
REMARK UNBOUND:                -0.063
REMARK SMILES CC[C@@H](C)[C@@H]([NH3+])C(=O)[O-]
REMARK SMILES IDX 3 1 4 2 5 3 6 4 7 8 8 9 9 10 2 11 1 12
REMARK H PARENT 6 5 6 6 6 7
REMARK Flexibility Score: inf
ROOT
ATOM      1  C   UNL     1       8.470  25.973  13.847  1.00  0.00     0.050 C 
ATOM      2  C   UNL     1       7.921  25.000  14.909  1.00  0.00     0.014 C 
ENDROOT
BRANCH   1   3
ATOM      3  C   UNL     1      10.025  25.846  13.736  1.00  0.00     0.230 C 
BRANCH   3   4
ATOM      4  N   UNL     1      10.503  26.074  12.366  1.00  0.00    -0.350 N 
ATOM      5  H   UNL     1      11.512  25.808  12.291  1.00  0.00     0.345 HD
ATOM      6  H   UNL     1       9.977  25.475  11.691  1.00  0.00     0.345 HD
ATOM      7  H   UNL     1      10.399  27.081  12.102  1.00  0.00     0.345 HD
ENDBRANCH   3   4
BRANCH   3   8
ATOM      8  C   UNL     1      10.718  26.810  14.670  1.00  0.00     0.099 C 
ATOM      9  O   UNL     1      11.188  27.893  14.234  1.00  0.00    -0.544 OA
ATOM     10  O   UNL     1      10.837  26.504  16.020  1.00  0.00    -0.544 OA
ENDBRANCH   3   8
ENDBRANCH   1   3
BRANCH   1  11
ATOM     11  C   UNL     1       7.755  25.709  12.490  1.00  0.00     0.006 C 
ATOM     12  C   UNL     1       6.778  26.825  12.111  1.00  0.00     0.004 C 
ENDBRANCH   1  11
TORSDOF 4
ENDMDL
MODEL 9
REMARK VINA RESULT:    -3.392      2.180      3.363
REMARK INTER + INTRA:          -4.149
REMARK INTER:                  -4.067
REMARK INTRA:                  -0.083
REMARK UNBOUND:                -0.063
REMARK SMILES CC[C@@H](C)[C@@H]([NH3+])C(=O)[O-]
REMARK SMILES IDX 3 1 4 2 5 3 6 4 7 8 8 9 9 10 2 11 1 12
REMARK H PARENT 6 5 6 6 6 7
REMARK Flexibility Score: inf
ROOT
ATOM      1  C   UNL     1       9.894  25.739  13.587  1.00  0.00     0.050 C 
ATOM      2  C   UNL     1      10.893  26.762  14.163  1.00  0.00     0.014 C 
ENDROOT
BRANCH   1   3
ATOM      3  C   UNL     1       8.486  25.913  14.245  1.00  0.00     0.230 C 
BRANCH   3   4
ATOM      4  N   UNL     1       7.396  25.761  13.271  1.00  0.00    -0.350 N 
ATOM      5  H   UNL     1       6.510  25.504  13.765  1.00  0.00     0.345 HD
ATOM      6  H   UNL     1       7.221  26.663  12.776  1.00  0.00     0.345 HD
ATOM      7  H   UNL     1       7.625  25.012  12.576  1.00  0.00     0.345 HD
ENDBRANCH   3   4
BRANCH   3   8
ATOM      8  C   UNL     1       8.286  24.927  15.372  1.00  0.00     0.099 C 
ATOM      9  O   UNL     1       7.620  23.875  15.187  1.00  0.00    -0.544 OA
ATOM     10  O   UNL     1       8.843  25.176  16.620  1.00  0.00    -0.544 OA
ENDBRANCH   3   8
ENDBRANCH   1   3
BRANCH   1  11
ATOM     11  C   UNL     1       9.847  25.884  12.038  1.00  0.00     0.006 C 
ATOM     12  C   UNL     1      10.156  24.572  11.312  1.00  0.00     0.004 C 
ENDBRANCH   1  11
TORSDOF 4
ENDMDL
