MODEL 1
REMARK VINA RESULT:    -2.994      0.000      0.000
REMARK INTER + INTRA:          -3.559
REMARK INTER:                  -3.519
REMARK INTRA:                  -0.039
REMARK UNBOUND:                -0.039
REMARK SMILES O=C([O-])CCC(=O)[O-]
REMARK SMILES IDX 4 1 2 2 1 3 3 4 5 5 6 6 7 7 8 8
REMARK H PARENT
REMARK Flexibility Score: inf
ROOT
ATOM      1  C   UNL     1       6.100   9.186  33.983  1.00  0.00     0.059 C 
ENDROOT
BRANCH   1   2
ATOM      2  C   UNL     1       7.172   8.212  33.609  1.00  0.00     0.042 C 
ATOM      3  O   UNL     1       8.317   8.622  33.282  1.00  0.00    -0.550 OA
ATOM      4  O   UNL     1       6.893   6.850  33.574  1.00  0.00    -0.550 OA
ENDBRANCH   1   2
BRANCH   1   5
ATOM      5  C   UNL     1       6.105  10.380  33.027  1.00  0.00     0.059 C 
BRANCH   5   6
ATOM      6  C   UNL     1       5.284  11.499  33.585  1.00  0.00     0.042 C 
ATOM      7  O   UNL     1       4.876  12.422  32.831  1.00  0.00    -0.550 OA
ATOM      8  O   UNL     1       5.009  11.549  34.946  1.00  0.00    -0.550 OA
ENDBRANCH   5   6
ENDBRANCH   1   5
TORSDOF 3
ENDMDL
MODEL 2
REMARK VINA RESULT:    -2.902      1.232      4.309
REMARK INTER + INTRA:          -3.451
REMARK INTER:                  -3.350
REMARK INTRA:                  -0.101
REMARK UNBOUND:                -0.039
REMARK SMILES O=C([O-])CCC(=O)[O-]
REMARK SMILES IDX 4 1 2 2 1 3 3 4 5 5 6 6 7 7 8 8
REMARK H PARENT
REMARK Flexibility Score: inf
ROOT
ATOM      1  C   UNL     1       6.632   9.568  33.036  1.00  0.00     0.059 C 
ENDROOT
BRANCH   1   2
ATOM      2  C   UNL     1       5.606  10.427  33.702  1.00  0.00     0.042 C 
ATOM      3  O   UNL     1       5.137  10.101  34.826  1.00  0.00    -0.550 OA
ATOM      4  O   UNL     1       5.129  11.565  33.062  1.00  0.00    -0.550 OA
ENDBRANCH   1   2
BRANCH   1   5
ATOM      5  C   UNL     1       7.479   8.839  34.081  1.00  0.00     0.059 C 
BRANCH   5   6
ATOM      6  C   UNL     1       7.476   7.365  33.821  1.00  0.00     0.042 C 
ATOM      7  O   UNL     1       6.448   6.807  33.353  1.00  0.00    -0.550 OA
ATOM      8  O   UNL     1       8.590   6.600  34.141  1.00  0.00    -0.550 OA
ENDBRANCH   5   6
ENDBRANCH   1   5
TORSDOF 3
ENDMDL
MODEL 3
REMARK VINA RESULT:    -2.889      1.274      4.333
REMARK INTER + INTRA:          -3.436
REMARK INTER:                  -3.320
REMARK INTRA:                  -0.115
REMARK UNBOUND:                -0.039
REMARK SMILES O=C([O-])CCC(=O)[O-]
REMARK SMILES IDX 4 1 2 2 1 3 3 4 5 5 6 6 7 7 8 8
REMARK H PARENT
REMARK Flexibility Score: inf
ROOT
ATOM      1  C   UNL     1       6.592   9.560  33.050  1.00  0.00     0.059 C 
ENDROOT
BRANCH   1   2
ATOM      2  C   UNL     1       5.579  10.330  33.836  1.00  0.00     0.042 C 
ATOM      3  O   UNL     1       5.123   9.863  34.914  1.00  0.00    -0.550 OA
ATOM      4  O   UNL     1       5.099  11.542  33.354  1.00  0.00    -0.550 OA
ENDBRANCH   1   2
BRANCH   1   5
ATOM      5  C   UNL     1       7.573   8.855  33.988  1.00  0.00     0.059 C 
BRANCH   5   6
ATOM      6  C   UNL     1       7.485   7.371  33.816  1.00  0.00     0.042 C 
ATOM      7  O   UNL     1       8.482   6.643  34.070  1.00  0.00    -0.550 OA
ATOM      8  O   UNL     1       6.319   6.795  33.330  1.00  0.00    -0.550 OA
ENDBRANCH   5   6
ENDBRANCH   1   5
TORSDOF 3
ENDMDL
MODEL 4
REMARK VINA RESULT:    -2.888      1.310      1.418
REMARK INTER + INTRA:          -3.434
REMARK INTER:                  -3.330
REMARK INTRA:                  -0.103
REMARK UNBOUND:                -0.039
REMARK SMILES O=C([O-])CCC(=O)[O-]
REMARK SMILES IDX 4 1 2 2 1 3 3 4 5 5 6 6 7 7 8 8
REMARK H PARENT
REMARK Flexibility Score: inf
ROOT
ATOM      1  C   UNL     1       7.730   8.863  33.756  1.00  0.00     0.059 C 
ENDROOT
BRANCH   1   2
ATOM      2  C   UNL     1       7.543   7.380  33.809  1.00  0.00     0.042 C 
ATOM      3  O   UNL     1       8.487   6.635  34.183  1.00  0.00    -0.550 OA
ATOM      4  O   UNL     1       6.341   6.815  33.398  1.00  0.00    -0.550 OA
ENDBRANCH   1   2
BRANCH   1   5
ATOM      5  C   UNL     1       6.572   9.522  33.004  1.00  0.00     0.059 C 
BRANCH   5   6
ATOM      6  C   UNL     1       5.735  10.336  33.941  1.00  0.00     0.042 C 
ATOM      7  O   UNL     1       5.035  11.286  33.503  1.00  0.00    -0.550 OA
ATOM      8  O   UNL     1       5.767  10.075  35.305  1.00  0.00    -0.550 OA
ENDBRANCH   5   6
ENDBRANCH   1   5
TORSDOF 3
ENDMDL
MODEL 5
REMARK VINA RESULT:    -2.888      1.318      1.926
REMARK INTER + INTRA:          -3.434
REMARK INTER:                  -3.318
REMARK INTRA:                  -0.115
REMARK UNBOUND:                -0.039
REMARK SMILES O=C([O-])CCC(=O)[O-]
REMARK SMILES IDX 4 1 2 2 1 3 3 4 5 5 6 6 7 7 8 8
REMARK H PARENT
REMARK Flexibility Score: inf
ROOT
ATOM      1  C   UNL     1       7.562   8.803  34.052  1.00  0.00     0.059 C 
ENDROOT
BRANCH   1   2
ATOM      2  C   UNL     1       7.483   7.323  33.849  1.00  0.00     0.042 C 
ATOM      3  O   UNL     1       6.428   6.800  33.401  1.00  0.00    -0.550 OA
ATOM      4  O   UNL     1       8.557   6.514  34.201  1.00  0.00    -0.550 OA
ENDBRANCH   1   2
BRANCH   1   5
ATOM      5  C   UNL     1       6.636   9.528  33.075  1.00  0.00     0.059 C 
BRANCH   5   6
ATOM      6  C   UNL     1       5.598  10.308  33.819  1.00  0.00     0.042 C 
ATOM      7  O   UNL     1       5.155   9.885  34.920  1.00  0.00    -0.550 OA
ATOM      8  O   UNL     1       5.084  11.478  33.274  1.00  0.00    -0.550 OA
ENDBRANCH   5   6
ENDBRANCH   1   5
TORSDOF 3
ENDMDL
MODEL 6
REMARK VINA RESULT:    -2.845      1.628      2.181
REMARK INTER + INTRA:          -3.383
REMARK INTER:                  -3.276
REMARK INTRA:                  -0.107
REMARK UNBOUND:                -0.039
REMARK SMILES O=C([O-])CCC(=O)[O-]
REMARK SMILES IDX 4 1 2 2 1 3 3 4 5 5 6 6 7 7 8 8
REMARK H PARENT
REMARK Flexibility Score: inf
ROOT
ATOM      1  C   UNL     1       6.799   7.567  33.380  1.00  0.00     0.059 C 
ENDROOT
BRANCH   1   2
ATOM      2  C   UNL     1       7.679   6.966  34.429  1.00  0.00     0.042 C 
ATOM      3  O   UNL     1       8.825   6.538  34.126  1.00  0.00    -0.550 OA
ATOM      4  O   UNL     1       7.217   6.834  35.733  1.00  0.00    -0.550 OA
ENDBRANCH   1   2
BRANCH   1   5
ATOM      5  C   UNL     1       7.123   9.050  33.194  1.00  0.00     0.059 C 
BRANCH   5   6
ATOM      6  C   UNL     1       5.983   9.898  33.662  1.00  0.00     0.042 C 
ATOM      7  O   UNL     1       5.236   9.497  34.594  1.00  0.00    -0.550 OA
ATOM      8  O   UNL     1       5.714  11.109  33.038  1.00  0.00    -0.550 OA
ENDBRANCH   5   6
ENDBRANCH   1   5
TORSDOF 3
ENDMDL
MODEL 7
REMARK VINA RESULT:    -2.672      2.001      4.533
REMARK INTER + INTRA:          -3.180
REMARK INTER:                  -3.059
REMARK INTRA:                  -0.121
REMARK UNBOUND:                -0.039
REMARK SMILES O=C([O-])CCC(=O)[O-]
REMARK SMILES IDX 4 1 2 2 1 3 3 4 5 5 6 6 7 7 8 8
REMARK H PARENT
REMARK Flexibility Score: inf
ROOT
ATOM      1  C   UNL     1       6.034   8.184  34.200  1.00  0.00     0.059 C 
ENDROOT
BRANCH   1   2
ATOM      2  C   UNL     1       6.885   9.145  33.433  1.00  0.00     0.042 C 
ATOM      3  O   UNL     1       6.373  10.172  32.913  1.00  0.00    -0.550 OA
ATOM      4  O   UNL     1       8.238   8.883  33.248  1.00  0.00    -0.550 OA
ENDBRANCH   1   2
BRANCH   1   5
ATOM      5  C   UNL     1       6.266   6.754  33.708  1.00  0.00     0.059 C 
BRANCH   5   6
ATOM      6  C   UNL     1       6.879   5.921  34.790  1.00  0.00     0.042 C 
ATOM      7  O   UNL     1       8.043   6.171  35.199  1.00  0.00    -0.550 OA
ATOM      8  O   UNL     1       6.182   4.840  35.313  1.00  0.00    -0.550 OA
ENDBRANCH   5   6
ENDBRANCH   1   5
TORSDOF 3
ENDMDL
MODEL 8
REMARK VINA RESULT:    -2.629      2.023      2.611
REMARK INTER + INTRA:          -3.130
REMARK INTER:                  -2.974
REMARK INTRA:                  -0.156
REMARK UNBOUND:                -0.039
REMARK SMILES O=C([O-])CCC(=O)[O-]
REMARK SMILES IDX 4 1 2 2 1 3 3 4 5 5 6 6 7 7 8 8
REMARK H PARENT
REMARK Flexibility Score: inf
ROOT
ATOM      1  C   UNL     1       6.225   9.725  33.671  1.00  0.00     0.059 C 
ENDROOT
BRANCH   1   2
ATOM      2  C   UNL     1       7.133   8.570  33.393  1.00  0.00     0.042 C 
ATOM      3  O   UNL     1       8.375   8.751  33.287  1.00  0.00    -0.550 OA
ATOM      4  O   UNL     1       6.604   7.299  33.202  1.00  0.00    -0.550 OA
ENDBRANCH   1   2
BRANCH   1   5
ATOM      5  C   UNL     1       5.288   9.401  34.836  1.00  0.00     0.059 C 
BRANCH   5   6
ATOM      6  C   UNL     1       6.044   9.391  36.128  1.00  0.00     0.042 C 
ATOM      7  O   UNL     1       6.425  10.473  36.647  1.00  0.00    -0.550 OA
ATOM      8  O   UNL     1       6.370   8.184  36.733  1.00  0.00    -0.550 OA
ENDBRANCH   5   6
ENDBRANCH   1   5
TORSDOF 3
ENDMDL
