MODEL 1
REMARK VINA RESULT:    -7.763      0.000      0.000
REMARK INTER + INTRA:         -11.147
REMARK INTER:                 -10.940
REMARK INTRA:                  -0.207
REMARK UNBOUND:                -0.207
REMARK SMILES C[C@@H](CO)CCC(=O)[C@H](C)[C@@H]1C(=O)C[C@@H]2[C@@H]3CC=C4C[C@@H](O)CC[C@]4(C)[C@@H]3CC[C@@]21C
REMARK SMILES IDX 6 1 5 2 2 3 1 4 3 5 4 6 7 8 8 9 9 10 10 11 11 12 12 13 30 14
REMARK SMILES IDX 13 15 14 16 15 17 29 18 31 19 16 20 28 21 27 22 17 23 25 24
REMARK SMILES IDX 18 25 19 26 24 27 26 28 20 29 23 30 21 31 22 32
REMARK H PARENT 4 7 22 33
REMARK Flexibility Score: inf
ROOT
ATOM      1  C   UNL     1      18.301  16.386  10.311  1.00  0.00     0.076 C 
ENDROOT
BRANCH   1   2
ATOM      2  C   UNL     1      18.703  17.161   9.044  1.00  0.00     0.013 C 
BRANCH   2   3
ATOM      3  C   UNL     1      20.202  17.547   8.969  1.00  0.00     0.012 C 
ATOM      4  C   UNL     1      20.430  18.777   8.071  1.00  0.00     0.010 C 
BRANCH   3   5
ATOM      5  C   UNL     1      20.748  17.809  10.387  1.00  0.00     0.159 C 
BRANCH   5   6
ATOM      6  O   UNL     1      21.439  16.687  10.873  1.00  0.00    -0.396 OA
ATOM      7  H   UNL     1      20.776  16.144  11.377  1.00  0.00     0.210 HD
ENDBRANCH   5   6
ENDBRANCH   3   5
ENDBRANCH   2   3
ENDBRANCH   1   2
BRANCH   1   8
ATOM      8  C   UNL     1      18.180  14.905  10.059  1.00  0.00     0.136 C 
ATOM      9  O   UNL     1      18.080  14.500   8.909  1.00  0.00    -0.299 OA
BRANCH   8  10
ATOM     10  C   UNL     1      18.181  13.912  11.209  1.00  0.00     0.064 C 
ATOM     11  C   UNL     1      18.391  12.512  10.598  1.00  0.00     0.017 C 
BRANCH  10  12
ATOM     12  C   UNL     1      16.857  13.993  12.055  1.00  0.00     0.072 C 
ATOM     13  C   UNL     1      15.734  14.726  11.386  1.00  0.00     0.137 C 
ATOM     14  C   UNL     1      16.940  14.652  13.492  1.00  0.00    -0.019 C 
ATOM     15  O   UNL     1      15.364  14.493  10.244  1.00  0.00    -0.299 OA
ATOM     16  C   UNL     1      14.989  15.658  12.251  1.00  0.00     0.080 C 
ATOM     17  C   UNL     1      15.602  15.473  13.650  1.00  0.00     0.007 C 
ATOM     18  C   UNL     1      18.142  15.619  13.689  1.00  0.00     0.008 C 
ATOM     19  C   UNL     1      17.025  13.499  14.535  1.00  0.00     0.012 C 
ATOM     20  C   UNL     1      15.681  16.800  14.497  1.00  0.00     0.001 C 
ATOM     21  C   UNL     1      18.133  16.373  15.041  1.00  0.00     0.005 C 
ATOM     22  C   UNL     1      16.720  16.665  15.632  1.00  0.00     0.003 C 
ATOM     23  C   UNL     1      15.909  18.117  13.701  1.00  0.00     0.031 C 
ATOM     24  C   UNL     1      16.677  17.913  16.590  1.00  0.00    -0.008 C 
ATOM     25  C   UNL     1      16.448  19.279  14.506  1.00  0.00    -0.027 C 
ATOM     26  C   UNL     1      16.873  19.190  15.784  1.00  0.00    -0.065 C 
ATOM     27  C   UNL     1      17.794  17.812  17.672  1.00  0.00     0.014 C 
ATOM     28  C   UNL     1      15.295  17.969  17.304  1.00  0.00     0.016 C 
ATOM     29  C   UNL     1      17.694  20.330  16.357  1.00  0.00     0.063 C 
ATOM     30  C   UNL     1      17.899  19.049  18.590  1.00  0.00     0.033 C 
ATOM     31  C   UNL     1      17.622  20.405  17.892  1.00  0.00     0.118 C 
BRANCH  31  32
ATOM     32  O   UNL     1      16.368  20.896  18.289  1.00  0.00    -0.393 OA
ATOM     33  H   UNL     1      16.040  21.486  17.559  1.00  0.00     0.210 HD
ENDBRANCH  31  32
ENDBRANCH  10  12
ENDBRANCH   8  10
ENDBRANCH   1   8
TORSDOF 8
ENDMDL
MODEL 2
REMARK VINA RESULT:    -7.748      2.134      6.562
REMARK INTER + INTRA:         -11.125
REMARK INTER:                 -10.381
REMARK INTRA:                  -0.744
REMARK UNBOUND:                -0.207
REMARK SMILES C[C@@H](CO)CCC(=O)[C@H](C)[C@@H]1C(=O)C[C@@H]2[C@@H]3CC=C4C[C@@H](O)CC[C@]4(C)[C@@H]3CC[C@@]21C
REMARK SMILES IDX 6 1 5 2 2 3 1 4 3 5 4 6 7 8 8 9 9 10 10 11 11 12 12 13 30 14
REMARK SMILES IDX 13 15 14 16 15 17 29 18 31 19 16 20 28 21 27 22 17 23 25 24
REMARK SMILES IDX 18 25 19 26 24 27 26 28 20 29 23 30 21 31 22 32
REMARK H PARENT 4 7 22 33
REMARK Flexibility Score: inf
ROOT
ATOM      1  C   UNL     1      16.193  17.227  16.361  1.00  0.00     0.076 C 
ENDROOT
BRANCH   1   2
ATOM      2  C   UNL     1      15.696  18.604  15.887  1.00  0.00     0.013 C 
BRANCH   2   3
ATOM      3  C   UNL     1      16.817  19.641  15.623  1.00  0.00     0.012 C 
ATOM      4  C   UNL     1      16.380  20.704  14.599  1.00  0.00     0.010 C 
BRANCH   3   5
ATOM      5  C   UNL     1      17.235  20.312  16.948  1.00  0.00     0.159 C 
BRANCH   5   6
ATOM      6  O   UNL     1      18.607  20.134  17.187  1.00  0.00    -0.396 OA
ATOM      7  H   UNL     1      19.067  20.926  16.798  1.00  0.00     0.210 HD
ENDBRANCH   5   6
ENDBRANCH   3   5
ENDBRANCH   2   3
ENDBRANCH   1   2
BRANCH   1   8
ATOM      8  C   UNL     1      15.520  16.095  15.628  1.00  0.00     0.136 C 
ATOM      9  O   UNL     1      14.299  16.018  15.638  1.00  0.00    -0.299 OA
BRANCH   8  10
ATOM     10  C   UNL     1      16.334  15.052  14.881  1.00  0.00     0.064 C 
ATOM     11  C   UNL     1      17.818  15.434  15.046  1.00  0.00     0.017 C 
BRANCH  10  12
ATOM     12  C   UNL     1      15.915  14.955  13.367  1.00  0.00     0.072 C 
ATOM     13  C   UNL     1      16.530  13.810  12.623  1.00  0.00     0.137 C 
ATOM     14  C   UNL     1      16.197  16.207  12.442  1.00  0.00    -0.019 C 
ATOM     15  O   UNL     1      16.514  12.656  13.029  1.00  0.00    -0.299 OA
ATOM     16  C   UNL     1      17.034  14.134  11.277  1.00  0.00     0.080 C 
ATOM     17  C   UNL     1      16.645  15.606  11.054  1.00  0.00     0.007 C 
ATOM     18  C   UNL     1      17.321  17.150  12.960  1.00  0.00     0.008 C 
ATOM     19  C   UNL     1      14.868  17.008  12.312  1.00  0.00     0.012 C 
ATOM     20  C   UNL     1      17.704  16.433  10.231  1.00  0.00     0.001 C 
ATOM     21  C   UNL     1      17.695  18.287  11.978  1.00  0.00     0.005 C 
ATOM     22  C   UNL     1      17.519  17.948  10.467  1.00  0.00     0.003 C 
ATOM     23  C   UNL     1      19.195  16.029  10.419  1.00  0.00     0.031 C 
ATOM     24  C   UNL     1      18.449  18.788   9.514  1.00  0.00    -0.008 C 
ATOM     25  C   UNL     1      20.208  17.083  10.029  1.00  0.00    -0.027 C 
ATOM     26  C   UNL     1      19.899  18.353   9.695  1.00  0.00    -0.065 C 
ATOM     27  C   UNL     1      18.327  20.308   9.828  1.00  0.00     0.014 C 
ATOM     28  C   UNL     1      18.027  18.547   8.036  1.00  0.00     0.016 C 
ATOM     29  C   UNL     1      21.009  19.386   9.657  1.00  0.00     0.063 C 
ATOM     30  C   UNL     1      19.289  21.202   9.016  1.00  0.00     0.033 C 
ATOM     31  C   UNL     1      20.683  20.581   8.745  1.00  0.00     0.118 C 
BRANCH  31  32
ATOM     32  O   UNL     1      20.778  20.195   7.398  1.00  0.00    -0.393 OA
ATOM     33  H   UNL     1      19.952  20.510   6.944  1.00  0.00     0.210 HD
ENDBRANCH  31  32
ENDBRANCH  10  12
ENDBRANCH   8  10
ENDBRANCH   1   8
TORSDOF 8
ENDMDL
MODEL 3
REMARK VINA RESULT:    -7.636      4.238      7.225
REMARK INTER + INTRA:         -10.968
REMARK INTER:                 -10.999
REMARK INTRA:                   0.031
REMARK UNBOUND:                -0.207
REMARK SMILES C[C@@H](CO)CCC(=O)[C@H](C)[C@@H]1C(=O)C[C@@H]2[C@@H]3CC=C4C[C@@H](O)CC[C@]4(C)[C@@H]3CC[C@@]21C
REMARK SMILES IDX 6 1 5 2 2 3 1 4 3 5 4 6 7 8 8 9 9 10 10 11 11 12 12 13 30 14
REMARK SMILES IDX 13 15 14 16 15 17 29 18 31 19 16 20 28 21 27 22 17 23 25 24
REMARK SMILES IDX 18 25 19 26 24 27 26 28 20 29 23 30 21 31 22 32
REMARK H PARENT 4 7 22 33
REMARK Flexibility Score: inf
ROOT
ATOM      1  C   UNL     1      19.895  20.900   8.923  1.00  0.00     0.076 C 
ENDROOT
BRANCH   1   2
ATOM      2  C   UNL     1      21.025  21.921   8.702  1.00  0.00     0.013 C 
BRANCH   2   3
ATOM      3  C   UNL     1      20.664  23.090   7.752  1.00  0.00     0.012 C 
ATOM      4  C   UNL     1      19.694  24.085   8.416  1.00  0.00     0.010 C 
BRANCH   3   5
ATOM      5  C   UNL     1      21.949  23.815   7.299  1.00  0.00     0.159 C 
BRANCH   5   6
ATOM      6  O   UNL     1      22.082  23.771   5.902  1.00  0.00    -0.396 OA
ATOM      7  H   UNL     1      21.347  24.329   5.531  1.00  0.00     0.210 HD
ENDBRANCH   5   6
ENDBRANCH   3   5
ENDBRANCH   2   3
ENDBRANCH   1   2
BRANCH   1   8
ATOM      8  C   UNL     1      20.219  19.553   8.329  1.00  0.00     0.136 C 
ATOM      9  O   UNL     1      21.231  19.426   7.653  1.00  0.00    -0.299 OA
BRANCH   8  10
ATOM     10  C   UNL     1      19.311  18.357   8.557  1.00  0.00     0.064 C 
ATOM     11  C   UNL     1      17.993  18.642   7.810  1.00  0.00     0.017 C 
BRANCH  10  12
ATOM     12  C   UNL     1      19.074  18.084  10.088  1.00  0.00     0.072 C 
ATOM     13  C   UNL     1      20.321  17.812  10.873  1.00  0.00     0.137 C 
ATOM     14  C   UNL     1      18.107  16.895  10.484  1.00  0.00    -0.019 C 
ATOM     15  O   UNL     1      21.312  18.527  10.830  1.00  0.00    -0.299 OA
ATOM     16  C   UNL     1      20.229  16.697  11.831  1.00  0.00     0.080 C 
ATOM     17  C   UNL     1      18.765  16.230  11.755  1.00  0.00     0.007 C 
ATOM     18  C   UNL     1      17.942  15.806   9.385  1.00  0.00     0.008 C 
ATOM     19  C   UNL     1      16.717  17.508  10.820  1.00  0.00     0.012 C 
ATOM     20  C   UNL     1      18.577  14.674  11.919  1.00  0.00     0.001 C 
ATOM     21  C   UNL     1      17.118  14.575   9.833  1.00  0.00     0.005 C 
ATOM     22  C   UNL     1      17.214  14.224  11.349  1.00  0.00     0.003 C 
ATOM     23  C   UNL     1      19.723  13.777  11.368  1.00  0.00     0.031 C 
ATOM     24  C   UNL     1      16.940  12.707  11.669  1.00  0.00    -0.008 C 
ATOM     25  C   UNL     1      19.348  12.337  11.094  1.00  0.00    -0.027 C 
ATOM     26  C   UNL     1      18.089  11.853  11.147  1.00  0.00    -0.065 C 
ATOM     27  C   UNL     1      15.611  12.238  11.006  1.00  0.00     0.014 C 
ATOM     28  C   UNL     1      16.824  12.517  13.210  1.00  0.00     0.016 C 
ATOM     29  C   UNL     1      17.805  10.497  10.529  1.00  0.00     0.063 C 
ATOM     30  C   UNL     1      15.316  10.732  11.174  1.00  0.00     0.033 C 
ATOM     31  C   UNL     1      16.564   9.814  11.130  1.00  0.00     0.118 C 
BRANCH  31  32
ATOM     32  O   UNL     1      16.855   9.344  12.421  1.00  0.00    -0.393 OA
ATOM     33  H   UNL     1      17.692   9.791  12.714  1.00  0.00     0.210 HD
ENDBRANCH  31  32
ENDBRANCH  10  12
ENDBRANCH   8  10
ENDBRANCH   1   8
TORSDOF 8
ENDMDL
MODEL 4
REMARK VINA RESULT:    -7.558      2.455      7.816
REMARK INTER + INTRA:         -10.858
REMARK INTER:                 -10.694
REMARK INTRA:                  -0.164
REMARK UNBOUND:                -0.207
REMARK SMILES C[C@@H](CO)CCC(=O)[C@H](C)[C@@H]1C(=O)C[C@@H]2[C@@H]3CC=C4C[C@@H](O)CC[C@]4(C)[C@@H]3CC[C@@]21C
REMARK SMILES IDX 6 1 5 2 2 3 1 4 3 5 4 6 7 8 8 9 9 10 10 11 11 12 12 13 30 14
REMARK SMILES IDX 13 15 14 16 15 17 29 18 31 19 16 20 28 21 27 22 17 23 25 24
REMARK SMILES IDX 18 25 19 26 24 27 26 28 20 29 23 30 21 31 22 32
REMARK H PARENT 4 7 22 33
REMARK Flexibility Score: inf
ROOT
ATOM      1  C   UNL     1      15.644  18.174  17.164  1.00  0.00     0.076 C 
ENDROOT
BRANCH   1   2
ATOM      2  C   UNL     1      17.055  17.900  17.716  1.00  0.00     0.013 C 
BRANCH   2   3
ATOM      3  C   UNL     1      18.028  19.103  17.633  1.00  0.00     0.012 C 
ATOM      4  C   UNL     1      17.366  20.327  16.974  1.00  0.00     0.010 C 
BRANCH   3   5
ATOM      5  C   UNL     1      18.538  19.464  19.043  1.00  0.00     0.159 C 
BRANCH   5   6
ATOM      6  O   UNL     1      18.043  18.564  20.000  1.00  0.00    -0.396 OA
ATOM      7  H   UNL     1      17.702  19.113  20.755  1.00  0.00     0.210 HD
ENDBRANCH   5   6
ENDBRANCH   3   5
ENDBRANCH   2   3
ENDBRANCH   1   2
BRANCH   1   8
ATOM      8  C   UNL     1      15.266  17.217  16.064  1.00  0.00     0.136 C 
ATOM      9  O   UNL     1      14.810  16.120  16.356  1.00  0.00    -0.299 OA
BRANCH   8  10
ATOM     10  C   UNL     1      15.444  17.593  14.602  1.00  0.00     0.064 C 
ATOM     11  C   UNL     1      14.385  16.810  13.802  1.00  0.00     0.017 C 
BRANCH  10  12
ATOM     12  C   UNL     1      16.904  17.300  14.094  1.00  0.00     0.072 C 
ATOM     13  C   UNL     1      17.249  17.944  12.786  1.00  0.00     0.137 C 
ATOM     14  C   UNL     1      17.327  15.788  13.899  1.00  0.00    -0.019 C 
ATOM     15  O   UNL     1      17.066  19.130  12.550  1.00  0.00    -0.299 OA
ATOM     16  C   UNL     1      17.974  17.084  11.835  1.00  0.00     0.080 C 
ATOM     17  C   UNL     1      18.221  15.771  12.600  1.00  0.00     0.007 C 
ATOM     18  C   UNL     1      16.136  14.808  13.693  1.00  0.00     0.008 C 
ATOM     19  C   UNL     1      18.141  15.359  15.154  1.00  0.00     0.012 C 
ATOM     20  C   UNL     1      18.143  14.480  11.700  1.00  0.00     0.001 C 
ATOM     21  C   UNL     1      16.561  13.359  13.353  1.00  0.00     0.005 C 
ATOM     22  C   UNL     1      17.900  13.224  12.566  1.00  0.00     0.003 C 
ATOM     23  C   UNL     1      17.142  14.524  10.510  1.00  0.00     0.031 C 
ATOM     24  C   UNL     1      18.000  11.912  11.701  1.00  0.00    -0.008 C 
ATOM     25  C   UNL     1      16.724  13.178   9.961  1.00  0.00    -0.027 C 
ATOM     26  C   UNL     1      17.033  11.993  10.527  1.00  0.00    -0.065 C 
ATOM     27  C   UNL     1      17.657  10.660  12.563  1.00  0.00     0.014 C 
ATOM     28  C   UNL     1      19.450  11.761  11.157  1.00  0.00     0.016 C 
ATOM     29  C   UNL     1      16.280  10.755  10.079  1.00  0.00     0.063 C 
ATOM     30  C   UNL     1      17.621   9.336  11.769  1.00  0.00     0.033 C 
ATOM     31  C   UNL     1      17.065   9.455  10.327  1.00  0.00     0.118 C 
BRANCH  31  32
ATOM     32  O   UNL     1      18.116   9.347   9.402  1.00  0.00    -0.393 OA
ATOM     33  H   UNL     1      18.121   8.410   9.072  1.00  0.00     0.210 HD
ENDBRANCH  31  32
ENDBRANCH  10  12
ENDBRANCH   8  10
ENDBRANCH   1   8
TORSDOF 8
ENDMDL
MODEL 5
REMARK VINA RESULT:    -7.537      3.586      6.786
REMARK INTER + INTRA:         -10.828
REMARK INTER:                 -11.011
REMARK INTRA:                   0.183
REMARK UNBOUND:                -0.207
REMARK SMILES C[C@@H](CO)CCC(=O)[C@H](C)[C@@H]1C(=O)C[C@@H]2[C@@H]3CC=C4C[C@@H](O)CC[C@]4(C)[C@@H]3CC[C@@]21C
REMARK SMILES IDX 6 1 5 2 2 3 1 4 3 5 4 6 7 8 8 9 9 10 10 11 11 12 12 13 30 14
REMARK SMILES IDX 13 15 14 16 15 17 29 18 31 19 16 20 28 21 27 22 17 23 25 24
REMARK SMILES IDX 18 25 19 26 24 27 26 28 20 29 23 30 21 31 22 32
REMARK H PARENT 4 7 22 33
REMARK Flexibility Score: inf
ROOT
ATOM      1  C   UNL     1      17.874   9.761  11.478  1.00  0.00     0.076 C 
ENDROOT
BRANCH   1   2
ATOM      2  C   UNL     1      18.795   9.203  10.378  1.00  0.00     0.013 C 
BRANCH   2   3
ATOM      3  C   UNL     1      19.177   7.711  10.549  1.00  0.00     0.012 C 
ATOM      4  C   UNL     1      18.196   6.783   9.810  1.00  0.00     0.010 C 
BRANCH   3   5
ATOM      5  C   UNL     1      20.618   7.477  10.049  1.00  0.00     0.159 C 
BRANCH   5   6
ATOM      6  O   UNL     1      21.455   7.079  11.102  1.00  0.00    -0.396 OA
ATOM      7  H   UNL     1      21.218   6.137  11.312  1.00  0.00     0.210 HD
ENDBRANCH   5   6
ENDBRANCH   3   5
ENDBRANCH   2   3
ENDBRANCH   1   2
BRANCH   1   8
ATOM      8  C   UNL     1      17.130  10.992  11.028  1.00  0.00     0.136 C 
ATOM      9  O   UNL     1      16.812  11.103   9.852  1.00  0.00    -0.299 OA
BRANCH   8  10
ATOM     10  C   UNL     1      16.772  12.094  12.012  1.00  0.00     0.064 C 
ATOM     11  C   UNL     1      15.887  13.105  11.256  1.00  0.00     0.017 C 
BRANCH  10  12
ATOM     12  C   UNL     1      18.052  12.773  12.624  1.00  0.00     0.072 C 
ATOM     13  C   UNL     1      17.814  13.505  13.909  1.00  0.00     0.137 C 
ATOM     14  C   UNL     1      18.833  13.818  11.728  1.00  0.00    -0.019 C 
ATOM     15  O   UNL     1      17.231  13.015  14.865  1.00  0.00    -0.299 OA
ATOM     16  C   UNL     1      18.469  14.821  14.012  1.00  0.00     0.080 C 
ATOM     17  C   UNL     1      19.295  14.953  12.720  1.00  0.00     0.007 C 
ATOM     18  C   UNL     1      17.978  14.464  10.600  1.00  0.00     0.008 C 
ATOM     19  C   UNL     1      20.052  13.082  11.098  1.00  0.00     0.012 C 
ATOM     20  C   UNL     1      19.357  16.418  12.144  1.00  0.00     0.001 C 
ATOM     21  C   UNL     1      18.701  15.592   9.825  1.00  0.00     0.005 C 
ATOM     22  C   UNL     1      19.747  16.402  10.649  1.00  0.00     0.003 C 
ATOM     23  C   UNL     1      18.099  17.305  12.371  1.00  0.00     0.031 C 
ATOM     24  C   UNL     1      19.987  17.862  10.112  1.00  0.00    -0.008 C 
ATOM     25  C   UNL     1      17.963  18.492  11.442  1.00  0.00    -0.027 C 
ATOM     26  C   UNL     1      18.754  18.718  10.373  1.00  0.00    -0.065 C 
ATOM     27  C   UNL     1      20.283  17.842   8.582  1.00  0.00     0.014 C 
ATOM     28  C   UNL     1      21.207  18.490  10.848  1.00  0.00     0.016 C 
ATOM     29  C   UNL     1      18.309  19.738   9.342  1.00  0.00     0.063 C 
ATOM     30  C   UNL     1      20.423  19.241   7.945  1.00  0.00     0.033 C 
ATOM     31  C   UNL     1      19.480  20.322   8.533  1.00  0.00     0.118 C 
BRANCH  31  32
ATOM     32  O   UNL     1      20.216  21.212   9.332  1.00  0.00    -0.393 OA
ATOM     33  H   UNL     1      19.607  21.537  10.046  1.00  0.00     0.210 HD
ENDBRANCH  31  32
ENDBRANCH  10  12
ENDBRANCH   8  10
ENDBRANCH   1   8
TORSDOF 8
ENDMDL
MODEL 6
REMARK VINA RESULT:    -7.435      3.928      7.068
REMARK INTER + INTRA:         -10.684
REMARK INTER:                 -10.606
REMARK INTRA:                  -0.078
REMARK UNBOUND:                -0.207
REMARK SMILES C[C@@H](CO)CCC(=O)[C@H](C)[C@@H]1C(=O)C[C@@H]2[C@@H]3CC=C4C[C@@H](O)CC[C@]4(C)[C@@H]3CC[C@@]21C
REMARK SMILES IDX 6 1 5 2 2 3 1 4 3 5 4 6 7 8 8 9 9 10 10 11 11 12 12 13 30 14
REMARK SMILES IDX 13 15 14 16 15 17 29 18 31 19 16 20 28 21 27 22 17 23 25 24
REMARK SMILES IDX 18 25 19 26 24 27 26 28 20 29 23 30 21 31 22 32
REMARK H PARENT 4 7 22 33
REMARK Flexibility Score: inf
ROOT
ATOM      1  C   UNL     1      15.396  10.253  12.858  1.00  0.00     0.076 C 
ENDROOT
BRANCH   1   2
ATOM      2  C   UNL     1      14.612   9.130  12.156  1.00  0.00     0.013 C 
BRANCH   2   3
ATOM      3  C   UNL     1      14.229   9.430  10.684  1.00  0.00     0.012 C 
ATOM      4  C   UNL     1      13.933   8.140   9.898  1.00  0.00     0.010 C 
BRANCH   3   5
ATOM      5  C   UNL     1      13.011  10.376  10.642  1.00  0.00     0.159 C 
BRANCH   5   6
ATOM      6  O   UNL     1      12.028   9.967  11.556  1.00  0.00    -0.396 OA
ATOM      7  H   UNL     1      12.487   9.843  12.429  1.00  0.00     0.210 HD
ENDBRANCH   5   6
ENDBRANCH   3   5
ENDBRANCH   2   3
ENDBRANCH   1   2
BRANCH   1   8
ATOM      8  C   UNL     1      16.724  10.520  12.199  1.00  0.00     0.136 C 
ATOM      9  O   UNL     1      17.566   9.633  12.170  1.00  0.00    -0.299 OA
BRANCH   8  10
ATOM     10  C   UNL     1      17.031  11.870  11.573  1.00  0.00     0.064 C 
ATOM     11  C   UNL     1      17.245  11.631  10.065  1.00  0.00     0.017 C 
BRANCH  10  12
ATOM     12  C   UNL     1      18.276  12.559  12.244  1.00  0.00     0.072 C 
ATOM     13  C   UNL     1      17.997  13.190  13.573  1.00  0.00     0.137 C 
ATOM     14  C   UNL     1      19.018  13.695  11.429  1.00  0.00    -0.019 C 
ATOM     15  O   UNL     1      17.428  12.612  14.488  1.00  0.00    -0.299 OA
ATOM     16  C   UNL     1      18.594  14.523  13.773  1.00  0.00     0.080 C 
ATOM     17  C   UNL     1      19.424  14.777  12.502  1.00  0.00     0.007 C 
ATOM     18  C   UNL     1      18.145  14.380  10.340  1.00  0.00     0.008 C 
ATOM     19  C   UNL     1      20.272  13.057  10.764  1.00  0.00     0.012 C 
ATOM     20  C   UNL     1      19.428  16.280  12.028  1.00  0.00     0.001 C 
ATOM     21  C   UNL     1      18.825  15.589   9.651  1.00  0.00     0.005 C 
ATOM     22  C   UNL     1      19.829  16.384  10.540  1.00  0.00     0.003 C 
ATOM     23  C   UNL     1      18.131  17.096  12.302  1.00  0.00     0.031 C 
ATOM     24  C   UNL     1      20.011  17.886  10.106  1.00  0.00    -0.008 C 
ATOM     25  C   UNL     1      17.951  18.336  11.455  1.00  0.00    -0.027 C 
ATOM     26  C   UNL     1      18.740  18.669  10.412  1.00  0.00    -0.065 C 
ATOM     27  C   UNL     1      20.319  17.983   8.582  1.00  0.00     0.014 C 
ATOM     28  C   UNL     1      21.196  18.513  10.896  1.00  0.00     0.016 C 
ATOM     29  C   UNL     1      18.259  19.738   9.449  1.00  0.00     0.063 C 
ATOM     30  C   UNL     1      20.403  19.428   8.044  1.00  0.00     0.033 C 
ATOM     31  C   UNL     1      19.410  20.425   8.694  1.00  0.00     0.118 C 
BRANCH  31  32
ATOM     32  O   UNL     1      20.102  21.288   9.560  1.00  0.00    -0.393 OA
ATOM     33  H   UNL     1      21.041  21.332   9.241  1.00  0.00     0.210 HD
ENDBRANCH  31  32
ENDBRANCH  10  12
ENDBRANCH   8  10
ENDBRANCH   1   8
TORSDOF 8
ENDMDL
MODEL 7
REMARK VINA RESULT:    -7.346      2.569      4.069
REMARK INTER + INTRA:         -10.559
REMARK INTER:                  -9.977
REMARK INTRA:                  -0.581
REMARK UNBOUND:                -0.207
REMARK SMILES C[C@@H](CO)CCC(=O)[C@H](C)[C@@H]1C(=O)C[C@@H]2[C@@H]3CC=C4C[C@@H](O)CC[C@]4(C)[C@@H]3CC[C@@]21C
REMARK SMILES IDX 6 1 5 2 2 3 1 4 3 5 4 6 7 8 8 9 9 10 10 11 11 12 12 13 30 14
REMARK SMILES IDX 13 15 14 16 15 17 29 18 31 19 16 20 28 21 27 22 17 23 25 24
REMARK SMILES IDX 18 25 19 26 24 27 26 28 20 29 23 30 21 31 22 32
REMARK H PARENT 4 7 22 33
REMARK Flexibility Score: inf
ROOT
ATOM      1  C   UNL     1      18.037  18.532   8.074  1.00  0.00     0.076 C 
ENDROOT
BRANCH   1   2
ATOM      2  C   UNL     1      18.045  19.823   8.912  1.00  0.00     0.013 C 
BRANCH   2   3
ATOM      3  C   UNL     1      16.665  20.515   9.049  1.00  0.00     0.012 C 
ATOM      4  C   UNL     1      15.707  19.705   9.941  1.00  0.00     0.010 C 
BRANCH   3   5
ATOM      5  C   UNL     1      16.846  21.940   9.612  1.00  0.00     0.159 C 
BRANCH   5   6
ATOM      6  O   UNL     1      15.781  22.769   9.227  1.00  0.00    -0.396 OA
ATOM      7  H   UNL     1      15.049  22.612   9.881  1.00  0.00     0.210 HD
ENDBRANCH   5   6
ENDBRANCH   3   5
ENDBRANCH   2   3
ENDBRANCH   1   2
BRANCH   1   8
ATOM      8  C   UNL     1      19.170  17.608   8.437  1.00  0.00     0.136 C 
ATOM      9  O   UNL     1      20.322  18.009   8.342  1.00  0.00    -0.299 OA
BRANCH   8  10
ATOM     10  C   UNL     1      18.903  16.192   8.919  1.00  0.00     0.064 C 
ATOM     11  C   UNL     1      17.377  16.051   9.083  1.00  0.00     0.017 C 
BRANCH  10  12
ATOM     12  C   UNL     1      19.672  15.872  10.254  1.00  0.00     0.072 C 
ATOM     13  C   UNL     1      19.666  14.425  10.644  1.00  0.00     0.137 C 
ATOM     14  C   UNL     1      19.210  16.623  11.569  1.00  0.00    -0.019 C 
ATOM     15  O   UNL     1      19.973  13.521   9.880  1.00  0.00    -0.299 OA
ATOM     16  C   UNL     1      19.412  14.161  12.071  1.00  0.00     0.080 C 
ATOM     17  C   UNL     1      19.327  15.553  12.721  1.00  0.00     0.007 C 
ATOM     18  C   UNL     1      17.748  17.152  11.529  1.00  0.00     0.008 C 
ATOM     19  C   UNL     1      20.186  17.814  11.799  1.00  0.00     0.012 C 
ATOM     20  C   UNL     1      18.275  15.652  13.891  1.00  0.00     0.001 C 
ATOM     21  C   UNL     1      17.254  17.750  12.869  1.00  0.00     0.005 C 
ATOM     22  C   UNL     1      17.881  17.123  14.150  1.00  0.00     0.003 C 
ATOM     23  C   UNL     1      17.005  14.762  13.757  1.00  0.00     0.031 C 
ATOM     24  C   UNL     1      16.973  17.249  15.430  1.00  0.00    -0.008 C 
ATOM     25  C   UNL     1      15.818  15.193  14.591  1.00  0.00    -0.027 C 
ATOM     26  C   UNL     1      15.754  16.347  15.288  1.00  0.00    -0.065 C 
ATOM     27  C   UNL     1      16.502  18.721  15.626  1.00  0.00     0.014 C 
ATOM     28  C   UNL     1      17.784  16.813  16.685  1.00  0.00     0.016 C 
ATOM     29  C   UNL     1      14.403  16.814  15.796  1.00  0.00     0.063 C 
ATOM     30  C   UNL     1      15.514  18.919  16.795  1.00  0.00     0.033 C 
ATOM     31  C   UNL     1      14.513  17.756  17.007  1.00  0.00     0.118 C 
BRANCH  31  32
ATOM     32  O   UNL     1      14.870  17.023  18.152  1.00  0.00    -0.393 OA
ATOM     33  H   UNL     1      14.186  17.214  18.847  1.00  0.00     0.210 HD
ENDBRANCH  31  32
ENDBRANCH  10  12
ENDBRANCH   8  10
ENDBRANCH   1   8
TORSDOF 8
ENDMDL
MODEL 8
REMARK VINA RESULT:    -7.318      3.884      7.242
REMARK INTER + INTRA:         -10.520
REMARK INTER:                 -10.268
REMARK INTRA:                  -0.252
REMARK UNBOUND:                -0.207
REMARK SMILES C[C@@H](CO)CCC(=O)[C@H](C)[C@@H]1C(=O)C[C@@H]2[C@@H]3CC=C4C[C@@H](O)CC[C@]4(C)[C@@H]3CC[C@@]21C
REMARK SMILES IDX 6 1 5 2 2 3 1 4 3 5 4 6 7 8 8 9 9 10 10 11 11 12 12 13 30 14
REMARK SMILES IDX 13 15 14 16 15 17 29 18 31 19 16 20 28 21 27 22 17 23 25 24
REMARK SMILES IDX 18 25 19 26 24 27 26 28 20 29 23 30 21 31 22 32
REMARK H PARENT 4 7 22 33
REMARK Flexibility Score: inf
ROOT
ATOM      1  C   UNL     1      17.233  21.717  10.540  1.00  0.00     0.076 C 
ENDROOT
BRANCH   1   2
ATOM      2  C   UNL     1      17.748  22.475   9.303  1.00  0.00     0.013 C 
BRANCH   2   3
ATOM      3  C   UNL     1      18.022  23.982   9.535  1.00  0.00     0.012 C 
ATOM      4  C   UNL     1      19.452  24.371   9.117  1.00  0.00     0.010 C 
BRANCH   3   5
ATOM      5  C   UNL     1      16.989  24.829   8.764  1.00  0.00     0.159 C 
BRANCH   5   6
ATOM      6  O   UNL     1      15.734  24.200   8.755  1.00  0.00    -0.396 OA
ATOM      7  H   UNL     1      15.239  24.568   7.975  1.00  0.00     0.210 HD
ENDBRANCH   5   6
ENDBRANCH   3   5
ENDBRANCH   2   3
ENDBRANCH   1   2
BRANCH   1   8
ATOM      8  C   UNL     1      16.000  20.905  10.239  1.00  0.00     0.136 C 
ATOM      9  O   UNL     1      15.067  21.430   9.647  1.00  0.00    -0.299 OA
BRANCH   8  10
ATOM     10  C   UNL     1      15.900  19.448  10.659  1.00  0.00     0.064 C 
ATOM     11  C   UNL     1      15.500  19.433  12.148  1.00  0.00     0.017 C 
BRANCH  10  12
ATOM     12  C   UNL     1      17.243  18.670  10.402  1.00  0.00     0.072 C 
ATOM     13  C   UNL     1      17.525  18.376   8.960  1.00  0.00     0.137 C 
ATOM     14  C   UNL     1      17.435  17.273  11.121  1.00  0.00    -0.019 C 
ATOM     15  O   UNL     1      17.478  19.222   8.078  1.00  0.00    -0.299 OA
ATOM     16  C   UNL     1      18.020  17.016   8.682  1.00  0.00     0.080 C 
ATOM     17  C   UNL     1      18.172  16.361  10.066  1.00  0.00     0.007 C 
ATOM     18  C   UNL     1      16.109  16.576  11.539  1.00  0.00     0.008 C 
ATOM     19  C   UNL     1      18.317  17.509  12.382  1.00  0.00     0.012 C 
ATOM     20  C   UNL     1      17.823  14.824  10.090  1.00  0.00     0.001 C 
ATOM     21  C   UNL     1      16.295  15.147  12.103  1.00  0.00     0.005 C 
ATOM     22  C   UNL     1      17.510  14.356  11.529  1.00  0.00     0.003 C 
ATOM     23  C   UNL     1      16.713  14.351   9.108  1.00  0.00     0.031 C 
ATOM     24  C   UNL     1      17.338  12.793  11.591  1.00  0.00    -0.008 C 
ATOM     25  C   UNL     1      16.060  13.030   9.452  1.00  0.00    -0.027 C 
ATOM     26  C   UNL     1      16.268  12.351  10.600  1.00  0.00    -0.065 C 
ATOM     27  C   UNL     1      16.926  12.343  13.024  1.00  0.00     0.014 C 
ATOM     28  C   UNL     1      18.686  12.109  11.221  1.00  0.00     0.016 C 
ATOM     29  C   UNL     1      15.311  11.233  10.967  1.00  0.00     0.063 C 
ATOM     30  C   UNL     1      16.626  10.834  13.153  1.00  0.00     0.033 C 
ATOM     31  C   UNL     1      15.937  10.199  11.918  1.00  0.00     0.118 C 
BRANCH  31  32
ATOM     32  O   UNL     1      16.856   9.400  11.219  1.00  0.00    -0.393 OA
ATOM     33  H   UNL     1      16.335   8.697  10.749  1.00  0.00     0.210 HD
ENDBRANCH  31  32
ENDBRANCH  10  12
ENDBRANCH   8  10
ENDBRANCH   1   8
TORSDOF 8
ENDMDL
MODEL 9
REMARK VINA RESULT:    -7.235      2.670      4.420
REMARK INTER + INTRA:         -10.403
REMARK INTER:                  -9.783
REMARK INTRA:                  -0.620
REMARK UNBOUND:                -0.207
REMARK SMILES C[C@@H](CO)CCC(=O)[C@H](C)[C@@H]1C(=O)C[C@@H]2[C@@H]3CC=C4C[C@@H](O)CC[C@]4(C)[C@@H]3CC[C@@]21C
REMARK SMILES IDX 6 1 5 2 2 3 1 4 3 5 4 6 7 8 8 9 9 10 10 11 11 12 12 13 30 14
REMARK SMILES IDX 13 15 14 16 15 17 29 18 31 19 16 20 28 21 27 22 17 23 25 24
REMARK SMILES IDX 18 25 19 26 24 27 26 28 20 29 23 30 21 31 22 32
REMARK H PARENT 4 7 22 33
REMARK Flexibility Score: inf
ROOT
ATOM      1  C   UNL     1      19.010  20.358   8.399  1.00  0.00     0.076 C 
ENDROOT
BRANCH   1   2
ATOM      2  C   UNL     1      19.459  21.198   9.608  1.00  0.00     0.013 C 
BRANCH   2   3
ATOM      3  C   UNL     1      18.312  21.928  10.351  1.00  0.00     0.012 C 
ATOM      4  C   UNL     1      18.527  23.453  10.373  1.00  0.00     0.010 C 
BRANCH   3   5
ATOM      5  C   UNL     1      16.959  21.587   9.693  1.00  0.00     0.159 C 
BRANCH   5   6
ATOM      6  O   UNL     1      16.325  22.747   9.222  1.00  0.00    -0.396 OA
ATOM      7  H   UNL     1      16.972  23.198   8.617  1.00  0.00     0.210 HD
ENDBRANCH   5   6
ENDBRANCH   3   5
ENDBRANCH   2   3
ENDBRANCH   1   2
BRANCH   1   8
ATOM      8  C   UNL     1      19.793  19.076   8.272  1.00  0.00     0.136 C 
ATOM      9  O   UNL     1      21.010  19.127   8.159  1.00  0.00    -0.299 OA
BRANCH   8  10
ATOM     10  C   UNL     1      19.093  17.727   8.283  1.00  0.00     0.064 C 
ATOM     11  C   UNL     1      17.586  18.001   8.456  1.00  0.00     0.017 C 
BRANCH  10  12
ATOM     12  C   UNL     1      19.656  16.784   9.409  1.00  0.00     0.072 C 
ATOM     13  C   UNL     1      19.202  15.359   9.312  1.00  0.00     0.137 C 
ATOM     14  C   UNL     1      19.361  17.176  10.914  1.00  0.00    -0.019 C 
ATOM     15  O   UNL     1      19.272  14.699   8.285  1.00  0.00    -0.299 OA
ATOM     16  C   UNL     1      18.800  14.740  10.587  1.00  0.00     0.080 C 
ATOM     17  C   UNL     1      19.091  15.810  11.654  1.00  0.00     0.007 C 
ATOM     18  C   UNL     1      18.125  18.099  11.109  1.00  0.00     0.008 C 
ATOM     19  C   UNL     1      20.630  17.884  11.474  1.00  0.00     0.012 C 
ATOM     20  C   UNL     1      18.050  15.838  12.837  1.00  0.00     0.001 C 
ATOM     21  C   UNL     1      17.753  18.356  12.590  1.00  0.00     0.005 C 
ATOM     22  C   UNL     1      18.093  17.195  13.573  1.00  0.00     0.003 C 
ATOM     23  C   UNL     1      16.584  15.457  12.478  1.00  0.00     0.031 C 
ATOM     24  C   UNL     1      17.190  17.169  14.862  1.00  0.00    -0.008 C 
ATOM     25  C   UNL     1      15.531  15.931  13.456  1.00  0.00    -0.027 C 
ATOM     26  C   UNL     1      15.769  16.765  14.489  1.00  0.00    -0.065 C 
ATOM     27  C   UNL     1      17.164  18.570  15.541  1.00  0.00     0.014 C 
ATOM     28  C   UNL     1      17.763  16.134  15.874  1.00  0.00     0.016 C 
ATOM     29  C   UNL     1      14.589  17.424  15.178  1.00  0.00     0.063 C 
ATOM     30  C   UNL     1      16.213  18.669  16.754  1.00  0.00     0.033 C 
ATOM     31  C   UNL     1      14.902  17.851  16.622  1.00  0.00     0.118 C 
BRANCH  31  32
ATOM     32  O   UNL     1      14.962  16.720  17.454  1.00  0.00    -0.393 OA
ATOM     33  H   UNL     1      14.375  16.028  17.049  1.00  0.00     0.210 HD
ENDBRANCH  31  32
ENDBRANCH  10  12
ENDBRANCH   8  10
ENDBRANCH   1   8
TORSDOF 8
ENDMDL
