MODEL 1
REMARK VINA RESULT:    -3.596      0.000      0.000
REMARK INTER + INTRA:          -3.911
REMARK INTER:                  -3.911
REMARK INTRA:                   0.000
REMARK UNBOUND:                 0.000
REMARK SMILES [NH3+]CC(=O)[O-]
REMARK SMILES IDX 2 1 1 2 3 6 4 7 5 8
REMARK H PARENT 1 3 1 4 1 5
REMARK Flexibility Score: inf
ROOT
ATOM      1  C   UNL     1      -0.919  11.056  19.109  1.00  0.00     0.312 C 
ENDROOT
BRANCH   1   2
ATOM      2  N   UNL     1      -1.930  10.833  18.076  1.00  0.00    -0.353 N 
ATOM      3  H   UNL     1      -2.597  11.638  18.072  1.00  0.00     0.344 HD
ATOM      4  H   UNL     1      -2.459   9.953  18.276  1.00  0.00     0.344 HD
ATOM      5  H   UNL     1      -1.473  10.766  17.137  1.00  0.00     0.344 HD
ENDBRANCH   1   2
BRANCH   1   6
ATOM      6  C   UNL     1      -0.463  12.483  19.103  1.00  0.00     0.096 C 
ATOM      7  O   UNL     1      -0.399  13.123  18.020  1.00  0.00    -0.544 OA
ATOM      8  O   UNL     1      -0.059  13.089  20.286  1.00  0.00    -0.544 OA
ENDBRANCH   1   6
TORSDOF 2
ENDMDL
MODEL 2
REMARK VINA RESULT:    -3.324     13.781     14.141
REMARK INTER + INTRA:          -3.615
REMARK INTER:                  -3.615
REMARK INTRA:                   0.000
REMARK UNBOUND:                 0.000
REMARK SMILES [NH3+]CC(=O)[O-]
REMARK SMILES IDX 2 1 1 2 3 6 4 7 5 8
REMARK H PARENT 1 3 1 4 1 5
REMARK Flexibility Score: inf
ROOT
ATOM      1  C   UNL     1      -2.374  -2.315  19.258  1.00  0.00     0.312 C 
ENDROOT
BRANCH   1   2
ATOM      2  N   UNL     1      -3.124  -1.281  19.971  1.00  0.00    -0.353 N 
ATOM      3  H   UNL     1      -3.863  -0.897  19.339  1.00  0.00     0.344 HD
ATOM      4  H   UNL     1      -2.483  -0.505  20.257  1.00  0.00     0.344 HD
ATOM      5  H   UNL     1      -3.583  -1.691  20.818  1.00  0.00     0.344 HD
ENDBRANCH   1   2
BRANCH   1   6
ATOM      6  C   UNL     1      -2.014  -1.850  17.881  1.00  0.00     0.096 C 
ATOM      7  O   UNL     1      -1.948  -0.619  17.624  1.00  0.00    -0.544 OA
ATOM      8  O   UNL     1      -1.801  -2.778  16.869  1.00  0.00    -0.544 OA
ENDBRANCH   1   6
TORSDOF 2
ENDMDL
MODEL 3
REMARK VINA RESULT:    -3.195      1.878      2.477
REMARK INTER + INTRA:          -3.475
REMARK INTER:                  -3.475
REMARK INTRA:                   0.000
REMARK UNBOUND:                 0.000
REMARK SMILES [NH3+]CC(=O)[O-]
REMARK SMILES IDX 2 1 1 2 3 6 4 7 5 8
REMARK H PARENT 1 3 1 4 1 5
REMARK Flexibility Score: inf
ROOT
ATOM      1  C   UNL     1      -1.206   9.439  19.405  1.00  0.00     0.312 C 
ENDROOT
BRANCH   1   2
ATOM      2  N   UNL     1      -0.048   8.633  19.020  1.00  0.00    -0.353 N 
ATOM      3  H   UNL     1       0.806   9.237  19.025  1.00  0.00     0.344 HD
ATOM      4  H   UNL     1      -0.185   8.246  18.058  1.00  0.00     0.344 HD
ATOM      5  H   UNL     1       0.087   7.850  19.701  1.00  0.00     0.344 HD
ENDBRANCH   1   2
BRANCH   1   6
ATOM      6  C   UNL     1      -0.870  10.898  19.367  1.00  0.00     0.096 C 
ATOM      7  O   UNL     1      -0.441  11.477  20.400  1.00  0.00    -0.544 OA
ATOM      8  O   UNL     1      -1.081  11.629  18.205  1.00  0.00    -0.544 OA
ENDBRANCH   1   6
TORSDOF 2
ENDMDL
MODEL 4
REMARK VINA RESULT:    -3.185     14.512     14.779
REMARK INTER + INTRA:          -3.465
REMARK INTER:                  -3.465
REMARK INTRA:                   0.000
REMARK UNBOUND:                 0.000
REMARK SMILES [NH3+]CC(=O)[O-]
REMARK SMILES IDX 2 1 1 2 3 6 4 7 5 8
REMARK H PARENT 1 3 1 4 1 5
REMARK Flexibility Score: inf
ROOT
ATOM      1  C   UNL     1      -2.085  -1.782  18.862  1.00  0.00     0.312 C 
ENDROOT
BRANCH   1   2
ATOM      2  N   UNL     1      -3.125  -1.144  18.056  1.00  0.00    -0.353 N 
ATOM      3  H   UNL     1      -4.025  -1.155  18.588  1.00  0.00     0.344 HD
ATOM      4  H   UNL     1      -3.254  -1.666  17.159  1.00  0.00     0.344 HD
ATOM      5  H   UNL     1      -2.863  -0.151  17.854  1.00  0.00     0.344 HD
ENDBRANCH   1   2
BRANCH   1   6
ATOM      6  C   UNL     1      -1.359  -2.820  18.063  1.00  0.00     0.096 C 
ATOM      7  O   UNL     1      -1.640  -2.995  16.848  1.00  0.00    -0.544 OA
ATOM      8  O   UNL     1      -0.407  -3.628  18.673  1.00  0.00    -0.544 OA
ENDBRANCH   1   6
TORSDOF 2
ENDMDL
MODEL 5
REMARK VINA RESULT:    -3.172     15.054     15.296
REMARK INTER + INTRA:          -3.450
REMARK INTER:                  -3.450
REMARK INTRA:                   0.000
REMARK UNBOUND:                 0.000
REMARK SMILES [NH3+]CC(=O)[O-]
REMARK SMILES IDX 2 1 1 2 3 6 4 7 5 8
REMARK H PARENT 1 3 1 4 1 5
REMARK Flexibility Score: inf
ROOT
ATOM      1  C   UNL     1       6.856   0.855  15.054  1.00  0.00     0.312 C 
ENDROOT
BRANCH   1   2
ATOM      2  N   UNL     1       5.459   0.788  14.627  1.00  0.00    -0.353 N 
ATOM      3  H   UNL     1       5.309   1.460  13.840  1.00  0.00     0.344 HD
ATOM      4  H   UNL     1       4.828   1.048  15.421  1.00  0.00     0.344 HD
ATOM      5  H   UNL     1       5.231  -0.178  14.296  1.00  0.00     0.344 HD
ENDBRANCH   1   2
BRANCH   1   6
ATOM      6  C   UNL     1       7.599  -0.371  14.622  1.00  0.00     0.096 C 
ATOM      7  O   UNL     1       7.776  -0.607  13.397  1.00  0.00    -0.544 OA
ATOM      8  O   UNL     1       8.053  -1.279  15.570  1.00  0.00    -0.544 OA
ENDBRANCH   1   6
TORSDOF 2
ENDMDL
MODEL 6
REMARK VINA RESULT:    -3.146     13.470     13.689
REMARK INTER + INTRA:          -3.422
REMARK INTER:                  -3.422
REMARK INTRA:                   0.000
REMARK UNBOUND:                 0.000
REMARK SMILES [NH3+]CC(=O)[O-]
REMARK SMILES IDX 2 1 1 2 3 6 4 7 5 8
REMARK H PARENT 1 3 1 4 1 5
REMARK Flexibility Score: inf
ROOT
ATOM      1  C   UNL     1       8.570   2.267  16.625  1.00  0.00     0.312 C 
ENDROOT
BRANCH   1   2
ATOM      2  N   UNL     1       8.277   3.405  17.496  1.00  0.00    -0.353 N 
ATOM      3  H   UNL     1       7.241   3.530  17.558  1.00  0.00     0.344 HD
ATOM      4  H   UNL     1       8.703   4.276  17.104  1.00  0.00     0.344 HD
ATOM      5  H   UNL     1       8.654   3.227  18.456  1.00  0.00     0.344 HD
ENDBRANCH   1   2
BRANCH   1   6
ATOM      6  C   UNL     1       7.327   1.482  16.346  1.00  0.00     0.096 C 
ATOM      7  O   UNL     1       6.592   1.099  17.294  1.00  0.00    -0.544 OA
ATOM      8  O   UNL     1       7.006   1.128  15.041  1.00  0.00    -0.544 OA
ENDBRANCH   1   6
TORSDOF 2
ENDMDL
MODEL 7
REMARK VINA RESULT:    -3.133     15.059     15.367
REMARK INTER + INTRA:          -3.408
REMARK INTER:                  -3.408
REMARK INTRA:                   0.000
REMARK UNBOUND:                 0.000
REMARK SMILES [NH3+]CC(=O)[O-]
REMARK SMILES IDX 2 1 1 2 3 6 4 7 5 8
REMARK H PARENT 1 3 1 4 1 5
REMARK Flexibility Score: inf
ROOT
ATOM      1  C   UNL     1       6.835   0.775  15.232  1.00  0.00     0.312 C 
ENDROOT
BRANCH   1   2
ATOM      2  N   UNL     1       5.521   0.785  14.592  1.00  0.00    -0.353 N 
ATOM      3  H   UNL     1       5.260   1.772  14.362  1.00  0.00     0.344 HD
ATOM      4  H   UNL     1       4.803   0.386  15.240  1.00  0.00     0.344 HD
ATOM      5  H   UNL     1       5.548   0.228  13.707  1.00  0.00     0.344 HD
ENDBRANCH   1   2
BRANCH   1   6
ATOM      6  C   UNL     1       7.649  -0.386  14.749  1.00  0.00     0.096 C 
ATOM      7  O   UNL     1       8.265  -1.114  15.570  1.00  0.00    -0.544 OA
ATOM      8  O   UNL     1       7.767  -0.632  13.386  1.00  0.00    -0.544 OA
ENDBRANCH   1   6
TORSDOF 2
ENDMDL
MODEL 8
REMARK VINA RESULT:    -3.099     15.643     15.961
REMARK INTER + INTRA:          -3.371
REMARK INTER:                  -3.371
REMARK INTRA:                   0.000
REMARK UNBOUND:                 0.000
REMARK SMILES [NH3+]CC(=O)[O-]
REMARK SMILES IDX 2 1 1 2 3 6 4 7 5 8
REMARK H PARENT 1 3 1 4 1 5
REMARK Flexibility Score: inf
ROOT
ATOM      1  C   UNL     1      -1.983  -4.689  18.176  1.00  0.00     0.312 C 
ENDROOT
BRANCH   1   2
ATOM      2  N   UNL     1      -3.123  -4.872  17.278  1.00  0.00    -0.353 N 
ATOM      3  H   UNL     1      -3.422  -5.873  17.305  1.00  0.00     0.344 HD
ATOM      4  H   UNL     1      -2.851  -4.625  16.298  1.00  0.00     0.344 HD
ATOM      5  H   UNL     1      -3.922  -4.271  17.586  1.00  0.00     0.344 HD
ENDBRANCH   1   2
BRANCH   1   6
ATOM      6  C   UNL     1      -1.288  -3.394  17.889  1.00  0.00     0.096 C 
ATOM      7  O   UNL     1      -0.335  -3.011  18.618  1.00  0.00    -0.544 OA
ATOM      8  O   UNL     1      -1.727  -2.585  16.848  1.00  0.00    -0.544 OA
ENDBRANCH   1   6
TORSDOF 2
ENDMDL
MODEL 9
REMARK VINA RESULT:    -3.089     16.595     16.820
REMARK INTER + INTRA:          -3.359
REMARK INTER:                  -3.359
REMARK INTRA:                   0.000
REMARK UNBOUND:                 0.000
REMARK SMILES [NH3+]CC(=O)[O-]
REMARK SMILES IDX 2 1 1 2 3 6 4 7 5 8
REMARK H PARENT 1 3 1 4 1 5
REMARK Flexibility Score: inf
ROOT
ATOM      1  C   UNL     1       9.417  -1.424  15.041  1.00  0.00     0.312 C 
ENDROOT
BRANCH   1   2
ATOM      2  N   UNL     1       9.502  -2.841  14.691  1.00  0.00    -0.353 N 
ATOM      3  H   UNL     1      10.466  -3.050  14.342  1.00  0.00     0.344 HD
ATOM      4  H   UNL     1       8.812  -3.067  13.937  1.00  0.00     0.344 HD
ATOM      5  H   UNL     1       9.312  -3.431  15.534  1.00  0.00     0.344 HD
ENDBRANCH   1   2
BRANCH   1   6
ATOM      6  C   UNL     1       8.057  -0.883  14.724  1.00  0.00     0.096 C 
ATOM      7  O   UNL     1       7.742  -0.616  13.535  1.00  0.00    -0.544 OA
ATOM      8  O   UNL     1       7.156  -0.625  15.750  1.00  0.00    -0.544 OA
ENDBRANCH   1   6
TORSDOF 2
ENDMDL
