MODEL 1
REMARK VINA RESULT:    -3.931      0.000      0.000
REMARK INTER + INTRA:          -4.526
REMARK INTER:                  -4.275
REMARK INTRA:                  -0.250
REMARK UNBOUND:                -0.250
REMARK SMILES O=C([O-])c1ccccc1O
REMARK SMILES IDX 4 1 9 2 5 3 8 4 6 5 7 6 2 7 1 8 3 9 10 10
REMARK H PARENT 10 11
REMARK Flexibility Score: inf
ROOT
ATOM      1  C   UNL     1      11.749  32.488  41.953  1.00  0.00     0.039 A 
ATOM      2  C   UNL     1      12.363  33.343  42.900  1.00  0.00     0.124 A 
ATOM      3  C   UNL     1      10.506  31.906  42.270  1.00  0.00     0.014 A 
ATOM      4  C   UNL     1      11.731  33.596  44.127  1.00  0.00     0.047 A 
ATOM      5  C   UNL     1       9.888  32.166  43.496  1.00  0.00     0.001 A 
ATOM      6  C   UNL     1      10.500  33.010  44.423  1.00  0.00     0.004 A 
ENDROOT
BRANCH   1   7
ATOM      7  C   UNL     1      12.376  32.188  40.641  1.00  0.00     0.075 C 
ATOM      8  O   UNL     1      13.593  31.875  40.559  1.00  0.00    -0.545 OA
ATOM      9  O   UNL     1      11.623  32.250  39.473  1.00  0.00    -0.545 OA
ENDBRANCH   1   7
BRANCH   2  10
ATOM     10  O   UNL     1      13.593  33.942  42.628  1.00  0.00    -0.507 OA
ATOM     11  H   UNL     1      14.425  33.392  42.445  1.00  0.00     0.293 HD
ENDBRANCH   2  10
TORSDOF 2
ENDMDL
MODEL 2
REMARK VINA RESULT:    -3.614     12.402     12.880
REMARK INTER + INTRA:          -4.181
REMARK INTER:                  -3.955
REMARK INTRA:                  -0.226
REMARK UNBOUND:                -0.250
REMARK SMILES O=C([O-])c1ccccc1O
REMARK SMILES IDX 4 1 9 2 5 3 8 4 6 5 7 6 2 7 1 8 3 9 10 10
REMARK H PARENT 10 11
REMARK Flexibility Score: inf
ROOT
ATOM      1  C   UNL     1       5.654  43.057  38.923  1.00  0.00     0.039 A 
ATOM      2  C   UNL     1       5.574  41.649  38.809  1.00  0.00     0.124 A 
ATOM      3  C   UNL     1       5.772  43.828  37.750  1.00  0.00     0.014 A 
ATOM      4  C   UNL     1       5.610  41.047  37.541  1.00  0.00     0.047 A 
ATOM      5  C   UNL     1       5.807  43.215  36.494  1.00  0.00     0.001 A 
ATOM      6  C   UNL     1       5.727  41.827  36.391  1.00  0.00     0.004 A 
ENDROOT
BRANCH   1   7
ATOM      7  C   UNL     1       5.620  43.743  40.240  1.00  0.00     0.075 C 
ATOM      8  O   UNL     1       4.991  43.250  41.213  1.00  0.00    -0.545 OA
ATOM      9  O   UNL     1       6.286  44.950  40.420  1.00  0.00    -0.545 OA
ENDBRANCH   1   7
BRANCH   2  10
ATOM     10  O   UNL     1       5.457  40.847  39.943  1.00  0.00    -0.507 OA
ATOM     11  H   UNL     1       6.211  40.759  40.615  1.00  0.00     0.293 HD
ENDBRANCH   2  10
TORSDOF 2
ENDMDL
MODEL 3
REMARK VINA RESULT:    -3.560      0.895      2.453
REMARK INTER + INTRA:          -4.122
REMARK INTER:                  -3.868
REMARK INTRA:                  -0.255
REMARK UNBOUND:                -0.250
REMARK SMILES O=C([O-])c1ccccc1O
REMARK SMILES IDX 4 1 9 2 5 3 8 4 6 5 7 6 2 7 1 8 3 9 10 10
REMARK H PARENT 10 11
REMARK Flexibility Score: inf
ROOT
ATOM      1  C   UNL     1      12.078  32.803  42.631  1.00  0.00     0.039 A 
ATOM      2  C   UNL     1      11.046  32.246  41.838  1.00  0.00     0.124 A 
ATOM      3  C   UNL     1      11.792  33.163  43.962  1.00  0.00     0.014 A 
ATOM      4  C   UNL     1       9.767  32.060  42.385  1.00  0.00     0.047 A 
ATOM      5  C   UNL     1      10.514  32.973  44.494  1.00  0.00     0.001 A 
ATOM      6  C   UNL     1       9.504  32.423  43.706  1.00  0.00     0.004 A 
ENDROOT
BRANCH   1   7
ATOM      7  C   UNL     1      13.448  33.020  42.101  1.00  0.00     0.075 C 
ATOM      8  O   UNL     1      14.037  34.123  42.254  1.00  0.00    -0.545 OA
ATOM      9  O   UNL     1      14.107  32.002  41.421  1.00  0.00    -0.545 OA
ENDBRANCH   1   7
BRANCH   2  10
ATOM     10  O   UNL     1      11.285  31.875  40.515  1.00  0.00    -0.507 OA
ATOM     11  H   UNL     1      11.494  32.561  39.799  1.00  0.00     0.293 HD
ENDBRANCH   2  10
TORSDOF 2
ENDMDL
MODEL 4
REMARK VINA RESULT:    -3.556      2.311      3.859
REMARK INTER + INTRA:          -4.119
REMARK INTER:                  -3.921
REMARK INTRA:                  -0.198
REMARK UNBOUND:                -0.250
REMARK SMILES O=C([O-])c1ccccc1O
REMARK SMILES IDX 4 1 9 2 5 3 8 4 6 5 7 6 2 7 1 8 3 9 10 10
REMARK H PARENT 10 11
REMARK Flexibility Score: inf
ROOT
ATOM      1  C   UNL     1      11.348  33.047  43.054  1.00  0.00     0.039 A 
ATOM      2  C   UNL     1      11.534  32.498  41.762  1.00  0.00     0.124 A 
ATOM      3  C   UNL     1      12.440  33.666  43.692  1.00  0.00     0.014 A 
ATOM      4  C   UNL     1      12.790  32.580  41.142  1.00  0.00     0.047 A 
ATOM      5  C   UNL     1      13.685  33.740  43.062  1.00  0.00     0.001 A 
ATOM      6  C   UNL     1      13.859  33.198  41.790  1.00  0.00     0.004 A 
ENDROOT
BRANCH   1   7
ATOM      7  C   UNL     1      10.039  32.986  43.754  1.00  0.00     0.075 C 
ATOM      8  O   UNL     1       9.761  33.792  44.680  1.00  0.00    -0.545 OA
ATOM      9  O   UNL     1       9.095  32.031  43.395  1.00  0.00    -0.545 OA
ENDBRANCH   1   7
BRANCH   2  10
ATOM     10  O   UNL     1      10.480  31.875  41.093  1.00  0.00    -0.507 OA
ATOM     11  H   UNL     1      10.467  30.874  40.935  1.00  0.00     0.293 HD
ENDBRANCH   2  10
TORSDOF 2
ENDMDL
MODEL 5
REMARK VINA RESULT:    -3.479     12.090     12.410
REMARK INTER + INTRA:          -4.035
REMARK INTER:                  -3.787
REMARK INTRA:                  -0.248
REMARK UNBOUND:                -0.250
REMARK SMILES O=C([O-])c1ccccc1O
REMARK SMILES IDX 4 1 9 2 5 3 8 4 6 5 7 6 2 7 1 8 3 9 10 10
REMARK H PARENT 10 11
REMARK Flexibility Score: inf
ROOT
ATOM      1  C   UNL     1       5.616  42.641  38.155  1.00  0.00     0.039 A 
ATOM      2  C   UNL     1       5.534  41.815  39.301  1.00  0.00     0.124 A 
ATOM      3  C   UNL     1       5.614  44.039  38.324  1.00  0.00     0.014 A 
ATOM      4  C   UNL     1       5.454  42.396  40.577  1.00  0.00     0.047 A 
ATOM      5  C   UNL     1       5.533  44.604  39.600  1.00  0.00     0.001 A 
ATOM      6  C   UNL     1       5.453  43.782  40.723  1.00  0.00     0.004 A 
ENDROOT
BRANCH   1   7
ATOM      7  C   UNL     1       5.703  42.078  36.783  1.00  0.00     0.075 C 
ATOM      8  O   UNL     1       6.443  42.604  35.911  1.00  0.00    -0.545 OA
ATOM      9  O   UNL     1       4.963  40.953  36.439  1.00  0.00    -0.545 OA
ENDBRANCH   1   7
BRANCH   2  10
ATOM     10  O   UNL     1       5.533  40.426  39.181  1.00  0.00    -0.507 OA
ATOM     11  H   UNL     1       5.440  39.968  38.281  1.00  0.00     0.293 HD
ENDBRANCH   2  10
TORSDOF 2
ENDMDL
MODEL 6
REMARK VINA RESULT:    -3.414      2.182      3.403
REMARK INTER + INTRA:          -3.963
REMARK INTER:                  -3.842
REMARK INTRA:                  -0.122
REMARK UNBOUND:                -0.250
REMARK SMILES O=C([O-])c1ccccc1O
REMARK SMILES IDX 4 1 9 2 5 3 8 4 6 5 7 6 2 7 1 8 3 9 10 10
REMARK H PARENT 10 11
REMARK Flexibility Score: inf
ROOT
ATOM      1  C   UNL     1      11.361  32.716  42.691  1.00  0.00     0.039 A 
ATOM      2  C   UNL     1      12.694  33.126  42.929  1.00  0.00     0.124 A 
ATOM      3  C   UNL     1      11.050  32.090  41.469  1.00  0.00     0.014 A 
ATOM      4  C   UNL     1      13.679  32.903  41.953  1.00  0.00     0.047 A 
ATOM      5  C   UNL     1      12.040  31.875  40.506  1.00  0.00     0.001 A 
ATOM      6  C   UNL     1      13.351  32.281  40.748  1.00  0.00     0.004 A 
ENDROOT
BRANCH   1   7
ATOM      7  C   UNL     1      10.282  32.929  43.690  1.00  0.00     0.075 C 
ATOM      8  O   UNL     1      10.539  33.385  44.836  1.00  0.00    -0.545 OA
ATOM      9  O   UNL     1       8.963  32.625  43.375  1.00  0.00    -0.545 OA
ENDBRANCH   1   7
BRANCH   2  10
ATOM     10  O   UNL     1      13.047  33.750  44.125  1.00  0.00    -0.507 OA
ATOM     11  H   UNL     1      13.629  34.580  44.143  1.00  0.00     0.293 HD
ENDBRANCH   2  10
TORSDOF 2
ENDMDL
MODEL 7
REMARK VINA RESULT:    -2.925      7.869      9.112
REMARK INTER + INTRA:          -3.431
REMARK INTER:                  -3.183
REMARK INTRA:                  -0.249
REMARK UNBOUND:                -0.250
REMARK SMILES O=C([O-])c1ccccc1O
REMARK SMILES IDX 4 1 9 2 5 3 8 4 6 5 7 6 2 7 1 8 3 9 10 10
REMARK H PARENT 10 11
REMARK Flexibility Score: inf
ROOT
ATOM      1  C   UNL     1      20.583  33.551  40.226  1.00  0.00     0.039 A 
ATOM      2  C   UNL     1      19.453  33.515  39.376  1.00  0.00     0.124 A 
ATOM      3  C   UNL     1      20.462  33.053  41.538  1.00  0.00     0.014 A 
ATOM      4  C   UNL     1      18.240  32.988  39.846  1.00  0.00     0.047 A 
ATOM      5  C   UNL     1      19.248  32.531  41.994  1.00  0.00     0.001 A 
ATOM      6  C   UNL     1      18.140  32.499  41.148  1.00  0.00     0.004 A 
ENDROOT
BRANCH   1   7
ATOM      7  C   UNL     1      21.889  34.098  39.777  1.00  0.00     0.075 C 
ATOM      8  O   UNL     1      22.431  33.695  38.714  1.00  0.00    -0.545 OA
ATOM      9  O   UNL     1      22.539  35.070  40.529  1.00  0.00    -0.545 OA
ENDBRANCH   1   7
BRANCH   2  10
ATOM     10  O   UNL     1      19.527  33.998  38.069  1.00  0.00    -0.507 OA
ATOM     11  H   UNL     1      20.059  33.517  37.353  1.00  0.00     0.293 HD
ENDBRANCH   2  10
TORSDOF 2
ENDMDL
MODEL 8
REMARK VINA RESULT:    -2.893     10.831     11.420
REMARK INTER + INTRA:          -3.397
REMARK INTER:                  -3.177
REMARK INTRA:                  -0.221
REMARK UNBOUND:                -0.250
REMARK SMILES O=C([O-])c1ccccc1O
REMARK SMILES IDX 4 1 9 2 5 3 8 4 6 5 7 6 2 7 1 8 3 9 10 10
REMARK H PARENT 10 11
REMARK Flexibility Score: inf
ROOT
ATOM      1  C   UNL     1      22.512  35.221  40.704  1.00  0.00     0.039 A 
ATOM      2  C   UNL     1      22.775  36.550  41.114  1.00  0.00     0.124 A 
ATOM      3  C   UNL     1      22.851  34.164  41.571  1.00  0.00     0.014 A 
ATOM      4  C   UNL     1      23.362  36.793  42.365  1.00  0.00     0.047 A 
ATOM      5  C   UNL     1      23.437  34.420  42.814  1.00  0.00     0.001 A 
ATOM      6  C   UNL     1      23.691  35.732  43.209  1.00  0.00     0.004 A 
ENDROOT
BRANCH   1   7
ATOM      7  C   UNL     1      21.892  34.910  39.391  1.00  0.00     0.075 C 
ATOM      8  O   UNL     1      22.106  33.810  38.816  1.00  0.00    -0.545 OA
ATOM      9  O   UNL     1      21.060  35.835  38.771  1.00  0.00    -0.545 OA
ENDBRANCH   1   7
BRANCH   2  10
ATOM     10  O   UNL     1      22.455  37.627  40.288  1.00  0.00    -0.507 OA
ATOM     11  H   UNL     1      22.000  37.496  39.392  1.00  0.00     0.293 HD
ENDBRANCH   2  10
TORSDOF 2
ENDMDL
MODEL 9
REMARK VINA RESULT:    -2.873      7.593      9.128
REMARK INTER + INTRA:          -3.375
REMARK INTER:                  -3.135
REMARK INTRA:                  -0.240
REMARK UNBOUND:                -0.250
REMARK SMILES O=C([O-])c1ccccc1O
REMARK SMILES IDX 4 1 9 2 5 3 8 4 6 5 7 6 2 7 1 8 3 9 10 10
REMARK H PARENT 10 11
REMARK Flexibility Score: inf
ROOT
ATOM      1  C   UNL     1      19.760  33.208  40.453  1.00  0.00     0.039 A 
ATOM      2  C   UNL     1      19.608  33.443  39.065  1.00  0.00     0.124 A 
ATOM      3  C   UNL     1      20.996  33.502  41.060  1.00  0.00     0.014 A 
ATOM      4  C   UNL     1      20.681  33.963  38.323  1.00  0.00     0.047 A 
ATOM      5  C   UNL     1      22.055  34.018  40.309  1.00  0.00     0.001 A 
ATOM      6  C   UNL     1      21.897  34.247  38.943  1.00  0.00     0.004 A 
ENDROOT
BRANCH   1   7
ATOM      7  C   UNL     1      18.657  32.660  41.283  1.00  0.00     0.075 C 
ATOM      8  O   UNL     1      18.893  31.880  42.243  1.00  0.00    -0.545 OA
ATOM      9  O   UNL     1      17.337  33.001  41.010  1.00  0.00    -0.545 OA
ENDBRANCH   1   7
BRANCH   2  10
ATOM     10  O   UNL     1      18.402  33.167  38.422  1.00  0.00    -0.507 OA
ATOM     11  H   UNL     1      17.899  32.301  38.581  1.00  0.00     0.293 HD
ENDBRANCH   2  10
TORSDOF 2
ENDMDL
