MODEL 1
REMARK VINA RESULT:    -7.910      0.000      0.000
REMARK INTER + INTRA:         -11.955
REMARK INTER:                 -10.915
REMARK INTRA:                  -1.040
REMARK UNBOUND:                -1.040
REMARK SMILES O=C([O-])[C@@H]1O[C@H](Oc2cc3oc(-c4ccccc4)cc(=O)c3c(O)c2O)[C@H](O)[C@H](O)[C@H]1O
REMARK SMILES IDX 7 1 6 2 4 3 31 4 5 5 29 6 27 7 2 8 1 9 3 10 32 11 30 13
REMARK SMILES IDX 28 15 8 17 25 18 9 19 23 20 10 21 22 22 11 23 20 24 12 25
REMARK SMILES IDX 19 26 21 27 26 28 24 30 13 32 14 33 18 34 15 35 17 36 16 37
REMARK H PARENT 32 12 30 14 28 16 26 29 24 31
REMARK Flexibility Score: inf
ROOT
ATOM      1  O   UNL     1      17.136  46.042  57.691  1.00  0.00    -0.458 OA
ENDROOT
BRANCH   1   2
ATOM      2  C   UNL     1      15.921  45.748  58.389  1.00  0.00     0.339 C 
ATOM      3  C   UNL     1      16.198  46.719  60.579  1.00  0.00     0.199 C 
ATOM      4  C   UNL     1      16.432  48.033  59.801  1.00  0.00     0.180 C 
ATOM      5  O   UNL     1      16.178  45.541  59.772  1.00  0.00    -0.328 OA
ATOM      6  C   UNL     1      15.321  48.210  58.740  1.00  0.00     0.181 C 
ATOM      7  C   UNL     1      14.873  46.854  58.132  1.00  0.00     0.214 C 
BRANCH   3   8
ATOM      8  C   UNL     1      17.260  46.548  61.627  1.00  0.00     0.073 C 
ATOM      9  O   UNL     1      18.469  46.438  61.291  1.00  0.00    -0.547 OA
ATOM     10  O   UNL     1      16.907  46.450  62.969  1.00  0.00    -0.547 OA
ENDBRANCH   3   8
BRANCH   4  11
ATOM     11  O   UNL     1      16.424  49.125  60.684  1.00  0.00    -0.387 OA
ATOM     12  H   UNL     1      16.237  49.930  60.136  1.00  0.00     0.211 HD
ENDBRANCH   4  11
BRANCH   6  13
ATOM     13  O   UNL     1      15.730  49.124  57.755  1.00  0.00    -0.387 OA
ATOM     14  H   UNL     1      14.953  49.691  57.527  1.00  0.00     0.211 HD
ENDBRANCH   6  13
BRANCH   7  15
ATOM     15  O   UNL     1      14.627  46.993  56.757  1.00  0.00    -0.384 OA
ATOM     16  H   UNL     1      13.965  46.296  56.505  1.00  0.00     0.211 HD
ENDBRANCH   7  15
ENDBRANCH   1   2
BRANCH   1  17
ATOM     17  C   UNL     1      18.083  45.119  57.226  1.00  0.00     0.172 A 
ATOM     18  C   UNL     1      17.830  44.175  56.200  1.00  0.00     0.201 A 
ATOM     19  C   UNL     1      19.345  45.167  57.817  1.00  0.00     0.098 A 
ATOM     20  C   UNL     1      18.842  43.247  55.829  1.00  0.00     0.176 A 
ATOM     21  C   UNL     1      20.357  44.293  57.433  1.00  0.00     0.146 A 
ATOM     22  C   UNL     1      20.117  43.317  56.443  1.00  0.00     0.111 A 
ATOM     23  O   UNL     1      21.545  44.388  58.022  1.00  0.00    -0.456 OA
ATOM     24  C   UNL     1      21.183  42.450  56.118  1.00  0.00     0.197 A 
ATOM     25  C   UNL     1      22.572  43.594  57.733  1.00  0.00     0.138 A 
ATOM     26  C   UNL     1      22.412  42.588  56.767  1.00  0.00     0.100 A 
ATOM     27  O   UNL     1      21.049  41.538  55.257  1.00  0.00    -0.289 OA
BRANCH  18  28
ATOM     28  O   UNL     1      16.597  44.200  55.547  1.00  0.00    -0.502 OA
ATOM     29  H   UNL     1      16.468  44.464  54.583  1.00  0.00     0.293 HD
ENDBRANCH  18  28
BRANCH  20  30
ATOM     30  O   UNL     1      18.599  42.254  54.875  1.00  0.00    -0.504 OA
ATOM     31  H   UNL     1      17.981  41.468  55.013  1.00  0.00     0.293 HD
ENDBRANCH  20  30
BRANCH  25  32
ATOM     32  C   UNL     1      23.849  43.793  58.465  1.00  0.00     0.017 A 
ATOM     33  C   UNL     1      24.506  42.676  59.016  1.00  0.00     0.012 A 
ATOM     34  C   UNL     1      24.412  45.071  58.658  1.00  0.00     0.012 A 
ATOM     35  C   UNL     1      25.697  42.829  59.730  1.00  0.00     0.001 A 
ATOM     36  C   UNL     1      25.610  45.219  59.364  1.00  0.00     0.001 A 
ATOM     37  C   UNL     1      26.253  44.098  59.897  1.00  0.00     0.000 A 
ENDBRANCH  25  32
ENDBRANCH   1  17
TORSDOF 9
ENDMDL
MODEL 2
REMARK VINA RESULT:    -7.606      2.444      7.313
REMARK INTER + INTRA:         -11.535
REMARK INTER:                 -10.116
REMARK INTRA:                  -1.420
REMARK UNBOUND:                -1.040
REMARK SMILES O=C([O-])[C@@H]1O[C@H](Oc2cc3oc(-c4ccccc4)cc(=O)c3c(O)c2O)[C@H](O)[C@H](O)[C@H]1O
REMARK SMILES IDX 7 1 6 2 4 3 31 4 5 5 29 6 27 7 2 8 1 9 3 10 32 11 30 13
REMARK SMILES IDX 28 15 8 17 25 18 9 19 23 20 10 21 22 22 11 23 20 24 12 25
REMARK SMILES IDX 19 26 21 27 26 28 24 30 13 32 14 33 18 34 15 35 17 36 16 37
REMARK H PARENT 32 12 30 14 28 16 26 29 24 31
REMARK Flexibility Score: inf
ROOT
ATOM      1  O   UNL     1      18.266  43.870  56.608  1.00  0.00    -0.458 OA
ENDROOT
BRANCH   1   2
ATOM      2  C   UNL     1      19.173  44.287  55.582  1.00  0.00     0.339 C 
ATOM      3  C   UNL     1      20.984  45.377  56.743  1.00  0.00     0.199 C 
ATOM      4  C   UNL     1      21.112  44.033  57.493  1.00  0.00     0.180 C 
ATOM      5  O   UNL     1      19.808  45.507  55.944  1.00  0.00    -0.328 OA
ATOM      6  C   UNL     1      21.108  42.871  56.474  1.00  0.00     0.181 C 
ATOM      7  C   UNL     1      20.179  43.159  55.264  1.00  0.00     0.214 C 
BRANCH   3   8
ATOM      8  C   UNL     1      21.009  46.515  57.723  1.00  0.00     0.073 C 
ATOM      9  O   UNL     1      21.409  47.654  57.362  1.00  0.00    -0.547 OA
ATOM     10  O   UNL     1      20.647  46.302  59.049  1.00  0.00    -0.547 OA
ENDBRANCH   3   8
BRANCH   4  11
ATOM     11  O   UNL     1      22.303  44.008  58.238  1.00  0.00    -0.387 OA
ATOM     12  H   UNL     1      22.475  43.057  58.462  1.00  0.00     0.211 HD
ENDBRANCH   4  11
BRANCH   6  13
ATOM     13  O   UNL     1      20.786  41.662  57.115  1.00  0.00    -0.387 OA
ATOM     14  H   UNL     1      20.943  41.783  58.083  1.00  0.00     0.211 HD
ENDBRANCH   6  13
BRANCH   7  15
ATOM     15  O   UNL     1      19.506  41.990  54.877  1.00  0.00    -0.384 OA
ATOM     16  H   UNL     1      20.194  41.339  54.577  1.00  0.00     0.211 HD
ENDBRANCH   7  15
ENDBRANCH   1   2
BRANCH   1  17
ATOM     17  C   UNL     1      17.233  44.630  57.177  1.00  0.00     0.172 A 
ATOM     18  C   UNL     1      16.061  45.016  56.481  1.00  0.00     0.201 A 
ATOM     19  C   UNL     1      17.391  44.998  58.512  1.00  0.00     0.098 A 
ATOM     20  C   UNL     1      15.090  45.827  57.131  1.00  0.00     0.176 A 
ATOM     21  C   UNL     1      16.429  45.756  59.172  1.00  0.00     0.146 A 
ATOM     22  C   UNL     1      15.273  46.187  58.489  1.00  0.00     0.111 A 
ATOM     23  O   UNL     1      16.624  46.072  60.448  1.00  0.00    -0.456 OA
ATOM     24  C   UNL     1      14.348  46.970  59.214  1.00  0.00     0.197 A 
ATOM     25  C   UNL     1      15.770  46.798  61.162  1.00  0.00     0.138 A 
ATOM     26  C   UNL     1      14.600  47.278  60.553  1.00  0.00     0.100 A 
ATOM     27  O   UNL     1      13.296  47.412  58.676  1.00  0.00    -0.289 OA
BRANCH  18  28
ATOM     28  O   UNL     1      15.866  44.559  55.178  1.00  0.00    -0.502 OA
ATOM     29  H   UNL     1      16.390  44.876  54.377  1.00  0.00     0.293 HD
ENDBRANCH  18  28
BRANCH  20  30
ATOM     30  O   UNL     1      13.960  46.290  56.450  1.00  0.00    -0.504 OA
ATOM     31  H   UNL     1      13.699  47.261  56.368  1.00  0.00     0.293 HD
ENDBRANCH  20  30
BRANCH  25  32
ATOM     32  C   UNL     1      16.103  47.093  62.580  1.00  0.00     0.017 A 
ATOM     33  C   UNL     1      17.417  46.876  63.037  1.00  0.00     0.012 A 
ATOM     34  C   UNL     1      15.135  47.551  63.497  1.00  0.00     0.012 A 
ATOM     35  C   UNL     1      17.759  47.120  64.369  1.00  0.00     0.001 A 
ATOM     36  C   UNL     1      15.484  47.805  64.828  1.00  0.00     0.001 A 
ATOM     37  C   UNL     1      16.796  47.593  65.262  1.00  0.00     0.000 A 
ENDBRANCH  25  32
ENDBRANCH   1  17
TORSDOF 9
ENDMDL
MODEL 3
REMARK VINA RESULT:    -7.334      2.608      4.733
REMARK INTER + INTRA:         -11.161
REMARK INTER:                  -9.714
REMARK INTRA:                  -1.446
REMARK UNBOUND:                -1.040
REMARK SMILES O=C([O-])[C@@H]1O[C@H](Oc2cc3oc(-c4ccccc4)cc(=O)c3c(O)c2O)[C@H](O)[C@H](O)[C@H]1O
REMARK SMILES IDX 7 1 6 2 4 3 31 4 5 5 29 6 27 7 2 8 1 9 3 10 32 11 30 13
REMARK SMILES IDX 28 15 8 17 25 18 9 19 23 20 10 21 22 22 11 23 20 24 12 25
REMARK SMILES IDX 19 26 21 27 26 28 24 30 13 32 14 33 18 34 15 35 17 36 16 37
REMARK H PARENT 32 12 30 14 28 16 26 29 24 31
REMARK Flexibility Score: inf
ROOT
ATOM      1  O   UNL     1      16.191  47.136  60.618  1.00  0.00    -0.458 OA
ENDROOT
BRANCH   1   2
ATOM      2  C   UNL     1      16.312  48.543  60.852  1.00  0.00     0.339 C 
ATOM      3  C   UNL     1      14.566  49.073  62.429  1.00  0.00     0.199 C 
ATOM      4  C   UNL     1      15.246  48.005  63.312  1.00  0.00     0.180 C 
ATOM      5  O   UNL     1      15.034  49.121  61.080  1.00  0.00    -0.328 OA
ATOM      6  C   UNL     1      16.770  48.264  63.354  1.00  0.00     0.181 C 
ATOM      7  C   UNL     1      17.306  48.811  62.004  1.00  0.00     0.214 C 
BRANCH   3   8
ATOM      8  C   UNL     1      13.082  48.844  62.399  1.00  0.00     0.073 C 
ATOM      9  O   UNL     1      12.408  48.921  63.460  1.00  0.00    -0.547 OA
ATOM     10  O   UNL     1      12.455  48.488  61.210  1.00  0.00    -0.547 OA
ENDBRANCH   3   8
BRANCH   4  11
ATOM     11  O   UNL     1      14.721  48.050  64.614  1.00  0.00    -0.387 OA
ATOM     12  H   UNL     1      14.323  48.951  64.727  1.00  0.00     0.211 HD
ENDBRANCH   4  11
BRANCH   6  13
ATOM     13  O   UNL     1      17.450  47.104  63.763  1.00  0.00    -0.387 OA
ATOM     14  H   UNL     1      17.266  46.396  63.098  1.00  0.00     0.211 HD
ENDBRANCH   6  13
BRANCH   7  15
ATOM     15  O   UNL     1      18.561  48.254  61.715  1.00  0.00    -0.384 OA
ATOM     16  H   UNL     1      19.061  48.193  62.572  1.00  0.00     0.211 HD
ENDBRANCH   7  15
ENDBRANCH   1   2
BRANCH   1  17
ATOM     17  C   UNL     1      16.212  46.486  59.375  1.00  0.00     0.172 A 
ATOM     18  C   UNL     1      15.124  46.478  58.468  1.00  0.00     0.201 A 
ATOM     19  C   UNL     1      17.395  45.830  59.033  1.00  0.00     0.098 A 
ATOM     20  C   UNL     1      15.225  45.751  57.250  1.00  0.00     0.176 A 
ATOM     21  C   UNL     1      17.521  45.150  57.826  1.00  0.00     0.146 A 
ATOM     22  C   UNL     1      16.437  45.093  56.925  1.00  0.00     0.111 A 
ATOM     23  O   UNL     1      18.672  44.550  57.545  1.00  0.00    -0.456 OA
ATOM     24  C   UNL     1      16.629  44.369  55.728  1.00  0.00     0.197 A 
ATOM     25  C   UNL     1      18.889  43.868  56.424  1.00  0.00     0.138 A 
ATOM     26  C   UNL     1      17.857  43.753  55.480  1.00  0.00     0.100 A 
ATOM     27  O   UNL     1      15.707  44.253  54.875  1.00  0.00    -0.289 OA
BRANCH  18  28
ATOM     28  O   UNL     1      13.982  47.220  58.775  1.00  0.00    -0.502 OA
ATOM     29  H   UNL     1      13.052  46.837  58.836  1.00  0.00     0.293 HD
ENDBRANCH  18  28
BRANCH  20  30
ATOM     30  O   UNL     1      14.143  45.659  56.370  1.00  0.00    -0.504 OA
ATOM     31  H   UNL     1      14.119  45.067  55.553  1.00  0.00     0.293 HD
ENDBRANCH  20  30
BRANCH  25  32
ATOM     32  C   UNL     1      20.218  43.234  56.226  1.00  0.00     0.017 A 
ATOM     33  C   UNL     1      20.385  41.873  56.549  1.00  0.00     0.012 A 
ATOM     34  C   UNL     1      21.332  43.958  55.758  1.00  0.00     0.012 A 
ATOM     35  C   UNL     1      21.626  41.250  56.397  1.00  0.00     0.001 A 
ATOM     36  C   UNL     1      22.572  43.328  55.597  1.00  0.00     0.001 A 
ATOM     37  C   UNL     1      22.717  41.975  55.913  1.00  0.00     0.000 A 
ENDBRANCH  25  32
ENDBRANCH   1  17
TORSDOF 9
ENDMDL
MODEL 4
REMARK VINA RESULT:    -7.304      2.590      8.660
REMARK INTER + INTRA:         -11.119
REMARK INTER:                  -9.818
REMARK INTRA:                  -1.301
REMARK UNBOUND:                -1.040
REMARK SMILES O=C([O-])[C@@H]1O[C@H](Oc2cc3oc(-c4ccccc4)cc(=O)c3c(O)c2O)[C@H](O)[C@H](O)[C@H]1O
REMARK SMILES IDX 7 1 6 2 4 3 31 4 5 5 29 6 27 7 2 8 1 9 3 10 32 11 30 13
REMARK SMILES IDX 28 15 8 17 25 18 9 19 23 20 10 21 22 22 11 23 20 24 12 25
REMARK SMILES IDX 19 26 21 27 26 28 24 30 13 32 14 33 18 34 15 35 17 36 16 37
REMARK H PARENT 32 12 30 14 28 16 26 29 24 31
REMARK Flexibility Score: inf
ROOT
ATOM      1  O   UNL     1      18.837  45.166  57.532  1.00  0.00    -0.458 OA
ENDROOT
BRANCH   1   2
ATOM      2  C   UNL     1      19.371  45.500  56.245  1.00  0.00     0.339 C 
ATOM      3  C   UNL     1      20.792  43.645  55.649  1.00  0.00     0.199 C 
ATOM      4  C   UNL     1      19.514  42.799  55.843  1.00  0.00     0.180 C 
ATOM      5  O   UNL     1      20.692  44.994  56.108  1.00  0.00    -0.328 OA
ATOM      6  C   UNL     1      18.336  43.463  55.093  1.00  0.00     0.181 C 
ATOM      7  C   UNL     1      18.422  45.012  55.128  1.00  0.00     0.214 C 
BRANCH   3   8
ATOM      8  C   UNL     1      21.948  42.998  56.356  1.00  0.00     0.073 C 
ATOM      9  O   UNL     1      22.636  42.119  55.771  1.00  0.00    -0.547 OA
ATOM     10  O   UNL     1      22.227  43.322  57.679  1.00  0.00    -0.547 OA
ENDBRANCH   3   8
BRANCH   4  11
ATOM     11  O   UNL     1      19.718  41.499  55.352  1.00  0.00    -0.387 OA
ATOM     12  H   UNL     1      18.966  41.311  54.733  1.00  0.00     0.211 HD
ENDBRANCH   4  11
BRANCH   6  13
ATOM     13  O   UNL     1      17.112  42.988  55.593  1.00  0.00    -0.387 OA
ATOM     14  H   UNL     1      17.187  42.008  55.693  1.00  0.00     0.211 HD
ENDBRANCH   6  13
BRANCH   7  15
ATOM     15  O   UNL     1      17.143  45.568  55.287  1.00  0.00    -0.384 OA
ATOM     16  H   UNL     1      17.197  46.223  56.033  1.00  0.00     0.211 HD
ENDBRANCH   7  15
ENDBRANCH   1   2
BRANCH   1  17
ATOM     17  C   UNL     1      18.670  46.030  58.623  1.00  0.00     0.172 A 
ATOM     18  C   UNL     1      19.743  46.619  59.337  1.00  0.00     0.201 A 
ATOM     19  C   UNL     1      17.358  46.321  58.994  1.00  0.00     0.098 A 
ATOM     20  C   UNL     1      19.473  47.447  60.461  1.00  0.00     0.176 A 
ATOM     21  C   UNL     1      17.080  47.164  60.066  1.00  0.00     0.146 A 
ATOM     22  C   UNL     1      18.131  47.729  60.818  1.00  0.00     0.111 A 
ATOM     23  O   UNL     1      15.812  47.416  60.372  1.00  0.00    -0.456 OA
ATOM     24  C   UNL     1      17.776  48.558  61.905  1.00  0.00     0.197 A 
ATOM     25  C   UNL     1      15.443  48.199  61.381  1.00  0.00     0.138 A 
ATOM     26  C   UNL     1      16.428  48.790  62.188  1.00  0.00     0.100 A 
ATOM     27  O   UNL     1      18.652  49.090  62.640  1.00  0.00    -0.289 OA
BRANCH  18  28
ATOM     28  O   UNL     1      21.049  46.401  58.896  1.00  0.00    -0.502 OA
ATOM     29  H   UNL     1      21.324  46.352  57.928  1.00  0.00     0.293 HD
ENDBRANCH  18  28
BRANCH  20  30
ATOM     30  O   UNL     1      20.510  47.980  61.234  1.00  0.00    -0.504 OA
ATOM     31  H   UNL     1      21.450  48.133  60.902  1.00  0.00     0.293 HD
ENDBRANCH  20  30
BRANCH  25  32
ATOM     32  C   UNL     1      13.992  48.399  61.630  1.00  0.00     0.017 A 
ATOM     33  C   UNL     1      13.100  48.383  60.540  1.00  0.00     0.012 A 
ATOM     34  C   UNL     1      13.479  48.640  62.920  1.00  0.00     0.012 A 
ATOM     35  C   UNL     1      11.732  48.591  60.735  1.00  0.00     0.001 A 
ATOM     36  C   UNL     1      12.107  48.837  63.112  1.00  0.00     0.001 A 
ATOM     37  C   UNL     1      11.234  48.810  62.021  1.00  0.00     0.000 A 
ENDBRANCH  25  32
ENDBRANCH   1  17
TORSDOF 9
ENDMDL
MODEL 5
REMARK VINA RESULT:    -7.288      2.360      8.958
REMARK INTER + INTRA:         -11.097
REMARK INTER:                  -9.598
REMARK INTRA:                  -1.499
REMARK UNBOUND:                -1.040
REMARK SMILES O=C([O-])[C@@H]1O[C@H](Oc2cc3oc(-c4ccccc4)cc(=O)c3c(O)c2O)[C@H](O)[C@H](O)[C@H]1O
REMARK SMILES IDX 7 1 6 2 4 3 31 4 5 5 29 6 27 7 2 8 1 9 3 10 32 11 30 13
REMARK SMILES IDX 28 15 8 17 25 18 9 19 23 20 10 21 22 22 11 23 20 24 12 25
REMARK SMILES IDX 19 26 21 27 26 28 24 30 13 32 14 33 18 34 15 35 17 36 16 37
REMARK H PARENT 32 12 30 14 28 16 26 29 24 31
REMARK Flexibility Score: inf
ROOT
ATOM      1  O   UNL     1      19.213  44.401  57.126  1.00  0.00    -0.458 OA
ENDROOT
BRANCH   1   2
ATOM      2  C   UNL     1      20.069  44.590  55.994  1.00  0.00     0.339 C 
ATOM      3  C   UNL     1      22.313  44.458  56.868  1.00  0.00     0.199 C 
ATOM      4  C   UNL     1      21.871  43.067  57.375  1.00  0.00     0.180 C 
ATOM      5  O   UNL     1      21.253  45.278  56.374  1.00  0.00    -0.328 OA
ATOM      6  C   UNL     1      21.176  42.296  56.229  1.00  0.00     0.181 C 
ATOM      7  C   UNL     1      20.355  43.236  55.307  1.00  0.00     0.214 C 
BRANCH   3   8
ATOM      8  C   UNL     1      23.008  45.207  57.967  1.00  0.00     0.073 C 
ATOM      9  O   UNL     1      22.637  46.372  58.273  1.00  0.00    -0.547 OA
ATOM     10  O   UNL     1      24.104  44.642  58.612  1.00  0.00    -0.547 OA
ENDBRANCH   3   8
BRANCH   4  11
ATOM     11  O   UNL     1      22.986  42.342  57.827  1.00  0.00    -0.387 OA
ATOM     12  H   UNL     1      22.642  41.475  58.163  1.00  0.00     0.211 HD
ENDBRANCH   4  11
BRANCH   6  13
ATOM     13  O   UNL     1      20.396  41.249  56.749  1.00  0.00    -0.387 OA
ATOM     14  H   UNL     1      20.110  41.510  57.659  1.00  0.00     0.211 HD
ENDBRANCH   6  13
BRANCH   7  15
ATOM     15  O   UNL     1      19.158  42.615  54.918  1.00  0.00    -0.384 OA
ATOM     16  H   UNL     1      18.763  43.167  54.192  1.00  0.00     0.211 HD
ENDBRANCH   7  15
ENDBRANCH   1   2
BRANCH   1  17
ATOM     17  C   UNL     1      18.318  45.335  57.669  1.00  0.00     0.172 A 
ATOM     18  C   UNL     1      18.684  46.323  58.617  1.00  0.00     0.201 A 
ATOM     19  C   UNL     1      17.001  45.273  57.217  1.00  0.00     0.098 A 
ATOM     20  C   UNL     1      17.693  47.197  59.143  1.00  0.00     0.176 A 
ATOM     21  C   UNL     1      16.031  46.149  57.693  1.00  0.00     0.146 A 
ATOM     22  C   UNL     1      16.361  47.114  58.668  1.00  0.00     0.111 A 
ATOM     23  O   UNL     1      14.792  46.053  57.222  1.00  0.00    -0.456 OA
ATOM     24  C   UNL     1      15.323  47.957  59.121  1.00  0.00     0.197 A 
ATOM     25  C   UNL     1      13.794  46.837  57.620  1.00  0.00     0.138 A 
ATOM     26  C   UNL     1      14.036  47.815  58.597  1.00  0.00     0.100 A 
ATOM     27  O   UNL     1      15.527  48.836  60.003  1.00  0.00    -0.289 OA
BRANCH  18  28
ATOM     28  O   UNL     1      20.024  46.441  58.988  1.00  0.00    -0.502 OA
ATOM     29  H   UNL     1      20.343  46.846  59.854  1.00  0.00     0.293 HD
ENDBRANCH  18  28
BRANCH  20  30
ATOM     30  O   UNL     1      18.005  48.130  60.137  1.00  0.00    -0.504 OA
ATOM     31  H   UNL     1      17.325  48.592  60.722  1.00  0.00     0.293 HD
ENDBRANCH  20  30
BRANCH  25  32
ATOM     32  C   UNL     1      12.449  46.628  57.025  1.00  0.00     0.017 A 
ATOM     33  C   UNL     1      11.331  46.516  57.875  1.00  0.00     0.012 A 
ATOM     34  C   UNL     1      12.255  46.503  55.634  1.00  0.00     0.012 A 
ATOM     35  C   UNL     1      10.055  46.296  57.350  1.00  0.00     0.001 A 
ATOM     36  C   UNL     1      10.974  46.294  55.113  1.00  0.00     0.001 A 
ATOM     37  C   UNL     1       9.875  46.194  55.970  1.00  0.00     0.000 A 
ENDBRANCH  25  32
ENDBRANCH   1  17
TORSDOF 9
ENDMDL
MODEL 6
REMARK VINA RESULT:    -7.230      2.812      4.881
REMARK INTER + INTRA:         -11.018
REMARK INTER:                  -9.559
REMARK INTRA:                  -1.458
REMARK UNBOUND:                -1.040
REMARK SMILES O=C([O-])[C@@H]1O[C@H](Oc2cc3oc(-c4ccccc4)cc(=O)c3c(O)c2O)[C@H](O)[C@H](O)[C@H]1O
REMARK SMILES IDX 7 1 6 2 4 3 31 4 5 5 29 6 27 7 2 8 1 9 3 10 32 11 30 13
REMARK SMILES IDX 28 15 8 17 25 18 9 19 23 20 10 21 22 22 11 23 20 24 12 25
REMARK SMILES IDX 19 26 21 27 26 28 24 30 13 32 14 33 18 34 15 35 17 36 16 37
REMARK H PARENT 32 12 30 14 28 16 26 29 24 31
REMARK Flexibility Score: inf
ROOT
ATOM      1  O   UNL     1      14.724  47.116  57.236  1.00  0.00    -0.458 OA
ENDROOT
BRANCH   1   2
ATOM      2  C   UNL     1      13.691  46.147  57.449  1.00  0.00     0.339 C 
ATOM      3  C   UNL     1      11.888  47.365  58.491  1.00  0.00     0.199 C 
ATOM      4  C   UNL     1      11.966  48.258  57.233  1.00  0.00     0.180 C 
ATOM      5  O   UNL     1      12.969  46.443  58.638  1.00  0.00    -0.328 OA
ATOM      6  C   UNL     1      11.999  47.368  55.969  1.00  0.00     0.181 C 
ATOM      7  C   UNL     1      12.782  46.049  56.204  1.00  0.00     0.214 C 
BRANCH   3   8
ATOM      8  C   UNL     1      11.834  48.220  59.724  1.00  0.00     0.073 C 
ATOM      9  O   UNL     1      10.828  48.944  59.950  1.00  0.00    -0.547 OA
ATOM     10  O   UNL     1      12.921  48.262  60.592  1.00  0.00    -0.547 OA
ENDBRANCH   3   8
BRANCH   4  11
ATOM     11  O   UNL     1      10.855  49.116  57.181  1.00  0.00    -0.387 OA
ATOM     12  H   UNL     1      10.691  49.307  56.222  1.00  0.00     0.211 HD
ENDBRANCH   4  11
BRANCH   6  13
ATOM     13  O   UNL     1      12.499  48.095  54.875  1.00  0.00    -0.387 OA
ATOM     14  H   UNL     1      12.052  48.976  54.868  1.00  0.00     0.211 HD
ENDBRANCH   6  13
BRANCH   7  15
ATOM     15  O   UNL     1      13.535  45.719  55.066  1.00  0.00    -0.384 OA
ATOM     16  H   UNL     1      14.395  45.336  55.384  1.00  0.00     0.211 HD
ENDBRANCH   7  15
ENDBRANCH   1   2
BRANCH   1  17
ATOM     17  C   UNL     1      16.013  47.106  57.788  1.00  0.00     0.172 A 
ATOM     18  C   UNL     1      16.426  47.954  58.846  1.00  0.00     0.201 A 
ATOM     19  C   UNL     1      16.914  46.186  57.255  1.00  0.00     0.098 A 
ATOM     20  C   UNL     1      17.769  47.902  59.309  1.00  0.00     0.176 A 
ATOM     21  C   UNL     1      18.220  46.097  57.728  1.00  0.00     0.146 A 
ATOM     22  C   UNL     1      18.666  46.958  58.751  1.00  0.00     0.111 A 
ATOM     23  O   UNL     1      19.036  45.196  57.191  1.00  0.00    -0.456 OA
ATOM     24  C   UNL     1      20.009  46.825  59.168  1.00  0.00     0.197 A 
ATOM     25  C   UNL     1      20.302  45.038  57.566  1.00  0.00     0.138 A 
ATOM     26  C   UNL     1      20.829  45.865  58.570  1.00  0.00     0.100 A 
ATOM     27  O   UNL     1      20.496  47.566  60.065  1.00  0.00    -0.289 OA
BRANCH  18  28
ATOM     28  O   UNL     1      15.489  48.801  59.439  1.00  0.00    -0.502 OA
ATOM     29  H   UNL     1      14.744  49.265  58.943  1.00  0.00     0.293 HD
ENDBRANCH  18  28
BRANCH  20  30
ATOM     30  O   UNL     1      18.229  48.778  60.297  1.00  0.00    -0.504 OA
ATOM     31  H   UNL     1      18.550  49.719  60.123  1.00  0.00     0.293 HD
ENDBRANCH  20  30
BRANCH  25  32
ATOM     32  C   UNL     1      21.119  44.000  56.885  1.00  0.00     0.017 A 
ATOM     33  C   UNL     1      20.845  42.641  57.129  1.00  0.00     0.012 A 
ATOM     34  C   UNL     1      22.186  44.331  56.027  1.00  0.00     0.012 A 
ATOM     35  C   UNL     1      21.608  41.639  56.524  1.00  0.00     0.001 A 
ATOM     36  C   UNL     1      22.941  43.325  55.414  1.00  0.00     0.001 A 
ATOM     37  C   UNL     1      22.650  41.980  55.660  1.00  0.00     0.000 A 
ENDBRANCH  25  32
ENDBRANCH   1  17
TORSDOF 9
ENDMDL
MODEL 7
REMARK VINA RESULT:    -7.090      3.139      6.861
REMARK INTER + INTRA:         -10.824
REMARK INTER:                  -9.437
REMARK INTRA:                  -1.388
REMARK UNBOUND:                -1.040
REMARK SMILES O=C([O-])[C@@H]1O[C@H](Oc2cc3oc(-c4ccccc4)cc(=O)c3c(O)c2O)[C@H](O)[C@H](O)[C@H]1O
REMARK SMILES IDX 7 1 6 2 4 3 31 4 5 5 29 6 27 7 2 8 1 9 3 10 32 11 30 13
REMARK SMILES IDX 28 15 8 17 25 18 9 19 23 20 10 21 22 22 11 23 20 24 12 25
REMARK SMILES IDX 19 26 21 27 26 28 24 30 13 32 14 33 18 34 15 35 17 36 16 37
REMARK H PARENT 32 12 30 14 28 16 26 29 24 31
REMARK Flexibility Score: inf
ROOT
ATOM      1  O   UNL     1      16.475  44.678  57.328  1.00  0.00    -0.458 OA
ENDROOT
BRANCH   1   2
ATOM      2  C   UNL     1      16.936  45.189  56.072  1.00  0.00     0.339 C 
ATOM      3  C   UNL     1      19.295  45.587  56.380  1.00  0.00     0.199 C 
ATOM      4  C   UNL     1      19.345  44.089  56.755  1.00  0.00     0.180 C 
ATOM      5  O   UNL     1      17.980  46.133  56.272  1.00  0.00    -0.328 OA
ATOM      6  C   UNL     1      18.579  43.265  55.694  1.00  0.00     0.181 C 
ATOM      7  C   UNL     1      17.347  44.029  55.139  1.00  0.00     0.214 C 
BRANCH   3   8
ATOM      8  C   UNL     1      20.054  46.395  57.393  1.00  0.00     0.073 C 
ATOM      9  O   UNL     1      20.385  45.880  58.494  1.00  0.00    -0.547 OA
ATOM     10  O   UNL     1      20.342  47.733  57.144  1.00  0.00    -0.547 OA
ENDBRANCH   3   8
BRANCH   4  11
ATOM     11  O   UNL     1      20.678  43.653  56.824  1.00  0.00    -0.387 OA
ATOM     12  H   UNL     1      21.051  43.739  55.909  1.00  0.00     0.211 HD
ENDBRANCH   4  11
BRANCH   6  13
ATOM     13  O   UNL     1      18.234  42.005  56.213  1.00  0.00    -0.387 OA
ATOM     14  H   UNL     1      17.631  41.567  55.564  1.00  0.00     0.211 HD
ENDBRANCH   6  13
BRANCH   7  15
ATOM     15  O   UNL     1      16.273  43.146  54.944  1.00  0.00    -0.384 OA
ATOM     16  H   UNL     1      16.043  43.173  53.978  1.00  0.00     0.211 HD
ENDBRANCH   7  15
ENDBRANCH   1   2
BRANCH   1  17
ATOM     17  C   UNL     1      16.042  45.426  58.433  1.00  0.00     0.172 A 
ATOM     18  C   UNL     1      14.723  45.921  58.584  1.00  0.00     0.201 A 
ATOM     19  C   UNL     1      16.984  45.667  59.432  1.00  0.00     0.098 A 
ATOM     20  C   UNL     1      14.391  46.710  59.720  1.00  0.00     0.176 A 
ATOM     21  C   UNL     1      16.660  46.403  60.567  1.00  0.00     0.146 A 
ATOM     22  C   UNL     1      15.366  46.941  60.722  1.00  0.00     0.111 A 
ATOM     23  O   UNL     1      17.593  46.595  61.494  1.00  0.00    -0.456 OA
ATOM     24  C   UNL     1      15.113  47.694  61.889  1.00  0.00     0.197 A 
ATOM     25  C   UNL     1      17.386  47.290  62.609  1.00  0.00     0.138 A 
ATOM     26  C   UNL     1      16.128  47.871  62.833  1.00  0.00     0.100 A 
ATOM     27  O   UNL     1      13.989  48.225  62.099  1.00  0.00    -0.289 OA
BRANCH  18  28
ATOM     28  O   UNL     1      13.762  45.590  57.628  1.00  0.00    -0.502 OA
ATOM     29  H   UNL     1      13.365  46.241  56.969  1.00  0.00     0.293 HD
ENDBRANCH  18  28
BRANCH  20  30
ATOM     30  O   UNL     1      13.121  47.279  59.861  1.00  0.00    -0.504 OA
ATOM     31  H   UNL     1      12.845  47.878  60.624  1.00  0.00     0.293 HD
ENDBRANCH  20  30
BRANCH  25  32
ATOM     32  C   UNL     1      18.511  47.443  63.568  1.00  0.00     0.017 A 
ATOM     33  C   UNL     1      19.118  46.292  64.104  1.00  0.00     0.012 A 
ATOM     34  C   UNL     1      18.971  48.708  63.988  1.00  0.00     0.012 A 
ATOM     35  C   UNL     1      20.163  46.399  65.026  1.00  0.00     0.001 A 
ATOM     36  C   UNL     1      20.024  48.811  64.903  1.00  0.00     0.001 A 
ATOM     37  C   UNL     1      20.621  47.658  65.419  1.00  0.00     0.000 A 
ENDBRANCH  25  32
ENDBRANCH   1  17
TORSDOF 9
ENDMDL
MODEL 8
REMARK VINA RESULT:    -7.002      2.567      5.436
REMARK INTER + INTRA:         -10.702
REMARK INTER:                  -9.425
REMARK INTRA:                  -1.277
REMARK UNBOUND:                -1.040
REMARK SMILES O=C([O-])[C@@H]1O[C@H](Oc2cc3oc(-c4ccccc4)cc(=O)c3c(O)c2O)[C@H](O)[C@H](O)[C@H]1O
REMARK SMILES IDX 7 1 6 2 4 3 31 4 5 5 29 6 27 7 2 8 1 9 3 10 32 11 30 13
REMARK SMILES IDX 28 15 8 17 25 18 9 19 23 20 10 21 22 22 11 23 20 24 12 25
REMARK SMILES IDX 19 26 21 27 26 28 24 30 13 32 14 33 18 34 15 35 17 36 16 37
REMARK H PARENT 32 12 30 14 28 16 26 29 24 31
REMARK Flexibility Score: inf
ROOT
ATOM      1  O   UNL     1      17.224  47.424  62.070  1.00  0.00    -0.458 OA
ENDROOT
BRANCH   1   2
ATOM      2  C   UNL     1      16.135  48.329  61.856  1.00  0.00     0.339 C 
ATOM      3  C   UNL     1      15.162  47.660  59.753  1.00  0.00     0.199 C 
ATOM      4  C   UNL     1      15.001  46.285  60.437  1.00  0.00     0.180 C 
ATOM      5  O   UNL     1      15.973  48.593  60.469  1.00  0.00    -0.328 OA
ATOM      6  C   UNL     1      14.372  46.475  61.836  1.00  0.00     0.181 C 
ATOM      7  C   UNL     1      14.849  47.785  62.518  1.00  0.00     0.214 C 
BRANCH   3   8
ATOM      8  C   UNL     1      15.753  47.486  58.383  1.00  0.00     0.073 C 
ATOM      9  O   UNL     1      15.173  46.762  57.531  1.00  0.00    -0.547 OA
ATOM     10  O   UNL     1      16.974  48.073  58.070  1.00  0.00    -0.547 OA
ENDBRANCH   3   8
BRANCH   4  11
ATOM     11  O   UNL     1      14.182  45.451  59.657  1.00  0.00    -0.387 OA
ATOM     12  H   UNL     1      14.789  44.839  59.166  1.00  0.00     0.211 HD
ENDBRANCH   4  11
BRANCH   6  13
ATOM     13  O   UNL     1      14.611  45.343  62.635  1.00  0.00    -0.387 OA
ATOM     14  H   UNL     1      15.497  45.454  63.057  1.00  0.00     0.211 HD
ENDBRANCH   6  13
BRANCH   7  15
ATOM     15  O   UNL     1      15.049  47.576  63.891  1.00  0.00    -0.384 OA
ATOM     16  H   UNL     1      14.348  48.090  64.372  1.00  0.00     0.211 HD
ENDBRANCH   7  15
ENDBRANCH   1   2
BRANCH   1  17
ATOM     17  C   UNL     1      18.449  47.407  61.386  1.00  0.00     0.172 A 
ATOM     18  C   UNL     1      19.537  48.261  61.692  1.00  0.00     0.201 A 
ATOM     19  C   UNL     1      18.579  46.471  60.361  1.00  0.00     0.098 A 
ATOM     20  C   UNL     1      20.724  48.200  60.911  1.00  0.00     0.176 A 
ATOM     21  C   UNL     1      19.750  46.373  59.617  1.00  0.00     0.146 A 
ATOM     22  C   UNL     1      20.832  47.240  59.874  1.00  0.00     0.111 A 
ATOM     23  O   UNL     1      19.824  45.457  58.657  1.00  0.00    -0.456 OA
ATOM     24  C   UNL     1      21.981  47.098  59.067  1.00  0.00     0.197 A 
ATOM     25  C   UNL     1      20.894  45.290  57.885  1.00  0.00     0.138 A 
ATOM     26  C   UNL     1      22.010  46.121  58.068  1.00  0.00     0.100 A 
ATOM     27  O   UNL     1      22.987  47.843  59.218  1.00  0.00    -0.289 OA
BRANCH  18  28
ATOM     28  O   UNL     1      19.433  49.125  62.783  1.00  0.00    -0.502 OA
ATOM     29  H   UNL     1      18.671  49.767  62.933  1.00  0.00     0.293 HD
ENDBRANCH  18  28
BRANCH  20  30
ATOM     30  O   UNL     1      21.786  49.082  61.136  1.00  0.00    -0.504 OA
ATOM     31  H   UNL     1      22.326  49.524  60.407  1.00  0.00     0.293 HD
ENDBRANCH  20  30
BRANCH  25  32
ATOM     32  C   UNL     1      20.856  44.236  56.838  1.00  0.00     0.017 A 
ATOM     33  C   UNL     1      19.622  43.896  56.250  1.00  0.00     0.012 A 
ATOM     34  C   UNL     1      22.012  43.536  56.436  1.00  0.00     0.012 A 
ATOM     35  C   UNL     1      19.546  42.893  55.280  1.00  0.00     0.001 A 
ATOM     36  C   UNL     1      21.933  42.541  55.456  1.00  0.00     0.001 A 
ATOM     37  C   UNL     1      20.702  42.222  54.877  1.00  0.00     0.000 A 
ENDBRANCH  25  32
ENDBRANCH   1  17
TORSDOF 9
ENDMDL
