MODEL 1
REMARK VINA RESULT:    -3.147      0.000      0.000
REMARK INTER + INTRA:          -7.730
REMARK INTER:                  -7.194
REMARK INTRA:                  -0.536
REMARK UNBOUND:                -0.536
REMARK SMILES CCCCCCCCCCCCCCCCCCCCCCCC(=O)[O-]
REMARK SMILES IDX 13 1 14 2 15 3 16 4 17 5 18 6 19 7 20 8 21 9 22 10 23 11
REMARK SMILES IDX 24 12 25 13 26 14 12 15 11 16 10 17 9 18 8 19 7 20 6 21 5 22
REMARK SMILES IDX 4 23 3 24 2 25 1 26
REMARK H PARENT
REMARK Flexibility Score: inf
ROOT
ATOM      1  C   UNL     1       7.644   2.758   9.151  1.00  0.00     0.000 C 
ENDROOT
BRANCH   1   2
ATOM      2  C   UNL     1       8.392   3.997   9.672  1.00  0.00     0.000 C 
BRANCH   2   3
ATOM      3  C   UNL     1       7.893   5.341   9.106  1.00  0.00     0.000 C 
BRANCH   3   4
ATOM      4  C   UNL     1       8.989   6.400   8.877  1.00  0.00     0.000 C 
BRANCH   4   5
ATOM      5  C   UNL     1       8.469   7.798   8.499  1.00  0.00     0.000 C 
BRANCH   5   6
ATOM      6  C   UNL     1       8.003   8.610   9.720  1.00  0.00     0.000 C 
BRANCH   6   7
ATOM      7  C   UNL     1       8.118  10.127   9.504  1.00  0.00     0.000 C 
BRANCH   7   8
ATOM      8  C   UNL     1       6.837  10.881   9.890  1.00  0.00     0.000 C 
BRANCH   8   9
ATOM      9  C   UNL     1       5.922  11.061   8.668  1.00  0.00     0.000 C 
BRANCH   9  10
ATOM     10  C   UNL     1       5.950  12.490   8.107  1.00  0.00     0.006 C 
BRANCH  10  11
ATOM     11  C   UNL     1       4.551  13.020   7.762  1.00  0.00     0.053 C 
BRANCH  11  12
ATOM     12  C   UNL     1       3.568  11.893   7.670  1.00  0.00     0.041 C 
ATOM     13  O   UNL     1       2.829  11.617   8.651  1.00  0.00    -0.550 OA
ATOM     14  O   UNL     1       3.477  11.141   6.505  1.00  0.00    -0.550 OA
ENDBRANCH  11  12
ENDBRANCH  10  11
ENDBRANCH   9  10
ENDBRANCH   8   9
ENDBRANCH   7   8
ENDBRANCH   6   7
ENDBRANCH   5   6
ENDBRANCH   4   5
ENDBRANCH   3   4
ENDBRANCH   2   3
ENDBRANCH   1   2
BRANCH   1  15
ATOM     15  C   UNL     1       6.124   2.967   9.075  1.00  0.00     0.000 C 
BRANCH  15  16
ATOM     16  C   UNL     1       5.485   2.003   8.067  1.00  0.00     0.000 C 
BRANCH  16  17
ATOM     17  C   UNL     1       3.952   2.047   8.155  1.00  0.00     0.000 C 
BRANCH  17  18
ATOM     18  C   UNL     1       3.446   2.321   9.580  1.00  0.00    -0.000 C 
BRANCH  18  19
ATOM     19  C   UNL     1       3.380   3.822   9.908  1.00  0.00    -0.000 C 
BRANCH  19  20
ATOM     20  C   UNL     1       1.979   4.419   9.689  1.00  0.00    -0.000 C 
BRANCH  20  21
ATOM     21  C   UNL     1       0.815   3.420   9.828  1.00  0.00    -0.000 C 
BRANCH  21  22
ATOM     22  C   UNL     1      -0.489   3.926   9.184  1.00  0.00    -0.000 C 
BRANCH  22  23
ATOM     23  C   UNL     1      -1.629   2.898   9.301  1.00  0.00    -0.000 C 
BRANCH  23  24
ATOM     24  C   UNL     1      -1.236   1.650  10.122  1.00  0.00    -0.000 C 
BRANCH  24  25
ATOM     25  C   UNL     1      -1.029   0.392   9.263  1.00  0.00    -0.003 C 
ATOM     26  C   UNL     1       0.006  -0.565   9.850  1.00  0.00     0.004 C 
ENDBRANCH  24  25
ENDBRANCH  23  24
ENDBRANCH  22  23
ENDBRANCH  21  22
ENDBRANCH  20  21
ENDBRANCH  19  20
ENDBRANCH  18  19
ENDBRANCH  17  18
ENDBRANCH  16  17
ENDBRANCH  15  16
ENDBRANCH   1  15
TORSDOF 22
ENDMDL
MODEL 2
REMARK VINA RESULT:    -3.125      2.175      7.705
REMARK INTER + INTRA:          -7.680
REMARK INTER:                  -6.532
REMARK INTRA:                  -1.148
REMARK UNBOUND:                -0.536
REMARK SMILES CCCCCCCCCCCCCCCCCCCCCCCC(=O)[O-]
REMARK SMILES IDX 13 1 14 2 15 3 16 4 17 5 18 6 19 7 20 8 21 9 22 10 23 11
REMARK SMILES IDX 24 12 25 13 26 14 12 15 11 16 10 17 9 18 8 19 7 20 6 21 5 22
REMARK SMILES IDX 4 23 3 24 2 25 1 26
REMARK H PARENT
REMARK Flexibility Score: inf
ROOT
ATOM      1  C   UNL     1       2.390   3.483  10.079  1.00  0.00     0.000 C 
ENDROOT
BRANCH   1   2
ATOM      2  C   UNL     1       1.316   4.559   9.846  1.00  0.00     0.000 C 
BRANCH   2   3
ATOM      3  C   UNL     1       0.029   4.054   9.165  1.00  0.00     0.000 C 
BRANCH   3   4
ATOM      4  C   UNL     1      -1.100   5.097   9.047  1.00  0.00     0.000 C 
BRANCH   4   5
ATOM      5  C   UNL     1      -1.018   6.257  10.056  1.00  0.00     0.000 C 
BRANCH   5   6
ATOM      6  C   UNL     1      -0.864   7.628   9.375  1.00  0.00     0.000 C 
BRANCH   6   7
ATOM      7  C   UNL     1       0.105   8.557  10.123  1.00  0.00     0.000 C 
BRANCH   7   8
ATOM      8  C   UNL     1       1.318   8.961   9.271  1.00  0.00     0.000 C 
BRANCH   8   9
ATOM      9  C   UNL     1       1.545  10.479   9.335  1.00  0.00     0.000 C 
BRANCH   9  10
ATOM     10  C   UNL     1       2.320  11.018   8.123  1.00  0.00     0.006 C 
BRANCH  10  11
ATOM     11  C   UNL     1       2.550  12.534   8.191  1.00  0.00     0.053 C 
BRANCH  11  12
ATOM     12  C   UNL     1       3.919  12.883   7.697  1.00  0.00     0.041 C 
ATOM     13  O   UNL     1       4.185  14.065   7.352  1.00  0.00    -0.550 OA
ATOM     14  O   UNL     1       4.899  11.902   7.605  1.00  0.00    -0.550 OA
ENDBRANCH  11  12
ENDBRANCH  10  11
ENDBRANCH   9  10
ENDBRANCH   8   9
ENDBRANCH   7   8
ENDBRANCH   6   7
ENDBRANCH   5   6
ENDBRANCH   4   5
ENDBRANCH   3   4
ENDBRANCH   2   3
ENDBRANCH   1   2
BRANCH   1  15
ATOM     15  C   UNL     1       2.452   2.447   8.947  1.00  0.00     0.000 C 
BRANCH  15  16
ATOM     16  C   UNL     1       3.904   2.123   8.575  1.00  0.00     0.000 C 
BRANCH  16  17
ATOM     17  C   UNL     1       4.888   2.888   9.475  1.00  0.00     0.000 C 
BRANCH  17  18
ATOM     18  C   UNL     1       6.288   3.014   8.854  1.00  0.00    -0.000 C 
BRANCH  18  19
ATOM     19  C   UNL     1       7.336   3.532   9.853  1.00  0.00    -0.000 C 
BRANCH  19  20
ATOM     20  C   UNL     1       7.332   5.066   9.979  1.00  0.00    -0.000 C 
BRANCH  20  21
ATOM     21  C   UNL     1       8.656   5.755   9.602  1.00  0.00    -0.000 C 
BRANCH  21  22
ATOM     22  C   UNL     1       8.577   6.519   8.268  1.00  0.00    -0.000 C 
BRANCH  22  23
ATOM     23  C   UNL     1       9.401   7.818   8.294  1.00  0.00    -0.000 C 
BRANCH  23  24
ATOM     24  C   UNL     1      10.798   7.635   8.926  1.00  0.00    -0.000 C 
BRANCH  24  25
ATOM     25  C   UNL     1      11.666   6.591   8.206  1.00  0.00    -0.003 C 
ATOM     26  C   UNL     1      12.764   6.015   9.097  1.00  0.00     0.004 C 
ENDBRANCH  24  25
ENDBRANCH  23  24
ENDBRANCH  22  23
ENDBRANCH  21  22
ENDBRANCH  20  21
ENDBRANCH  19  20
ENDBRANCH  18  19
ENDBRANCH  17  18
ENDBRANCH  16  17
ENDBRANCH  15  16
ENDBRANCH   1  15
TORSDOF 22
ENDMDL
MODEL 3
REMARK VINA RESULT:    -3.069      1.319      2.083
REMARK INTER + INTRA:          -7.553
REMARK INTER:                  -7.715
REMARK INTRA:                   0.162
REMARK UNBOUND:                -0.536
REMARK SMILES CCCCCCCCCCCCCCCCCCCCCCCC(=O)[O-]
REMARK SMILES IDX 13 1 14 2 15 3 16 4 17 5 18 6 19 7 20 8 21 9 22 10 23 11
REMARK SMILES IDX 24 12 25 13 26 14 12 15 11 16 10 17 9 18 8 19 7 20 6 21 5 22
REMARK SMILES IDX 4 23 3 24 2 25 1 26
REMARK H PARENT
REMARK Flexibility Score: inf
ROOT
ATOM      1  C   UNL     1       7.750   2.783   9.397  1.00  0.00     0.000 C 
ENDROOT
BRANCH   1   2
ATOM      2  C   UNL     1       8.403   4.004  10.067  1.00  0.00     0.000 C 
BRANCH   2   3
ATOM      3  C   UNL     1       8.150   5.347   9.353  1.00  0.00     0.000 C 
BRANCH   3   4
ATOM      4  C   UNL     1       9.087   6.496   9.775  1.00  0.00     0.000 C 
BRANCH   4   5
ATOM      5  C   UNL     1       8.803   7.846   9.092  1.00  0.00     0.000 C 
BRANCH   5   6
ATOM      6  C   UNL     1       7.614   8.593   9.721  1.00  0.00     0.000 C 
BRANCH   6   7
ATOM      7  C   UNL     1       7.654  10.106   9.454  1.00  0.00     0.000 C 
BRANCH   7   8
ATOM      8  C   UNL     1       6.258  10.745   9.445  1.00  0.00     0.000 C 
BRANCH   8   9
ATOM      9  C   UNL     1       6.011  11.495   8.126  1.00  0.00     0.000 C 
BRANCH   9  10
ATOM     10  C   UNL     1       5.523  12.936   8.341  1.00  0.00     0.006 C 
BRANCH  10  11
ATOM     11  C   UNL     1       4.386  13.326   7.387  1.00  0.00     0.053 C 
BRANCH  11  12
ATOM     12  C   UNL     1       3.642  12.110   6.928  1.00  0.00     0.041 C 
ATOM     13  O   UNL     1       2.846  11.523   7.707  1.00  0.00    -0.550 OA
ATOM     14  O   UNL     1       3.837  11.617   5.643  1.00  0.00    -0.550 OA
ENDBRANCH  11  12
ENDBRANCH  10  11
ENDBRANCH   9  10
ENDBRANCH   8   9
ENDBRANCH   7   8
ENDBRANCH   6   7
ENDBRANCH   5   6
ENDBRANCH   4   5
ENDBRANCH   3   4
ENDBRANCH   2   3
ENDBRANCH   1   2
BRANCH   1  15
ATOM     15  C   UNL     1       6.251   2.981   9.128  1.00  0.00     0.000 C 
BRANCH  15  16
ATOM     16  C   UNL     1       5.803   2.186   7.894  1.00  0.00     0.000 C 
BRANCH  16  17
ATOM     17  C   UNL     1       4.270   2.147   7.789  1.00  0.00     0.000 C 
BRANCH  17  18
ATOM     18  C   UNL     1       3.589   1.840   9.133  1.00  0.00    -0.000 C 
BRANCH  18  19
ATOM     19  C   UNL     1       3.675   3.013  10.123  1.00  0.00    -0.000 C 
BRANCH  19  20
ATOM     20  C   UNL     1       2.464   3.958  10.033  1.00  0.00    -0.000 C 
BRANCH  20  21
ATOM     21  C   UNL     1       1.202   3.344   9.401  1.00  0.00    -0.000 C 
BRANCH  21  22
ATOM     22  C   UNL     1       0.138   4.397   9.039  1.00  0.00    -0.000 C 
BRANCH  22  23
ATOM     23  C   UNL     1      -1.268   3.784   8.922  1.00  0.00    -0.000 C 
BRANCH  23  24
ATOM     24  C   UNL     1      -2.329   4.792   8.429  1.00  0.00    -0.000 C 
BRANCH  24  25
ATOM     25  C   UNL     1      -2.940   5.638   9.557  1.00  0.00    -0.003 C 
ATOM     26  C   UNL     1      -1.986   6.710  10.080  1.00  0.00     0.004 C 
ENDBRANCH  24  25
ENDBRANCH  23  24
ENDBRANCH  22  23
ENDBRANCH  21  22
ENDBRANCH  20  21
ENDBRANCH  19  20
ENDBRANCH  18  19
ENDBRANCH  17  18
ENDBRANCH  16  17
ENDBRANCH  15  16
ENDBRANCH   1  15
TORSDOF 22
ENDMDL
MODEL 4
REMARK VINA RESULT:    -3.045      2.938      6.721
REMARK INTER + INTRA:          -7.497
REMARK INTER:                  -6.826
REMARK INTRA:                  -0.671
REMARK UNBOUND:                -0.536
REMARK SMILES CCCCCCCCCCCCCCCCCCCCCCCC(=O)[O-]
REMARK SMILES IDX 13 1 14 2 15 3 16 4 17 5 18 6 19 7 20 8 21 9 22 10 23 11
REMARK SMILES IDX 24 12 25 13 26 14 12 15 11 16 10 17 9 18 8 19 7 20 6 21 5 22
REMARK SMILES IDX 4 23 3 24 2 25 1 26
REMARK H PARENT
REMARK Flexibility Score: inf
ROOT
ATOM      1  C   UNL     1       8.222   9.304   8.891  1.00  0.00     0.000 C 
ENDROOT
BRANCH   1   2
ATOM      2  C   UNL     1       6.945   9.976   8.359  1.00  0.00     0.000 C 
BRANCH   2   3
ATOM      3  C   UNL     1       6.804  11.470   8.713  1.00  0.00     0.000 C 
BRANCH   3   4
ATOM      4  C   UNL     1       5.880  12.277   7.780  1.00  0.00     0.000 C 
BRANCH   4   5
ATOM      5  C   UNL     1       5.451  13.651   8.324  1.00  0.00     0.000 C 
BRANCH   5   6
ATOM      6  C   UNL     1       4.060  14.081   7.827  1.00  0.00     0.000 C 
BRANCH   6   7
ATOM      7  C   UNL     1       3.013  14.122   8.952  1.00  0.00     0.000 C 
BRANCH   7   8
ATOM      8  C   UNL     1       1.696  13.433   8.564  1.00  0.00     0.000 C 
BRANCH   8   9
ATOM      9  C   UNL     1       1.021  12.816   9.799  1.00  0.00     0.000 C 
BRANCH   9  10
ATOM     10  C   UNL     1       1.538  11.406  10.120  1.00  0.00     0.006 C 
BRANCH  10  11
ATOM     11  C   UNL     1       2.380  10.809   8.983  1.00  0.00     0.053 C 
BRANCH  11  12
ATOM     12  C   UNL     1       1.639   9.699   8.305  1.00  0.00     0.041 C 
ATOM     13  O   UNL     1       1.950   9.353   7.134  1.00  0.00    -0.550 OA
ATOM     14  O   UNL     1       0.597   9.053   8.959  1.00  0.00    -0.550 OA
ENDBRANCH  11  12
ENDBRANCH  10  11
ENDBRANCH   9  10
ENDBRANCH   8   9
ENDBRANCH   7   8
ENDBRANCH   6   7
ENDBRANCH   5   6
ENDBRANCH   4   5
ENDBRANCH   3   4
ENDBRANCH   2   3
ENDBRANCH   1   2
BRANCH   1  15
ATOM     15  C   UNL     1       9.075   8.677   7.777  1.00  0.00     0.000 C 
BRANCH  15  16
ATOM     16  C   UNL     1       9.359   7.198   8.067  1.00  0.00     0.000 C 
BRANCH  16  17
ATOM     17  C   UNL     1      10.839   6.862   7.826  1.00  0.00     0.000 C 
BRANCH  17  18
ATOM     18  C   UNL     1      11.659   6.819   9.126  1.00  0.00    -0.000 C 
BRANCH  18  19
ATOM     19  C   UNL     1      11.364   5.569   9.971  1.00  0.00    -0.000 C 
BRANCH  19  20
ATOM     20  C   UNL     1       9.857   5.296  10.125  1.00  0.00    -0.000 C 
BRANCH  20  21
ATOM     21  C   UNL     1       9.425   3.845   9.846  1.00  0.00    -0.000 C 
BRANCH  21  22
ATOM     22  C   UNL     1       7.896   3.661   9.859  1.00  0.00    -0.000 C 
BRANCH  22  23
ATOM     23  C   UNL     1       7.490   2.179   9.786  1.00  0.00    -0.000 C 
BRANCH  23  24
ATOM     24  C   UNL     1       6.160   1.951   9.034  1.00  0.00    -0.000 C 
BRANCH  24  25
ATOM     25  C   UNL     1       5.199   3.148   9.114  1.00  0.00    -0.003 C 
ATOM     26  C   UNL     1       4.074   3.076   8.084  1.00  0.00     0.004 C 
ENDBRANCH  24  25
ENDBRANCH  23  24
ENDBRANCH  22  23
ENDBRANCH  21  22
ENDBRANCH  20  21
ENDBRANCH  19  20
ENDBRANCH  18  19
ENDBRANCH  17  18
ENDBRANCH  16  17
ENDBRANCH  15  16
ENDBRANCH   1  15
TORSDOF 22
ENDMDL
MODEL 5
REMARK VINA RESULT:    -3.005      3.972      9.928
REMARK INTER + INTRA:          -7.406
REMARK INTER:                  -6.647
REMARK INTRA:                  -0.758
REMARK UNBOUND:                -0.536
REMARK SMILES CCCCCCCCCCCCCCCCCCCCCCCC(=O)[O-]
REMARK SMILES IDX 13 1 14 2 15 3 16 4 17 5 18 6 19 7 20 8 21 9 22 10 23 11
REMARK SMILES IDX 24 12 25 13 26 14 12 15 11 16 10 17 9 18 8 19 7 20 6 21 5 22
REMARK SMILES IDX 4 23 3 24 2 25 1 26
REMARK H PARENT
REMARK Flexibility Score: inf
ROOT
ATOM      1  C   UNL     1       3.918  11.485   7.053  1.00  0.00     0.000 C 
ENDROOT
BRANCH   1   2
ATOM      2  C   UNL     1       2.599  10.730   7.294  1.00  0.00     0.000 C 
BRANCH   2   3
ATOM      3  C   UNL     1       1.916  11.033   8.642  1.00  0.00     0.000 C 
BRANCH   3   4
ATOM      4  C   UNL     1       1.236   9.824   9.315  1.00  0.00     0.000 C 
BRANCH   4   5
ATOM      5  C   UNL     1       2.180   8.918  10.125  1.00  0.00     0.000 C 
BRANCH   5   6
ATOM      6  C   UNL     1       1.835   7.425   9.986  1.00  0.00     0.000 C 
BRANCH   6   7
ATOM      7  C   UNL     1       3.067   6.516  10.125  1.00  0.00     0.000 C 
BRANCH   7   8
ATOM      8  C   UNL     1       2.735   5.030   9.924  1.00  0.00     0.000 C 
BRANCH   8   9
ATOM      9  C   UNL     1       3.799   4.348   9.050  1.00  0.00     0.000 C 
BRANCH   9  10
ATOM     10  C   UNL     1       4.009   2.870   9.409  1.00  0.00     0.006 C 
BRANCH  10  11
ATOM     11  C   UNL     1       3.711   1.926   8.236  1.00  0.00     0.053 C 
BRANCH  11  12
ATOM     12  C   UNL     1       4.725   0.826   8.172  1.00  0.00     0.041 C 
ATOM     13  O   UNL     1       5.199   0.466   7.062  1.00  0.00    -0.550 OA
ATOM     14  O   UNL     1       5.140   0.191   9.336  1.00  0.00    -0.550 OA
ENDBRANCH  11  12
ENDBRANCH  10  11
ENDBRANCH   9  10
ENDBRANCH   8   9
ENDBRANCH   7   8
ENDBRANCH   6   7
ENDBRANCH   5   6
ENDBRANCH   4   5
ENDBRANCH   3   4
ENDBRANCH   2   3
ENDBRANCH   1   2
BRANCH   1  15
ATOM     15  C   UNL     1       3.712  12.842   6.364  1.00  0.00     0.000 C 
BRANCH  15  16
ATOM     16  C   UNL     1       4.370  13.972   7.164  1.00  0.00     0.000 C 
BRANCH  16  17
ATOM     17  C   UNL     1       4.290  13.698   8.675  1.00  0.00     0.000 C 
BRANCH  17  18
ATOM     18  C   UNL     1       5.466  12.854   9.190  1.00  0.00    -0.000 C 
BRANCH  18  19
ATOM     19  C   UNL     1       5.008  11.595   9.944  1.00  0.00    -0.000 C 
BRANCH  19  20
ATOM     20  C   UNL     1       6.136  10.564  10.124  1.00  0.00    -0.000 C 
BRANCH  20  21
ATOM     21  C   UNL     1       7.339  10.742   9.180  1.00  0.00    -0.000 C 
BRANCH  21  22
ATOM     22  C   UNL     1       8.426   9.671   9.385  1.00  0.00    -0.000 C 
BRANCH  22  23
ATOM     23  C   UNL     1       8.446   8.639   8.244  1.00  0.00    -0.000 C 
BRANCH  23  24
ATOM     24  C   UNL     1       8.671   7.193   8.738  1.00  0.00    -0.000 C 
BRANCH  24  25
ATOM     25  C   UNL     1      10.131   6.894   9.114  1.00  0.00    -0.003 C 
ATOM     26  C   UNL     1      10.376   5.418   9.420  1.00  0.00     0.004 C 
ENDBRANCH  24  25
ENDBRANCH  23  24
ENDBRANCH  22  23
ENDBRANCH  21  22
ENDBRANCH  20  21
ENDBRANCH  19  20
ENDBRANCH  18  19
ENDBRANCH  17  18
ENDBRANCH  16  17
ENDBRANCH  15  16
ENDBRANCH   1  15
TORSDOF 22
ENDMDL
MODEL 6
REMARK VINA RESULT:    -2.861      4.031      8.544
REMARK INTER + INTRA:          -7.077
REMARK INTER:                  -6.091
REMARK INTRA:                  -0.986
REMARK UNBOUND:                -0.536
REMARK SMILES CCCCCCCCCCCCCCCCCCCCCCCC(=O)[O-]
REMARK SMILES IDX 13 1 14 2 15 3 16 4 17 5 18 6 19 7 20 8 21 9 22 10 23 11
REMARK SMILES IDX 24 12 25 13 26 14 12 15 11 16 10 17 9 18 8 19 7 20 6 21 5 22
REMARK SMILES IDX 4 23 3 24 2 25 1 26
REMARK H PARENT
REMARK Flexibility Score: inf
ROOT
ATOM      1  C   UNL     1       8.311   9.957  10.111  1.00  0.00     0.000 C 
ENDROOT
BRANCH   1   2
ATOM      2  C   UNL     1       9.609   9.149   9.943  1.00  0.00     0.000 C 
BRANCH   2   3
ATOM      3  C   UNL     1       9.808   8.525   8.547  1.00  0.00     0.000 C 
BRANCH   3   4
ATOM      4  C   UNL     1       8.722   7.516   8.123  1.00  0.00     0.000 C 
BRANCH   4   5
ATOM      5  C   UNL     1       9.240   6.099   7.816  1.00  0.00     0.000 C 
BRANCH   5   6
ATOM      6  C   UNL     1      10.269   5.606   8.847  1.00  0.00     0.000 C 
BRANCH   6   7
ATOM      7  C   UNL     1       9.613   5.058  10.125  1.00  0.00     0.000 C 
BRANCH   7   8
ATOM      8  C   UNL     1       8.084   4.973  10.018  1.00  0.00     0.000 C 
BRANCH   8   9
ATOM      9  C   UNL     1       7.629   3.512   9.877  1.00  0.00     0.000 C 
BRANCH   9  10
ATOM     10  C   UNL     1       6.435   3.347   8.924  1.00  0.00     0.006 C 
BRANCH  10  11
ATOM     11  C   UNL     1       5.832   1.937   8.966  1.00  0.00     0.053 C 
BRANCH  11  12
ATOM     12  C   UNL     1       5.047   1.661   7.721  1.00  0.00     0.041 C 
ATOM     13  O   UNL     1       5.398   0.733   6.945  1.00  0.00    -0.550 OA
ATOM     14  O   UNL     1       3.936   2.435   7.410  1.00  0.00    -0.550 OA
ENDBRANCH  11  12
ENDBRANCH  10  11
ENDBRANCH   9  10
ENDBRANCH   8   9
ENDBRANCH   7   8
ENDBRANCH   6   7
ENDBRANCH   5   6
ENDBRANCH   4   5
ENDBRANCH   3   4
ENDBRANCH   2   3
ENDBRANCH   1   2
BRANCH   1  15
ATOM     15  C   UNL     1       7.579  10.193   8.781  1.00  0.00     0.000 C 
BRANCH  15  16
ATOM     16  C   UNL     1       6.495  11.268   8.933  1.00  0.00     0.000 C 
BRANCH  16  17
ATOM     17  C   UNL     1       6.634  12.349   7.849  1.00  0.00     0.000 C 
BRANCH  17  18
ATOM     18  C   UNL     1       5.355  13.182   7.672  1.00  0.00    -0.000 C 
BRANCH  18  19
ATOM     19  C   UNL     1       4.171  12.347   7.155  1.00  0.00    -0.000 C 
BRANCH  19  20
ATOM     20  C   UNL     1       2.847  13.132   7.149  1.00  0.00    -0.000 C 
BRANCH  20  21
ATOM     21  C   UNL     1       2.613  14.028   8.379  1.00  0.00    -0.000 C 
BRANCH  21  22
ATOM     22  C   UNL     1       1.774  13.341   9.472  1.00  0.00    -0.000 C 
BRANCH  22  23
ATOM     23  C   UNL     1       2.475  12.098  10.045  1.00  0.00    -0.000 C 
BRANCH  23  24
ATOM     24  C   UNL     1       1.550  10.863  10.124  1.00  0.00    -0.000 C 
BRANCH  24  25
ATOM     25  C   UNL     1       1.890   9.776   9.093  1.00  0.00    -0.003 C 
ATOM     26  C   UNL     1       0.888   8.624   9.092  1.00  0.00     0.004 C 
ENDBRANCH  24  25
ENDBRANCH  23  24
ENDBRANCH  22  23
ENDBRANCH  21  22
ENDBRANCH  20  21
ENDBRANCH  19  20
ENDBRANCH  18  19
ENDBRANCH  17  18
ENDBRANCH  16  17
ENDBRANCH  15  16
ENDBRANCH   1  15
TORSDOF 22
ENDMDL
MODEL 7
REMARK VINA RESULT:    -2.854      2.065      8.896
REMARK INTER + INTRA:          -7.061
REMARK INTER:                  -6.003
REMARK INTRA:                  -1.059
REMARK UNBOUND:                -0.536
REMARK SMILES CCCCCCCCCCCCCCCCCCCCCCCC(=O)[O-]
REMARK SMILES IDX 13 1 14 2 15 3 16 4 17 5 18 6 19 7 20 8 21 9 22 10 23 11
REMARK SMILES IDX 24 12 25 13 26 14 12 15 11 16 10 17 9 18 8 19 7 20 6 21 5 22
REMARK SMILES IDX 4 23 3 24 2 25 1 26
REMARK H PARENT
REMARK Flexibility Score: inf
ROOT
ATOM      1  C   UNL     1       5.607   2.695   9.165  1.00  0.00     0.000 C 
ENDROOT
BRANCH   1   2
ATOM      2  C   UNL     1       4.403   3.198   8.350  1.00  0.00     0.000 C 
BRANCH   2   3
ATOM      3  C   UNL     1       3.484   4.187   9.094  1.00  0.00     0.000 C 
BRANCH   3   4
ATOM      4  C   UNL     1       2.008   3.756   9.196  1.00  0.00     0.000 C 
BRANCH   4   5
ATOM      5  C   UNL     1       1.761   2.486  10.030  1.00  0.00     0.000 C 
BRANCH   5   6
ATOM      6  C   UNL     1       0.993   1.404   9.252  1.00  0.00     0.000 C 
BRANCH   6   7
ATOM      7  C   UNL     1      -0.503   1.367   9.604  1.00  0.00     0.000 C 
BRANCH   7   8
ATOM      8  C   UNL     1      -1.024   2.715  10.122  1.00  0.00     0.000 C 
BRANCH   8   9
ATOM      9  C   UNL     1      -1.718   3.499   8.997  1.00  0.00     0.000 C 
BRANCH   9  10
ATOM     10  C   UNL     1      -2.514   4.707   9.513  1.00  0.00     0.006 C 
BRANCH  10  11
ATOM     11  C   UNL     1      -2.281   5.973   8.678  1.00  0.00     0.053 C 
BRANCH  11  12
ATOM     12  C   UNL     1      -1.129   6.759   9.223  1.00  0.00     0.041 C 
ATOM     13  O   UNL     1      -0.160   6.168   9.768  1.00  0.00    -0.550 OA
ATOM     14  O   UNL     1      -1.130   8.147   9.140  1.00  0.00    -0.550 OA
ENDBRANCH  11  12
ENDBRANCH  10  11
ENDBRANCH   9  10
ENDBRANCH   8   9
ENDBRANCH   7   8
ENDBRANCH   6   7
ENDBRANCH   5   6
ENDBRANCH   4   5
ENDBRANCH   3   4
ENDBRANCH   2   3
ENDBRANCH   1   2
BRANCH   1  15
ATOM     15  C   UNL     1       6.163   3.758  10.124  1.00  0.00     0.000 C 
BRANCH  15  16
ATOM     16  C   UNL     1       7.566   4.206   9.696  1.00  0.00     0.000 C 
BRANCH  16  17
ATOM     17  C   UNL     1       7.531   5.610   9.071  1.00  0.00     0.000 C 
BRANCH  17  18
ATOM     18  C   UNL     1       8.860   5.999   8.405  1.00  0.00    -0.000 C 
BRANCH  18  19
ATOM     19  C   UNL     1       9.242   7.467   8.656  1.00  0.00    -0.000 C 
BRANCH  19  20
ATOM     20  C   UNL     1       8.721   7.995  10.005  1.00  0.00    -0.000 C 
BRANCH  20  21
ATOM     21  C   UNL     1       7.436   8.837   9.924  1.00  0.00    -0.000 C 
BRANCH  21  22
ATOM     22  C   UNL     1       7.713  10.339   9.728  1.00  0.00    -0.000 C 
BRANCH  22  23
ATOM     23  C   UNL     1       6.924  10.924   8.543  1.00  0.00    -0.000 C 
BRANCH  23  24
ATOM     24  C   UNL     1       6.003  12.096   8.949  1.00  0.00    -0.000 C 
BRANCH  24  25
ATOM     25  C   UNL     1       4.776  12.255   8.037  1.00  0.00    -0.003 C 
ATOM     26  C   UNL     1       4.873  11.423   6.760  1.00  0.00     0.004 C 
ENDBRANCH  24  25
ENDBRANCH  23  24
ENDBRANCH  22  23
ENDBRANCH  21  22
ENDBRANCH  20  21
ENDBRANCH  19  20
ENDBRANCH  18  19
ENDBRANCH  17  18
ENDBRANCH  16  17
ENDBRANCH  15  16
ENDBRANCH   1  15
TORSDOF 22
ENDMDL
MODEL 8
REMARK VINA RESULT:    -2.730      1.833      7.510
REMARK INTER + INTRA:          -6.777
REMARK INTER:                  -5.720
REMARK INTRA:                  -1.057
REMARK UNBOUND:                -0.536
REMARK SMILES CCCCCCCCCCCCCCCCCCCCCCCC(=O)[O-]
REMARK SMILES IDX 13 1 14 2 15 3 16 4 17 5 18 6 19 7 20 8 21 9 22 10 23 11
REMARK SMILES IDX 24 12 25 13 26 14 12 15 11 16 10 17 9 18 8 19 7 20 6 21 5 22
REMARK SMILES IDX 4 23 3 24 2 25 1 26
REMARK H PARENT
REMARK Flexibility Score: inf
ROOT
ATOM      1  C   UNL     1       4.195   2.128   8.937  1.00  0.00     0.000 C 
ENDROOT
BRANCH   1   2
ATOM      2  C   UNL     1       3.109   1.815   9.980  1.00  0.00     0.000 C 
BRANCH   2   3
ATOM      3  C   UNL     1       1.691   1.631   9.405  1.00  0.00     0.000 C 
BRANCH   3   4
ATOM      4  C   UNL     1       0.646   2.649   9.903  1.00  0.00     0.000 C 
BRANCH   4   5
ATOM      5  C   UNL     1       0.461   3.882   9.000  1.00  0.00     0.000 C 
BRANCH   5   6
ATOM      6  C   UNL     1       1.400   5.041   9.377  1.00  0.00     0.000 C 
BRANCH   6   7
ATOM      7  C   UNL     1       0.644   6.270   9.905  1.00  0.00     0.000 C 
BRANCH   7   8
ATOM      8  C   UNL     1       1.561   7.483  10.124  1.00  0.00     0.000 C 
BRANCH   8   9
ATOM      9  C   UNL     1       1.046   8.702   9.343  1.00  0.00     0.000 C 
BRANCH   9  10
ATOM     10  C   UNL     1       1.449  10.037   9.985  1.00  0.00     0.006 C 
BRANCH  10  11
ATOM     11  C   UNL     1       2.095  11.006   8.985  1.00  0.00     0.053 C 
BRANCH  11  12
ATOM     12  C   UNL     1       1.661  12.413   9.259  1.00  0.00     0.041 C 
ATOM     13  O   UNL     1       2.392  13.379   8.914  1.00  0.00    -0.550 OA
ATOM     14  O   UNL     1       0.455  12.659   9.904  1.00  0.00    -0.550 OA
ENDBRANCH  11  12
ENDBRANCH  10  11
ENDBRANCH   9  10
ENDBRANCH   8   9
ENDBRANCH   7   8
ENDBRANCH   6   7
ENDBRANCH   5   6
ENDBRANCH   4   5
ENDBRANCH   3   4
ENDBRANCH   2   3
ENDBRANCH   1   2
BRANCH   1  15
ATOM     15  C   UNL     1       5.492   2.658   9.567  1.00  0.00     0.000 C 
BRANCH  15  16
ATOM     16  C   UNL     1       6.656   2.588   8.571  1.00  0.00     0.000 C 
BRANCH  16  17
ATOM     17  C   UNL     1       7.938   2.084   9.254  1.00  0.00     0.000 C 
BRANCH  17  18
ATOM     18  C   UNL     1       8.667   3.186  10.039  1.00  0.00    -0.000 C 
BRANCH  18  19
ATOM     19  C   UNL     1       8.266   4.600   9.586  1.00  0.00    -0.000 C 
BRANCH  19  20
ATOM     20  C   UNL     1       9.408   5.620   9.739  1.00  0.00    -0.000 C 
BRANCH  20  21
ATOM     21  C   UNL     1       9.708   6.457   8.482  1.00  0.00    -0.000 C 
BRANCH  21  22
ATOM     22  C   UNL     1       9.083   7.864   8.534  1.00  0.00    -0.000 C 
BRANCH  22  23
ATOM     23  C   UNL     1       8.154   8.041   9.747  1.00  0.00    -0.000 C 
BRANCH  23  24
ATOM     24  C   UNL     1       7.454   9.418   9.778  1.00  0.00    -0.000 C 
BRANCH  24  25
ATOM     25  C   UNL     1       7.204  10.009   8.383  1.00  0.00    -0.003 C 
ATOM     26  C   UNL     1       6.537  11.382   8.430  1.00  0.00     0.004 C 
ENDBRANCH  24  25
ENDBRANCH  23  24
ENDBRANCH  22  23
ENDBRANCH  21  22
ENDBRANCH  20  21
ENDBRANCH  19  20
ENDBRANCH  18  19
ENDBRANCH  17  18
ENDBRANCH  16  17
ENDBRANCH  15  16
ENDBRANCH   1  15
TORSDOF 22
ENDMDL
MODEL 9
REMARK VINA RESULT:    -2.713      6.249     12.063
REMARK INTER + INTRA:          -6.738
REMARK INTER:                  -5.974
REMARK INTRA:                  -0.763
REMARK UNBOUND:                -0.536
REMARK SMILES CCCCCCCCCCCCCCCCCCCCCCCC(=O)[O-]
REMARK SMILES IDX 13 1 14 2 15 3 16 4 17 5 18 6 19 7 20 8 21 9 22 10 23 11
REMARK SMILES IDX 24 12 25 13 26 14 12 15 11 16 10 17 9 18 8 19 7 20 6 21 5 22
REMARK SMILES IDX 4 23 3 24 2 25 1 26
REMARK H PARENT
REMARK Flexibility Score: inf
ROOT
ATOM      1  C   UNL     1       6.557   3.216   9.938  1.00  0.00     0.000 C 
ENDROOT
BRANCH   1   2
ATOM      2  C   UNL     1       6.290   1.707  10.059  1.00  0.00     0.000 C 
BRANCH   2   3
ATOM      3  C   UNL     1       5.073   1.198   9.261  1.00  0.00     0.000 C 
BRANCH   3   4
ATOM      4  C   UNL     1       3.931   0.612  10.115  1.00  0.00     0.000 C 
BRANCH   4   5
ATOM      5  C   UNL     1       3.854  -0.926  10.125  1.00  0.00     0.000 C 
BRANCH   5   6
ATOM      6  C   UNL     1       5.240  -1.591  10.062  1.00  0.00     0.000 C 
BRANCH   6   7
ATOM      7  C   UNL     1       5.159  -3.121   9.937  1.00  0.00     0.000 C 
BRANCH   7   8
ATOM      8  C   UNL     1       6.302  -3.710   9.098  1.00  0.00     0.000 C 
BRANCH   8   9
ATOM      9  C   UNL     1       5.770  -4.773   8.124  1.00  0.00     0.000 C 
BRANCH   9  10
ATOM     10  C   UNL     1       6.870  -5.712   7.606  1.00  0.00     0.006 C 
BRANCH  10  11
ATOM     11  C   UNL     1       8.124  -5.703   8.491  1.00  0.00     0.053 C 
BRANCH  11  12
ATOM     12  C   UNL     1       9.363  -5.659   7.652  1.00  0.00     0.041 C 
ATOM     13  O   UNL     1       9.284  -5.415   6.419  1.00  0.00    -0.550 OA
ATOM     14  O   UNL     1      10.605  -5.898   8.228  1.00  0.00    -0.550 OA
ENDBRANCH  11  12
ENDBRANCH  10  11
ENDBRANCH   9  10
ENDBRANCH   8   9
ENDBRANCH   7   8
ENDBRANCH   6   7
ENDBRANCH   5   6
ENDBRANCH   4   5
ENDBRANCH   3   4
ENDBRANCH   2   3
ENDBRANCH   1   2
BRANCH   1  15
ATOM     15  C   UNL     1       8.001   3.535   9.519  1.00  0.00     0.000 C 
BRANCH  15  16
ATOM     16  C   UNL     1       8.435   4.910  10.043  1.00  0.00     0.000 C 
BRANCH  16  17
ATOM     17  C   UNL     1       8.615   5.909   8.889  1.00  0.00     0.000 C 
BRANCH  17  18
ATOM     18  C   UNL     1       9.965   6.643   8.943  1.00  0.00    -0.000 C 
BRANCH  18  19
ATOM     19  C   UNL     1       9.951   7.840   9.907  1.00  0.00    -0.000 C 
BRANCH  19  20
ATOM     20  C   UNL     1       8.585   8.547   9.959  1.00  0.00    -0.000 C 
BRANCH  20  21
ATOM     21  C   UNL     1       8.331   9.560   8.828  1.00  0.00    -0.000 C 
BRANCH  21  22
ATOM     22  C   UNL     1       7.198  10.551   9.152  1.00  0.00    -0.000 C 
BRANCH  22  23
ATOM     23  C   UNL     1       6.536  11.110   7.882  1.00  0.00    -0.000 C 
BRANCH  23  24
ATOM     24  C   UNL     1       5.176  11.789   8.156  1.00  0.00    -0.000 C 
BRANCH  24  25
ATOM     25  C   UNL     1       4.287  11.908   6.908  1.00  0.00    -0.003 C 
ATOM     26  C   UNL     1       3.602  13.269   6.794  1.00  0.00     0.004 C 
ENDBRANCH  24  25
ENDBRANCH  23  24
ENDBRANCH  22  23
ENDBRANCH  21  22
ENDBRANCH  20  21
ENDBRANCH  19  20
ENDBRANCH  18  19
ENDBRANCH  17  18
ENDBRANCH  16  17
ENDBRANCH  15  16
ENDBRANCH   1  15
TORSDOF 22
ENDMDL
