MODEL 1
REMARK VINA RESULT:    -2.573      0.000      0.000
REMARK INTER + INTRA:          -2.573
REMARK INTER:                  -2.573
REMARK INTRA:                   0.000
REMARK UNBOUND:                 0.000
REMARK SMILES CC(=O)[O-]
REMARK SMILES IDX 1 1 2 2 3 3 4 4
REMARK H PARENT
REMARK Flexibility Score: inf
ROOT
ATOM      1  C   UNL     1      83.161  13.775 109.585  1.00  0.00     0.063 C 
ATOM      2  C   UNL     1      83.705  13.879 108.201  1.00  0.00     0.038 C 
ATOM      3  O   UNL     1      83.737  12.865 107.456  1.00  0.00    -0.550 OA
ATOM      4  O   UNL     1      84.227  15.084 107.748  1.00  0.00    -0.550 OA
ENDROOT
TORSDOF 0
ENDMDL
MODEL 2
REMARK VINA RESULT:    -2.496      1.513      2.011
REMARK INTER + INTRA:          -2.496
REMARK INTER:                  -2.496
REMARK INTRA:                   0.000
REMARK UNBOUND:                 0.000
REMARK SMILES CC(=O)[O-]
REMARK SMILES IDX 1 1 2 2 3 3 4 4
REMARK H PARENT
REMARK Flexibility Score: inf
ROOT
ATOM      1  C   UNL     1      83.536  13.024 107.658  1.00  0.00     0.063 C 
ATOM      2  C   UNL     1      84.148  14.163 108.401  1.00  0.00     0.038 C 
ATOM      3  O   UNL     1      84.317  15.272 107.831  1.00  0.00    -0.550 OA
ATOM      4  O   UNL     1      84.584  13.987 109.708  1.00  0.00    -0.550 OA
ENDROOT
TORSDOF 0
ENDMDL
MODEL 3
REMARK VINA RESULT:    -2.425      1.412      1.769
REMARK INTER + INTRA:          -2.425
REMARK INTER:                  -2.425
REMARK INTRA:                   0.000
REMARK UNBOUND:                 0.000
REMARK SMILES CC(=O)[O-]
REMARK SMILES IDX 1 1 2 2 3 3 4 4
REMARK H PARENT
REMARK Flexibility Score: inf
ROOT
ATOM      1  C   UNL     1      84.221  15.048 107.687  1.00  0.00     0.063 C 
ATOM      2  C   UNL     1      83.702  13.776 108.268  1.00  0.00     0.038 C 
ATOM      3  O   UNL     1      83.750  12.711 107.599  1.00  0.00    -0.550 OA
ATOM      4  O   UNL     1      83.116  13.774 109.526  1.00  0.00    -0.550 OA
ENDROOT
TORSDOF 0
ENDMDL
MODEL 4
REMARK VINA RESULT:    -2.311     10.784     11.340
REMARK INTER + INTRA:          -2.311
REMARK INTER:                  -2.311
REMARK INTRA:                   0.000
REMARK UNBOUND:                 0.000
REMARK SMILES CC(=O)[O-]
REMARK SMILES IDX 1 1 2 2 3 3 4 4
REMARK H PARENT
REMARK Flexibility Score: inf
ROOT
ATOM      1  C   UNL     1      91.420  20.462 112.467  1.00  0.00     0.063 C 
ATOM      2  C   UNL     1      90.489  21.592 112.747  1.00  0.00     0.038 C 
ATOM      3  O   UNL     1      90.756  22.419 113.658  1.00  0.00    -0.550 OA
ATOM      4  O   UNL     1      89.299  21.706 112.040  1.00  0.00    -0.550 OA
ENDROOT
TORSDOF 0
ENDMDL
MODEL 5
REMARK VINA RESULT:    -2.298     10.621     11.032
REMARK INTER + INTRA:          -2.298
REMARK INTER:                  -2.298
REMARK INTRA:                   0.000
REMARK UNBOUND:                 0.000
REMARK SMILES CC(=O)[O-]
REMARK SMILES IDX 1 1 2 2 3 3 4 4
REMARK H PARENT
REMARK Flexibility Score: inf
ROOT
ATOM      1  C   UNL     1      90.543  22.233 112.697  1.00  0.00     0.063 C 
ATOM      2  C   UNL     1      90.985  20.829 112.461  1.00  0.00     0.038 C 
ATOM      3  O   UNL     1      90.273  19.868 112.854  1.00  0.00    -0.550 OA
ATOM      4  O   UNL     1      92.209  20.577 111.856  1.00  0.00    -0.550 OA
ENDROOT
TORSDOF 0
ENDMDL
MODEL 6
REMARK VINA RESULT:    -2.248     12.557     13.240
REMARK INTER + INTRA:          -2.248
REMARK INTER:                  -2.248
REMARK INTRA:                   0.000
REMARK UNBOUND:                 0.000
REMARK SMILES CC(=O)[O-]
REMARK SMILES IDX 1 1 2 2 3 3 4 4
REMARK H PARENT
REMARK Flexibility Score: inf
ROOT
ATOM      1  C   UNL     1      82.761  25.766 114.354  1.00  0.00     0.063 C 
ATOM      2  C   UNL     1      82.935  24.778 115.457  1.00  0.00     0.038 C 
ATOM      3  O   UNL     1      83.036  25.172 116.648  1.00  0.00    -0.550 OA
ATOM      4  O   UNL     1      83.040  23.424 115.168  1.00  0.00    -0.550 OA
ENDROOT
TORSDOF 0
ENDMDL
MODEL 7
REMARK VINA RESULT:    -2.156     13.281     13.534
REMARK INTER + INTRA:          -2.156
REMARK INTER:                  -2.156
REMARK INTRA:                   0.000
REMARK UNBOUND:                 0.000
REMARK SMILES CC(=O)[O-]
REMARK SMILES IDX 1 1 2 2 3 3 4 4
REMARK H PARENT
REMARK Flexibility Score: inf
ROOT
ATOM      1  C   UNL     1      83.117  24.872 116.263  1.00  0.00     0.063 C 
ATOM      2  C   UNL     1      82.883  25.584 114.974  1.00  0.00     0.038 C 
ATOM      3  O   UNL     1      81.910  25.263 114.242  1.00  0.00    -0.550 OA
ATOM      4  O   UNL     1      83.769  26.566 114.551  1.00  0.00    -0.550 OA
ENDROOT
TORSDOF 0
ENDMDL
MODEL 8
REMARK VINA RESULT:    -1.813     16.056     16.399
REMARK INTER + INTRA:          -1.813
REMARK INTER:                  -1.813
REMARK INTRA:                   0.000
REMARK UNBOUND:                 0.000
REMARK SMILES CC(=O)[O-]
REMARK SMILES IDX 1 1 2 2 3 3 4 4
REMARK H PARENT
REMARK Flexibility Score: inf
ROOT
ATOM      1  C   UNL     1      94.004  14.338 121.125  1.00  0.00     0.063 C 
ATOM      2  C   UNL     1      94.500  15.537 120.390  1.00  0.00     0.038 C 
ATOM      3  O   UNL     1      93.966  15.876 119.302  1.00  0.00    -0.550 OA
ATOM      4  O   UNL     1      95.586  16.251 120.877  1.00  0.00    -0.550 OA
ENDROOT
TORSDOF 0
ENDMDL
