MODEL 1
REMARK VINA RESULT:    59.415      0.000      0.000
REMARK INTER + INTRA:          88.572
REMARK INTER:                  85.465
REMARK INTRA:                   3.107
REMARK UNBOUND:                 3.107
REMARK SMILES O=c1c(O[C@@H]2O[C@H](CO)[C@H](O)[C@@H](O)[C@@H]2O)c(-c2ccc(O)cc2)oc2cc(O)cc(O)c12
REMARK SMILES IDX 4 1 3 2 16 3 24 4 2 5 25 6 1 7 32 8 26 9 30 10 27 11 29 12
REMARK SMILES IDX 17 13 18 14 19 15 20 16 23 17 22 18 21 19 31 21 28 23 5 25
REMARK SMILES IDX 14 26 6 27 12 28 7 29 10 30 15 31 13 33 8 35 9 36 11 38
REMARK H PARENT 21 20 31 22 28 24 15 32 13 34 9 37 11 39
REMARK Flexibility Score: inf
ROOT
ATOM      1  O   UNL     1       1.536  -2.125  -0.646  1.00  0.00    -0.454 OA
ENDROOT
BRANCH   1   2
ATOM      2  C   UNL     1       1.273  -1.444   0.558  1.00  0.00     0.214 A 
ATOM      3  C   UNL     1       2.363  -1.067   1.365  1.00  0.00     0.180 A 
ATOM      4  O   UNL     1       2.161  -0.367   2.473  1.00  0.00    -0.452 OA
ATOM      5  C   UNL     1      -0.029  -1.098   0.986  1.00  0.00     0.239 A 
ATOM      6  C   UNL     1       0.958  -0.022   2.912  1.00  0.00     0.146 A 
ATOM      7  O   UNL     1      -1.013  -1.386   0.260  1.00  0.00    -0.285 OA
ATOM      8  C   UNL     1      -0.211  -0.411   2.210  1.00  0.00     0.111 A 
ATOM      9  C   UNL     1       0.868   0.740   4.079  1.00  0.00     0.094 A 
ATOM     10  C   UNL     1      -1.481  -0.055   2.758  1.00  0.00     0.134 A 
ATOM     11  C   UNL     1      -0.374   1.136   4.571  1.00  0.00     0.123 A 
ATOM     12  C   UNL     1      -1.538   0.742   3.908  1.00  0.00     0.093 A 
BRANCH   3  13
ATOM     13  C   UNL     1       3.760  -1.379   0.987  1.00  0.00     0.021 A 
ATOM     14  C   UNL     1       4.203  -1.096  -0.315  1.00  0.00     0.016 A 
ATOM     15  C   UNL     1       5.519  -1.381  -0.693  1.00  0.00     0.047 A 
ATOM     16  C   UNL     1       6.411  -1.938   0.232  1.00  0.00     0.115 A 
ATOM     17  C   UNL     1       4.668  -1.915   1.916  1.00  0.00     0.016 A 
ATOM     18  C   UNL     1       5.982  -2.201   1.536  1.00  0.00     0.047 A 
BRANCH  16  19
ATOM     19  O   UNL     1       7.724  -2.229  -0.133  1.00  0.00    -0.508 OA
ATOM     20  H   UNL     1       8.208  -1.688  -0.839  1.00  0.00     0.293 HD
ENDBRANCH  16  19
ENDBRANCH   3  13
BRANCH  10  21
ATOM     21  O   UNL     1      -2.705  -0.478   2.232  1.00  0.00    -0.507 OA
ATOM     22  H   UNL     1      -2.813  -1.000   1.375  1.00  0.00     0.293 HD
ENDBRANCH  10  21
BRANCH  11  23
ATOM     23  O   UNL     1      -0.440   1.915   5.723  1.00  0.00    -0.508 OA
ATOM     24  H   UNL     1      -0.479   2.927   5.678  1.00  0.00     0.293 HD
ENDBRANCH  11  23
ENDBRANCH   1   2
BRANCH   1  25
ATOM     25  C   UNL     1       1.369  -3.524  -0.887  1.00  0.00     0.339 C 
ATOM     26  C   UNL     1       0.196  -4.069  -0.051  1.00  0.00     0.214 C 
ATOM     27  O   UNL     1       1.222  -3.815  -2.273  1.00  0.00    -0.332 OA
ATOM     28  C   UNL     1      -1.131  -3.516  -0.574  1.00  0.00     0.180 C 
ATOM     29  C   UNL     1       0.008  -3.345  -2.846  1.00  0.00     0.179 C 
ATOM     30  C   UNL     1      -1.247  -3.825  -2.074  1.00  0.00     0.177 C 
BRANCH  26  31
ATOM     31  O   UNL     1       0.353  -3.704   1.296  1.00  0.00    -0.384 OA
ATOM     32  H   UNL     1       1.121  -3.075   1.336  1.00  0.00     0.211 HD
ENDBRANCH  26  31
BRANCH  28  33
ATOM     33  O   UNL     1      -2.186  -4.124   0.126  1.00  0.00    -0.387 OA
ATOM     34  H   UNL     1      -2.263  -5.053  -0.216  1.00  0.00     0.211 HD
ENDBRANCH  28  33
BRANCH  29  35
ATOM     35  C   UNL     1       0.051  -1.825  -3.125  1.00  0.00     0.191 C 
BRANCH  35  36
ATOM     36  O   UNL     1      -1.059  -1.181  -2.557  1.00  0.00    -0.394 OA
ATOM     37  H   UNL     1      -0.942  -0.210  -2.726  1.00  0.00     0.210 HD
ENDBRANCH  35  36
ENDBRANCH  29  35
BRANCH  30  38
ATOM     38  O   UNL     1      -2.402  -3.228  -2.608  1.00  0.00    -0.387 OA
ATOM     39  H   UNL     1      -2.158  -2.301  -2.867  1.00  0.00     0.211 HD
ENDBRANCH  30  38
ENDBRANCH   1  25
TORSDOF 11
ENDMDL
MODEL 2
REMARK VINA RESULT:    59.791      3.669      4.047
REMARK INTER + INTRA:          89.113
REMARK INTER:                  88.340
REMARK INTRA:                   0.772
REMARK UNBOUND:                 3.107
REMARK SMILES O=c1c(O[C@@H]2O[C@H](CO)[C@H](O)[C@@H](O)[C@@H]2O)c(-c2ccc(O)cc2)oc2cc(O)cc(O)c12
REMARK SMILES IDX 4 1 3 2 16 3 24 4 2 5 25 6 1 7 32 8 26 9 30 10 27 11 29 12
REMARK SMILES IDX 17 13 18 14 19 15 20 16 23 17 22 18 21 19 31 21 28 23 5 25
REMARK SMILES IDX 14 26 6 27 12 28 7 29 10 30 15 31 13 33 8 35 9 36 11 38
REMARK H PARENT 21 20 31 22 28 24 15 32 13 34 9 37 11 39
REMARK Flexibility Score: inf
ROOT
ATOM      1  O   UNL     1       0.232  -0.331  -0.080  1.00  0.00    -0.454 OA
ENDROOT
BRANCH   1   2
ATOM      2  C   UNL     1       0.623   1.003  -0.308  1.00  0.00     0.214 A 
ATOM      3  C   UNL     1       1.970   1.350  -0.092  1.00  0.00     0.180 A 
ATOM      4  O   UNL     1       2.392   2.579  -0.359  1.00  0.00    -0.452 OA
ATOM      5  C   UNL     1      -0.262   2.004  -0.766  1.00  0.00     0.239 A 
ATOM      6  C   UNL     1       1.597   3.548  -0.788  1.00  0.00     0.146 A 
ATOM      7  O   UNL     1      -1.459   1.707  -1.007  1.00  0.00    -0.285 OA
ATOM      8  C   UNL     1       0.210   3.323  -0.972  1.00  0.00     0.111 A 
ATOM      9  C   UNL     1       2.158   4.798  -1.062  1.00  0.00     0.094 A 
ATOM     10  C   UNL     1      -0.606   4.420  -1.387  1.00  0.00     0.134 A 
ATOM     11  C   UNL     1       1.364   5.843  -1.527  1.00  0.00     0.123 A 
ATOM     12  C   UNL     1      -0.009   5.649  -1.691  1.00  0.00     0.093 A 
BRANCH   3  13
ATOM     13  C   UNL     1       2.967   0.360   0.375  1.00  0.00     0.021 A 
ATOM     14  C   UNL     1       2.972  -0.033   1.723  1.00  0.00     0.016 A 
ATOM     15  C   UNL     1       3.904  -0.967   2.185  1.00  0.00     0.047 A 
ATOM     16  C   UNL     1       4.834  -1.529   1.301  1.00  0.00     0.115 A 
ATOM     17  C   UNL     1       3.888  -0.226  -0.511  1.00  0.00     0.016 A 
ATOM     18  C   UNL     1       4.821  -1.158  -0.047  1.00  0.00     0.047 A 
BRANCH  16  19
ATOM     19  O   UNL     1       5.770  -2.459   1.749  1.00  0.00    -0.508 OA
ATOM     20  H   UNL     1       6.054  -3.242   1.174  1.00  0.00     0.293 HD
ENDBRANCH  16  19
ENDBRANCH   3  13
BRANCH  10  21
ATOM     21  O   UNL     1      -2.000   4.362  -1.488  1.00  0.00    -0.507 OA
ATOM     22  H   UNL     1      -2.508   3.703  -2.059  1.00  0.00     0.293 HD
ENDBRANCH  10  21
BRANCH  11  23
ATOM     23  O   UNL     1       1.948   7.075  -1.816  1.00  0.00    -0.508 OA
ATOM     24  H   UNL     1       1.386   7.902  -1.978  1.00  0.00     0.293 HD
ENDBRANCH  11  23
ENDBRANCH   1   2
BRANCH   1  25
ATOM     25  C   UNL     1       1.036  -1.498  -0.268  1.00  0.00     0.339 C 
ATOM     26  C   UNL     1       0.772  -2.511   0.861  1.00  0.00     0.214 C 
ATOM     27  O   UNL     1       0.854  -2.072  -1.558  1.00  0.00    -0.332 OA
ATOM     28  C   UNL     1      -0.636  -3.094   0.732  1.00  0.00     0.180 C 
ATOM     29  C   UNL     1      -0.429  -2.650  -1.768  1.00  0.00     0.179 C 
ATOM     30  C   UNL     1      -0.808  -3.683  -0.677  1.00  0.00     0.177 C 
BRANCH  26  31
ATOM     31  O   UNL     1       0.902  -1.885   2.111  1.00  0.00    -0.384 OA
ATOM     32  H   UNL     1       1.858  -1.959   2.371  1.00  0.00     0.211 HD
ENDBRANCH  26  31
BRANCH  28  33
ATOM     33  O   UNL     1      -0.802  -4.101   1.697  1.00  0.00    -0.387 OA
ATOM     34  H   UNL     1      -1.739  -4.041   2.020  1.00  0.00     0.211 HD
ENDBRANCH  28  33
BRANCH  29  35
ATOM     35  C   UNL     1      -1.508  -1.579  -2.043  1.00  0.00     0.191 C 
BRANCH  35  36
ATOM     36  O   UNL     1      -1.140  -0.763  -3.124  1.00  0.00    -0.394 OA
ATOM     37  H   UNL     1      -1.064   0.161  -2.771  1.00  0.00     0.210 HD
ENDBRANCH  35  36
ENDBRANCH  29  35
BRANCH  30  38
ATOM     38  O   UNL     1      -2.129  -4.124  -0.865  1.00  0.00    -0.387 OA
ATOM     39  H   UNL     1      -2.488  -3.642  -1.655  1.00  0.00     0.211 HD
ENDBRANCH  30  38
ENDBRANCH   1  25
TORSDOF 11
ENDMDL
MODEL 3
REMARK VINA RESULT:    60.390      1.523      5.329
REMARK INTER + INTRA:          89.975
REMARK INTER:                  88.126
REMARK INTRA:                   1.849
REMARK UNBOUND:                 3.107
REMARK SMILES O=c1c(O[C@@H]2O[C@H](CO)[C@H](O)[C@@H](O)[C@@H]2O)c(-c2ccc(O)cc2)oc2cc(O)cc(O)c12
REMARK SMILES IDX 4 1 3 2 16 3 24 4 2 5 25 6 1 7 32 8 26 9 30 10 27 11 29 12
REMARK SMILES IDX 17 13 18 14 19 15 20 16 23 17 22 18 21 19 31 21 28 23 5 25
REMARK SMILES IDX 14 26 6 27 12 28 7 29 10 30 15 31 13 33 8 35 9 36 11 38
REMARK H PARENT 21 20 31 22 28 24 15 32 13 34 9 37 11 39
REMARK Flexibility Score: inf
ROOT
ATOM      1  O   UNL     1       1.153  -1.285  -0.984  1.00  0.00    -0.454 OA
ENDROOT
BRANCH   1   2
ATOM      2  C   UNL     1       2.147  -1.289   0.014  1.00  0.00     0.214 A 
ATOM      3  C   UNL     1       1.757  -1.053   1.346  1.00  0.00     0.180 A 
ATOM      4  O   UNL     1       2.653  -1.115   2.323  1.00  0.00    -0.452 OA
ATOM      5  C   UNL     1       3.511  -1.543  -0.250  1.00  0.00     0.239 A 
ATOM      6  C   UNL     1       3.942  -1.348   2.120  1.00  0.00     0.146 A 
ATOM      7  O   UNL     1       3.874  -1.799  -1.426  1.00  0.00    -0.285 OA
ATOM      8  C   UNL     1       4.450  -1.531   0.809  1.00  0.00     0.111 A 
ATOM      9  C   UNL     1       4.789  -1.417   3.228  1.00  0.00     0.094 A 
ATOM     10  C   UNL     1       5.856  -1.728   0.648  1.00  0.00     0.134 A 
ATOM     11  C   UNL     1       6.148  -1.673   3.065  1.00  0.00     0.123 A 
ATOM     12  C   UNL     1       6.673  -1.831   1.781  1.00  0.00     0.093 A 
BRANCH   3  13
ATOM     13  C   UNL     1       0.347  -0.791   1.714  1.00  0.00     0.021 A 
ATOM     14  C   UNL     1      -0.678  -1.513   1.081  1.00  0.00     0.016 A 
ATOM     15  C   UNL     1      -2.016  -1.282   1.415  1.00  0.00     0.047 A 
ATOM     16  C   UNL     1      -2.344  -0.337   2.395  1.00  0.00     0.115 A 
ATOM     17  C   UNL     1       0.012   0.139   2.713  1.00  0.00     0.016 A 
ATOM     18  C   UNL     1      -1.327   0.369   3.044  1.00  0.00     0.047 A 
BRANCH  16  19
ATOM     19  O   UNL     1      -3.673  -0.096   2.734  1.00  0.00    -0.508 OA
ATOM     20  H   UNL     1      -3.944   0.130   3.683  1.00  0.00     0.293 HD
ENDBRANCH  16  19
ENDBRANCH   3  13
BRANCH  10  21
ATOM     21  O   UNL     1       6.497  -1.800  -0.592  1.00  0.00    -0.507 OA
ATOM     22  H   UNL     1       7.186  -2.493  -0.844  1.00  0.00     0.293 HD
ENDBRANCH  10  21
BRANCH  11  23
ATOM     23  O   UNL     1       6.971  -1.760   4.186  1.00  0.00    -0.508 OA
ATOM     24  H   UNL     1       6.955  -2.572   4.793  1.00  0.00     0.293 HD
ENDBRANCH  11  23
ENDBRANCH   1   2
BRANCH   1  25
ATOM     25  C   UNL     1       0.915  -2.309  -1.953  1.00  0.00     0.339 C 
ATOM     26  C   UNL     1       0.118  -3.464  -1.319  1.00  0.00     0.214 C 
ATOM     27  O   UNL     1       0.287  -1.802  -3.125  1.00  0.00    -0.332 OA
ATOM     28  C   UNL     1      -1.309  -3.013  -1.005  1.00  0.00     0.180 C 
ATOM     29  C   UNL     1      -1.053  -1.366  -2.931  1.00  0.00     0.179 C 
ATOM     30  C   UNL     1      -1.950  -2.451  -2.283  1.00  0.00     0.177 C 
BRANCH  26  31
ATOM     31  O   UNL     1       0.742  -3.889  -0.135  1.00  0.00    -0.384 OA
ATOM     32  H   UNL     1       0.354  -4.774   0.093  1.00  0.00     0.211 HD
ENDBRANCH  26  31
BRANCH  28  33
ATOM     33  O   UNL     1      -2.045  -4.118  -0.545  1.00  0.00    -0.387 OA
ATOM     34  H   UNL     1      -1.556  -4.932  -0.832  1.00  0.00     0.211 HD
ENDBRANCH  28  33
BRANCH  29  35
ATOM     35  C   UNL     1      -1.117   0.018  -2.244  1.00  0.00     0.191 C 
BRANCH  35  36
ATOM     36  O   UNL     1      -1.633   0.987  -3.118  1.00  0.00    -0.394 OA
ATOM     37  H   UNL     1      -2.621   0.950  -3.034  1.00  0.00     0.210 HD
ENDBRANCH  35  36
ENDBRANCH  29  35
BRANCH  30  38
ATOM     38  O   UNL     1      -3.222  -1.922  -2.000  1.00  0.00    -0.387 OA
ATOM     39  H   UNL     1      -3.644  -2.522  -1.331  1.00  0.00     0.211 HD
ENDBRANCH  30  38
ENDBRANCH   1  25
TORSDOF 11
ENDMDL
MODEL 4
REMARK VINA RESULT:    60.433      1.586      1.855
REMARK INTER + INTRA:          90.037
REMARK INTER:                  73.564
REMARK INTRA:                  16.474
REMARK UNBOUND:                 3.107
REMARK SMILES O=c1c(O[C@@H]2O[C@H](CO)[C@H](O)[C@@H](O)[C@@H]2O)c(-c2ccc(O)cc2)oc2cc(O)cc(O)c12
REMARK SMILES IDX 4 1 3 2 16 3 24 4 2 5 25 6 1 7 32 8 26 9 30 10 27 11 29 12
REMARK SMILES IDX 17 13 18 14 19 15 20 16 23 17 22 18 21 19 31 21 28 23 5 25
REMARK SMILES IDX 14 26 6 27 12 28 7 29 10 30 15 31 13 33 8 35 9 36 11 38
REMARK H PARENT 21 20 31 22 28 24 15 32 13 34 9 37 11 39
REMARK Flexibility Score: inf
ROOT
ATOM      1  O   UNL     1       1.036  -3.129   0.346  1.00  0.00    -0.454 OA
ENDROOT
BRANCH   1   2
ATOM      2  C   UNL     1       0.486  -1.905   0.774  1.00  0.00     0.214 A 
ATOM      3  C   UNL     1       1.365  -0.865   1.126  1.00  0.00     0.180 A 
ATOM      4  O   UNL     1       0.887   0.324   1.470  1.00  0.00    -0.452 OA
ATOM      5  C   UNL     1      -0.904  -1.661   0.843  1.00  0.00     0.239 A 
ATOM      6  C   UNL     1      -0.409   0.596   1.549  1.00  0.00     0.146 A 
ATOM      7  O   UNL     1      -1.707  -2.562   0.491  1.00  0.00    -0.285 OA
ATOM      8  C   UNL     1      -1.379  -0.402   1.281  1.00  0.00     0.111 A 
ATOM      9  C   UNL     1      -0.797   1.893   1.896  1.00  0.00     0.094 A 
ATOM     10  C   UNL     1      -2.759  -0.064   1.433  1.00  0.00     0.134 A 
ATOM     11  C   UNL     1      -2.145   2.229   1.979  1.00  0.00     0.123 A 
ATOM     12  C   UNL     1      -3.117   1.254   1.744  1.00  0.00     0.093 A 
BRANCH   3  13
ATOM     13  C   UNL     1       2.835  -1.030   1.071  1.00  0.00     0.021 A 
ATOM     14  C   UNL     1       3.525  -0.690  -0.104  1.00  0.00     0.016 A 
ATOM     15  C   UNL     1       4.914  -0.838  -0.177  1.00  0.00     0.047 A 
ATOM     16  C   UNL     1       5.630  -1.314   0.929  1.00  0.00     0.115 A 
ATOM     17  C   UNL     1       3.563  -1.484   2.184  1.00  0.00     0.016 A 
ATOM     18  C   UNL     1       4.951  -1.633   2.109  1.00  0.00     0.047 A 
BRANCH  16  19
ATOM     19  O   UNL     1       7.013  -1.468   0.868  1.00  0.00    -0.508 OA
ATOM     20  H   UNL     1       7.576  -0.933   0.217  1.00  0.00     0.293 HD
ENDBRANCH  16  19
ENDBRANCH   3  13
BRANCH  10  21
ATOM     21  O   UNL     1      -3.805  -0.984   1.318  1.00  0.00    -0.507 OA
ATOM     22  H   UNL     1      -4.430  -1.241   2.067  1.00  0.00     0.293 HD
ENDBRANCH  10  21
BRANCH  11  23
ATOM     23  O   UNL     1      -2.511   3.533   2.304  1.00  0.00    -0.508 OA
ATOM     24  H   UNL     1      -2.040   4.332   1.895  1.00  0.00     0.293 HD
ENDBRANCH  11  23
ENDBRANCH   1   2
BRANCH   1  25
ATOM     25  C   UNL     1       0.384  -4.125  -0.447  1.00  0.00     0.339 C 
ATOM     26  C   UNL     1      -1.144  -4.001  -0.302  1.00  0.00     0.214 C 
ATOM     27  O   UNL     1       0.799  -4.081  -1.808  1.00  0.00    -0.332 OA
ATOM     28  C   UNL     1      -1.638  -2.717  -0.969  1.00  0.00     0.180 C 
ATOM     29  C   UNL     1       0.376  -2.922  -2.515  1.00  0.00     0.179 C 
ATOM     30  C   UNL     1      -1.154  -2.690  -2.427  1.00  0.00     0.177 C 
BRANCH  26  31
ATOM     31  O   UNL     1      -1.500  -3.986   1.056  1.00  0.00    -0.384 OA
ATOM     32  H   UNL     1      -0.829  -4.540   1.536  1.00  0.00     0.211 HD
ENDBRANCH  26  31
BRANCH  28  33
ATOM     33  O   UNL     1      -3.042  -2.693  -0.929  1.00  0.00    -0.387 OA
ATOM     34  H   UNL     1      -3.314  -1.743  -0.832  1.00  0.00     0.211 HD
ENDBRANCH  28  33
BRANCH  29  35
ATOM     35  C   UNL     1       1.236  -1.685  -2.166  1.00  0.00     0.191 C 
BRANCH  35  36
ATOM     36  O   UNL     1       2.325  -1.570  -3.043  1.00  0.00    -0.394 OA
ATOM     37  H   UNL     1       2.920  -2.344  -2.863  1.00  0.00     0.210 HD
ENDBRANCH  35  36
ENDBRANCH  29  35
BRANCH  30  38
ATOM     38  O   UNL     1      -1.494  -1.468  -3.033  1.00  0.00    -0.387 OA
ATOM     39  H   UNL     1      -1.537  -0.787  -2.312  1.00  0.00     0.211 HD
ENDBRANCH  30  38
ENDBRANCH   1  25
TORSDOF 11
ENDMDL
MODEL 5
REMARK VINA RESULT:    61.132      3.102      3.683
REMARK INTER + INTRA:          91.042
REMARK INTER:                  91.394
REMARK INTRA:                  -0.352
REMARK UNBOUND:                 3.107
REMARK SMILES O=c1c(O[C@@H]2O[C@H](CO)[C@H](O)[C@@H](O)[C@@H]2O)c(-c2ccc(O)cc2)oc2cc(O)cc(O)c12
REMARK SMILES IDX 4 1 3 2 16 3 24 4 2 5 25 6 1 7 32 8 26 9 30 10 27 11 29 12
REMARK SMILES IDX 17 13 18 14 19 15 20 16 23 17 22 18 21 19 31 21 28 23 5 25
REMARK SMILES IDX 14 26 6 27 12 28 7 29 10 30 15 31 13 33 8 35 9 36 11 38
REMARK H PARENT 21 20 31 22 28 24 15 32 13 34 9 37 11 39
REMARK Flexibility Score: inf
ROOT
ATOM      1  O   UNL     1       1.099  -1.480  -0.543  1.00  0.00    -0.454 OA
ENDROOT
BRANCH   1   2
ATOM      2  C   UNL     1       1.179  -0.074  -0.576  1.00  0.00     0.214 A 
ATOM      3  C   UNL     1       2.303   0.545   0.003  1.00  0.00     0.180 A 
ATOM      4  O   UNL     1       2.448   1.861  -0.066  1.00  0.00    -0.452 OA
ATOM      5  C   UNL     1       0.201   0.745  -1.183  1.00  0.00     0.239 A 
ATOM      6  C   UNL     1       1.555   2.667  -0.625  1.00  0.00     0.146 A 
ATOM      7  O   UNL     1      -0.788   0.211  -1.745  1.00  0.00    -0.285 OA
ATOM      8  C   UNL     1       0.356   2.152  -1.177  1.00  0.00     0.111 A 
ATOM      9  C   UNL     1       1.827   4.037  -0.664  1.00  0.00     0.094 A 
ATOM     10  C   UNL     1      -0.592   3.074  -1.718  1.00  0.00     0.134 A 
ATOM     11  C   UNL     1       0.925   4.920  -1.252  1.00  0.00     0.123 A 
ATOM     12  C   UNL     1      -0.274   4.436  -1.779  1.00  0.00     0.093 A 
BRANCH   3  13
ATOM     13  C   UNL     1       3.380  -0.238   0.649  1.00  0.00     0.021 A 
ATOM     14  C   UNL     1       3.274  -0.569   2.010  1.00  0.00     0.016 A 
ATOM     15  C   UNL     1       4.280  -1.309   2.639  1.00  0.00     0.047 A 
ATOM     16  C   UNL     1       5.397  -1.738   1.912  1.00  0.00     0.115 A 
ATOM     17  C   UNL     1       4.493  -0.693  -0.080  1.00  0.00     0.016 A 
ATOM     18  C   UNL     1       5.498  -1.431   0.552  1.00  0.00     0.047 A 
BRANCH  16  19
ATOM     19  O   UNL     1       6.407  -2.474   2.528  1.00  0.00    -0.508 OA
ATOM     20  H   UNL     1       6.698  -2.279   3.479  1.00  0.00     0.293 HD
ENDBRANCH  16  19
ENDBRANCH   3  13
BRANCH  10  21
ATOM     21  O   UNL     1      -1.860   2.709  -2.181  1.00  0.00    -0.507 OA
ATOM     22  H   UNL     1      -2.239   2.963  -3.081  1.00  0.00     0.293 HD
ENDBRANCH  10  21
BRANCH  11  23
ATOM     23  O   UNL     1       1.226   6.279  -1.301  1.00  0.00    -0.508 OA
ATOM     24  H   UNL     1       1.991   6.633  -1.864  1.00  0.00     0.293 HD
ENDBRANCH  11  23
ENDBRANCH   1   2
BRANCH   1  25
ATOM     25  C   UNL     1       0.726  -2.285   0.579  1.00  0.00     0.339 C 
ATOM     26  C   UNL     1      -0.662  -1.862   1.095  1.00  0.00     0.214 C 
ATOM     27  O   UNL     1       0.789  -3.676   0.284  1.00  0.00    -0.332 OA
ATOM     28  C   UNL     1      -1.743  -2.242   0.082  1.00  0.00     0.180 C 
ATOM     29  C   UNL     1      -0.189  -4.125  -0.646  1.00  0.00     0.179 C 
ATOM     30  C   UNL     1      -1.633  -3.742  -0.231  1.00  0.00     0.177 C 
BRANCH  26  31
ATOM     31  O   UNL     1      -0.695  -0.475   1.312  1.00  0.00    -0.384 OA
ATOM     32  H   UNL     1      -1.090  -0.335   2.213  1.00  0.00     0.211 HD
ENDBRANCH  26  31
BRANCH  28  33
ATOM     33  O   UNL     1      -3.004  -1.958   0.633  1.00  0.00    -0.387 OA
ATOM     34  H   UNL     1      -2.871  -1.243   1.309  1.00  0.00     0.211 HD
ENDBRANCH  28  33
BRANCH  29  35
ATOM     35  C   UNL     1       0.182  -3.755  -2.100  1.00  0.00     0.191 C 
BRANCH  35  36
ATOM     36  O   UNL     1      -0.614  -2.698  -2.567  1.00  0.00    -0.394 OA
ATOM     37  H   UNL     1      -1.558  -2.957  -2.402  1.00  0.00     0.210 HD
ENDBRANCH  35  36
ENDBRANCH  29  35
BRANCH  30  38
ATOM     38  O   UNL     1      -2.539  -4.098  -1.245  1.00  0.00    -0.387 OA
ATOM     39  H   UNL     1      -3.452  -3.978  -0.876  1.00  0.00     0.211 HD
ENDBRANCH  30  38
ENDBRANCH   1  25
TORSDOF 11
ENDMDL
