MODEL 1
REMARK VINA RESULT:    -3.445      0.000      0.000
REMARK INTER + INTRA:         -12.620
REMARK INTER:                  -9.083
REMARK INTRA:                  -3.537
REMARK UNBOUND:                -3.537
REMARK SMILES CCCCCCCCCCCCCCCCCCCCCCCCCCCCCC(=O)[O-]
REMARK SMILES IDX 16 1 17 2 18 3 19 4 20 5 21 6 22 7 23 8 24 9 25 10 26 11
REMARK SMILES IDX 27 12 28 13 29 14 30 15 31 16 32 17 15 18 14 19 13 20 12 21
REMARK SMILES IDX 11 22 10 23 9 24 8 25 7 26 6 27 5 28 4 29 3 30 2 31 1 32
REMARK H PARENT
REMARK Flexibility Score: inf
ROOT
ATOM      1  C   UNL     1      84.017 120.806 126.800  1.00  0.00     0.000 C 
ENDROOT
BRANCH   1   2
ATOM      2  C   UNL     1      83.595 121.675 127.994  1.00  0.00     0.000 C 
BRANCH   2   3
ATOM      3  C   UNL     1      82.230 122.329 127.742  1.00  0.00     0.000 C 
BRANCH   3   4
ATOM      4  C   UNL     1      82.067 122.824 126.295  1.00  0.00     0.000 C 
BRANCH   4   5
ATOM      5  C   UNL     1      82.183 124.354 126.169  1.00  0.00     0.000 C 
BRANCH   5   6
ATOM      6  C   UNL     1      83.572 124.865 126.597  1.00  0.00     0.000 C 
BRANCH   6   7
ATOM      7  C   UNL     1      83.641 125.279 128.079  1.00  0.00     0.000 C 
BRANCH   7   8
ATOM      8  C   UNL     1      84.986 125.939 128.433  1.00  0.00     0.000 C 
BRANCH   8   9
ATOM      9  C   UNL     1      85.098 126.299 129.924  1.00  0.00     0.000 C 
BRANCH   9  10
ATOM     10  C   UNL     1      84.558 127.705 130.241  1.00  0.00     0.000 C 
BRANCH  10  11
ATOM     11  C   UNL     1      83.058 127.704 130.602  1.00  0.00     0.000 C 
BRANCH  11  12
ATOM     12  C   UNL     1      82.497 129.090 130.974  1.00  0.00     0.000 C 
BRANCH  12  13
ATOM     13  C   UNL     1      82.938 129.633 132.347  1.00  0.00     0.006 C 
BRANCH  13  14
ATOM     14  C   UNL     1      83.918 130.817 132.278  1.00  0.00     0.053 C 
BRANCH  14  15
ATOM     15  C   UNL     1      83.246 132.118 132.591  1.00  0.00     0.041 C 
ATOM     16  O   UNL     1      83.923 133.098 133.001  1.00  0.00    -0.550 OA
ATOM     17  O   UNL     1      81.877 132.260 132.397  1.00  0.00    -0.550 OA
ENDBRANCH  14  15
ENDBRANCH  13  14
ENDBRANCH  12  13
ENDBRANCH  11  12
ENDBRANCH  10  11
ENDBRANCH   9  10
ENDBRANCH   8   9
ENDBRANCH   7   8
ENDBRANCH   6   7
ENDBRANCH   5   6
ENDBRANCH   4   5
ENDBRANCH   3   4
ENDBRANCH   2   3
ENDBRANCH   1   2
BRANCH   1  18
ATOM     18  C   UNL     1      84.308 119.345 127.192  1.00  0.00     0.000 C 
BRANCH  18  19
ATOM     19  C   UNL     1      83.883 118.952 128.620  1.00  0.00     0.000 C 
BRANCH  19  20
ATOM     20  C   UNL     1      84.890 119.294 129.736  1.00  0.00     0.000 C 
BRANCH  20  21
ATOM     21  C   UNL     1      84.319 119.194 131.167  1.00  0.00     0.000 C 
BRANCH  21  22
ATOM     22  C   UNL     1      82.792 118.995 131.190  1.00  0.00     0.000 C 
BRANCH  22  23
ATOM     23  C   UNL     1      82.153 119.431 132.521  1.00  0.00     0.000 C 
BRANCH  23  24
ATOM     24  C   UNL     1      82.279 120.933 132.863  1.00  0.00    -0.000 C 
BRANCH  24  25
ATOM     25  C   UNL     1      81.875 121.913 131.741  1.00  0.00    -0.000 C 
BRANCH  25  26
ATOM     26  C   UNL     1      82.192 123.394 132.045  1.00  0.00    -0.000 C 
BRANCH  26  27
ATOM     27  C   UNL     1      83.573 123.857 131.544  1.00  0.00    -0.000 C 
BRANCH  27  28
ATOM     28  C   UNL     1      84.571 124.191 132.673  1.00  0.00    -0.000 C 
BRANCH  28  29
ATOM     29  C   UNL     1      85.979 123.641 132.395  1.00  0.00    -0.000 C 
BRANCH  29  30
ATOM     30  C   UNL     1      85.937 122.536 131.329  1.00  0.00    -0.000 C 
BRANCH  30  31
ATOM     31  C   UNL     1      87.088 122.649 130.316  1.00  0.00    -0.003 C 
ATOM     32  C   UNL     1      88.068 121.478 130.405  1.00  0.00     0.004 C 
ENDBRANCH  30  31
ENDBRANCH  29  30
ENDBRANCH  28  29
ENDBRANCH  27  28
ENDBRANCH  26  27
ENDBRANCH  25  26
ENDBRANCH  24  25
ENDBRANCH  23  24
ENDBRANCH  22  23
ENDBRANCH  21  22
ENDBRANCH  20  21
ENDBRANCH  19  20
ENDBRANCH  18  19
ENDBRANCH   1  18
TORSDOF 28
ENDMDL
MODEL 2
REMARK VINA RESULT:    -3.285      1.396      4.587
REMARK INTER + INTRA:         -12.200
REMARK INTER:                  -9.139
REMARK INTRA:                  -3.061
REMARK UNBOUND:                -3.537
REMARK SMILES CCCCCCCCCCCCCCCCCCCCCCCCCCCCCC(=O)[O-]
REMARK SMILES IDX 16 1 17 2 18 3 19 4 20 5 21 6 22 7 23 8 24 9 25 10 26 11
REMARK SMILES IDX 27 12 28 13 29 14 30 15 31 16 32 17 15 18 14 19 13 20 12 21
REMARK SMILES IDX 11 22 10 23 9 24 8 25 7 26 6 27 5 28 4 29 3 30 2 31 1 32
REMARK H PARENT
REMARK Flexibility Score: inf
ROOT
ATOM      1  C   UNL     1      82.218 122.967 128.478  1.00  0.00     0.000 C 
ENDROOT
BRANCH   1   2
ATOM      2  C   UNL     1      81.875 123.128 129.966  1.00  0.00     0.000 C 
BRANCH   2   3
ATOM      3  C   UNL     1      82.025 124.590 130.408  1.00  0.00     0.000 C 
BRANCH   3   4
ATOM      4  C   UNL     1      82.706 124.729 131.780  1.00  0.00     0.000 C 
BRANCH   4   5
ATOM      5  C   UNL     1      83.998 123.900 131.893  1.00  0.00     0.000 C 
BRANCH   5   6
ATOM      6  C   UNL     1      85.202 124.616 131.250  1.00  0.00     0.000 C 
BRANCH   6   7
ATOM      7  C   UNL     1      84.922 125.122 129.823  1.00  0.00     0.000 C 
BRANCH   7   8
ATOM      8  C   UNL     1      85.830 126.304 129.439  1.00  0.00     0.000 C 
BRANCH   8   9
ATOM      9  C   UNL     1      85.375 127.632 130.066  1.00  0.00     0.000 C 
BRANCH   9  10
ATOM     10  C   UNL     1      83.843 127.782 130.102  1.00  0.00     0.000 C 
BRANCH  10  11
ATOM     11  C   UNL     1      83.294 127.979 131.531  1.00  0.00     0.000 C 
BRANCH  11  12
ATOM     12  C   UNL     1      82.659 129.362 131.776  1.00  0.00     0.000 C 
BRANCH  12  13
ATOM     13  C   UNL     1      83.416 130.269 132.765  1.00  0.00     0.006 C 
BRANCH  13  14
ATOM     14  C   UNL     1      83.844 131.627 132.183  1.00  0.00     0.053 C 
BRANCH  14  15
ATOM     15  C   UNL     1      82.699 132.342 131.532  1.00  0.00     0.041 C 
ATOM     16  O   UNL     1      82.499 133.563 131.770  1.00  0.00    -0.550 OA
ATOM     17  O   UNL     1      81.875 131.670 130.638  1.00  0.00    -0.550 OA
ENDBRANCH  14  15
ENDBRANCH  13  14
ENDBRANCH  12  13
ENDBRANCH  11  12
ENDBRANCH  10  11
ENDBRANCH   9  10
ENDBRANCH   8   9
ENDBRANCH   7   8
ENDBRANCH   6   7
ENDBRANCH   5   6
ENDBRANCH   4   5
ENDBRANCH   3   4
ENDBRANCH   2   3
ENDBRANCH   1   2
BRANCH   1  18
ATOM     18  C   UNL     1      82.108 124.285 127.687  1.00  0.00     0.000 C 
BRANCH  18  19
ATOM     19  C   UNL     1      83.411 124.756 127.014  1.00  0.00     0.000 C 
BRANCH  19  20
ATOM     20  C   UNL     1      84.060 123.754 126.038  1.00  0.00     0.000 C 
BRANCH  20  21
ATOM     21  C   UNL     1      83.152 123.321 124.867  1.00  0.00     0.000 C 
BRANCH  21  22
ATOM     22  C   UNL     1      83.170 121.801 124.624  1.00  0.00     0.000 C 
BRANCH  22  23
ATOM     23  C   UNL     1      82.060 121.060 125.392  1.00  0.00     0.000 C 
BRANCH  23  24
ATOM     24  C   UNL     1      82.540 120.140 126.539  1.00  0.00    -0.000 C 
BRANCH  24  25
ATOM     25  C   UNL     1      84.068 120.079 126.755  1.00  0.00    -0.000 C 
BRANCH  25  26
ATOM     26  C   UNL     1      84.517 119.076 127.841  1.00  0.00    -0.000 C 
BRANCH  26  27
ATOM     27  C   UNL     1      85.541 119.647 128.838  1.00  0.00    -0.000 C 
BRANCH  27  28
ATOM     28  C   UNL     1      85.044 120.893 129.603  1.00  0.00    -0.000 C 
BRANCH  28  29
ATOM     29  C   UNL     1      84.695 120.584 131.067  1.00  0.00    -0.000 C 
BRANCH  29  30
ATOM     30  C   UNL     1      84.013 119.213 131.191  1.00  0.00    -0.000 C 
BRANCH  30  31
ATOM     31  C   UNL     1      82.697 119.278 131.985  1.00  0.00    -0.003 C 
ATOM     32  C   UNL     1      82.523 120.603 132.729  1.00  0.00     0.004 C 
ENDBRANCH  30  31
ENDBRANCH  29  30
ENDBRANCH  28  29
ENDBRANCH  27  28
ENDBRANCH  26  27
ENDBRANCH  25  26
ENDBRANCH  24  25
ENDBRANCH  23  24
ENDBRANCH  22  23
ENDBRANCH  21  22
ENDBRANCH  20  21
ENDBRANCH  19  20
ENDBRANCH  18  19
ENDBRANCH   1  18
TORSDOF 28
ENDMDL
MODEL 3
REMARK VINA RESULT:    -2.848     14.125     17.977
REMARK INTER + INTRA:         -11.047
REMARK INTER:                  -9.388
REMARK INTRA:                  -1.658
REMARK UNBOUND:                -3.537
REMARK SMILES CCCCCCCCCCCCCCCCCCCCCCCCCCCCCC(=O)[O-]
REMARK SMILES IDX 16 1 17 2 18 3 19 4 20 5 21 6 22 7 23 8 24 9 25 10 26 11
REMARK SMILES IDX 27 12 28 13 29 14 30 15 31 16 32 17 15 18 14 19 13 20 12 21
REMARK SMILES IDX 11 22 10 23 9 24 8 25 7 26 6 27 5 28 4 29 3 30 2 31 1 32
REMARK H PARENT
REMARK Flexibility Score: inf
ROOT
ATOM      1  C   UNL     1      97.571 127.629 126.851  1.00  0.00     0.000 C 
ENDROOT
BRANCH   1   2
ATOM      2  C   UNL     1      97.867 127.241 125.395  1.00  0.00     0.000 C 
BRANCH   2   3
ATOM      3  C   UNL     1      97.296 125.854 125.069  1.00  0.00     0.000 C 
BRANCH   3   4
ATOM      4  C   UNL     1      97.608 124.813 126.157  1.00  0.00     0.000 C 
BRANCH   4   5
ATOM      5  C   UNL     1      97.329 123.369 125.701  1.00  0.00     0.000 C 
BRANCH   5   6
ATOM      6  C   UNL     1      96.332 123.316 124.527  1.00  0.00     0.000 C 
BRANCH   6   7
ATOM      7  C   UNL     1      94.867 123.162 124.976  1.00  0.00     0.000 C 
BRANCH   7   8
ATOM      8  C   UNL     1      93.948 124.207 124.320  1.00  0.00     0.000 C 
BRANCH   8   9
ATOM      9  C   UNL     1      92.831 123.572 123.475  1.00  0.00     0.000 C 
BRANCH   9  10
ATOM     10  C   UNL     1      93.273 122.268 122.786  1.00  0.00     0.000 C 
BRANCH  10  11
ATOM     11  C   UNL     1      93.012 122.277 121.265  1.00  0.00     0.000 C 
BRANCH  11  12
ATOM     12  C   UNL     1      94.283 122.133 120.407  1.00  0.00     0.000 C 
BRANCH  12  13
ATOM     13  C   UNL     1      94.154 122.618 118.950  1.00  0.00     0.006 C 
BRANCH  13  14
ATOM     14  C   UNL     1      92.710 122.902 118.500  1.00  0.00     0.053 C 
BRANCH  14  15
ATOM     15  C   UNL     1      92.349 122.136 117.264  1.00  0.00     0.041 C 
ATOM     16  O   UNL     1      91.969 122.747 116.230  1.00  0.00    -0.550 OA
ATOM     17  O   UNL     1      92.464 120.752 117.243  1.00  0.00    -0.550 OA
ENDBRANCH  14  15
ENDBRANCH  13  14
ENDBRANCH  12  13
ENDBRANCH  11  12
ENDBRANCH  10  11
ENDBRANCH   9  10
ENDBRANCH   8   9
ENDBRANCH   7   8
ENDBRANCH   6   7
ENDBRANCH   5   6
ENDBRANCH   4   5
ENDBRANCH   3   4
ENDBRANCH   2   3
ENDBRANCH   1   2
BRANCH   1  18
ATOM     18  C   UNL     1      96.854 128.986 126.979  1.00  0.00     0.000 C 
BRANCH  18  19
ATOM     19  C   UNL     1      97.196 129.791 128.248  1.00  0.00     0.000 C 
BRANCH  19  20
ATOM     20  C   UNL     1      96.347 131.056 128.486  1.00  0.00     0.000 C 
BRANCH  20  21
ATOM     21  C   UNL     1      95.392 131.413 127.327  1.00  0.00     0.000 C 
BRANCH  21  22
ATOM     22  C   UNL     1      95.555 132.865 126.841  1.00  0.00     0.000 C 
BRANCH  22  23
ATOM     23  C   UNL     1      94.889 133.117 125.476  1.00  0.00     0.000 C 
BRANCH  23  24
ATOM     24  C   UNL     1      95.783 133.794 124.411  1.00  0.00    -0.000 C 
BRANCH  24  25
ATOM     25  C   UNL     1      95.890 135.331 124.504  1.00  0.00    -0.000 C 
BRANCH  25  26
ATOM     26  C   UNL     1      96.765 135.975 123.405  1.00  0.00    -0.000 C 
BRANCH  26  27
ATOM     27  C   UNL     1      96.827 135.164 122.098  1.00  0.00    -0.000 C 
BRANCH  27  28
ATOM     28  C   UNL     1      96.925 136.032 120.825  1.00  0.00    -0.000 C 
BRANCH  28  29
ATOM     29  C   UNL     1      98.116 137.004 120.865  1.00  0.00    -0.000 C 
BRANCH  29  30
ATOM     30  C   UNL     1      97.644 138.457 120.709  1.00  0.00    -0.000 C 
BRANCH  30  31
ATOM     31  C   UNL     1      96.332 138.569 119.915  1.00  0.00    -0.003 C 
ATOM     32  C   UNL     1      96.563 138.882 118.435  1.00  0.00     0.004 C 
ENDBRANCH  30  31
ENDBRANCH  29  30
ENDBRANCH  28  29
ENDBRANCH  27  28
ENDBRANCH  26  27
ENDBRANCH  25  26
ENDBRANCH  24  25
ENDBRANCH  23  24
ENDBRANCH  22  23
ENDBRANCH  21  22
ENDBRANCH  20  21
ENDBRANCH  19  20
ENDBRANCH  18  19
ENDBRANCH   1  18
TORSDOF 28
ENDMDL
MODEL 4
REMARK VINA RESULT:    -2.830      3.111      7.730
REMARK INTER + INTRA:         -11.000
REMARK INTER:                  -7.321
REMARK INTRA:                  -3.679
REMARK UNBOUND:                -3.537
REMARK SMILES CCCCCCCCCCCCCCCCCCCCCCCCCCCCCC(=O)[O-]
REMARK SMILES IDX 16 1 17 2 18 3 19 4 20 5 21 6 22 7 23 8 24 9 25 10 26 11
REMARK SMILES IDX 27 12 28 13 29 14 30 15 31 16 32 17 15 18 14 19 13 20 12 21
REMARK SMILES IDX 11 22 10 23 9 24 8 25 7 26 6 27 5 28 4 29 3 30 2 31 1 32
REMARK H PARENT
REMARK Flexibility Score: inf
ROOT
ATOM      1  C   UNL     1      82.887 124.549 131.522  1.00  0.00     0.000 C 
ENDROOT
BRANCH   1   2
ATOM      2  C   UNL     1      82.093 123.235 131.474  1.00  0.00     0.000 C 
BRANCH   2   3
ATOM      3  C   UNL     1      81.900 122.658 132.884  1.00  0.00     0.000 C 
BRANCH   3   4
ATOM      4  C   UNL     1      82.238 121.160 132.963  1.00  0.00     0.000 C 
BRANCH   4   5
ATOM      5  C   UNL     1      83.748 120.893 133.098  1.00  0.00     0.000 C 
BRANCH   5   6
ATOM      6  C   UNL     1      84.455 120.870 131.729  1.00  0.00     0.000 C 
BRANCH   6   7
ATOM      7  C   UNL     1      85.125 119.521 131.410  1.00  0.00     0.000 C 
BRANCH   7   8
ATOM      8  C   UNL     1      84.847 119.064 129.967  1.00  0.00     0.000 C 
BRANCH   8   9
ATOM      9  C   UNL     1      84.056 120.104 129.155  1.00  0.00     0.000 C 
BRANCH   9  10
ATOM     10  C   UNL     1      82.857 119.492 128.408  1.00  0.00     0.000 C 
BRANCH  10  11
ATOM     11  C   UNL     1      82.465 120.291 127.148  1.00  0.00     0.000 C 
BRANCH  11  12
ATOM     12  C   UNL     1      83.641 120.587 126.198  1.00  0.00     0.000 C 
BRANCH  12  13
ATOM     13  C   UNL     1      83.251 120.862 124.733  1.00  0.00     0.006 C 
BRANCH  13  14
ATOM     14  C   UNL     1      82.525 122.199 124.507  1.00  0.00     0.053 C 
BRANCH  14  15
ATOM     15  C   UNL     1      83.129 123.306 125.315  1.00  0.00     0.041 C 
ATOM     16  O   UNL     1      84.204 123.848 124.942  1.00  0.00    -0.550 OA
ATOM     17  O   UNL     1      82.489 123.764 126.460  1.00  0.00    -0.550 OA
ENDBRANCH  14  15
ENDBRANCH  13  14
ENDBRANCH  12  13
ENDBRANCH  11  12
ENDBRANCH  10  11
ENDBRANCH   9  10
ENDBRANCH   8   9
ENDBRANCH   7   8
ENDBRANCH   6   7
ENDBRANCH   5   6
ENDBRANCH   4   5
ENDBRANCH   3   4
ENDBRANCH   2   3
ENDBRANCH   1   2
BRANCH   1  18
ATOM     18  C   UNL     1      83.233 124.991 132.957  1.00  0.00     0.000 C 
BRANCH  18  19
ATOM     19  C   UNL     1      84.003 126.321 133.065  1.00  0.00     0.000 C 
BRANCH  19  20
ATOM     20  C   UNL     1      83.134 127.594 133.124  1.00  0.00     0.000 C 
BRANCH  20  21
ATOM     21  C   UNL     1      83.392 128.598 131.980  1.00  0.00     0.000 C 
BRANCH  21  22
ATOM     22  C   UNL     1      82.385 128.462 130.824  1.00  0.00     0.000 C 
BRANCH  22  23
ATOM     23  C   UNL     1      82.704 127.280 129.890  1.00  0.00     0.000 C 
BRANCH  23  24
ATOM     24  C   UNL     1      84.206 127.007 129.645  1.00  0.00    -0.000 C 
BRANCH  24  25
ATOM     25  C   UNL     1      84.558 126.360 128.289  1.00  0.00    -0.000 C 
BRANCH  25  26
ATOM     26  C   UNL     1      85.953 125.695 128.244  1.00  0.00    -0.000 C 
BRANCH  26  27
ATOM     27  C   UNL     1      85.944 124.253 127.705  1.00  0.00    -0.000 C 
BRANCH  27  28
ATOM     28  C   UNL     1      86.219 123.180 128.780  1.00  0.00    -0.000 C 
BRANCH  28  29
ATOM     29  C   UNL     1      85.917 123.681 130.202  1.00  0.00    -0.000 C 
BRANCH  29  30
ATOM     30  C   UNL     1      87.066 123.335 131.161  1.00  0.00    -0.000 C 
BRANCH  30  31
ATOM     31  C   UNL     1      88.209 122.579 130.465  1.00  0.00    -0.003 C 
ATOM     32  C   UNL     1      88.165 121.072 130.726  1.00  0.00     0.004 C 
ENDBRANCH  30  31
ENDBRANCH  29  30
ENDBRANCH  28  29
ENDBRANCH  27  28
ENDBRANCH  26  27
ENDBRANCH  25  26
ENDBRANCH  24  25
ENDBRANCH  23  24
ENDBRANCH  22  23
ENDBRANCH  21  22
ENDBRANCH  20  21
ENDBRANCH  19  20
ENDBRANCH  18  19
ENDBRANCH   1  18
TORSDOF 28
ENDMDL
MODEL 5
REMARK VINA RESULT:    -2.647     13.694     16.158
REMARK INTER + INTRA:         -10.517
REMARK INTER:                  -9.112
REMARK INTRA:                  -1.404
REMARK UNBOUND:                -3.537
REMARK SMILES CCCCCCCCCCCCCCCCCCCCCCCCCCCCCC(=O)[O-]
REMARK SMILES IDX 16 1 17 2 18 3 19 4 20 5 21 6 22 7 23 8 24 9 25 10 26 11
REMARK SMILES IDX 27 12 28 13 29 14 30 15 31 16 32 17 15 18 14 19 13 20 12 21
REMARK SMILES IDX 11 22 10 23 9 24 8 25 7 26 6 27 5 28 4 29 3 30 2 31 1 32
REMARK H PARENT
REMARK Flexibility Score: inf
ROOT
ATOM      1  C   UNL     1      97.257 127.819 126.467  1.00  0.00     0.000 C 
ENDROOT
BRANCH   1   2
ATOM      2  C   UNL     1      97.402 128.954 127.491  1.00  0.00     0.000 C 
BRANCH   2   3
ATOM      3  C   UNL     1      96.031 129.540 127.857  1.00  0.00     0.000 C 
BRANCH   3   4
ATOM      4  C   UNL     1      96.127 130.971 128.412  1.00  0.00     0.000 C 
BRANCH   4   5
ATOM      5  C   UNL     1      95.140 131.942 127.739  1.00  0.00     0.000 C 
BRANCH   5   6
ATOM      6  C   UNL     1      95.812 132.769 126.626  1.00  0.00     0.000 C 
BRANCH   6   7
ATOM      7  C   UNL     1      94.824 133.279 125.561  1.00  0.00     0.000 C 
BRANCH   7   8
ATOM      8  C   UNL     1      95.131 134.724 125.130  1.00  0.00     0.000 C 
BRANCH   8   9
ATOM      9  C   UNL     1      96.437 134.841 124.326  1.00  0.00     0.000 C 
BRANCH   9  10
ATOM     10  C   UNL     1      96.269 135.652 123.029  1.00  0.00     0.000 C 
BRANCH  10  11
ATOM     11  C   UNL     1      96.975 135.002 121.820  1.00  0.00     0.000 C 
BRANCH  11  12
ATOM     12  C   UNL     1      97.196 135.956 120.631  1.00  0.00     0.000 C 
BRANCH  12  13
ATOM     13  C   UNL     1      98.262 137.046 120.850  1.00  0.00     0.006 C 
BRANCH  13  14
ATOM     14  C   UNL     1      97.727 138.486 120.762  1.00  0.00     0.053 C 
BRANCH  14  15
ATOM     15  C   UNL     1      96.648 138.620 119.731  1.00  0.00     0.041 C 
ATOM     16  O   UNL     1      96.930 138.540 118.506  1.00  0.00    -0.550 OA
ATOM     17  O   UNL     1      95.328 138.798 120.124  1.00  0.00    -0.550 OA
ENDBRANCH  14  15
ENDBRANCH  13  14
ENDBRANCH  12  13
ENDBRANCH  11  12
ENDBRANCH  10  11
ENDBRANCH   9  10
ENDBRANCH   8   9
ENDBRANCH   7   8
ENDBRANCH   6   7
ENDBRANCH   5   6
ENDBRANCH   4   5
ENDBRANCH   3   4
ENDBRANCH   2   3
ENDBRANCH   1   2
BRANCH   1  18
ATOM     18  C   UNL     1      97.191 126.425 127.120  1.00  0.00     0.000 C 
BRANCH  18  19
ATOM     19  C   UNL     1      97.773 125.276 126.273  1.00  0.00     0.000 C 
BRANCH  19  20
ATOM     20  C   UNL     1      96.872 124.765 125.131  1.00  0.00     0.000 C 
BRANCH  20  21
ATOM     21  C   UNL     1      96.499 123.270 125.230  1.00  0.00     0.000 C 
BRANCH  21  22
ATOM     22  C   UNL     1      94.984 123.021 125.108  1.00  0.00     0.000 C 
BRANCH  22  23
ATOM     23  C   UNL     1      94.239 124.189 124.436  1.00  0.00     0.000 C 
BRANCH  23  24
ATOM     24  C   UNL     1      93.211 123.790 123.352  1.00  0.00    -0.000 C 
BRANCH  24  25
ATOM     25  C   UNL     1      93.073 122.276 123.083  1.00  0.00    -0.000 C 
BRANCH  25  26
ATOM     26  C   UNL     1      93.115 121.890 121.587  1.00  0.00    -0.000 C 
BRANCH  26  27
ATOM     27  C   UNL     1      94.363 122.401 120.843  1.00  0.00    -0.000 C 
BRANCH  27  28
ATOM     28  C   UNL     1      94.423 121.981 119.358  1.00  0.00    -0.000 C 
BRANCH  28  29
ATOM     29  C   UNL     1      93.343 122.669 118.508  1.00  0.00    -0.000 C 
BRANCH  29  30
ATOM     30  C   UNL     1      92.477 121.633 117.777  1.00  0.00    -0.000 C 
BRANCH  30  31
ATOM     31  C   UNL     1      92.384 121.903 116.266  1.00  0.00    -0.003 C 
ATOM     32  C   UNL     1      92.695 120.663 115.425  1.00  0.00     0.004 C 
ENDBRANCH  30  31
ENDBRANCH  29  30
ENDBRANCH  28  29
ENDBRANCH  27  28
ENDBRANCH  26  27
ENDBRANCH  25  26
ENDBRANCH  24  25
ENDBRANCH  23  24
ENDBRANCH  22  23
ENDBRANCH  21  22
ENDBRANCH  20  21
ENDBRANCH  19  20
ENDBRANCH  18  19
ENDBRANCH   1  18
TORSDOF 28
ENDMDL
MODEL 6
REMARK VINA RESULT:    -2.630     12.484     15.958
REMARK INTER + INTRA:         -10.472
REMARK INTER:                  -8.652
REMARK INTRA:                  -1.819
REMARK UNBOUND:                -3.537
REMARK SMILES CCCCCCCCCCCCCCCCCCCCCCCCCCCCCC(=O)[O-]
REMARK SMILES IDX 16 1 17 2 18 3 19 4 20 5 21 6 22 7 23 8 24 9 25 10 26 11
REMARK SMILES IDX 27 12 28 13 29 14 30 15 31 16 32 17 15 18 14 19 13 20 12 21
REMARK SMILES IDX 11 22 10 23 9 24 8 25 7 26 6 27 5 28 4 29 3 30 2 31 1 32
REMARK H PARENT
REMARK Flexibility Score: inf
ROOT
ATOM      1  C   UNL     1      96.895 123.034 125.019  1.00  0.00     0.000 C 
ENDROOT
BRANCH   1   2
ATOM      2  C   UNL     1      95.509 123.687 125.125  1.00  0.00     0.000 C 
BRANCH   2   3
ATOM      3  C   UNL     1      94.465 122.680 125.626  1.00  0.00     0.000 C 
BRANCH   3   4
ATOM      4  C   UNL     1      93.179 122.687 124.783  1.00  0.00     0.000 C 
BRANCH   4   5
ATOM      5  C   UNL     1      93.108 123.878 123.810  1.00  0.00     0.000 C 
BRANCH   5   6
ATOM      6  C   UNL     1      92.932 123.421 122.349  1.00  0.00     0.000 C 
BRANCH   6   7
ATOM      7  C   UNL     1      92.723 121.902 122.205  1.00  0.00     0.000 C 
BRANCH   7   8
ATOM      8  C   UNL     1      93.647 121.290 121.137  1.00  0.00     0.000 C 
BRANCH   8   9
ATOM      9  C   UNL     1      94.757 122.254 120.686  1.00  0.00     0.000 C 
BRANCH   9  10
ATOM     10  C   UNL     1      95.055 122.159 119.179  1.00  0.00     0.000 C 
BRANCH  10  11
ATOM     11  C   UNL     1      94.654 120.797 118.574  1.00  0.00     0.000 C 
BRANCH  11  12
ATOM     12  C   UNL     1      93.767 120.901 117.319  1.00  0.00     0.000 C 
BRANCH  12  13
ATOM     13  C   UNL     1      92.414 121.610 117.524  1.00  0.00     0.006 C 
BRANCH  13  14
ATOM     14  C   UNL     1      92.052 122.622 116.423  1.00  0.00     0.053 C 
BRANCH  14  15
ATOM     15  C   UNL     1      92.477 124.013 116.781  1.00  0.00     0.041 C 
ATOM     16  O   UNL     1      93.154 124.220 117.823  1.00  0.00    -0.550 OA
ATOM     17  O   UNL     1      92.154 125.076 115.947  1.00  0.00    -0.550 OA
ENDBRANCH  14  15
ENDBRANCH  13  14
ENDBRANCH  12  13
ENDBRANCH  11  12
ENDBRANCH  10  11
ENDBRANCH   9  10
ENDBRANCH   8   9
ENDBRANCH   7   8
ENDBRANCH   6   7
ENDBRANCH   5   6
ENDBRANCH   4   5
ENDBRANCH   3   4
ENDBRANCH   2   3
ENDBRANCH   1   2
BRANCH   1  18
ATOM     18  C   UNL     1      97.857 123.479 126.137  1.00  0.00     0.000 C 
BRANCH  18  19
ATOM     19  C   UNL     1      97.937 125.000 126.367  1.00  0.00     0.000 C 
BRANCH  19  20
ATOM     20  C   UNL     1      97.565 125.880 125.156  1.00  0.00     0.000 C 
BRANCH  20  21
ATOM     21  C   UNL     1      97.538 127.395 125.450  1.00  0.00     0.000 C 
BRANCH  21  22
ATOM     22  C   UNL     1      97.574 127.715 126.956  1.00  0.00     0.000 C 
BRANCH  22  23
ATOM     23  C   UNL     1      96.927 129.071 127.294  1.00  0.00     0.000 C 
BRANCH  23  24
ATOM     24  C   UNL     1      97.660 129.912 128.365  1.00  0.00    -0.000 C 
BRANCH  24  25
ATOM     25  C   UNL     1      96.879 131.124 128.916  1.00  0.00    -0.000 C 
BRANCH  25  26
ATOM     26  C   UNL     1      95.345 130.934 128.942  1.00  0.00    -0.000 C 
BRANCH  26  27
ATOM     27  C   UNL     1      94.568 131.989 128.134  1.00  0.00    -0.000 C 
BRANCH  27  28
ATOM     28  C   UNL     1      95.429 132.747 127.100  1.00  0.00    -0.000 C 
BRANCH  28  29
ATOM     29  C   UNL     1      95.122 132.324 125.655  1.00  0.00    -0.000 C 
BRANCH  29  30
ATOM     30  C   UNL     1      94.524 133.492 124.856  1.00  0.00    -0.000 C 
BRANCH  30  31
ATOM     31  C   UNL     1      95.212 134.832 125.166  1.00  0.00    -0.003 C 
ATOM     32  C   UNL     1      96.375 135.130 124.218  1.00  0.00     0.004 C 
ENDBRANCH  30  31
ENDBRANCH  29  30
ENDBRANCH  28  29
ENDBRANCH  27  28
ENDBRANCH  26  27
ENDBRANCH  25  26
ENDBRANCH  24  25
ENDBRANCH  23  24
ENDBRANCH  22  23
ENDBRANCH  21  22
ENDBRANCH  20  21
ENDBRANCH  19  20
ENDBRANCH  18  19
ENDBRANCH   1  18
TORSDOF 28
ENDMDL
MODEL 7
REMARK VINA RESULT:    -2.624      1.576      4.506
REMARK INTER + INTRA:         -10.455
REMARK INTER:                  -7.972
REMARK INTRA:                  -2.483
REMARK UNBOUND:                -3.537
REMARK SMILES CCCCCCCCCCCCCCCCCCCCCCCCCCCCCC(=O)[O-]
REMARK SMILES IDX 16 1 17 2 18 3 19 4 20 5 21 6 22 7 23 8 24 9 25 10 26 11
REMARK SMILES IDX 27 12 28 13 29 14 30 15 31 16 32 17 15 18 14 19 13 20 12 21
REMARK SMILES IDX 11 22 10 23 9 24 8 25 7 26 6 27 5 28 4 29 3 30 2 31 1 32
REMARK H PARENT
REMARK Flexibility Score: inf
ROOT
ATOM      1  C   UNL     1      83.090 123.921 128.206  1.00  0.00     0.000 C 
ENDROOT
BRANCH   1   2
ATOM      2  C   UNL     1      82.032 123.578 129.265  1.00  0.00     0.000 C 
BRANCH   2   3
ATOM      3  C   UNL     1      82.121 122.101 129.672  1.00  0.00     0.000 C 
BRANCH   3   4
ATOM      4  C   UNL     1      81.883 121.884 131.175  1.00  0.00     0.000 C 
BRANCH   4   5
ATOM      5  C   UNL     1      82.238 123.119 132.022  1.00  0.00     0.000 C 
BRANCH   5   6
ATOM      6  C   UNL     1      83.551 122.925 132.805  1.00  0.00     0.000 C 
BRANCH   6   7
ATOM      7  C   UNL     1      84.696 123.828 132.312  1.00  0.00     0.000 C 
BRANCH   7   8
ATOM      8  C   UNL     1      84.648 125.226 132.955  1.00  0.00     0.000 C 
BRANCH   8   9
ATOM      9  C   UNL     1      84.600 126.358 131.915  1.00  0.00     0.000 C 
BRANCH   9  10
ATOM     10  C   UNL     1      83.308 127.190 131.997  1.00  0.00     0.000 C 
BRANCH  10  11
ATOM     11  C   UNL     1      83.518 128.665 131.596  1.00  0.00     0.000 C 
BRANCH  11  12
ATOM     12  C   UNL     1      82.266 129.343 131.008  1.00  0.00     0.000 C 
BRANCH  12  13
ATOM     13  C   UNL     1      81.914 130.716 131.613  1.00  0.00     0.006 C 
BRANCH  13  14
ATOM     14  C   UNL     1      82.072 131.899 130.642  1.00  0.00     0.053 C 
BRANCH  14  15
ATOM     15  C   UNL     1      82.844 133.026 131.256  1.00  0.00     0.041 C 
ATOM     16  O   UNL     1      82.800 134.176 130.743  1.00  0.00    -0.550 OA
ATOM     17  O   UNL     1      83.584 132.816 132.413  1.00  0.00    -0.550 OA
ENDBRANCH  14  15
ENDBRANCH  13  14
ENDBRANCH  12  13
ENDBRANCH  11  12
ENDBRANCH  10  11
ENDBRANCH   9  10
ENDBRANCH   8   9
ENDBRANCH   7   8
ENDBRANCH   6   7
ENDBRANCH   5   6
ENDBRANCH   4   5
ENDBRANCH   3   4
ENDBRANCH   2   3
ENDBRANCH   1   2
BRANCH   1  18
ATOM     18  C   UNL     1      82.504 124.654 126.984  1.00  0.00     0.000 C 
BRANCH  18  19
ATOM     19  C   UNL     1      83.494 124.901 125.831  1.00  0.00     0.000 C 
BRANCH  19  20
ATOM     20  C   UNL     1      83.885 123.658 125.007  1.00  0.00     0.000 C 
BRANCH  20  21
ATOM     21  C   UNL     1      82.723 122.677 124.739  1.00  0.00     0.000 C 
BRANCH  21  22
ATOM     22  C   UNL     1      83.181 121.208 124.674  1.00  0.00     0.000 C 
BRANCH  22  23
ATOM     23  C   UNL     1      84.218 120.858 125.756  1.00  0.00     0.000 C 
BRANCH  23  24
ATOM     24  C   UNL     1      83.659 120.162 127.019  1.00  0.00    -0.000 C 
BRANCH  24  25
ATOM     25  C   UNL     1      84.232 120.653 128.365  1.00  0.00    -0.000 C 
BRANCH  25  26
ATOM     26  C   UNL     1      85.590 120.022 128.747  1.00  0.00    -0.000 C 
BRANCH  26  27
ATOM     27  C   UNL     1      86.717 121.046 128.973  1.00  0.00    -0.000 C 
BRANCH  27  28
ATOM     28  C   UNL     1      86.994 121.356 130.460  1.00  0.00    -0.000 C 
BRANCH  28  29
ATOM     29  C   UNL     1      87.236 122.853 130.713  1.00  0.00    -0.000 C 
BRANCH  29  30
ATOM     30  C   UNL     1      87.688 123.562 129.428  1.00  0.00    -0.000 C 
BRANCH  30  31
ATOM     31  C   UNL     1      86.506 123.983 128.539  1.00  0.00    -0.003 C 
ATOM     32  C   UNL     1      86.204 125.480 128.629  1.00  0.00     0.004 C 
ENDBRANCH  30  31
ENDBRANCH  29  30
ENDBRANCH  28  29
ENDBRANCH  27  28
ENDBRANCH  26  27
ENDBRANCH  25  26
ENDBRANCH  24  25
ENDBRANCH  23  24
ENDBRANCH  22  23
ENDBRANCH  21  22
ENDBRANCH  20  21
ENDBRANCH  19  20
ENDBRANCH  18  19
ENDBRANCH   1  18
TORSDOF 28
ENDMDL
MODEL 8
REMARK VINA RESULT:    -2.595     13.571     17.335
REMARK INTER + INTRA:         -10.380
REMARK INTER:                  -9.019
REMARK INTRA:                  -1.361
REMARK UNBOUND:                -3.537
REMARK SMILES CCCCCCCCCCCCCCCCCCCCCCCCCCCCCC(=O)[O-]
REMARK SMILES IDX 16 1 17 2 18 3 19 4 20 5 21 6 22 7 23 8 24 9 25 10 26 11
REMARK SMILES IDX 27 12 28 13 29 14 30 15 31 16 32 17 15 18 14 19 13 20 12 21
REMARK SMILES IDX 11 22 10 23 9 24 8 25 7 26 6 27 5 28 4 29 3 30 2 31 1 32
REMARK H PARENT
REMARK Flexibility Score: inf
ROOT
ATOM      1  C   UNL     1      97.466 125.404 126.678  1.00  0.00     0.000 C 
ENDROOT
BRANCH   1   2
ATOM      2  C   UNL     1      97.376 125.640 125.163  1.00  0.00     0.000 C 
BRANCH   2   3
ATOM      3  C   UNL     1      96.367 124.681 124.518  1.00  0.00     0.000 C 
BRANCH   3   4
ATOM      4  C   UNL     1      96.225 123.359 125.291  1.00  0.00     0.000 C 
BRANCH   4   5
ATOM      5  C   UNL     1      94.765 122.885 125.402  1.00  0.00     0.000 C 
BRANCH   5   6
ATOM      6  C   UNL     1      93.850 123.584 124.378  1.00  0.00     0.000 C 
BRANCH   6   7
ATOM      7  C   UNL     1      93.086 122.603 123.470  1.00  0.00     0.000 C 
BRANCH   7   8
ATOM      8  C   UNL     1      93.172 123.000 121.986  1.00  0.00     0.000 C 
BRANCH   8   9
ATOM      9  C   UNL     1      93.542 121.818 121.074  1.00  0.00     0.000 C 
BRANCH   9  10
ATOM     10  C   UNL     1      94.927 121.977 120.422  1.00  0.00     0.000 C 
BRANCH  10  11
ATOM     11  C   UNL     1      94.946 121.543 118.942  1.00  0.00     0.000 C 
BRANCH  11  12
ATOM     12  C   UNL     1      93.642 120.877 118.463  1.00  0.00     0.000 C 
BRANCH  12  13
ATOM     13  C   UNL     1      93.225 121.208 117.017  1.00  0.00     0.006 C 
BRANCH  13  14
ATOM     14  C   UNL     1      92.049 122.194 116.904  1.00  0.00     0.053 C 
BRANCH  14  15
ATOM     15  C   UNL     1      92.472 123.603 117.185  1.00  0.00     0.041 C 
ATOM     16  O   UNL     1      92.848 123.933 118.341  1.00  0.00    -0.550 OA
ATOM     17  O   UNL     1      92.484 124.544 116.163  1.00  0.00    -0.550 OA
ENDBRANCH  14  15
ENDBRANCH  13  14
ENDBRANCH  12  13
ENDBRANCH  11  12
ENDBRANCH  10  11
ENDBRANCH   9  10
ENDBRANCH   8   9
ENDBRANCH   7   8
ENDBRANCH   6   7
ENDBRANCH   5   6
ENDBRANCH   4   5
ENDBRANCH   3   4
ENDBRANCH   2   3
ENDBRANCH   1   2
BRANCH   1  18
ATOM     18  C   UNL     1      97.127 126.659 127.505  1.00  0.00     0.000 C 
BRANCH  18  19
ATOM     19  C   UNL     1      97.280 127.997 126.757  1.00  0.00     0.000 C 
BRANCH  19  20
ATOM     20  C   UNL     1      97.348 129.255 127.645  1.00  0.00     0.000 C 
BRANCH  20  21
ATOM     21  C   UNL     1      95.973 129.858 128.008  1.00  0.00     0.000 C 
BRANCH  21  22
ATOM     22  C   UNL     1      96.048 131.357 128.353  1.00  0.00     0.000 C 
BRANCH  22  23
ATOM     23  C   UNL     1      95.085 132.213 127.511  1.00  0.00     0.000 C 
BRANCH  23  24
ATOM     24  C   UNL     1      95.739 133.035 126.376  1.00  0.00    -0.000 C 
BRANCH  24  25
ATOM     25  C   UNL     1      94.769 133.621 125.328  1.00  0.00    -0.000 C 
BRANCH  25  26
ATOM     26  C   UNL     1      95.254 134.937 124.679  1.00  0.00    -0.000 C 
BRANCH  26  27
ATOM     27  C   UNL     1      96.568 134.798 123.887  1.00  0.00    -0.000 C 
BRANCH  27  28
ATOM     28  C   UNL     1      96.759 135.874 122.796  1.00  0.00    -0.000 C 
BRANCH  28  29
ATOM     29  C   UNL     1      96.883 135.268 121.389  1.00  0.00    -0.000 C 
BRANCH  29  30
ATOM     30  C   UNL     1      97.734 136.165 120.477  1.00  0.00    -0.000 C 
BRANCH  30  31
ATOM     31  C   UNL     1      96.883 137.154 119.663  1.00  0.00    -0.003 C 
ATOM     32  C   UNL     1      96.911 138.570 120.240  1.00  0.00     0.004 C 
ENDBRANCH  30  31
ENDBRANCH  29  30
ENDBRANCH  28  29
ENDBRANCH  27  28
ENDBRANCH  26  27
ENDBRANCH  25  26
ENDBRANCH  24  25
ENDBRANCH  23  24
ENDBRANCH  22  23
ENDBRANCH  21  22
ENDBRANCH  20  21
ENDBRANCH  19  20
ENDBRANCH  18  19
ENDBRANCH   1  18
TORSDOF 28
ENDMDL
MODEL 9
REMARK VINA RESULT:    -2.298      3.325      7.954
REMARK INTER + INTRA:          -9.597
REMARK INTER:                  -8.031
REMARK INTRA:                  -1.566
REMARK UNBOUND:                -3.537
REMARK SMILES CCCCCCCCCCCCCCCCCCCCCCCCCCCCCC(=O)[O-]
REMARK SMILES IDX 16 1 17 2 18 3 19 4 20 5 21 6 22 7 23 8 24 9 25 10 26 11
REMARK SMILES IDX 27 12 28 13 29 14 30 15 31 16 32 17 15 18 14 19 13 20 12 21
REMARK SMILES IDX 11 22 10 23 9 24 8 25 7 26 6 27 5 28 4 29 3 30 2 31 1 32
REMARK H PARENT
REMARK Flexibility Score: inf
ROOT
ATOM      1  C   UNL     1      81.881 123.975 130.149  1.00  0.00     0.000 C 
ENDROOT
BRANCH   1   2
ATOM      2  C   UNL     1      82.263 122.539 130.534  1.00  0.00     0.000 C 
BRANCH   2   3
ATOM      3  C   UNL     1      83.441 122.529 131.518  1.00  0.00     0.000 C 
BRANCH   3   4
ATOM      4  C   UNL     1      83.023 122.125 132.941  1.00  0.00     0.000 C 
BRANCH   4   5
ATOM      5  C   UNL     1      81.903 121.069 132.959  1.00  0.00     0.000 C 
BRANCH   5   6
ATOM      6  C   UNL     1      82.456 119.639 132.804  1.00  0.00     0.000 C 
BRANCH   6   7
ATOM      7  C   UNL     1      81.875 118.888 131.592  1.00  0.00     0.000 C 
BRANCH   7   8
ATOM      8  C   UNL     1      82.588 119.266 130.281  1.00  0.00     0.000 C 
BRANCH   8   9
ATOM      9  C   UNL     1      84.120 119.269 130.416  1.00  0.00     0.000 C 
BRANCH   9  10
ATOM     10  C   UNL     1      84.836 119.567 129.086  1.00  0.00     0.000 C 
BRANCH  10  11
ATOM     11  C   UNL     1      86.254 120.142 129.284  1.00  0.00     0.000 C 
BRANCH  11  12
ATOM     12  C   UNL     1      86.805 119.982 130.714  1.00  0.00     0.000 C 
BRANCH  12  13
ATOM     13  C   UNL     1      87.591 121.191 131.257  1.00  0.00     0.006 C 
BRANCH  13  14
ATOM     14  C   UNL     1      87.511 122.449 130.375  1.00  0.00     0.053 C 
BRANCH  14  15
ATOM     15  C   UNL     1      87.166 123.670 131.171  1.00  0.00     0.041 C 
ATOM     16  O   UNL     1      86.115 123.697 131.865  1.00  0.00    -0.550 OA
ATOM     17  O   UNL     1      88.022 124.764 131.175  1.00  0.00    -0.550 OA
ENDBRANCH  14  15
ENDBRANCH  13  14
ENDBRANCH  12  13
ENDBRANCH  11  12
ENDBRANCH  10  11
ENDBRANCH   9  10
ENDBRANCH   8   9
ENDBRANCH   7   8
ENDBRANCH   6   7
ENDBRANCH   5   6
ENDBRANCH   4   5
ENDBRANCH   3   4
ENDBRANCH   2   3
ENDBRANCH   1   2
BRANCH   1  18
ATOM     18  C   UNL     1      82.873 124.618 129.160  1.00  0.00     0.000 C 
BRANCH  18  19
ATOM     19  C   UNL     1      83.592 125.877 129.679  1.00  0.00     0.000 C 
BRANCH  19  20
ATOM     20  C   UNL     1      85.111 125.935 129.418  1.00  0.00     0.000 C 
BRANCH  20  21
ATOM     21  C   UNL     1      85.506 125.887 127.926  1.00  0.00     0.000 C 
BRANCH  21  22
ATOM     22  C   UNL     1      85.966 124.490 127.472  1.00  0.00     0.000 C 
BRANCH  22  23
ATOM     23  C   UNL     1      85.253 123.352 128.226  1.00  0.00     0.000 C 
BRANCH  23  24
ATOM     24  C   UNL     1      84.139 122.625 127.439  1.00  0.00    -0.000 C 
BRANCH  24  25
ATOM     25  C   UNL     1      84.610 121.775 126.239  1.00  0.00    -0.000 C 
BRANCH  25  26
ATOM     26  C   UNL     1      84.432 122.459 124.866  1.00  0.00    -0.000 C 
BRANCH  26  27
ATOM     27  C   UNL     1      83.003 122.966 124.597  1.00  0.00    -0.000 C 
BRANCH  27  28
ATOM     28  C   UNL     1      81.898 121.953 124.969  1.00  0.00    -0.000 C 
BRANCH  28  29
ATOM     29  C   UNL     1      81.876 120.736 124.031  1.00  0.00    -0.000 C 
BRANCH  29  30
ATOM     30  C   UNL     1      82.925 120.881 122.917  1.00  0.00    -0.000 C 
BRANCH  30  31
ATOM     31  C   UNL     1      82.512 120.164 121.621  1.00  0.00    -0.003 C 
ATOM     32  C   UNL     1      82.306 121.129 120.453  1.00  0.00     0.004 C 
ENDBRANCH  30  31
ENDBRANCH  29  30
ENDBRANCH  28  29
ENDBRANCH  27  28
ENDBRANCH  26  27
ENDBRANCH  25  26
ENDBRANCH  24  25
ENDBRANCH  23  24
ENDBRANCH  22  23
ENDBRANCH  21  22
ENDBRANCH  20  21
ENDBRANCH  19  20
ENDBRANCH  18  19
ENDBRANCH   1  18
TORSDOF 28
ENDMDL
