MODEL 1
REMARK VINA RESULT:    -7.815      0.000      0.000
REMARK INTER + INTRA:          -9.729
REMARK INTER:                  -9.415
REMARK INTRA:                  -0.314
REMARK UNBOUND:                -0.314
REMARK SMILES O=c1c(O)c(-c2ccc(O)c(O)c2)oc2cc(O)cc(O)c12
REMARK SMILES IDX 5 1 3 2 2 3 1 4 22 5 20 6 19 7 17 8 16 9 15 10 14 11 6 12
REMARK SMILES IDX 7 13 8 14 9 15 13 16 11 17 10 18 12 20 4 22 21 24 18 26
REMARK H PARENT 10 19 12 21 4 23 21 25 18 27
REMARK Flexibility Score: inf
ROOT
ATOM      1  C   UNL     1       8.717   0.408  13.344  1.00  0.00     0.180 A 
ATOM      2  C   UNL     1       7.566   0.511  12.543  1.00  0.00     0.208 A 
ATOM      3  C   UNL     1       7.631   0.107  11.201  1.00  0.00     0.238 A 
ATOM      4  O   UNL     1       6.613   0.252  10.475  1.00  0.00    -0.285 OA
ATOM      5  C   UNL     1       8.842  -0.410  10.679  1.00  0.00     0.111 A 
ATOM      6  C   UNL     1       9.011  -0.886   9.344  1.00  0.00     0.134 A 
ATOM      7  C   UNL     1      10.286  -1.255   8.898  1.00  0.00     0.093 A 
ATOM      8  C   UNL     1      11.386  -1.225   9.756  1.00  0.00     0.123 A 
ATOM      9  C   UNL     1      11.220  -0.817  11.080  1.00  0.00     0.094 A 
ATOM     10  C   UNL     1       9.967  -0.410  11.545  1.00  0.00     0.146 A 
ATOM     11  O   UNL     1       9.854  -0.019  12.808  1.00  0.00    -0.452 OA
ENDROOT
BRANCH   1  12
ATOM     12  C   UNL     1       8.719   0.790  14.774  1.00  0.00     0.025 A 
ATOM     13  C   UNL     1       8.954   2.124  15.133  1.00  0.00     0.016 A 
ATOM     14  C   UNL     1       8.980   2.503  16.476  1.00  0.00     0.051 A 
ATOM     15  C   UNL     1       8.788   1.556  17.488  1.00  0.00     0.157 A 
ATOM     16  C   UNL     1       8.548  -0.169  15.788  1.00  0.00     0.062 A 
ATOM     17  C   UNL     1       8.577   0.200  17.139  1.00  0.00     0.158 A 
BRANCH  15  18
ATOM     18  O   UNL     1       8.819   1.999  18.811  1.00  0.00    -0.504 OA
ATOM     19  H   UNL     1       8.382   2.850  19.132  1.00  0.00     0.293 HD
ENDBRANCH  15  18
BRANCH  17  20
ATOM     20  O   UNL     1       8.398  -0.804  18.093  1.00  0.00    -0.504 OA
ATOM     21  H   UNL     1       7.694  -0.776  18.817  1.00  0.00     0.293 HD
ENDBRANCH  17  20
ENDBRANCH   1  12
BRANCH   2  22
ATOM     22  O   UNL     1       6.387   1.044  13.072  1.00  0.00    -0.502 OA
ATOM     23  H   UNL     1       5.498   0.565  13.012  1.00  0.00     0.293 HD
ENDBRANCH   2  22
BRANCH   6  24
ATOM     24  O   UNL     1       7.962  -1.043   8.433  1.00  0.00    -0.507 OA
ATOM     25  H   UNL     1       8.072  -1.076   7.430  1.00  0.00     0.293 HD
ENDBRANCH   6  24
BRANCH   8  26
ATOM     26  O   UNL     1      12.637  -1.613   9.283  1.00  0.00    -0.508 OA
ATOM     27  H   UNL     1      13.241  -0.967   8.787  1.00  0.00     0.293 HD
ENDBRANCH   8  26
TORSDOF 6
ENDMDL
MODEL 2
REMARK VINA RESULT:    -7.733      1.575      6.974
REMARK INTER + INTRA:          -9.629
REMARK INTER:                  -9.303
REMARK INTRA:                  -0.326
REMARK UNBOUND:                -0.314
REMARK SMILES O=c1c(O)c(-c2ccc(O)c(O)c2)oc2cc(O)cc(O)c12
REMARK SMILES IDX 5 1 3 2 2 3 1 4 22 5 20 6 19 7 17 8 16 9 15 10 14 11 6 12
REMARK SMILES IDX 7 13 8 14 9 15 13 16 11 17 10 18 12 20 4 22 21 24 18 26
REMARK H PARENT 10 19 12 21 4 23 21 25 18 27
REMARK Flexibility Score: inf
ROOT
ATOM      1  C   UNL     1       8.839   0.977  12.872  1.00  0.00     0.180 A 
ATOM      2  C   UNL     1       8.950   2.369  13.029  1.00  0.00     0.208 A 
ATOM      3  C   UNL     1       8.961   2.909  14.325  1.00  0.00     0.238 A 
ATOM      4  O   UNL     1       9.006   4.160  14.459  1.00  0.00    -0.285 OA
ATOM      5  C   UNL     1       8.879   2.050  15.447  1.00  0.00     0.111 A 
ATOM      6  C   UNL     1       8.922   2.485  16.806  1.00  0.00     0.134 A 
ATOM      7  C   UNL     1       8.701   1.561  17.835  1.00  0.00     0.093 A 
ATOM      8  C   UNL     1       8.502   0.209  17.558  1.00  0.00     0.123 A 
ATOM      9  C   UNL     1       8.517  -0.237  16.236  1.00  0.00     0.094 A 
ATOM     10  C   UNL     1       8.700   0.666  15.185  1.00  0.00     0.146 A 
ATOM     11  O   UNL     1       8.696   0.203  13.942  1.00  0.00    -0.452 OA
ENDROOT
BRANCH   1  12
ATOM     12  C   UNL     1       8.844   0.331  11.539  1.00  0.00     0.025 A 
ATOM     13  C   UNL     1       7.635   0.142  10.858  1.00  0.00     0.016 A 
ATOM     14  C   UNL     1       7.615  -0.482   9.609  1.00  0.00     0.051 A 
ATOM     15  C   UNL     1       8.799  -0.943   9.024  1.00  0.00     0.157 A 
ATOM     16  C   UNL     1      10.034  -0.151  10.965  1.00  0.00     0.062 A 
ATOM     17  C   UNL     1      10.024  -0.782   9.714  1.00  0.00     0.158 A 
BRANCH  15  18
ATOM     18  O   UNL     1       8.714  -1.553   7.771  1.00  0.00    -0.504 OA
ATOM     19  H   UNL     1       8.971  -2.512   7.590  1.00  0.00     0.293 HD
ENDBRANCH  15  18
BRANCH  17  20
ATOM     20  O   UNL     1      11.243  -1.234   9.203  1.00  0.00    -0.504 OA
ATOM     21  H   UNL     1      11.420  -2.189   8.927  1.00  0.00     0.293 HD
ENDBRANCH  17  20
ENDBRANCH   1  12
BRANCH   2  22
ATOM     22  O   UNL     1       9.008   3.201  11.908  1.00  0.00    -0.502 OA
ATOM     23  H   UNL     1       9.413   2.902  11.029  1.00  0.00     0.293 HD
ENDBRANCH   2  22
BRANCH   6  24
ATOM     24  O   UNL     1       9.204   3.797  17.196  1.00  0.00    -0.507 OA
ATOM     25  H   UNL     1       8.515   4.467  17.502  1.00  0.00     0.293 HD
ENDBRANCH   6  24
BRANCH   8  26
ATOM     26  O   UNL     1       8.301  -0.685  18.607  1.00  0.00    -0.508 OA
ATOM     27  H   UNL     1       8.378  -1.687  18.472  1.00  0.00     0.293 HD
ENDBRANCH   8  26
TORSDOF 6
ENDMDL
MODEL 3
REMARK VINA RESULT:    -7.576      0.726      1.503
REMARK INTER + INTRA:          -9.441
REMARK INTER:                  -9.160
REMARK INTRA:                  -0.281
REMARK UNBOUND:                -0.314
REMARK SMILES O=c1c(O)c(-c2ccc(O)c(O)c2)oc2cc(O)cc(O)c12
REMARK SMILES IDX 5 1 3 2 2 3 1 4 22 5 20 6 19 7 17 8 16 9 15 10 14 11 6 12
REMARK SMILES IDX 7 13 8 14 9 15 13 16 11 17 10 18 12 20 4 22 21 24 18 26
REMARK H PARENT 10 19 12 21 4 23 21 25 18 27
REMARK Flexibility Score: inf
ROOT
ATOM      1  C   UNL     1       8.941   0.250  13.215  1.00  0.00     0.180 A 
ATOM      2  C   UNL     1       7.870   0.379  12.314  1.00  0.00     0.208 A 
ATOM      3  C   UNL     1       8.055  -0.004  10.976  1.00  0.00     0.238 A 
ATOM      4  O   UNL     1       7.110   0.165  10.162  1.00  0.00    -0.285 OA
ATOM      5  C   UNL     1       9.303  -0.529  10.560  1.00  0.00     0.111 A 
ATOM      6  C   UNL     1       9.589  -0.987   9.239  1.00  0.00     0.134 A 
ATOM      7  C   UNL     1      10.896  -1.365   8.907  1.00  0.00     0.093 A 
ATOM      8  C   UNL     1      11.912  -1.362   9.862  1.00  0.00     0.123 A 
ATOM      9  C   UNL     1      11.629  -0.973  11.172  1.00  0.00     0.094 A 
ATOM     10  C   UNL     1      10.343  -0.556  11.526  1.00  0.00     0.146 A 
ATOM     11  O   UNL     1      10.118  -0.184  12.780  1.00  0.00    -0.452 OA
ENDROOT
BRANCH   1  12
ATOM     12  C   UNL     1       8.815   0.610  14.646  1.00  0.00     0.025 A 
ATOM     13  C   UNL     1       8.600  -0.398  15.596  1.00  0.00     0.016 A 
ATOM     14  C   UNL     1       8.460  -0.078  16.947  1.00  0.00     0.051 A 
ATOM     15  C   UNL     1       8.514   1.252  17.375  1.00  0.00     0.157 A 
ATOM     16  C   UNL     1       8.848   1.950  15.068  1.00  0.00     0.062 A 
ATOM     17  C   UNL     1       8.704   2.282  16.422  1.00  0.00     0.158 A 
BRANCH  15  18
ATOM     18  O   UNL     1       8.374   1.506  18.741  1.00  0.00    -0.504 OA
ATOM     19  H   UNL     1       9.129   1.446  19.407  1.00  0.00     0.293 HD
ENDBRANCH  15  18
BRANCH  17  20
ATOM     20  O   UNL     1       8.750   3.633  16.771  1.00  0.00    -0.504 OA
ATOM     21  H   UNL     1       9.363   4.308  16.336  1.00  0.00     0.293 HD
ENDBRANCH  17  20
ENDBRANCH   1  12
BRANCH   2  22
ATOM     22  O   UNL     1       6.654   0.920  12.740  1.00  0.00    -0.502 OA
ATOM     23  H   UNL     1       6.167   0.582  13.561  1.00  0.00     0.293 HD
ENDBRANCH   2  22
BRANCH   6  24
ATOM     24  O   UNL     1       8.628  -1.116   8.232  1.00  0.00    -0.507 OA
ATOM     25  H   UNL     1       8.639  -0.611   7.359  1.00  0.00     0.293 HD
ENDBRANCH   6  24
BRANCH   8  26
ATOM     26  O   UNL     1      13.197  -1.759   9.501  1.00  0.00    -0.508 OA
ATOM     27  H   UNL     1      13.599  -1.503   8.606  1.00  0.00     0.293 HD
ENDBRANCH   8  26
TORSDOF 6
ENDMDL
MODEL 4
REMARK VINA RESULT:    -7.460      3.190      5.470
REMARK INTER + INTRA:          -9.300
REMARK INTER:                  -8.986
REMARK INTRA:                  -0.314
REMARK UNBOUND:                -0.314
REMARK SMILES O=c1c(O)c(-c2ccc(O)c(O)c2)oc2cc(O)cc(O)c12
REMARK SMILES IDX 5 1 3 2 2 3 1 4 22 5 20 6 19 7 17 8 16 9 15 10 14 11 6 12
REMARK SMILES IDX 7 13 8 14 9 15 13 16 11 17 10 18 12 20 4 22 21 24 18 26
REMARK H PARENT 10 19 12 21 4 23 21 25 18 27
REMARK Flexibility Score: inf
ROOT
ATOM      1  C   UNL     1      10.304  -1.743  11.037  1.00  0.00     0.180 A 
ATOM      2  C   UNL     1      10.278  -3.146  11.115  1.00  0.00     0.208 A 
ATOM      3  C   UNL     1      11.492  -3.849  11.148  1.00  0.00     0.238 A 
ATOM      4  O   UNL     1      11.463  -5.107  11.163  1.00  0.00    -0.285 OA
ATOM      5  C   UNL     1      12.718  -3.141  11.120  1.00  0.00     0.111 A 
ATOM      6  C   UNL     1      14.007  -3.748  11.190  1.00  0.00     0.134 A 
ATOM      7  C   UNL     1      15.153  -2.960  11.022  1.00  0.00     0.093 A 
ATOM      8  C   UNL     1      15.059  -1.579  10.852  1.00  0.00     0.123 A 
ATOM      9  C   UNL     1      13.805  -0.967  10.842  1.00  0.00     0.094 A 
ATOM     10  C   UNL     1      12.642  -1.731  10.971  1.00  0.00     0.146 A 
ATOM     11  O   UNL     1      11.469  -1.111  10.946  1.00  0.00    -0.452 OA
ENDROOT
BRANCH   1  12
ATOM     12  C   UNL     1       9.066  -0.931  11.023  1.00  0.00     0.025 A 
ATOM     13  C   UNL     1       8.414  -0.687   9.807  1.00  0.00     0.016 A 
ATOM     14  C   UNL     1       7.256   0.092   9.769  1.00  0.00     0.051 A 
ATOM     15  C   UNL     1       6.736   0.656  10.939  1.00  0.00     0.157 A 
ATOM     16  C   UNL     1       8.560  -0.348  12.198  1.00  0.00     0.062 A 
ATOM     17  C   UNL     1       7.402   0.439  12.170  1.00  0.00     0.158 A 
BRANCH  15  18
ATOM     18  O   UNL     1       5.572   1.420  10.835  1.00  0.00    -0.504 OA
ATOM     19  H   UNL     1       5.257   1.856   9.981  1.00  0.00     0.293 HD
ENDBRANCH  15  18
BRANCH  17  20
ATOM     20  O   UNL     1       6.954   0.985  13.375  1.00  0.00    -0.504 OA
ATOM     21  H   UNL     1       6.106   1.526  13.469  1.00  0.00     0.293 HD
ENDBRANCH  17  20
ENDBRANCH   1  12
BRANCH   2  22
ATOM     22  O   UNL     1       9.058  -3.827  11.120  1.00  0.00    -0.502 OA
ATOM     23  H   UNL     1       8.873  -4.616  10.514  1.00  0.00     0.293 HD
ENDBRANCH   2  22
BRANCH   6  24
ATOM     24  O   UNL     1      14.217  -5.106  11.447  1.00  0.00    -0.507 OA
ATOM     25  H   UNL     1      13.572  -5.844  11.206  1.00  0.00     0.293 HD
ENDBRANCH   6  24
BRANCH   8  26
ATOM     26  O   UNL     1      16.220  -0.824  10.704  1.00  0.00    -0.508 OA
ATOM     27  H   UNL     1      16.430  -0.049  11.323  1.00  0.00     0.293 HD
ENDBRANCH   8  26
TORSDOF 6
ENDMDL
MODEL 5
REMARK VINA RESULT:    -7.277      1.677      3.535
REMARK INTER + INTRA:          -9.080
REMARK INTER:                  -8.759
REMARK INTRA:                  -0.320
REMARK UNBOUND:                -0.314
REMARK SMILES O=c1c(O)c(-c2ccc(O)c(O)c2)oc2cc(O)cc(O)c12
REMARK SMILES IDX 5 1 3 2 2 3 1 4 22 5 20 6 19 7 17 8 16 9 15 10 14 11 6 12
REMARK SMILES IDX 7 13 8 14 9 15 13 16 11 17 10 18 12 20 4 22 21 24 18 26
REMARK H PARENT 10 19 12 21 4 23 21 25 18 27
REMARK Flexibility Score: inf
ROOT
ATOM      1  C   UNL     1      10.474  -0.236  13.897  1.00  0.00     0.180 A 
ATOM      2  C   UNL     1      11.855  -0.498  13.863  1.00  0.00     0.208 A 
ATOM      3  C   UNL     1      12.456  -0.823  12.637  1.00  0.00     0.238 A 
ATOM      4  O   UNL     1      13.682  -1.110  12.622  1.00  0.00    -0.285 OA
ATOM      5  C   UNL     1      11.674  -0.867  11.458  1.00  0.00     0.111 A 
ATOM      6  C   UNL     1      12.185  -1.146  10.156  1.00  0.00     0.134 A 
ATOM      7  C   UNL     1      11.299  -1.291   9.081  1.00  0.00     0.093 A 
ATOM      8  C   UNL     1       9.928  -1.104   9.248  1.00  0.00     0.123 A 
ATOM      9  C   UNL     1       9.422  -0.772  10.506  1.00  0.00     0.094 A 
ATOM     10  C   UNL     1      10.277  -0.655  11.605  1.00  0.00     0.146 A 
ATOM     11  O   UNL     1       9.755  -0.349  12.786  1.00  0.00    -0.452 OA
ENDROOT
BRANCH   1  12
ATOM     12  C   UNL     1       9.773   0.139  15.146  1.00  0.00     0.025 A 
ATOM     13  C   UNL     1       9.268  -0.866  15.983  1.00  0.00     0.016 A 
ATOM     14  C   UNL     1       8.587  -0.535  17.156  1.00  0.00     0.051 A 
ATOM     15  C   UNL     1       8.383   0.803  17.508  1.00  0.00     0.157 A 
ATOM     16  C   UNL     1       9.550   1.485  15.485  1.00  0.00     0.062 A 
ATOM     17  C   UNL     1       8.865   1.827  16.658  1.00  0.00     0.158 A 
BRANCH  15  18
ATOM     18  O   UNL     1       7.700   1.069  18.697  1.00  0.00    -0.504 OA
ATOM     19  H   UNL     1       7.050   0.430  19.130  1.00  0.00     0.293 HD
ENDBRANCH  15  18
BRANCH  17  20
ATOM     20  O   UNL     1       8.682   3.184  16.934  1.00  0.00    -0.504 OA
ATOM     21  H   UNL     1       8.666   3.574  17.865  1.00  0.00     0.293 HD
ENDBRANCH  17  20
ENDBRANCH   1  12
BRANCH   2  22
ATOM     22  O   UNL     1      12.604  -0.471  15.042  1.00  0.00    -0.502 OA
ATOM     23  H   UNL     1      13.605  -0.622  15.054  1.00  0.00     0.293 HD
ENDBRANCH   2  22
BRANCH   6  24
ATOM     24  O   UNL     1      13.547  -1.261   9.861  1.00  0.00    -0.507 OA
ATOM     25  H   UNL     1      14.279  -1.358  10.549  1.00  0.00     0.293 HD
ENDBRANCH   6  24
BRANCH   8  26
ATOM     26  O   UNL     1       9.077  -1.241   8.154  1.00  0.00    -0.508 OA
ATOM     27  H   UNL     1       9.136  -0.619   7.355  1.00  0.00     0.293 HD
ENDBRANCH   8  26
TORSDOF 6
ENDMDL
MODEL 6
REMARK VINA RESULT:    -7.265      2.036      6.606
REMARK INTER + INTRA:          -9.066
REMARK INTER:                  -8.792
REMARK INTRA:                  -0.274
REMARK UNBOUND:                -0.314
REMARK SMILES O=c1c(O)c(-c2ccc(O)c(O)c2)oc2cc(O)cc(O)c12
REMARK SMILES IDX 5 1 3 2 2 3 1 4 22 5 20 6 19 7 17 8 16 9 15 10 14 11 6 12
REMARK SMILES IDX 7 13 8 14 9 15 13 16 11 17 10 18 12 20 4 22 21 24 18 26
REMARK H PARENT 10 19 12 21 4 23 21 25 18 27
REMARK Flexibility Score: inf
ROOT
ATOM      1  C   UNL     1      11.148  -0.078  12.546  1.00  0.00     0.180 A 
ATOM      2  C   UNL     1       9.907  -0.045  11.887  1.00  0.00     0.208 A 
ATOM      3  C   UNL     1       8.758   0.298  12.617  1.00  0.00     0.238 A 
ATOM      4  O   UNL     1       7.642   0.274  12.035  1.00  0.00    -0.285 OA
ATOM      5  C   UNL     1       8.866   0.618  13.992  1.00  0.00     0.111 A 
ATOM      6  C   UNL     1       7.774   1.018  14.819  1.00  0.00     0.134 A 
ATOM      7  C   UNL     1       7.974   1.185  16.196  1.00  0.00     0.093 A 
ATOM      8  C   UNL     1       9.238   1.029  16.764  1.00  0.00     0.123 A 
ATOM      9  C   UNL     1      10.325   0.696  15.954  1.00  0.00     0.094 A 
ATOM     10  C   UNL     1      10.150   0.488  14.584  1.00  0.00     0.146 A 
ATOM     11  O   UNL     1      11.208   0.162  13.851  1.00  0.00    -0.452 OA
ENDROOT
BRANCH   1  12
ATOM     12  C   UNL     1      12.407  -0.406  11.839  1.00  0.00     0.025 A 
ATOM     13  C   UNL     1      13.269   0.627  11.448  1.00  0.00     0.016 A 
ATOM     14  C   UNL     1      14.452   0.341  10.763  1.00  0.00     0.051 A 
ATOM     15  C   UNL     1      14.789  -0.977  10.441  1.00  0.00     0.157 A 
ATOM     16  C   UNL     1      12.731  -1.731  11.498  1.00  0.00     0.062 A 
ATOM     17  C   UNL     1      13.913  -2.028  10.807  1.00  0.00     0.158 A 
BRANCH  15  18
ATOM     18  O   UNL     1      15.989  -1.198   9.762  1.00  0.00    -0.504 OA
ATOM     19  H   UNL     1      16.892  -0.904  10.101  1.00  0.00     0.293 HD
ENDBRANCH  15  18
BRANCH  17  20
ATOM     20  O   UNL     1      14.172  -3.366  10.503  1.00  0.00    -0.504 OA
ATOM     21  H   UNL     1      13.469  -4.020  10.190  1.00  0.00     0.293 HD
ENDBRANCH  17  20
ENDBRANCH   1  12
BRANCH   2  22
ATOM     22  O   UNL     1       9.819  -0.385  10.535  1.00  0.00    -0.502 OA
ATOM     23  H   UNL     1       8.950  -0.667  10.100  1.00  0.00     0.293 HD
ENDBRANCH   2  22
BRANCH   6  24
ATOM     24  O   UNL     1       6.490   1.290  14.339  1.00  0.00    -0.507 OA
ATOM     25  H   UNL     1       5.667   1.383  14.916  1.00  0.00     0.293 HD
ENDBRANCH   6  24
BRANCH   8  26
ATOM     26  O   UNL     1       9.403   1.218  18.134  1.00  0.00    -0.508 OA
ATOM     27  H   UNL     1       9.452   2.146  18.539  1.00  0.00     0.293 HD
ENDBRANCH   8  26
TORSDOF 6
ENDMDL
MODEL 7
REMARK VINA RESULT:    -7.164      1.628      3.284
REMARK INTER + INTRA:          -8.944
REMARK INTER:                  -8.622
REMARK INTRA:                  -0.322
REMARK UNBOUND:                -0.314
REMARK SMILES O=c1c(O)c(-c2ccc(O)c(O)c2)oc2cc(O)cc(O)c12
REMARK SMILES IDX 5 1 3 2 2 3 1 4 22 5 20 6 19 7 17 8 16 9 15 10 14 11 6 12
REMARK SMILES IDX 7 13 8 14 9 15 13 16 11 17 10 18 12 20 4 22 21 24 18 26
REMARK H PARENT 10 19 12 21 4 23 21 25 18 27
REMARK Flexibility Score: inf
ROOT
ATOM      1  C   UNL     1       9.143   1.127  14.229  1.00  0.00     0.180 A 
ATOM      2  C   UNL     1      10.185   0.411  13.614  1.00  0.00     0.208 A 
ATOM      3  C   UNL     1      10.000  -0.074  12.310  1.00  0.00     0.238 A 
ATOM      4  O   UNL     1      10.916  -0.761  11.785  1.00  0.00    -0.285 OA
ATOM      5  C   UNL     1       8.784   0.175  11.631  1.00  0.00     0.111 A 
ATOM      6  C   UNL     1       8.503  -0.235  10.293  1.00  0.00     0.134 A 
ATOM      7  C   UNL     1       7.219  -0.048   9.768  1.00  0.00     0.093 A 
ATOM      8  C   UNL     1       6.224   0.592  10.507  1.00  0.00     0.123 A 
ATOM      9  C   UNL     1       6.505   1.050  11.794  1.00  0.00     0.094 A 
ATOM     10  C   UNL     1       7.766   0.847  12.360  1.00  0.00     0.146 A 
ATOM     11  O   UNL     1       7.990   1.288  13.591  1.00  0.00    -0.452 OA
ENDROOT
BRANCH   1  12
ATOM     12  C   UNL     1       9.272   1.692  15.592  1.00  0.00     0.025 A 
ATOM     13  C   UNL     1       9.841   2.961  15.763  1.00  0.00     0.016 A 
ATOM     14  C   UNL     1       9.990   3.504  17.041  1.00  0.00     0.051 A 
ATOM     15  C   UNL     1       9.588   2.786  18.172  1.00  0.00     0.157 A 
ATOM     16  C   UNL     1       8.888   0.958  16.727  1.00  0.00     0.062 A 
ATOM     17  C   UNL     1       9.036   1.492  18.014  1.00  0.00     0.158 A 
BRANCH  15  18
ATOM     18  O   UNL     1       9.757   3.387  19.421  1.00  0.00    -0.504 OA
ATOM     19  H   UNL     1      10.648   3.688  19.787  1.00  0.00     0.293 HD
ENDBRANCH  15  18
BRANCH  17  20
ATOM     20  O   UNL     1       8.632   0.708  19.096  1.00  0.00    -0.504 OA
ATOM     21  H   UNL     1       7.977  -0.058  19.025  1.00  0.00     0.293 HD
ENDBRANCH  17  20
ENDBRANCH   1  12
BRANCH   2  22
ATOM     22  O   UNL     1      11.370   0.158  14.311  1.00  0.00    -0.502 OA
ATOM     23  H   UNL     1      12.199   0.728  14.200  1.00  0.00     0.293 HD
ENDBRANCH   2  22
BRANCH   6  24
ATOM     24  O   UNL     1       9.451  -0.801   9.436  1.00  0.00    -0.507 OA
ATOM     25  H   UNL     1      10.408  -0.491   9.351  1.00  0.00     0.293 HD
ENDBRANCH   6  24
BRANCH   8  26
ATOM     26  O   UNL     1       4.962   0.775   9.947  1.00  0.00    -0.508 OA
ATOM     27  H   UNL     1       4.798   1.466   9.223  1.00  0.00     0.293 HD
ENDBRANCH   8  26
TORSDOF 6
ENDMDL
MODEL 8
REMARK VINA RESULT:    -7.162      1.599      2.185
REMARK INTER + INTRA:          -8.942
REMARK INTER:                  -8.627
REMARK INTRA:                  -0.315
REMARK UNBOUND:                -0.314
REMARK SMILES O=c1c(O)c(-c2ccc(O)c(O)c2)oc2cc(O)cc(O)c12
REMARK SMILES IDX 5 1 3 2 2 3 1 4 22 5 20 6 19 7 17 8 16 9 15 10 14 11 6 12
REMARK SMILES IDX 7 13 8 14 9 15 13 16 11 17 10 18 12 20 4 22 21 24 18 26
REMARK H PARENT 10 19 12 21 4 23 21 25 18 27
REMARK Flexibility Score: inf
ROOT
ATOM      1  C   UNL     1      10.150  -0.009  13.505  1.00  0.00     0.180 A 
ATOM      2  C   UNL     1       9.349  -0.161  12.360  1.00  0.00     0.208 A 
ATOM      3  C   UNL     1       9.959  -0.506  11.144  1.00  0.00     0.238 A 
ATOM      4  O   UNL     1       9.245  -0.588  10.110  1.00  0.00    -0.285 OA
ATOM      5  C   UNL     1      11.359  -0.710  11.090  1.00  0.00     0.111 A 
ATOM      6  C   UNL     1      12.078  -1.101   9.921  1.00  0.00     0.134 A 
ATOM      7  C   UNL     1      13.477  -1.147   9.952  1.00  0.00     0.093 A 
ATOM      8  C   UNL     1      14.180  -0.879  11.126  1.00  0.00     0.123 A 
ATOM      9  C   UNL     1      13.485  -0.554  12.291  1.00  0.00     0.094 A 
ATOM     10  C   UNL     1      12.090  -0.465  12.283  1.00  0.00     0.146 A 
ATOM     11  O   UNL     1      11.467  -0.142  13.410  1.00  0.00    -0.452 OA
ENDROOT
BRANCH   1  12
ATOM     12  C   UNL     1       9.577   0.329  14.828  1.00  0.00     0.025 A 
ATOM     13  C   UNL     1       9.366   1.672  15.168  1.00  0.00     0.016 A 
ATOM     14  C   UNL     1       8.846   2.014  16.417  1.00  0.00     0.051 A 
ATOM     15  C   UNL     1       8.540   1.024  17.357  1.00  0.00     0.157 A 
ATOM     16  C   UNL     1       9.292  -0.667  15.778  1.00  0.00     0.062 A 
ATOM     17  C   UNL     1       8.772  -0.335  17.036  1.00  0.00     0.158 A 
BRANCH  15  18
ATOM     18  O   UNL     1       8.015   1.430  18.586  1.00  0.00    -0.504 OA
ATOM     19  H   UNL     1       8.100   0.898  19.439  1.00  0.00     0.293 HD
ENDBRANCH  15  18
BRANCH  17  20
ATOM     20  O   UNL     1       8.510  -1.376  17.929  1.00  0.00    -0.504 OA
ATOM     21  H   UNL     1       8.971  -2.274  17.900  1.00  0.00     0.293 HD
ENDBRANCH  17  20
ENDBRANCH   1  12
BRANCH   2  22
ATOM     22  O   UNL     1       7.972   0.066  12.430  1.00  0.00    -0.502 OA
ATOM     23  H   UNL     1       7.559   0.970  12.236  1.00  0.00     0.293 HD
ENDBRANCH   2  22
BRANCH   6  24
ATOM     24  O   UNL     1      11.468  -1.478   8.721  1.00  0.00    -0.507 OA
ATOM     25  H   UNL     1      11.597  -1.008   7.838  1.00  0.00     0.293 HD
ENDBRANCH   6  24
BRANCH   8  26
ATOM     26  O   UNL     1      15.571  -0.950  11.126  1.00  0.00    -0.508 OA
ATOM     27  H   UNL     1      16.080  -1.392  11.883  1.00  0.00     0.293 HD
ENDBRANCH   8  26
TORSDOF 6
ENDMDL
MODEL 9
REMARK VINA RESULT:    -7.055      2.251      6.379
REMARK INTER + INTRA:          -8.812
REMARK INTER:                  -8.483
REMARK INTRA:                  -0.329
REMARK UNBOUND:                -0.314
REMARK SMILES O=c1c(O)c(-c2ccc(O)c(O)c2)oc2cc(O)cc(O)c12
REMARK SMILES IDX 5 1 3 2 2 3 1 4 22 5 20 6 19 7 17 8 16 9 15 10 14 11 6 12
REMARK SMILES IDX 7 13 8 14 9 15 13 16 11 17 10 18 12 20 4 22 21 24 18 26
REMARK H PARENT 10 19 12 21 4 23 21 25 18 27
REMARK Flexibility Score: inf
ROOT
ATOM      1  C   UNL     1      10.976  -0.754  11.954  1.00  0.00     0.180 A 
ATOM      2  C   UNL     1      10.016  -0.807  10.929  1.00  0.00     0.208 A 
ATOM      3  C   UNL     1       8.730  -0.299  11.172  1.00  0.00     0.238 A 
ATOM      4  O   UNL     1       7.859  -0.398  10.269  1.00  0.00    -0.285 OA
ATOM      5  C   UNL     1       8.425   0.272  12.431  1.00  0.00     0.111 A 
ATOM      6  C   UNL     1       7.168   0.853  12.774  1.00  0.00     0.134 A 
ATOM      7  C   UNL     1       6.935   1.270  14.091  1.00  0.00     0.093 A 
ATOM      8  C   UNL     1       7.934   1.186  15.060  1.00  0.00     0.123 A 
ATOM      9  C   UNL     1       9.187   0.674  14.721  1.00  0.00     0.094 A 
ATOM     10  C   UNL     1       9.438   0.217  13.425  1.00  0.00     0.146 A 
ATOM     11  O   UNL     1      10.640  -0.273  13.146  1.00  0.00    -0.452 OA
ENDROOT
BRANCH   1  12
ATOM     12  C   UNL     1      12.359  -1.247  11.765  1.00  0.00     0.025 A 
ATOM     13  C   UNL     1      12.702  -2.530  12.211  1.00  0.00     0.016 A 
ATOM     14  C   UNL     1      14.006  -3.007  12.061  1.00  0.00     0.051 A 
ATOM     15  C   UNL     1      14.995  -2.208  11.478  1.00  0.00     0.157 A 
ATOM     16  C   UNL     1      13.355  -0.432  11.200  1.00  0.00     0.062 A 
ATOM     17  C   UNL     1      14.667  -0.900  11.048  1.00  0.00     0.158 A 
BRANCH  15  18
ATOM     18  O   UNL     1      16.277  -2.745  11.350  1.00  0.00    -0.504 OA
ATOM     19  H   UNL     1      16.465  -3.701  11.086  1.00  0.00     0.293 HD
ENDBRANCH  15  18
BRANCH  17  20
ATOM     20  O   UNL     1      15.605  -0.038  10.476  1.00  0.00    -0.504 OA
ATOM     21  H   UNL     1      16.583  -0.021  10.725  1.00  0.00     0.293 HD
ENDBRANCH  17  20
ENDBRANCH   1  12
BRANCH   2  22
ATOM     22  O   UNL     1      10.332  -1.394   9.700  1.00  0.00    -0.502 OA
ATOM     23  H   UNL     1       9.742  -2.091   9.263  1.00  0.00     0.293 HD
ENDBRANCH   2  22
BRANCH   6  24
ATOM     24  O   UNL     1       6.132   1.068  11.860  1.00  0.00    -0.507 OA
ATOM     25  H   UNL     1       5.663   1.950  11.719  1.00  0.00     0.293 HD
ENDBRANCH   6  24
BRANCH   8  26
ATOM     26  O   UNL     1       7.673   1.625  16.356  1.00  0.00    -0.508 OA
ATOM     27  H   UNL     1       8.402   1.663  17.060  1.00  0.00     0.293 HD
ENDBRANCH   8  26
TORSDOF 6
ENDMDL
