MODEL 1
REMARK VINA RESULT:    -4.437      0.000      0.000
REMARK INTER + INTRA:          -4.877
REMARK INTER:                  -4.826
REMARK INTRA:                  -0.051
REMARK UNBOUND:                -0.051
REMARK SMILES COc1cc2ccc(=O)oc2cc1O
REMARK SMILES IDX 3 1 13 2 12 3 11 4 5 5 4 6 6 7 7 8 8 9 9 10 10 11 2 12 1 13
REMARK SMILES IDX 14 14
REMARK H PARENT 14 15
REMARK Flexibility Score: inf
ROOT
ATOM      1  C   UNL     1      50.339  47.657  14.373  1.00  0.00     0.161 A 
ATOM      2  C   UNL     1      51.503  47.034  13.896  1.00  0.00     0.161 A 
ATOM      3  C   UNL     1      52.210  47.583  12.818  1.00  0.00     0.098 A 
ATOM      4  C   UNL     1      51.761  48.758  12.207  1.00  0.00     0.142 A 
ATOM      5  C   UNL     1      50.593  49.390  12.680  1.00  0.00     0.022 A 
ATOM      6  C   UNL     1      49.886  48.842  13.759  1.00  0.00     0.062 A 
ATOM      7  C   UNL     1      50.170  50.565  12.048  1.00  0.00     0.019 A 
ATOM      8  C   UNL     1      50.907  51.071  10.979  1.00  0.00     0.094 A 
ATOM      9  C   UNL     1      52.056  50.389  10.565  1.00  0.00     0.336 A 
ATOM     10  O   UNL     1      52.735  50.830   9.601  1.00  0.00    -0.246 OA
ATOM     11  O   UNL     1      52.437  49.274  11.183  1.00  0.00    -0.423 OA
ENDROOT
BRANCH   1  12
ATOM     12  O   UNL     1      49.665  47.072  15.456  1.00  0.00    -0.493 OA
ATOM     13  C   UNL     1      48.585  46.150  15.330  1.00  0.00     0.278 C 
ENDBRANCH   1  12
BRANCH   2  14
ATOM     14  O   UNL     1      51.953  45.862  14.504  1.00  0.00    -0.504 OA
ATOM     15  H   UNL     1      51.405  45.011  14.485  1.00  0.00     0.293 HD
ENDBRANCH   2  14
TORSDOF 2
ENDMDL
MODEL 2
REMARK VINA RESULT:    -4.158      3.260      5.015
REMARK INTER + INTRA:          -4.574
REMARK INTER:                  -4.513
REMARK INTRA:                  -0.061
REMARK UNBOUND:                -0.051
REMARK SMILES COc1cc2ccc(=O)oc2cc1O
REMARK SMILES IDX 3 1 13 2 12 3 11 4 5 5 4 6 6 7 7 8 8 9 9 10 10 11 2 12 1 13
REMARK SMILES IDX 14 14
REMARK H PARENT 14 15
REMARK Flexibility Score: inf
ROOT
ATOM      1  C   UNL     1      50.953  50.866  10.287  1.00  0.00     0.161 A 
ATOM      2  C   UNL     1      52.357  50.839  10.291  1.00  0.00     0.161 A 
ATOM      3  C   UNL     1      53.062  50.888  11.501  1.00  0.00     0.098 A 
ATOM      4  C   UNL     1      52.374  50.964  12.716  1.00  0.00     0.142 A 
ATOM      5  C   UNL     1      50.964  50.991  12.720  1.00  0.00     0.022 A 
ATOM      6  C   UNL     1      50.258  50.942  11.510  1.00  0.00     0.062 A 
ATOM      7  C   UNL     1      50.304  51.067  13.951  1.00  0.00     0.019 A 
ATOM      8  C   UNL     1      51.051  51.114  15.128  1.00  0.00     0.094 A 
ATOM      9  C   UNL     1      52.447  51.083  15.045  1.00  0.00     0.336 A 
ATOM     10  O   UNL     1      53.140  51.124  16.095  1.00  0.00    -0.246 OA
ATOM     11  O   UNL     1      53.050  51.011  13.861  1.00  0.00    -0.423 OA
ENDROOT
BRANCH   1  12
ATOM     12  O   UNL     1      50.289  50.815   9.052  1.00  0.00    -0.493 OA
ATOM     13  C   UNL     1      49.750  49.629   8.474  1.00  0.00     0.278 C 
ENDBRANCH   1  12
BRANCH   2  14
ATOM     14  O   UNL     1      53.046  50.763   9.082  1.00  0.00    -0.504 OA
ATOM     15  H   UNL     1      53.868  50.181   8.975  1.00  0.00     0.293 HD
ENDBRANCH   2  14
TORSDOF 2
ENDMDL
MODEL 3
REMARK VINA RESULT:    -4.122      1.768      5.482
REMARK INTER + INTRA:          -4.535
REMARK INTER:                  -4.471
REMARK INTRA:                  -0.064
REMARK UNBOUND:                -0.051
REMARK SMILES COc1cc2ccc(=O)oc2cc1O
REMARK SMILES IDX 3 1 13 2 12 3 11 4 5 5 4 6 6 7 7 8 8 9 9 10 10 11 2 12 1 13
REMARK SMILES IDX 14 14
REMARK H PARENT 14 15
REMARK Flexibility Score: inf
ROOT
ATOM      1  C   UNL     1      51.990  48.656  12.810  1.00  0.00     0.161 A 
ATOM      2  C   UNL     1      50.884  49.486  13.051  1.00  0.00     0.161 A 
ATOM      3  C   UNL     1      49.770  48.997  13.747  1.00  0.00     0.098 A 
ATOM      4  C   UNL     1      49.750  47.677  14.207  1.00  0.00     0.142 A 
ATOM      5  C   UNL     1      50.858  46.837  13.969  1.00  0.00     0.022 A 
ATOM      6  C   UNL     1      51.973  47.325  13.273  1.00  0.00     0.062 A 
ATOM      7  C   UNL     1      50.809  45.521  14.443  1.00  0.00     0.019 A 
ATOM      8  C   UNL     1      49.677  45.082  15.129  1.00  0.00     0.094 A 
ATOM      9  C   UNL     1      48.617  45.973  15.328  1.00  0.00     0.336 A 
ATOM     10  O   UNL     1      47.587  45.596  15.945  1.00  0.00    -0.246 OA
ATOM     11  O   UNL     1      48.689  47.219  14.867  1.00  0.00    -0.423 OA
ENDROOT
BRANCH   1  12
ATOM     12  O   UNL     1      53.084  49.188  12.109  1.00  0.00    -0.493 OA
ATOM     13  C   UNL     1      54.275  49.673  12.721  1.00  0.00     0.278 C 
ENDBRANCH   1  12
BRANCH   2  14
ATOM     14  O   UNL     1      50.901  50.803  12.593  1.00  0.00    -0.504 OA
ATOM     15  H   UNL     1      50.796  51.586  13.227  1.00  0.00     0.293 HD
ENDBRANCH   2  14
TORSDOF 2
ENDMDL
MODEL 4
REMARK VINA RESULT:    -4.043     15.574     17.545
REMARK INTER + INTRA:          -4.448
REMARK INTER:                  -4.403
REMARK INTRA:                  -0.045
REMARK UNBOUND:                -0.051
REMARK SMILES COc1cc2ccc(=O)oc2cc1O
REMARK SMILES IDX 3 1 13 2 12 3 11 4 5 5 4 6 6 7 7 8 8 9 9 10 10 11 2 12 1 13
REMARK SMILES IDX 14 14
REMARK H PARENT 14 15
REMARK Flexibility Score: inf
ROOT
ATOM      1  C   UNL     1      61.890  33.878  14.629  1.00  0.00     0.161 A 
ATOM      2  C   UNL     1      61.884  34.190  13.260  1.00  0.00     0.161 A 
ATOM      3  C   UNL     1      60.672  34.387  12.584  1.00  0.00     0.098 A 
ATOM      4  C   UNL     1      59.458  34.274  13.266  1.00  0.00     0.142 A 
ATOM      5  C   UNL     1      59.455  33.961  14.641  1.00  0.00     0.022 A 
ATOM      6  C   UNL     1      60.666  33.765  15.319  1.00  0.00     0.062 A 
ATOM      7  C   UNL     1      58.223  33.856  15.297  1.00  0.00     0.019 A 
ATOM      8  C   UNL     1      57.045  34.060  14.580  1.00  0.00     0.094 A 
ATOM      9  C   UNL     1      57.127  34.366  13.218  1.00  0.00     0.336 A 
ATOM     10  O   UNL     1      56.075  34.554  12.553  1.00  0.00    -0.246 OA
ATOM     11  O   UNL     1      58.311  34.461  12.618  1.00  0.00    -0.423 OA
ENDROOT
BRANCH   1  12
ATOM     12  O   UNL     1      63.127  33.691  15.264  1.00  0.00    -0.493 OA
ATOM     13  C   UNL     1      63.283  33.237  16.606  1.00  0.00     0.278 C 
ENDBRANCH   1  12
BRANCH   2  14
ATOM     14  O   UNL     1      63.093  34.304  12.576  1.00  0.00    -0.504 OA
ATOM     15  H   UNL     1      63.313  33.711  11.784  1.00  0.00     0.293 HD
ENDBRANCH   2  14
TORSDOF 2
ENDMDL
MODEL 5
REMARK VINA RESULT:    -4.019     15.751     17.770
REMARK INTER + INTRA:          -4.422
REMARK INTER:                  -4.357
REMARK INTRA:                  -0.065
REMARK UNBOUND:                -0.051
REMARK SMILES COc1cc2ccc(=O)oc2cc1O
REMARK SMILES IDX 3 1 13 2 12 3 11 4 5 5 4 6 6 7 7 8 8 9 9 10 10 11 2 12 1 13
REMARK SMILES IDX 14 14
REMARK H PARENT 14 15
REMARK Flexibility Score: inf
ROOT
ATOM      1  C   UNL     1      58.690  34.037  14.088  1.00  0.00     0.161 A 
ATOM      2  C   UNL     1      59.073  34.347  12.773  1.00  0.00     0.161 A 
ATOM      3  C   UNL     1      60.429  34.386  12.421  1.00  0.00     0.098 A 
ATOM      4  C   UNL     1      61.413  34.118  13.377  1.00  0.00     0.142 A 
ATOM      5  C   UNL     1      61.036  33.806  14.700  1.00  0.00     0.022 A 
ATOM      6  C   UNL     1      59.680  33.766  15.052  1.00  0.00     0.062 A 
ATOM      7  C   UNL     1      62.044  33.542  15.634  1.00  0.00     0.019 A 
ATOM      8  C   UNL     1      63.379  33.594  15.235  1.00  0.00     0.094 A 
ATOM      9  C   UNL     1      63.676  33.911  13.905  1.00  0.00     0.336 A 
ATOM     10  O   UNL     1      64.875  33.963  13.525  1.00  0.00    -0.246 OA
ATOM     11  O   UNL     1      62.699  34.158  13.037  1.00  0.00    -0.423 OA
ENDROOT
BRANCH   1  12
ATOM     12  O   UNL     1      57.320  34.009  14.394  1.00  0.00    -0.493 OA
ATOM     13  C   UNL     1      56.623  35.053  15.067  1.00  0.00     0.278 C 
ENDBRANCH   1  12
BRANCH   2  14
ATOM     14  O   UNL     1      58.094  34.615  11.817  1.00  0.00    -0.504 OA
ATOM     15  H   UNL     1      57.304  35.215  12.020  1.00  0.00     0.293 HD
ENDBRANCH   2  14
TORSDOF 2
ENDMDL
MODEL 6
REMARK VINA RESULT:    -3.959      1.273      4.911
REMARK INTER + INTRA:          -4.357
REMARK INTER:                  -4.305
REMARK INTRA:                  -0.052
REMARK UNBOUND:                -0.051
REMARK SMILES COc1cc2ccc(=O)oc2cc1O
REMARK SMILES IDX 3 1 13 2 12 3 11 4 5 5 4 6 6 7 7 8 8 9 9 10 10 11 2 12 1 13
REMARK SMILES IDX 14 14
REMARK H PARENT 14 15
REMARK Flexibility Score: inf
ROOT
ATOM      1  C   UNL     1      51.222  49.901  12.159  1.00  0.00     0.161 A 
ATOM      2  C   UNL     1      52.454  49.232  12.104  1.00  0.00     0.161 A 
ATOM      3  C   UNL     1      52.655  48.056  12.838  1.00  0.00     0.098 A 
ATOM      4  C   UNL     1      51.628  47.537  13.633  1.00  0.00     0.142 A 
ATOM      5  C   UNL     1      50.387  48.203  13.693  1.00  0.00     0.022 A 
ATOM      6  C   UNL     1      50.185  49.380  12.959  1.00  0.00     0.062 A 
ATOM      7  C   UNL     1      49.378  47.659  14.496  1.00  0.00     0.019 A 
ATOM      8  C   UNL     1      49.627  46.487  15.208  1.00  0.00     0.094 A 
ATOM      9  C   UNL     1      50.884  45.882  15.099  1.00  0.00     0.336 A 
ATOM     10  O   UNL     1      51.129  44.823  15.734  1.00  0.00    -0.246 OA
ATOM     11  O   UNL     1      51.826  46.420  14.328  1.00  0.00    -0.423 OA
ENDROOT
BRANCH   1  12
ATOM     12  O   UNL     1      51.066  51.076  11.406  1.00  0.00    -0.493 OA
ATOM     13  C   UNL     1      50.521  51.125  10.091  1.00  0.00     0.278 C 
ENDBRANCH   1  12
BRANCH   2  14
ATOM     14  O   UNL     1      53.481  49.747  11.312  1.00  0.00    -0.504 OA
ATOM     15  H   UNL     1      53.654  50.743  11.249  1.00  0.00     0.293 HD
ENDBRANCH   2  14
TORSDOF 2
ENDMDL
MODEL 7
REMARK VINA RESULT:    -3.883      2.073      3.417
REMARK INTER + INTRA:          -4.275
REMARK INTER:                  -4.211
REMARK INTRA:                  -0.064
REMARK UNBOUND:                -0.051
REMARK SMILES COc1cc2ccc(=O)oc2cc1O
REMARK SMILES IDX 3 1 13 2 12 3 11 4 5 5 4 6 6 7 7 8 8 9 9 10 10 11 2 12 1 13
REMARK SMILES IDX 14 14
REMARK H PARENT 14 15
REMARK Flexibility Score: inf
ROOT
ATOM      1  C   UNL     1      49.545  45.253  14.921  1.00  0.00     0.161 A 
ATOM      2  C   UNL     1      48.648  46.296  15.201  1.00  0.00     0.161 A 
ATOM      3  C   UNL     1      48.956  47.613  14.831  1.00  0.00     0.098 A 
ATOM      4  C   UNL     1      50.160  47.899  14.181  1.00  0.00     0.142 A 
ATOM      5  C   UNL     1      51.066  46.856  13.896  1.00  0.00     0.022 A 
ATOM      6  C   UNL     1      50.759  45.539  14.264  1.00  0.00     0.062 A 
ATOM      7  C   UNL     1      52.262  47.174  13.243  1.00  0.00     0.019 A 
ATOM      8  C   UNL     1      52.523  48.499  12.897  1.00  0.00     0.094 A 
ATOM      9  C   UNL     1      51.576  49.480  13.212  1.00  0.00     0.336 A 
ATOM     10  O   UNL     1      51.793  50.682  12.908  1.00  0.00    -0.246 OA
ATOM     11  O   UNL     1      50.447  49.151  13.833  1.00  0.00    -0.423 OA
ENDROOT
BRANCH   1  12
ATOM     12  O   UNL     1      49.194  43.950  15.309  1.00  0.00    -0.493 OA
ATOM     13  C   UNL     1      49.847  43.212  16.338  1.00  0.00     0.278 C 
ENDBRANCH   1  12
BRANCH   2  14
ATOM     14  O   UNL     1      47.447  46.014  15.849  1.00  0.00    -0.504 OA
ATOM     15  H   UNL     1      46.840  46.752  16.185  1.00  0.00     0.293 HD
ENDBRANCH   2  14
TORSDOF 2
ENDMDL
MODEL 8
REMARK VINA RESULT:    -3.880     12.488     14.708
REMARK INTER + INTRA:          -4.271
REMARK INTER:                  -4.206
REMARK INTRA:                  -0.065
REMARK UNBOUND:                -0.051
REMARK SMILES COc1cc2ccc(=O)oc2cc1O
REMARK SMILES IDX 3 1 13 2 12 3 11 4 5 5 4 6 6 7 7 8 8 9 9 10 10 11 2 12 1 13
REMARK SMILES IDX 14 14
REMARK H PARENT 14 15
REMARK Flexibility Score: inf
ROOT
ATOM      1  C   UNL     1      57.956  34.278  13.894  1.00  0.00     0.161 A 
ATOM      2  C   UNL     1      57.528  34.609  12.599  1.00  0.00     0.161 A 
ATOM      3  C   UNL     1      56.424  35.452  12.412  1.00  0.00     0.098 A 
ATOM      4  C   UNL     1      55.739  35.970  13.515  1.00  0.00     0.142 A 
ATOM      5  C   UNL     1      56.162  35.642  14.819  1.00  0.00     0.022 A 
ATOM      6  C   UNL     1      57.267  34.799  15.007  1.00  0.00     0.062 A 
ATOM      7  C   UNL     1      55.457  36.177  15.902  1.00  0.00     0.019 A 
ATOM      8  C   UNL     1      54.364  37.010  15.664  1.00  0.00     0.094 A 
ATOM      9  C   UNL     1      54.003  37.291  14.343  1.00  0.00     0.336 A 
ATOM     10  O   UNL     1      53.020  38.041  14.107  1.00  0.00    -0.246 OA
ATOM     11  O   UNL     1      54.691  36.770  13.330  1.00  0.00    -0.423 OA
ENDROOT
BRANCH   1  12
ATOM     12  O   UNL     1      59.067  33.430  14.033  1.00  0.00    -0.493 OA
ATOM     13  C   UNL     1      60.386  33.873  14.339  1.00  0.00     0.278 C 
ENDBRANCH   1  12
BRANCH   2  14
ATOM     14  O   UNL     1      58.210  34.094  11.497  1.00  0.00    -0.504 OA
ATOM     15  H   UNL     1      57.913  34.293  10.549  1.00  0.00     0.293 HD
ENDBRANCH   2  14
TORSDOF 2
ENDMDL
MODEL 9
REMARK VINA RESULT:    -3.852     12.768     15.006
REMARK INTER + INTRA:          -4.241
REMARK INTER:                  -4.177
REMARK INTRA:                  -0.063
REMARK UNBOUND:                -0.051
REMARK SMILES COc1cc2ccc(=O)oc2cc1O
REMARK SMILES IDX 3 1 13 2 12 3 11 4 5 5 4 6 6 7 7 8 8 9 9 10 10 11 2 12 1 13
REMARK SMILES IDX 14 14
REMARK H PARENT 14 15
REMARK Flexibility Score: inf
ROOT
ATOM      1  C   UNL     1      58.225  34.212  13.318  1.00  0.00     0.161 A 
ATOM      2  C   UNL     1      58.108  34.213  14.717  1.00  0.00     0.161 A 
ATOM      3  C   UNL     1      57.045  34.884  15.338  1.00  0.00     0.098 A 
ATOM      4  C   UNL     1      56.092  35.558  14.570  1.00  0.00     0.142 A 
ATOM      5  C   UNL     1      56.203  35.562  13.164  1.00  0.00     0.022 A 
ATOM      6  C   UNL     1      57.265  34.891  12.542  1.00  0.00     0.062 A 
ATOM      7  C   UNL     1      55.232  36.245  12.422  1.00  0.00     0.019 A 
ATOM      8  C   UNL     1      54.195  36.897  13.087  1.00  0.00     0.094 A 
ATOM      9  C   UNL     1      54.151  36.850  14.485  1.00  0.00     0.336 A 
ATOM     10  O   UNL     1      53.223  37.432  15.103  1.00  0.00    -0.246 OA
ATOM     11  O   UNL     1      55.086  36.193  15.166  1.00  0.00    -0.423 OA
ENDROOT
BRANCH   1  12
ATOM     12  O   UNL     1      59.305  33.527  12.740  1.00  0.00    -0.493 OA
ATOM     13  C   UNL     1      60.511  34.146  12.301  1.00  0.00     0.278 C 
ENDBRANCH   1  12
BRANCH   2  14
ATOM     14  O   UNL     1      59.057  33.541  15.486  1.00  0.00    -0.504 OA
ATOM     15  H   UNL     1      60.041  33.777  15.440  1.00  0.00     0.293 HD
ENDBRANCH   2  14
TORSDOF 2
ENDMDL
