MODEL 1
REMARK VINA RESULT:    -5.256      0.000      0.000
REMARK INTER + INTRA:          -7.310
REMARK INTER:                  -7.407
REMARK INTRA:                   0.097
REMARK UNBOUND:                 0.097
REMARK SMILES CC1=CCC(=C(C)C)C(=O)CC(C)=CCC1
REMARK SMILES IDX 12 1 14 2 13 3 15 4 16 5 2 6 1 7 3 8 11 10 9 11 10 12 5 13
REMARK SMILES IDX 6 14 7 15 8 16 4 17
REMARK H PARENT
REMARK Flexibility Score: 60.00
ROOT
ATOM      1  C   UNL     1      -8.606  32.752  26.705  1.00  0.00    -0.070 C 
ATOM      2  C   UNL     1      -8.337  33.971  26.170  1.00  0.00    -0.027 C 
ATOM      3  C   UNL     1      -8.266  32.552  28.163  1.00  0.00     0.039 C 
ENDROOT
BRANCH   2   4
ATOM      4  C   UNL     1      -8.452  34.362  24.715  1.00  0.00     0.032 C 
BRANCH   4   5
ATOM      5  C   UNL     1      -7.214  33.997  23.884  1.00  0.00     0.034 C 
BRANCH   5   6
ATOM      6  C   UNL     1      -7.564  33.285  22.591  1.00  0.00    -0.077 C 
ATOM      7  C   UNL     1      -7.984  34.117  21.403  1.00  0.00     0.039 C 
ATOM      8  C   UNL     1      -7.619  31.934  22.459  1.00  0.00    -0.023 CG0
ATOM      9  G   UNL     1      -7.141  30.887  23.448  1.00  0.00     0.000 G0
ENDBRANCH   5   6
ENDBRANCH   4   5
ENDBRANCH   2   4
BRANCH   1  10
ATOM     10  C   UNL     1      -9.334  31.624  25.983  1.00  0.00     0.111 C 
BRANCH  10  11
ATOM     11  C   UNL     1      -8.455  30.466  25.591  1.00  0.00     0.163 C 
ATOM     12  O   UNL     1      -7.882  29.804  26.498  1.00  0.00    -0.294 OA
BRANCH  11  13
ATOM     13  C   UNL     1      -8.216  30.102  24.164  1.00  0.00    -0.002 C 
ATOM     14  C   UNL     1      -8.844  29.044  23.575  1.00  0.00    -0.069 C 
ATOM     15  C   UNL     1      -8.607  28.706  22.121  1.00  0.00     0.039 C 
ATOM     16  C   UNL     1      -9.748  28.120  24.359  1.00  0.00     0.039 C 
BRANCH  13  17
ATOM     17  C   UNL     1      -7.134  30.885  23.439  1.00  0.00     0.066 CG0
ATOM     18  G   UNL     1      -7.627  31.923  22.448  1.00  0.00     0.000 G0
ENDBRANCH  13  17
ENDBRANCH  11  13
ENDBRANCH  10  11
ENDBRANCH   1  10
TORSDOF 0
ENDMDL
MODEL 2
REMARK VINA RESULT:    -5.039      1.841      3.957
REMARK INTER + INTRA:          -7.004
REMARK INTER:                  -7.771
REMARK INTRA:                   0.767
REMARK UNBOUND:                 0.097
REMARK SMILES CC1=CCC(=C(C)C)C(=O)CC(C)=CCC1
REMARK SMILES IDX 12 1 14 2 13 3 15 4 16 5 2 6 1 7 3 8 11 10 9 11 10 12 5 13
REMARK SMILES IDX 6 14 7 15 8 16 4 17
REMARK H PARENT
REMARK Flexibility Score: 60.00
ROOT
ATOM      1  C   UNL     1      -7.829  33.472  21.026  1.00  0.00    -0.070 C 
ATOM      2  C   UNL     1      -7.536  34.305  22.059  1.00  0.00    -0.027 C 
ATOM      3  C   UNL     1      -7.149  33.750  19.706  1.00  0.00     0.039 C 
ENDROOT
BRANCH   2   4
ATOM      4  C   UNL     1      -8.193  34.318  23.419  1.00  0.00     0.032 C 
BRANCH   4   5
ATOM      5  C   UNL     1      -7.516  33.388  24.436  1.00  0.00     0.034 C 
BRANCH   5   6
ATOM      6  C   UNL     1      -8.478  32.866  25.486  1.00  0.00    -0.077 C 
ATOM      7  C   UNL     1      -8.288  33.304  26.918  1.00  0.00     0.039 C 
ATOM      8  C   UNL     1      -9.447  31.946  25.237  1.00  0.00    -0.023 CG0
ATOM      9  G   UNL     1      -9.916  31.438  23.886  1.00  0.00     0.000 G0
ENDBRANCH   5   6
ENDBRANCH   4   5
ENDBRANCH   2   4
BRANCH   1  10
ATOM     10  C   UNL     1      -8.686  32.215  21.136  1.00  0.00     0.111 C 
BRANCH  10  11
ATOM     11  C   UNL     1      -8.129  31.162  22.057  1.00  0.00     0.163 C 
ATOM     12  O   UNL     1      -6.935  30.788  21.901  1.00  0.00    -0.294 OA
BRANCH  11  13
ATOM     13  C   UNL     1      -8.956  30.526  23.122  1.00  0.00    -0.002 C 
ATOM     14  C   UNL     1      -8.948  29.179  23.335  1.00  0.00    -0.069 C 
ATOM     15  C   UNL     1      -9.775  28.556  24.436  1.00  0.00     0.039 C 
ATOM     16  C   UNL     1      -8.172  28.239  22.440  1.00  0.00     0.039 C 
BRANCH  13  17
ATOM     17  C   UNL     1      -9.913  31.440  23.870  1.00  0.00     0.066 CG0
ATOM     18  G   UNL     1      -9.433  31.928  25.224  1.00  0.00     0.000 G0
ENDBRANCH  13  17
ENDBRANCH  11  13
ENDBRANCH  10  11
ENDBRANCH   1  10
TORSDOF 0
ENDMDL
MODEL 3
REMARK VINA RESULT:    -4.905      1.887      4.478
REMARK INTER + INTRA:          -6.815
REMARK INTER:                  -6.992
REMARK INTRA:                   0.177
REMARK UNBOUND:                 0.097
REMARK SMILES CC1=CCC(=C(C)C)C(=O)CC(C)=CCC1
REMARK SMILES IDX 12 1 14 2 13 3 15 4 16 5 2 6 1 7 3 8 11 10 9 11 10 12 5 13
REMARK SMILES IDX 6 14 7 15 8 16 4 17
REMARK H PARENT
REMARK Flexibility Score: 60.00
ROOT
ATOM      1  C   UNL     1      -7.614  33.882  22.199  1.00  0.00    -0.070 C 
ATOM      2  C   UNL     1      -7.847  33.113  21.104  1.00  0.00    -0.027 C 
ATOM      3  C   UNL     1      -7.656  35.380  22.008  1.00  0.00     0.039 C 
ENDROOT
BRANCH   2   4
ATOM      4  C   UNL     1      -7.717  31.611  21.013  1.00  0.00     0.032 C 
BRANCH   4   5
ATOM      5  C   UNL     1      -8.897  30.855  21.638  1.00  0.00     0.034 C 
BRANCH   5   6
ATOM      6  C   UNL     1      -8.482  29.980  22.806  1.00  0.00    -0.077 C 
ATOM      7  C   UNL     1      -7.519  28.846  22.549  1.00  0.00     0.039 C 
ATOM      8  C   UNL     1      -9.000  30.090  24.057  1.00  0.00    -0.023 CG0
ATOM      9  G   UNL     1      -9.882  31.198  24.601  1.00  0.00     0.000 G0
ENDBRANCH   5   6
ENDBRANCH   4   5
ENDBRANCH   2   4
BRANCH   1  10
ATOM     10  C   UNL     1      -7.442  33.349  23.617  1.00  0.00     0.111 C 
BRANCH  10  11
ATOM     11  C   UNL     1      -8.675  33.458  24.476  1.00  0.00     0.163 C 
ATOM     12  O   UNL     1      -9.305  34.550  24.499  1.00  0.00    -0.294 OA
BRANCH  11  13
ATOM     13  C   UNL     1      -9.151  32.327  25.323  1.00  0.00    -0.002 C 
ATOM     14  C   UNL     1      -8.850  32.243  26.650  1.00  0.00    -0.069 C 
ATOM     15  C   UNL     1      -9.362  31.100  27.498  1.00  0.00     0.039 C 
ATOM     16  C   UNL     1      -7.937  33.243  27.322  1.00  0.00     0.039 C 
BRANCH  13  17
ATOM     17  C   UNL     1      -9.872  31.200  24.602  1.00  0.00     0.066 CG0
ATOM     18  G   UNL     1      -8.987  30.092  24.063  1.00  0.00     0.000 G0
ENDBRANCH  13  17
ENDBRANCH  11  13
ENDBRANCH  10  11
ENDBRANCH   1  10
TORSDOF 0
ENDMDL
MODEL 4
REMARK VINA RESULT:    -4.781      1.584      2.751
REMARK INTER + INTRA:          -6.641
REMARK INTER:                  -6.755
REMARK INTRA:                   0.114
REMARK UNBOUND:                 0.097
REMARK SMILES CC1=CCC(=C(C)C)C(=O)CC(C)=CCC1
REMARK SMILES IDX 12 1 14 2 13 3 15 4 16 5 2 6 1 7 3 8 11 10 9 11 10 12 5 13
REMARK SMILES IDX 6 14 7 15 8 16 4 17
REMARK H PARENT
REMARK Flexibility Score: 60.00
ROOT
ATOM      1  C   UNL     1      -8.347  31.235  26.661  1.00  0.00    -0.070 C 
ATOM      2  C   UNL     1      -8.339  32.319  27.481  1.00  0.00    -0.027 C 
ATOM      3  C   UNL     1      -7.875  29.927  27.248  1.00  0.00     0.039 C 
ENDROOT
BRANCH   2   4
ATOM      4  C   UNL     1      -8.624  33.749  27.087  1.00  0.00     0.032 C 
BRANCH   4   5
ATOM      5  C   UNL     1      -7.662  34.295  26.023  1.00  0.00     0.034 C 
BRANCH   5   6
ATOM      6  C   UNL     1      -8.383  34.938  24.853  1.00  0.00    -0.077 C 
ATOM      7  C   UNL     1      -9.311  36.097  25.129  1.00  0.00     0.039 C 
ATOM      8  C   UNL     1      -8.325  34.474  23.577  1.00  0.00    -0.023 CG0
ATOM      9  G   UNL     1      -7.394  33.414  23.020  1.00  0.00     0.000 G0
ENDBRANCH   5   6
ENDBRANCH   4   5
ENDBRANCH   2   4
BRANCH   1  10
ATOM     10  C   UNL     1      -8.912  31.219  25.245  1.00  0.00     0.111 C 
BRANCH  10  11
ATOM     11  C   UNL     1      -7.869  31.169  24.159  1.00  0.00     0.163 C 
ATOM     12  O   UNL     1      -6.868  30.418  24.313  1.00  0.00    -0.294 OA
BRANCH  11  13
ATOM     13  C   UNL     1      -7.969  32.004  22.928  1.00  0.00    -0.002 C 
ATOM     14  C   UNL     1      -8.438  31.501  21.751  1.00  0.00    -0.069 C 
ATOM     15  C   UNL     1      -8.554  32.370  20.519  1.00  0.00     0.039 C 
ATOM     16  C   UNL     1      -8.796  30.040  21.599  1.00  0.00     0.039 C 
BRANCH  13  17
ATOM     17  C   UNL     1      -7.392  33.408  23.015  1.00  0.00     0.066 CG0
ATOM     18  G   UNL     1      -8.323  34.467  23.576  1.00  0.00     0.000 G0
ENDBRANCH  13  17
ENDBRANCH  11  13
ENDBRANCH  10  11
ENDBRANCH   1  10
TORSDOF 0
ENDMDL
MODEL 5
REMARK VINA RESULT:    -4.742      2.051      5.268
REMARK INTER + INTRA:          -6.585
REMARK INTER:                  -7.019
REMARK INTRA:                   0.434
REMARK UNBOUND:                 0.097
REMARK SMILES CC1=CCC(=C(C)C)C(=O)CC(C)=CCC1
REMARK SMILES IDX 12 1 14 2 13 3 15 4 16 5 2 6 1 7 3 8 11 10 9 11 10 12 5 13
REMARK SMILES IDX 6 14 7 15 8 16 4 17
REMARK H PARENT
REMARK Flexibility Score: 60.00
ROOT
ATOM      1  C   UNL     1      -8.111  32.439  20.913  1.00  0.00    -0.070 C 
ATOM      2  C   UNL     1      -8.242  31.093  20.779  1.00  0.00    -0.027 C 
ATOM      3  C   UNL     1      -7.133  33.128  19.992  1.00  0.00     0.039 C 
ENDROOT
BRANCH   2   4
ATOM      4  C   UNL     1      -9.039  30.172  21.672  1.00  0.00     0.032 C 
BRANCH   4   5
ATOM      5  C   UNL     1      -8.204  29.524  22.786  1.00  0.00     0.034 C 
BRANCH   5   6
ATOM      6  C   UNL     1      -8.723  29.850  24.174  1.00  0.00    -0.077 C 
ATOM      7  C   UNL     1      -9.654  28.869  24.843  1.00  0.00     0.039 C 
ATOM      8  C   UNL     1      -8.480  31.022  24.819  1.00  0.00    -0.023 CG0
ATOM      9  G   UNL     1      -7.499  32.110  24.425  1.00  0.00     0.000 G0
ENDBRANCH   5   6
ENDBRANCH   4   5
ENDBRANCH   2   4
BRANCH   1  10
ATOM     10  C   UNL     1      -8.966  33.310  21.826  1.00  0.00     0.111 C 
BRANCH  10  11
ATOM     11  C   UNL     1      -8.192  34.036  22.896  1.00  0.00     0.163 C 
ATOM     12  O   UNL     1      -7.593  35.103  22.593  1.00  0.00    -0.294 OA
BRANCH  11  13
ATOM     13  C   UNL     1      -8.086  33.513  24.288  1.00  0.00    -0.002 C 
ATOM     14  C   UNL     1      -8.386  34.283  25.373  1.00  0.00    -0.069 C 
ATOM     15  C   UNL     1      -8.297  33.727  26.776  1.00  0.00     0.039 C 
ATOM     16  C   UNL     1      -8.753  35.743  25.233  1.00  0.00     0.039 C 
BRANCH  13  17
ATOM     17  C   UNL     1      -7.496  32.121  24.444  1.00  0.00     0.066 CG0
ATOM     18  G   UNL     1      -8.478  31.029  24.822  1.00  0.00     0.000 G0
ENDBRANCH  13  17
ENDBRANCH  11  13
ENDBRANCH  10  11
ENDBRANCH   1  10
TORSDOF 0
ENDMDL
MODEL 6
REMARK VINA RESULT:    -4.658      1.837      2.390
REMARK INTER + INTRA:          -6.468
REMARK INTER:                  -7.375
REMARK INTRA:                   0.907
REMARK UNBOUND:                 0.097
REMARK SMILES CC1=CCC(=C(C)C)C(=O)CC(C)=CCC1
REMARK SMILES IDX 12 1 14 2 13 3 15 4 16 5 2 6 1 7 3 8 11 10 9 11 10 12 5 13
REMARK SMILES IDX 6 14 7 15 8 16 4 17
REMARK H PARENT
REMARK Flexibility Score: 60.00
ROOT
ATOM      1  C   UNL     1      -8.356  34.265  24.998  1.00  0.00    -0.070 C 
ATOM      2  C   UNL     1      -7.260  34.670  24.305  1.00  0.00    -0.027 C 
ATOM      3  C   UNL     1      -8.400  34.597  26.470  1.00  0.00     0.039 C 
ENDROOT
BRANCH   2   4
ATOM      4  C   UNL     1      -6.924  34.332  22.872  1.00  0.00     0.032 C 
BRANCH   4   5
ATOM      5  C   UNL     1      -8.156  34.230  21.962  1.00  0.00     0.034 C 
BRANCH   5   6
ATOM      6  C   UNL     1      -8.006  33.168  20.888  1.00  0.00    -0.077 C 
ATOM      7  C   UNL     1      -7.079  33.442  19.730  1.00  0.00     0.039 C 
ATOM      8  C   UNL     1      -8.733  32.020  20.850  1.00  0.00    -0.023 CG0
ATOM      9  G   UNL     1      -9.634  31.458  21.934  1.00  0.00     0.000 G0
ENDBRANCH   5   6
ENDBRANCH   4   5
ENDBRANCH   2   4
BRANCH   1  10
ATOM     10  C   UNL     1      -9.590  33.619  24.376  1.00  0.00     0.111 C 
BRANCH  10  11
ATOM     11  C   UNL     1      -9.588  32.113  24.413  1.00  0.00     0.163 C 
ATOM     12  O   UNL     1     -10.066  31.530  25.423  1.00  0.00    -0.294 OA
BRANCH  11  13
ATOM     13  C   UNL     1      -9.010  31.296  23.307  1.00  0.00    -0.002 C 
ATOM     14  C   UNL     1      -7.894  30.532  23.482  1.00  0.00    -0.069 C 
ATOM     15  C   UNL     1      -7.336  29.692  22.356  1.00  0.00     0.039 C 
ATOM     16  C   UNL     1      -7.122  30.541  24.782  1.00  0.00     0.039 C 
BRANCH  13  17
ATOM     17  C   UNL     1      -9.647  31.466  21.937  1.00  0.00     0.066 CG0
ATOM     18  G   UNL     1      -8.730  31.989  20.847  1.00  0.00     0.000 G0
ENDBRANCH  13  17
ENDBRANCH  11  13
ENDBRANCH  10  11
ENDBRANCH   1  10
TORSDOF 0
ENDMDL
MODEL 7
REMARK VINA RESULT:    -4.622      2.095      4.460
REMARK INTER + INTRA:          -6.416
REMARK INTER:                  -7.137
REMARK INTRA:                   0.720
REMARK UNBOUND:                 0.097
REMARK SMILES CC1=CCC(=C(C)C)C(=O)CC(C)=CCC1
REMARK SMILES IDX 12 1 14 2 13 3 15 4 16 5 2 6 1 7 3 8 11 10 9 11 10 12 5 13
REMARK SMILES IDX 6 14 7 15 8 16 4 17
REMARK H PARENT
REMARK Flexibility Score: 60.00
ROOT
ATOM      1  C   UNL     1      -7.773  30.280  23.942  1.00  0.00    -0.070 C 
ATOM      2  C   UNL     1      -7.900  30.258  25.295  1.00  0.00    -0.027 C 
ATOM      3  C   UNL     1      -6.382  30.469  23.386  1.00  0.00     0.039 C 
ENDROOT
BRANCH   2   4
ATOM      4  C   UNL     1      -9.191  30.228  26.079  1.00  0.00     0.032 C 
BRANCH   4   5
ATOM      5  C   UNL     1      -9.802  31.618  26.306  1.00  0.00     0.034 C 
BRANCH   5   6
ATOM      6  C   UNL     1      -8.864  32.744  25.913  1.00  0.00    -0.077 C 
ATOM      7  C   UNL     1      -7.874  33.245  26.936  1.00  0.00     0.039 C 
ATOM      8  C   UNL     1      -8.924  33.401  24.725  1.00  0.00    -0.023 CG0
ATOM      9  G   UNL     1      -9.736  33.027  23.499  1.00  0.00     0.000 G0
ENDBRANCH   5   6
ENDBRANCH   4   5
ENDBRANCH   2   4
BRANCH   1  10
ATOM     10  C   UNL     1      -8.903  30.002  22.957  1.00  0.00     0.111 C 
BRANCH  10  11
ATOM     11  C   UNL     1      -9.125  31.092  21.941  1.00  0.00     0.163 C 
ATOM     12  O   UNL     1      -9.435  30.769  20.763  1.00  0.00    -0.294 OA
BRANCH  11  13
ATOM     13  C   UNL     1      -8.958  32.534  22.280  1.00  0.00    -0.002 C 
ATOM     14  C   UNL     1      -8.064  33.330  21.626  1.00  0.00    -0.069 C 
ATOM     15  C   UNL     1      -7.926  34.796  21.968  1.00  0.00     0.039 C 
ATOM     16  C   UNL     1      -7.123  32.774  20.581  1.00  0.00     0.039 C 
BRANCH  13  17
ATOM     17  C   UNL     1      -9.734  33.040  23.485  1.00  0.00     0.066 CG0
ATOM     18  G   UNL     1      -8.902  33.383  24.706  1.00  0.00     0.000 G0
ENDBRANCH  13  17
ENDBRANCH  11  13
ENDBRANCH  10  11
ENDBRANCH   1  10
TORSDOF 0
ENDMDL
MODEL 8
REMARK VINA RESULT:    -4.507      1.896      3.739
REMARK INTER + INTRA:          -6.255
REMARK INTER:                  -7.498
REMARK INTRA:                   1.243
REMARK UNBOUND:                 0.097
REMARK SMILES CC1=CCC(=C(C)C)C(=O)CC(C)=CCC1
REMARK SMILES IDX 12 1 14 2 13 3 15 4 16 5 2 6 1 7 3 8 11 10 9 11 10 12 5 13
REMARK SMILES IDX 6 14 7 15 8 16 4 17
REMARK H PARENT
REMARK Flexibility Score: 60.00
ROOT
ATOM      1  C   UNL     1      -8.758  32.577  21.799  1.00  0.00    -0.070 C 
ATOM      2  C   UNL     1      -7.935  33.646  21.634  1.00  0.00    -0.027 C 
ATOM      3  C   UNL     1      -9.017  31.717  20.585  1.00  0.00     0.039 C 
ENDROOT
BRANCH   2   4
ATOM      4  C   UNL     1      -7.643  34.724  22.651  1.00  0.00     0.032 C 
BRANCH   4   5
ATOM      5  C   UNL     1      -7.218  34.175  24.021  1.00  0.00     0.034 C 
BRANCH   5   6
ATOM      6  C   UNL     1      -8.264  34.405  25.095  1.00  0.00    -0.077 C 
ATOM      7  C   UNL     1      -9.015  35.714  25.101  1.00  0.00     0.039 C 
ATOM      8  C   UNL     1      -8.502  33.543  26.119  1.00  0.00    -0.023 CG0
ATOM      9  G   UNL     1      -7.976  32.129  26.280  1.00  0.00     0.000 G0
ENDBRANCH   5   6
ENDBRANCH   4   5
ENDBRANCH   2   4
BRANCH   1  10
ATOM     10  C   UNL     1      -9.329  32.116  23.135  1.00  0.00     0.111 C 
BRANCH  10  11
ATOM     11  C   UNL     1      -8.405  31.235  23.935  1.00  0.00     0.163 C 
ATOM     12  O   UNL     1      -7.484  30.618  23.336  1.00  0.00    -0.294 OA
BRANCH  11  13
ATOM     13  C   UNL     1      -8.569  31.048  25.405  1.00  0.00    -0.002 C 
ATOM     14  C   UNL     1      -9.319  30.035  25.924  1.00  0.00    -0.069 C 
ATOM     15  C   UNL     1      -9.454  29.847  27.418  1.00  0.00     0.039 C 
ATOM     16  C   UNL     1     -10.108  29.097  25.038  1.00  0.00     0.039 C 
BRANCH  13  17
ATOM     17  C   UNL     1      -7.969  32.125  26.295  1.00  0.00     0.066 CG0
ATOM     18  G   UNL     1      -8.533  33.521  26.106  1.00  0.00     0.000 G0
ENDBRANCH  13  17
ENDBRANCH  11  13
ENDBRANCH  10  11
ENDBRANCH   1  10
TORSDOF 0
ENDMDL
MODEL 9
REMARK VINA RESULT:    -4.450      2.054      3.899
REMARK INTER + INTRA:          -6.174
REMARK INTER:                  -6.384
REMARK INTRA:                   0.210
REMARK UNBOUND:                 0.097
REMARK SMILES CC1=CCC(=C(C)C)C(=O)CC(C)=CCC1
REMARK SMILES IDX 12 1 14 2 13 3 15 4 16 5 2 6 1 7 3 8 11 10 9 11 10 12 5 13
REMARK SMILES IDX 6 14 7 15 8 16 4 17
REMARK H PARENT
REMARK Flexibility Score: 60.00
ROOT
ATOM      1  C   UNL     1      -8.288  33.658  24.508  1.00  0.00    -0.070 C 
ATOM      2  C   UNL     1      -7.908  33.352  25.776  1.00  0.00    -0.027 C 
ATOM      3  C   UNL     1      -7.259  34.319  23.623  1.00  0.00     0.039 C 
ENDROOT
BRANCH   2   4
ATOM      4  C   UNL     1      -8.794  32.827  26.881  1.00  0.00     0.032 C 
BRANCH   4   5
ATOM      5  C   UNL     1      -9.667  31.639  26.452  1.00  0.00     0.034 C 
BRANCH   5   6
ATOM      6  C   UNL     1      -8.883  30.346  26.332  1.00  0.00    -0.077 C 
ATOM      7  C   UNL     1      -8.165  29.824  27.553  1.00  0.00     0.039 C 
ATOM      8  C   UNL     1      -8.702  29.674  25.165  1.00  0.00    -0.023 CG0
ATOM      9  G   UNL     1      -9.398  29.918  23.839  1.00  0.00     0.000 G0
ENDBRANCH   5   6
ENDBRANCH   4   5
ENDBRANCH   2   4
BRANCH   1  10
ATOM     10  C   UNL     1      -9.623  33.270  23.881  1.00  0.00     0.111 C 
BRANCH  10  11
ATOM     11  C   UNL     1      -9.518  32.250  22.778  1.00  0.00     0.163 C 
ATOM     12  O   UNL     1     -10.123  32.465  21.693  1.00  0.00    -0.294 OA
BRANCH  11  13
ATOM     13  C   UNL     1      -8.751  30.982  22.943  1.00  0.00    -0.002 C 
ATOM     14  C   UNL     1      -7.605  30.736  22.245  1.00  0.00    -0.069 C 
ATOM     15  C   UNL     1      -6.828  29.455  22.445  1.00  0.00     0.039 C 
ATOM     16  C   UNL     1      -7.096  31.694  21.192  1.00  0.00     0.039 C 
BRANCH  13  17
ATOM     17  C   UNL     1      -9.384  29.919  23.827  1.00  0.00     0.066 CG0
ATOM     18  G   UNL     1      -8.706  29.688  25.164  1.00  0.00     0.000 G0
ENDBRANCH  13  17
ENDBRANCH  11  13
ENDBRANCH  10  11
ENDBRANCH   1  10
TORSDOF 0
ENDMDL
