MODEL 1
REMARK VINA RESULT:    -4.983      0.000      0.000
REMARK INTER + INTRA:         -10.138
REMARK INTER:                  -8.770
REMARK INTRA:                  -1.368
REMARK UNBOUND:                -1.368
REMARK SMILES CCCCCCCCCCCCCCC(=O)[O-]
REMARK SMILES IDX 9 1 10 2 11 3 12 4 13 5 14 6 15 7 16 8 17 9 8 10 7 11 6 12
REMARK SMILES IDX 5 13 4 14 3 15 2 16 1 17
REMARK H PARENT
REMARK Flexibility Score: inf
ROOT
ATOM      1  C   UNL     1      12.684 -20.683 -15.068  1.00  0.00     0.000 C 
ENDROOT
BRANCH   1   2
ATOM      2  C   UNL     1      11.561 -21.715 -14.906  1.00  0.00     0.000 C 
BRANCH   2   3
ATOM      3  C   UNL     1      11.913 -22.749 -13.829  1.00  0.00     0.000 C 
BRANCH   3   4
ATOM      4  C   UNL     1      11.074 -24.024 -13.995  1.00  0.00     0.000 C 
BRANCH   4   5
ATOM      5  C   UNL     1      11.935 -25.296 -14.097  1.00  0.00     0.006 C 
BRANCH   5   6
ATOM      6  C   UNL     1      13.443 -25.054 -13.930  1.00  0.00     0.053 C 
BRANCH   6   7
ATOM      7  C   UNL     1      14.255 -26.197 -14.457  1.00  0.00     0.041 C 
ATOM      8  O   UNL     1      13.720 -27.321 -14.650  1.00  0.00    -0.550 OA
ATOM      9  O   UNL     1      15.597 -26.011 -14.767  1.00  0.00    -0.550 OA
ENDBRANCH   6   7
ENDBRANCH   5   6
ENDBRANCH   4   5
ENDBRANCH   3   4
ENDBRANCH   2   3
ENDBRANCH   1   2
BRANCH   1  10
ATOM     10  C   UNL     1      12.281 -19.580 -16.053  1.00  0.00     0.000 C 
BRANCH  10  11
ATOM     11  C   UNL     1      13.495 -18.729 -16.453  1.00  0.00    -0.000 C 
BRANCH  11  12
ATOM     12  C   UNL     1      14.319 -18.267 -15.240  1.00  0.00    -0.000 C 
BRANCH  12  13
ATOM     13  C   UNL     1      14.216 -16.750 -15.000  1.00  0.00    -0.000 C 
BRANCH  13  14
ATOM     14  C   UNL     1      13.276 -16.399 -13.837  1.00  0.00    -0.000 C 
BRANCH  14  15
ATOM     15  C   UNL     1      12.996 -17.598 -12.919  1.00  0.00    -0.000 C 
BRANCH  15  16
ATOM     16  C   UNL     1      11.495 -17.904 -12.856  1.00  0.00    -0.003 C 
ATOM     17  C   UNL     1      11.210 -19.076 -11.923  1.00  0.00     0.004 C 
ENDBRANCH  15  16
ENDBRANCH  14  15
ENDBRANCH  13  14
ENDBRANCH  12  13
ENDBRANCH  11  12
ENDBRANCH  10  11
ENDBRANCH   1  10
TORSDOF 13
ENDMDL
MODEL 2
REMARK VINA RESULT:    -4.843      1.097      1.811
REMARK INTER + INTRA:          -9.891
REMARK INTER:                  -8.650
REMARK INTRA:                  -1.242
REMARK UNBOUND:                -1.368
REMARK SMILES CCCCCCCCCCCCCCC(=O)[O-]
REMARK SMILES IDX 9 1 10 2 11 3 12 4 13 5 14 6 15 7 16 8 17 9 8 10 7 11 6 12
REMARK SMILES IDX 5 13 4 14 3 15 2 16 1 17
REMARK H PARENT
REMARK Flexibility Score: inf
ROOT
ATOM      1  C   UNL     1      12.567 -19.885 -16.627  1.00  0.00     0.000 C 
ENDROOT
BRANCH   1   2
ATOM      2  C   UNL     1      11.416 -19.573 -15.663  1.00  0.00     0.000 C 
BRANCH   2   3
ATOM      3  C   UNL     1      11.361 -20.595 -14.520  1.00  0.00     0.000 C 
BRANCH   3   4
ATOM      4  C   UNL     1      11.501 -22.027 -15.057  1.00  0.00     0.000 C 
BRANCH   4   5
ATOM      5  C   UNL     1      11.631 -23.075 -13.935  1.00  0.00     0.006 C 
BRANCH   5   6
ATOM      6  C   UNL     1      12.963 -23.839 -13.936  1.00  0.00     0.053 C 
BRANCH   6   7
ATOM      7  C   UNL     1      12.760 -25.320 -14.023  1.00  0.00     0.041 C 
ATOM      8  O   UNL     1      11.646 -25.788 -14.382  1.00  0.00    -0.550 OA
ATOM      9  O   UNL     1      13.810 -26.184 -13.739  1.00  0.00    -0.550 OA
ENDBRANCH   6   7
ENDBRANCH   5   6
ENDBRANCH   4   5
ENDBRANCH   3   4
ENDBRANCH   2   3
ENDBRANCH   1   2
BRANCH   1  10
ATOM     10  C   UNL     1      13.444 -18.649 -16.857  1.00  0.00     0.000 C 
BRANCH  10  11
ATOM     11  C   UNL     1      14.332 -18.369 -15.636  1.00  0.00    -0.000 C 
BRANCH  11  12
ATOM     12  C   UNL     1      14.185 -16.931 -15.114  1.00  0.00    -0.000 C 
BRANCH  12  13
ATOM     13  C   UNL     1      13.907 -16.876 -13.602  1.00  0.00    -0.000 C 
BRANCH  13  14
ATOM     14  C   UNL     1      12.434 -17.150 -13.262  1.00  0.00    -0.000 C 
BRANCH  14  15
ATOM     15  C   UNL     1      12.267 -17.973 -11.975  1.00  0.00    -0.000 C 
BRANCH  15  16
ATOM     16  C   UNL     1      10.810 -18.413 -11.789  1.00  0.00    -0.003 C 
ATOM     17  C   UNL     1      10.617 -19.129 -10.456  1.00  0.00     0.004 C 
ENDBRANCH  15  16
ENDBRANCH  14  15
ENDBRANCH  13  14
ENDBRANCH  12  13
ENDBRANCH  11  12
ENDBRANCH  10  11
ENDBRANCH   1  10
TORSDOF 13
ENDMDL
MODEL 3
REMARK VINA RESULT:    -4.815      1.337      2.618
REMARK INTER + INTRA:          -9.843
REMARK INTER:                  -8.757
REMARK INTRA:                  -1.086
REMARK UNBOUND:                -1.368
REMARK SMILES CCCCCCCCCCCCCCC(=O)[O-]
REMARK SMILES IDX 9 1 10 2 11 3 12 4 13 5 14 6 15 7 16 8 17 9 8 10 7 11 6 12
REMARK SMILES IDX 5 13 4 14 3 15 2 16 1 17
REMARK H PARENT
REMARK Flexibility Score: inf
ROOT
ATOM      1  C   UNL     1      12.788 -22.772 -13.911  1.00  0.00     0.000 C 
ENDROOT
BRANCH   1   2
ATOM      2  C   UNL     1      11.381 -23.302 -14.212  1.00  0.00     0.000 C 
BRANCH   2   3
ATOM      3  C   UNL     1      11.321 -24.826 -14.054  1.00  0.00     0.000 C 
BRANCH   3   4
ATOM      4  C   UNL     1      12.729 -25.437 -14.068  1.00  0.00     0.000 C 
BRANCH   4   5
ATOM      5  C   UNL     1      12.726 -26.940 -14.404  1.00  0.00     0.006 C 
BRANCH   5   6
ATOM      6  C   UNL     1      14.111 -27.602 -14.352  1.00  0.00     0.053 C 
BRANCH   6   7
ATOM      7  C   UNL     1      14.883 -27.387 -15.617  1.00  0.00     0.041 C 
ATOM      8  O   UNL     1      14.684 -28.128 -16.616  1.00  0.00    -0.550 OA
ATOM      9  O   UNL     1      15.799 -26.347 -15.704  1.00  0.00    -0.550 OA
ENDBRANCH   6   7
ENDBRANCH   5   6
ENDBRANCH   4   5
ENDBRANCH   3   4
ENDBRANCH   2   3
ENDBRANCH   1   2
BRANCH   1  10
ATOM     10  C   UNL     1      13.033 -21.431 -14.613  1.00  0.00     0.000 C 
BRANCH  10  11
ATOM     11  C   UNL     1      11.823 -21.030 -15.470  1.00  0.00    -0.000 C 
BRANCH  11  12
ATOM     12  C   UNL     1      11.380 -19.578 -15.225  1.00  0.00    -0.000 C 
BRANCH  12  13
ATOM     13  C   UNL     1      11.338 -19.217 -13.731  1.00  0.00    -0.000 C 
BRANCH  13  14
ATOM     14  C   UNL     1      12.053 -17.892 -13.422  1.00  0.00    -0.000 C 
BRANCH  14  15
ATOM     15  C   UNL     1      13.489 -18.100 -12.915  1.00  0.00    -0.000 C 
BRANCH  15  16
ATOM     16  C   UNL     1      14.429 -17.026 -13.475  1.00  0.00    -0.003 C 
ATOM     17  C   UNL     1      13.965 -16.547 -14.847  1.00  0.00     0.004 C 
ENDBRANCH  15  16
ENDBRANCH  14  15
ENDBRANCH  13  14
ENDBRANCH  12  13
ENDBRANCH  11  12
ENDBRANCH  10  11
ENDBRANCH   1  10
TORSDOF 13
ENDMDL
MODEL 4
REMARK VINA RESULT:    -4.787      3.386      6.428
REMARK INTER + INTRA:          -9.794
REMARK INTER:                  -8.170
REMARK INTRA:                  -1.624
REMARK UNBOUND:                -1.368
REMARK SMILES CCCCCCCCCCCCCCC(=O)[O-]
REMARK SMILES IDX 9 1 10 2 11 3 12 4 13 5 14 6 15 7 16 8 17 9 8 10 7 11 6 12
REMARK SMILES IDX 5 13 4 14 3 15 2 16 1 17
REMARK H PARENT
REMARK Flexibility Score: inf
ROOT
ATOM      1  C   UNL     1      12.372 -18.010 -10.599  1.00  0.00     0.000 C 
ENDROOT
BRANCH   1   2
ATOM      2  C   UNL     1      13.302 -17.068 -11.373  1.00  0.00     0.000 C 
BRANCH   2   3
ATOM      3  C   UNL     1      14.772 -17.461 -11.177  1.00  0.00     0.000 C 
BRANCH   3   4
ATOM      4  C   UNL     1      15.025 -18.900 -11.649  1.00  0.00     0.000 C 
BRANCH   4   5
ATOM      5  C   UNL     1      14.949 -19.048 -13.180  1.00  0.00     0.006 C 
BRANCH   5   6
ATOM      6  C   UNL     1      15.478 -17.836 -13.960  1.00  0.00     0.053 C 
BRANCH   6   7
ATOM      7  C   UNL     1      14.560 -17.443 -15.076  1.00  0.00     0.041 C 
ATOM      8  O   UNL     1      13.954 -16.339 -15.041  1.00  0.00    -0.550 OA
ATOM      9  O   UNL     1      14.398 -18.282 -16.171  1.00  0.00    -0.550 OA
ENDBRANCH   6   7
ENDBRANCH   5   6
ENDBRANCH   4   5
ENDBRANCH   3   4
ENDBRANCH   2   3
ENDBRANCH   1   2
BRANCH   1  10
ATOM     10  C   UNL     1      11.093 -18.296 -11.394  1.00  0.00     0.000 C 
BRANCH  10  11
ATOM     11  C   UNL     1      11.375 -19.245 -12.568  1.00  0.00    -0.000 C 
BRANCH  11  12
ATOM     12  C   UNL     1      11.180 -18.568 -13.935  1.00  0.00    -0.000 C 
BRANCH  12  13
ATOM     13  C   UNL     1      11.248 -19.566 -15.104  1.00  0.00    -0.000 C 
BRANCH  13  14
ATOM     14  C   UNL     1      12.221 -20.725 -14.834  1.00  0.00    -0.000 C 
BRANCH  14  15
ATOM     15  C   UNL     1      11.559 -22.102 -14.997  1.00  0.00    -0.000 C 
BRANCH  15  16
ATOM     16  C   UNL     1      11.981 -23.051 -13.869  1.00  0.00    -0.003 C 
ATOM     17  C   UNL     1      11.340 -24.425 -14.035  1.00  0.00     0.004 C 
ENDBRANCH  15  16
ENDBRANCH  14  15
ENDBRANCH  13  14
ENDBRANCH  12  13
ENDBRANCH  11  12
ENDBRANCH  10  11
ENDBRANCH   1  10
TORSDOF 13
ENDMDL
MODEL 5
REMARK VINA RESULT:    -4.763      1.832      3.616
REMARK INTER + INTRA:          -9.750
REMARK INTER:                  -7.827
REMARK INTRA:                  -1.923
REMARK UNBOUND:                -1.368
REMARK SMILES CCCCCCCCCCCCCCC(=O)[O-]
REMARK SMILES IDX 9 1 10 2 11 3 12 4 13 5 14 6 15 7 16 8 17 9 8 10 7 11 6 12
REMARK SMILES IDX 5 13 4 14 3 15 2 16 1 17
REMARK H PARENT
REMARK Flexibility Score: inf
ROOT
ATOM      1  C   UNL     1      15.128 -18.756 -14.184  1.00  0.00     0.000 C 
ENDROOT
BRANCH   1   2
ATOM      2  C   UNL     1      15.766 -19.878 -13.356  1.00  0.00     0.000 C 
BRANCH   2   3
ATOM      3  C   UNL     1      14.720 -20.922 -12.943  1.00  0.00     0.000 C 
BRANCH   3   4
ATOM      4  C   UNL     1      14.345 -21.824 -14.128  1.00  0.00     0.000 C 
BRANCH   4   5
ATOM      5  C   UNL     1      13.126 -22.718 -13.836  1.00  0.00     0.006 C 
BRANCH   5   6
ATOM      6  C   UNL     1      13.446 -24.219 -13.762  1.00  0.00     0.053 C 
BRANCH   6   7
ATOM      7  C   UNL     1      12.232 -25.063 -14.001  1.00  0.00     0.041 C 
ATOM      8  O   UNL     1      11.084 -24.547 -13.968  1.00  0.00    -0.550 OA
ATOM      9  O   UNL     1      12.371 -26.414 -14.293  1.00  0.00    -0.550 OA
ENDBRANCH   6   7
ENDBRANCH   5   6
ENDBRANCH   4   5
ENDBRANCH   3   4
ENDBRANCH   2   3
ENDBRANCH   1   2
BRANCH   1  10
ATOM     10  C   UNL     1      15.339 -17.392 -13.517  1.00  0.00     0.000 C 
BRANCH  10  11
ATOM     11  C   UNL     1      14.144 -17.025 -12.625  1.00  0.00    -0.000 C 
BRANCH  11  12
ATOM     12  C   UNL     1      12.798 -17.158 -13.356  1.00  0.00    -0.000 C 
BRANCH  12  13
ATOM     13  C   UNL     1      11.827 -18.112 -12.639  1.00  0.00    -0.000 C 
BRANCH  13  14
ATOM     14  C   UNL     1      11.508 -19.364 -13.469  1.00  0.00    -0.000 C 
BRANCH  14  15
ATOM     15  C   UNL     1      11.134 -19.031 -14.922  1.00  0.00    -0.000 C 
BRANCH  15  16
ATOM     16  C   UNL     1      11.826 -19.987 -15.900  1.00  0.00    -0.003 C 
ATOM     17  C   UNL     1      12.795 -19.239 -16.810  1.00  0.00     0.004 C 
ENDBRANCH  15  16
ENDBRANCH  14  15
ENDBRANCH  13  14
ENDBRANCH  12  13
ENDBRANCH  11  12
ENDBRANCH  10  11
ENDBRANCH   1  10
TORSDOF 13
ENDMDL
MODEL 6
REMARK VINA RESULT:    -4.748      3.516      6.832
REMARK INTER + INTRA:          -9.724
REMARK INTER:                  -8.268
REMARK INTRA:                  -1.456
REMARK UNBOUND:                -1.368
REMARK SMILES CCCCCCCCCCCCCCC(=O)[O-]
REMARK SMILES IDX 9 1 10 2 11 3 12 4 13 5 14 6 15 7 16 8 17 9 8 10 7 11 6 12
REMARK SMILES IDX 5 13 4 14 3 15 2 16 1 17
REMARK H PARENT
REMARK Flexibility Score: inf
ROOT
ATOM      1  C   UNL     1      11.667 -19.429 -12.761  1.00  0.00     0.000 C 
ENDROOT
BRANCH   1   2
ATOM      2  C   UNL     1      10.992 -18.965 -11.464  1.00  0.00     0.000 C 
BRANCH   2   3
ATOM      3  C   UNL     1      11.748 -17.786 -10.839  1.00  0.00     0.000 C 
BRANCH   3   4
ATOM      4  C   UNL     1      13.259 -18.054 -10.812  1.00  0.00     0.000 C 
BRANCH   4   5
ATOM      5  C   UNL     1      14.090 -16.839 -11.265  1.00  0.00     0.006 C 
BRANCH   5   6
ATOM      6  C   UNL     1      14.914 -17.076 -12.540  1.00  0.00     0.053 C 
BRANCH   6   7
ATOM      7  C   UNL     1      14.118 -16.813 -13.780  1.00  0.00     0.041 C 
ATOM      8  O   UNL     1      14.361 -17.451 -14.839  1.00  0.00    -0.550 OA
ATOM      9  O   UNL     1      13.083 -15.886 -13.758  1.00  0.00    -0.550 OA
ENDBRANCH   6   7
ENDBRANCH   5   6
ENDBRANCH   4   5
ENDBRANCH   3   4
ENDBRANCH   2   3
ENDBRANCH   1   2
BRANCH   1  10
ATOM     10  C   UNL     1      11.052 -18.734 -13.981  1.00  0.00     0.000 C 
BRANCH  10  11
ATOM     11  C   UNL     1      11.470 -19.435 -15.282  1.00  0.00    -0.000 C 
BRANCH  11  12
ATOM     12  C   UNL     1      12.266 -20.726 -15.029  1.00  0.00    -0.000 C 
BRANCH  12  13
ATOM     13  C   UNL     1      11.431 -21.994 -15.281  1.00  0.00    -0.000 C 
BRANCH  13  14
ATOM     14  C   UNL     1      11.656 -23.072 -14.210  1.00  0.00    -0.000 C 
BRANCH  14  15
ATOM     15  C   UNL     1      13.090 -23.067 -13.658  1.00  0.00    -0.000 C 
BRANCH  15  16
ATOM     16  C   UNL     1      13.814 -24.376 -13.997  1.00  0.00    -0.003 C 
ATOM     17  C   UNL     1      12.842 -25.551 -14.031  1.00  0.00     0.004 C 
ENDBRANCH  15  16
ENDBRANCH  14  15
ENDBRANCH  13  14
ENDBRANCH  12  13
ENDBRANCH  11  12
ENDBRANCH  10  11
ENDBRANCH   1  10
TORSDOF 13
ENDMDL
MODEL 7
REMARK VINA RESULT:    -4.737      4.377      5.653
REMARK INTER + INTRA:          -9.705
REMARK INTER:                  -7.189
REMARK INTRA:                  -2.515
REMARK UNBOUND:                -1.368
REMARK SMILES CCCCCCCCCCCCCCC(=O)[O-]
REMARK SMILES IDX 9 1 10 2 11 3 12 4 13 5 14 6 15 7 16 8 17 9 8 10 7 11 6 12
REMARK SMILES IDX 5 13 4 14 3 15 2 16 1 17
REMARK H PARENT
REMARK Flexibility Score: inf
ROOT
ATOM      1  C   UNL     1      11.857 -19.161 -15.351  1.00  0.00     0.000 C 
ENDROOT
BRANCH   1   2
ATOM      2  C   UNL     1      11.933 -20.360 -14.399  1.00  0.00     0.000 C 
BRANCH   2   3
ATOM      3  C   UNL     1      11.713 -19.925 -12.945  1.00  0.00     0.000 C 
BRANCH   3   4
ATOM      4  C   UNL     1      11.055 -18.540 -12.879  1.00  0.00     0.000 C 
BRANCH   4   5
ATOM      5  C   UNL     1      10.753 -18.090 -11.437  1.00  0.00     0.006 C 
BRANCH   5   6
ATOM      6  C   UNL     1      11.067 -19.146 -10.366  1.00  0.00     0.053 C 
BRANCH   6   7
ATOM      7  C   UNL     1      11.579 -18.527  -9.103  1.00  0.00     0.041 C 
ATOM      8  O   UNL     1      12.268 -19.207  -8.296  1.00  0.00    -0.550 OA
ATOM      9  O   UNL     1      11.324 -17.189  -8.831  1.00  0.00    -0.550 OA
ENDBRANCH   6   7
ENDBRANCH   5   6
ENDBRANCH   4   5
ENDBRANCH   3   4
ENDBRANCH   2   3
ENDBRANCH   1   2
BRANCH   1  10
ATOM     10  C   UNL     1      13.160 -19.004 -16.144  1.00  0.00     0.000 C 
BRANCH  10  11
ATOM     11  C   UNL     1      14.185 -18.172 -15.359  1.00  0.00    -0.000 C 
BRANCH  11  12
ATOM     12  C   UNL     1      13.678 -16.755 -15.042  1.00  0.00    -0.000 C 
BRANCH  12  13
ATOM     13  C   UNL     1      13.783 -16.411 -13.546  1.00  0.00    -0.000 C 
BRANCH  13  14
ATOM     14  C   UNL     1      14.846 -17.251 -12.820  1.00  0.00    -0.000 C 
BRANCH  14  15
ATOM     15  C   UNL     1      14.494 -17.503 -11.346  1.00  0.00    -0.000 C 
BRANCH  15  16
ATOM     16  C   UNL     1      14.776 -18.959 -10.955  1.00  0.00    -0.003 C 
ATOM     17  C   UNL     1      15.307 -19.755 -12.143  1.00  0.00     0.004 C 
ENDBRANCH  15  16
ENDBRANCH  14  15
ENDBRANCH  13  14
ENDBRANCH  12  13
ENDBRANCH  11  12
ENDBRANCH  10  11
ENDBRANCH   1  10
TORSDOF 13
ENDMDL
MODEL 8
REMARK VINA RESULT:    -4.735      1.541      3.471
REMARK INTER + INTRA:          -9.702
REMARK INTER:                  -8.110
REMARK INTRA:                  -1.592
REMARK UNBOUND:                -1.368
REMARK SMILES CCCCCCCCCCCCCCC(=O)[O-]
REMARK SMILES IDX 9 1 10 2 11 3 12 4 13 5 14 6 15 7 16 8 17 9 8 10 7 11 6 12
REMARK SMILES IDX 5 13 4 14 3 15 2 16 1 17
REMARK H PARENT
REMARK Flexibility Score: inf
ROOT
ATOM      1  C   UNL     1      11.464 -18.206 -13.743  1.00  0.00     0.000 C 
ENDROOT
BRANCH   1   2
ATOM      2  C   UNL     1      11.178 -19.206 -14.868  1.00  0.00     0.000 C 
BRANCH   2   3
ATOM      3  C   UNL     1      12.310 -20.233 -14.995  1.00  0.00     0.000 C 
BRANCH   3   4
ATOM      4  C   UNL     1      11.751 -21.642 -15.238  1.00  0.00     0.000 C 
BRANCH   4   5
ATOM      5  C   UNL     1      11.723 -22.502 -13.961  1.00  0.00     0.006 C 
BRANCH   5   6
ATOM      6  C   UNL     1      12.958 -23.396 -13.774  1.00  0.00     0.053 C 
BRANCH   6   7
ATOM      7  C   UNL     1      12.650 -24.839 -14.030  1.00  0.00     0.041 C 
ATOM      8  O   UNL     1      13.583 -25.676 -14.152  1.00  0.00    -0.550 OA
ATOM      9  O   UNL     1      11.330 -25.265 -14.103  1.00  0.00    -0.550 OA
ENDBRANCH   6   7
ENDBRANCH   5   6
ENDBRANCH   4   5
ENDBRANCH   3   4
ENDBRANCH   2   3
ENDBRANCH   1   2
BRANCH   1  10
ATOM     10  C   UNL     1      11.053 -18.776 -12.380  1.00  0.00     0.000 C 
BRANCH  10  11
ATOM     11  C   UNL     1      12.234 -18.760 -11.398  1.00  0.00    -0.000 C 
BRANCH  11  12
ATOM     12  C   UNL     1      13.121 -17.514 -11.560  1.00  0.00    -0.000 C 
BRANCH  12  13
ATOM     13  C   UNL     1      14.622 -17.853 -11.558  1.00  0.00    -0.000 C 
BRANCH  13  14
ATOM     14  C   UNL     1      14.990 -18.906 -12.615  1.00  0.00    -0.000 C 
BRANCH  14  15
ATOM     15  C   UNL     1      15.737 -18.303 -13.815  1.00  0.00    -0.000 C 
BRANCH  15  16
ATOM     16  C   UNL     1      15.438 -16.806 -13.952  1.00  0.00    -0.003 C 
ATOM     17  C   UNL     1      14.438 -16.543 -15.073  1.00  0.00     0.004 C 
ENDBRANCH  15  16
ENDBRANCH  14  15
ENDBRANCH  13  14
ENDBRANCH  12  13
ENDBRANCH  11  12
ENDBRANCH  10  11
ENDBRANCH   1  10
TORSDOF 13
ENDMDL
MODEL 9
REMARK VINA RESULT:    -4.726      1.769      3.269
REMARK INTER + INTRA:          -9.685
REMARK INTER:                  -7.744
REMARK INTRA:                  -1.941
REMARK UNBOUND:                -1.368
REMARK SMILES CCCCCCCCCCCCCCC(=O)[O-]
REMARK SMILES IDX 9 1 10 2 11 3 12 4 13 5 14 6 15 7 16 8 17 9 8 10 7 11 6 12
REMARK SMILES IDX 5 13 4 14 3 15 2 16 1 17
REMARK H PARENT
REMARK Flexibility Score: inf
ROOT
ATOM      1  C   UNL     1      11.305 -18.951 -12.709  1.00  0.00     0.000 C 
ENDROOT
BRANCH   1   2
ATOM      2  C   UNL     1      11.138 -19.004 -14.232  1.00  0.00     0.000 C 
BRANCH   2   3
ATOM      3  C   UNL     1      11.515 -20.386 -14.781  1.00  0.00     0.000 C 
BRANCH   3   4
ATOM      4  C   UNL     1      12.043 -21.296 -13.663  1.00  0.00     0.000 C 
BRANCH   4   5
ATOM      5  C   UNL     1      12.493 -22.676 -14.178  1.00  0.00     0.006 C 
BRANCH   5   6
ATOM      6  C   UNL     1      11.393 -23.747 -14.159  1.00  0.00     0.053 C 
BRANCH   6   7
ATOM      7  C   UNL     1      11.961 -25.133 -14.168  1.00  0.00     0.041 C 
ATOM      8  O   UNL     1      13.109 -25.352 -13.698  1.00  0.00    -0.550 OA
ATOM      9  O   UNL     1      11.209 -26.190 -14.665  1.00  0.00    -0.550 OA
ENDBRANCH   6   7
ENDBRANCH   5   6
ENDBRANCH   4   5
ENDBRANCH   3   4
ENDBRANCH   2   3
ENDBRANCH   1   2
BRANCH   1  10
ATOM     10  C   UNL     1      12.141 -17.737 -12.288  1.00  0.00     0.000 C 
BRANCH  10  11
ATOM     11  C   UNL     1      12.453 -16.839 -13.495  1.00  0.00    -0.000 C 
BRANCH  11  12
ATOM     12  C   UNL     1      13.963 -16.651 -13.717  1.00  0.00    -0.000 C 
BRANCH  12  13
ATOM     13  C   UNL     1      14.431 -17.191 -15.080  1.00  0.00    -0.000 C 
BRANCH  13  14
ATOM     14  C   UNL     1      14.711 -18.702 -15.051  1.00  0.00    -0.000 C 
BRANCH  14  15
ATOM     15  C   UNL     1      15.251 -19.177 -13.693  1.00  0.00    -0.000 C 
BRANCH  15  16
ATOM     16  C   UNL     1      15.744 -20.627 -13.776  1.00  0.00    -0.003 C 
ATOM     17  C   UNL     1      15.559 -21.349 -12.445  1.00  0.00     0.004 C 
ENDBRANCH  15  16
ENDBRANCH  14  15
ENDBRANCH  13  14
ENDBRANCH  12  13
ENDBRANCH  11  12
ENDBRANCH  10  11
ENDBRANCH   1  10
TORSDOF 13
ENDMDL
