MODEL 1
REMARK VINA RESULT:   116.299      0.000      0.000
REMARK INTER + INTRA:         131.264
REMARK INTER:                 129.897
REMARK INTRA:                   1.367
REMARK UNBOUND:                 1.367
REMARK SMILES CC1(C)CC[C@@]2(CO)CC=C3[C@]4(C)CC[C@@H]5C(C)(C)[C@H](O)CC[C@]5(C)[C@@H]4CC[C@@]3(C)[C@@H]2C1
REMARK SMILES IDX 1 1 2 2 4 3 5 4 6 5 9 6 10 7 11 8 12 9 14 10 15 11 16 12
REMARK SMILES IDX 17 13 20 14 22 15 23 16 24 17 26 18 27 19 28 20 29 21 31 22
REMARK SMILES IDX 32 23 30 24 25 25 18 26 19 27 13 28 3 29 7 30 8 31 21 33
REMARK H PARENT 8 32 21 34
REMARK Flexibility Score: inf
ROOT
ATOM      1  C   UNL     1      37.262 -20.538   8.065  1.00  0.00     0.011 C 
ATOM      2  C   UNL     1      37.801 -21.009   6.694  1.00  0.00    -0.035 C 
ATOM      3  C   UNL     1      38.926 -22.065   6.908  1.00  0.00     0.007 C 
ATOM      4  C   UNL     1      38.401 -23.473   7.260  1.00  0.00     0.010 C 
ATOM      5  C   UNL     1      37.376 -24.006   6.214  1.00  0.00     0.001 C 
ATOM      6  C   UNL     1      36.887 -25.432   6.642  1.00  0.00     0.037 C 
ATOM      7  C   UNL     1      35.390 -25.656   6.727  1.00  0.00    -0.026 C 
ATOM      8  C   UNL     1      34.418 -24.763   6.388  1.00  0.00    -0.062 C 
ATOM      9  C   UNL     1      32.925 -25.140   6.667  1.00  0.00    -0.008 C 
ATOM     10  C   UNL     1      32.537 -26.237   5.625  1.00  0.00     0.012 C 
ATOM     11  C   UNL     1      31.099 -26.177   5.100  1.00  0.00     0.006 C 
ATOM     12  C   UNL     1      30.095 -25.811   6.219  1.00  0.00     0.003 C 
ATOM     13  C   UNL     1      28.586 -26.220   5.889  1.00  0.00    -0.006 C 
ATOM     14  C   UNL     1      27.899 -25.188   4.947  1.00  0.00     0.120 C 
ATOM     15  C   UNL     1      28.038 -23.758   5.467  1.00  0.00     0.033 C 
ATOM     16  C   UNL     1      29.507 -23.364   5.670  1.00  0.00     0.010 C 
ATOM     17  C   UNL     1      30.337 -24.292   6.635  1.00  0.00    -0.025 C 
ATOM     18  C   UNL     1      31.926 -23.911   6.608  1.00  0.00     0.005 C 
ATOM     19  C   UNL     1      32.333 -22.935   5.486  1.00  0.00     0.006 C 
ATOM     20  C   UNL     1      33.754 -22.420   5.685  1.00  0.00     0.012 C 
ATOM     21  C   UNL     1      34.839 -23.519   5.591  1.00  0.00    -0.008 C 
ATOM     22  C   UNL     1      36.179 -22.986   6.232  1.00  0.00     0.008 C 
ATOM     23  C   UNL     1      36.639 -21.561   5.809  1.00  0.00     0.011 C 
ATOM     24  C   UNL     1      35.013 -23.917   4.101  1.00  0.00     0.016 C 
ATOM     25  C   UNL     1      29.811 -24.030   8.091  1.00  0.00     0.012 C 
ATOM     26  C   UNL     1      28.496 -27.627   5.227  1.00  0.00     0.014 C 
ATOM     27  C   UNL     1      27.760 -26.366   7.200  1.00  0.00     0.014 C 
ATOM     28  C   UNL     1      32.857 -25.706   8.124  1.00  0.00     0.016 C 
ATOM     29  C   UNL     1      38.413 -19.782   5.985  1.00  0.00     0.011 C 
ENDROOT
BRANCH   5  30
ATOM     30  C   UNL     1      38.113 -24.138   4.826  1.00  0.00     0.163 C 
BRANCH  30  31
ATOM     31  O   UNL     1      38.460 -22.872   4.318  1.00  0.00    -0.396 OA
ATOM     32  H   UNL     1      37.779 -22.224   4.642  1.00  0.00     0.210 HD
ENDBRANCH  30  31
ENDBRANCH   5  30
BRANCH  14  33
ATOM     33  O   UNL     1      28.449 -25.247   3.652  1.00  0.00    -0.393 OA
ATOM     34  H   UNL     1      27.792 -24.840   3.028  1.00  0.00     0.210 HD
ENDBRANCH  14  33
TORSDOF 3
ENDMDL
