MODEL 1
REMARK VINA RESULT:    -3.836      0.000      0.000
REMARK INTER + INTRA:          -6.553
REMARK INTER:                  -5.854
REMARK INTRA:                  -0.699
REMARK UNBOUND:                -0.699
REMARK SMILES CCCCCCCCCC=CC(=O)[O-]
REMARK SMILES IDX 7 1 8 2 9 3 10 4 11 5 12 6 13 7 14 8 6 9 5 10 4 11 3 12 2 13
REMARK SMILES IDX 1 14
REMARK H PARENT
REMARK Flexibility Score: inf
ROOT
ATOM      1  C   UNL     1      58.686  28.990  51.051  1.00  0.00     0.000 C 
ENDROOT
BRANCH   1   2
ATOM      2  C   UNL     1      58.908  29.024  49.528  1.00  0.00     0.004 C 
BRANCH   2   3
ATOM      3  C   UNL     1      59.919  27.966  49.067  1.00  0.00     0.027 C 
BRANCH   3   4
ATOM      4  C   UNL     1      59.490  26.583  49.468  1.00  0.00    -0.025 C 
ATOM      5  C   UNL     1      60.356  25.700  49.978  1.00  0.00     0.020 C 
BRANCH   5   6
ATOM      6  C   UNL     1      59.963  24.331  50.342  1.00  0.00     0.064 C 
ATOM      7  O   UNL     1      59.141  24.115  51.273  1.00  0.00    -0.545 OA
ATOM      8  O   UNL     1      60.506  23.257  49.649  1.00  0.00    -0.545 OA
ENDBRANCH   5   6
ENDBRANCH   3   4
ENDBRANCH   2   3
ENDBRANCH   1   2
BRANCH   1   9
ATOM      9  C   UNL     1      57.198  29.026  51.431  1.00  0.00     0.000 C 
BRANCH   9  10
ATOM     10  C   UNL     1      56.273  28.813  50.218  1.00  0.00     0.000 C 
BRANCH  10  11
ATOM     11  C   UNL     1      54.785  28.819  50.602  1.00  0.00    -0.000 C 
BRANCH  11  12
ATOM     12  C   UNL     1      53.964  27.800  49.799  1.00  0.00    -0.000 C 
BRANCH  12  13
ATOM     13  C   UNL     1      54.697  26.457  49.707  1.00  0.00    -0.003 C 
ATOM     14  C   UNL     1      53.793  25.373  49.125  1.00  0.00     0.004 C 
ENDBRANCH  12  13
ENDBRANCH  11  12
ENDBRANCH  10  11
ENDBRANCH   9  10
ENDBRANCH   1   9
TORSDOF 9
ENDMDL
MODEL 2
REMARK VINA RESULT:    -3.787     11.755     13.661
REMARK INTER + INTRA:          -6.479
REMARK INTER:                  -5.844
REMARK INTRA:                  -0.634
REMARK UNBOUND:                -0.699
REMARK SMILES CCCCCCCCCC=CC(=O)[O-]
REMARK SMILES IDX 7 1 8 2 9 3 10 4 11 5 12 6 13 7 14 8 6 9 5 10 4 11 3 12 2 13
REMARK SMILES IDX 1 14
REMARK H PARENT
REMARK Flexibility Score: inf
ROOT
ATOM      1  C   UNL     1      60.969  31.131  59.884  1.00  0.00     0.000 C 
ENDROOT
BRANCH   1   2
ATOM      2  C   UNL     1      61.091  31.017  61.413  1.00  0.00     0.004 C 
BRANCH   2   3
ATOM      3  C   UNL     1      61.991  29.848  61.836  1.00  0.00     0.027 C 
BRANCH   3   4
ATOM      4  C   UNL     1      63.420  30.078  61.432  1.00  0.00    -0.025 C 
ATOM      5  C   UNL     1      64.215  29.069  61.060  1.00  0.00     0.020 C 
BRANCH   5   6
ATOM      6  C   UNL     1      65.626  29.271  60.697  1.00  0.00     0.064 C 
ATOM      7  O   UNL     1      65.965  30.154  59.864  1.00  0.00    -0.545 OA
ATOM      8  O   UNL     1      66.602  28.474  61.281  1.00  0.00    -0.545 OA
ENDBRANCH   5   6
ENDBRANCH   3   4
ENDBRANCH   2   3
ENDBRANCH   1   2
BRANCH   1   9
ATOM      9  C   UNL     1      61.170  32.569  59.382  1.00  0.00     0.000 C 
BRANCH   9  10
ATOM     10  C   UNL     1      61.841  33.473  60.432  1.00  0.00     0.000 C 
BRANCH  10  11
ATOM     11  C   UNL     1      61.700  34.967  60.103  1.00  0.00    -0.000 C 
BRANCH  11  12
ATOM     12  C   UNL     1      62.432  35.866  61.110  1.00  0.00    -0.000 C 
BRANCH  12  13
ATOM     13  C   UNL     1      63.912  36.010  60.739  1.00  0.00    -0.003 C 
ATOM     14  C   UNL     1      64.801  35.240  61.712  1.00  0.00     0.004 C 
ENDBRANCH  12  13
ENDBRANCH  11  12
ENDBRANCH  10  11
ENDBRANCH   9  10
ENDBRANCH   1   9
TORSDOF 9
ENDMDL
MODEL 3
REMARK VINA RESULT:    -3.725      1.647      2.150
REMARK INTER + INTRA:          -6.384
REMARK INTER:                  -5.727
REMARK INTRA:                  -0.657
REMARK UNBOUND:                -0.699
REMARK SMILES CCCCCCCCCC=CC(=O)[O-]
REMARK SMILES IDX 7 1 8 2 9 3 10 4 11 5 12 6 13 7 14 8 6 9 5 10 4 11 3 12 2 13
REMARK SMILES IDX 1 14
REMARK H PARENT
REMARK Flexibility Score: inf
ROOT
ATOM      1  C   UNL     1      58.614  29.112  49.551  1.00  0.00     0.000 C 
ENDROOT
BRANCH   1   2
ATOM      2  C   UNL     1      59.732  28.104  49.231  1.00  0.00     0.004 C 
BRANCH   2   3
ATOM      3  C   UNL     1      59.310  26.659  49.528  1.00  0.00     0.027 C 
BRANCH   3   4
ATOM      4  C   UNL     1      60.498  25.784  49.811  1.00  0.00    -0.025 C 
ATOM      5  C   UNL     1      61.740  26.278  49.853  1.00  0.00     0.020 C 
BRANCH   5   6
ATOM      6  C   UNL     1      62.918  25.432  50.092  1.00  0.00     0.064 C 
ATOM      7  O   UNL     1      64.076  25.823  49.781  1.00  0.00    -0.545 OA
ATOM      8  O   UNL     1      62.755  24.180  50.670  1.00  0.00    -0.545 OA
ENDBRANCH   5   6
ENDBRANCH   3   4
ENDBRANCH   2   3
ENDBRANCH   1   2
BRANCH   1   9
ATOM      9  C   UNL     1      58.246  29.130  51.042  1.00  0.00     0.000 C 
BRANCH   9  10
ATOM     10  C   UNL     1      56.726  29.043  51.276  1.00  0.00     0.000 C 
BRANCH  10  11
ATOM     11  C   UNL     1      56.028  28.106  50.278  1.00  0.00    -0.000 C 
BRANCH  11  12
ATOM     12  C   UNL     1      54.499  28.247  50.306  1.00  0.00    -0.000 C 
BRANCH  12  13
ATOM     13  C   UNL     1      53.829  27.094  49.551  1.00  0.00    -0.003 C 
ATOM     14  C   UNL     1      54.783  25.913  49.388  1.00  0.00     0.004 C 
ENDBRANCH  12  13
ENDBRANCH  11  12
ENDBRANCH  10  11
ENDBRANCH   9  10
ENDBRANCH   1   9
TORSDOF 9
ENDMDL
MODEL 4
REMARK VINA RESULT:    -3.678      2.663      4.813
REMARK INTER + INTRA:          -6.312
REMARK INTER:                  -4.837
REMARK INTRA:                  -1.474
REMARK UNBOUND:                -0.699
REMARK SMILES CCCCCCCCCC=CC(=O)[O-]
REMARK SMILES IDX 7 1 8 2 9 3 10 4 11 5 12 6 13 7 14 8 6 9 5 10 4 11 3 12 2 13
REMARK SMILES IDX 1 14
REMARK H PARENT
REMARK Flexibility Score: inf
ROOT
ATOM      1  C   UNL     1      60.592  26.047  51.053  1.00  0.00     0.000 C 
ENDROOT
BRANCH   1   2
ATOM      2  C   UNL     1      59.481  25.343  50.254  1.00  0.00     0.004 C 
BRANCH   2   3
ATOM      3  C   UNL     1      58.131  25.385  50.982  1.00  0.00     0.027 C 
BRANCH   3   4
ATOM      4  C   UNL     1      57.031  25.862  50.076  1.00  0.00    -0.025 C 
ATOM      5  C   UNL     1      55.777  26.018  50.514  1.00  0.00     0.020 C 
BRANCH   5   6
ATOM      6  C   UNL     1      54.681  26.448  49.634  1.00  0.00     0.064 C 
ATOM      7  O   UNL     1      54.255  27.635  49.656  1.00  0.00    -0.545 OA
ATOM      8  O   UNL     1      54.105  25.534  48.762  1.00  0.00    -0.545 OA
ENDBRANCH   5   6
ENDBRANCH   3   4
ENDBRANCH   2   3
ENDBRANCH   1   2
BRANCH   1   9
ATOM      9  C   UNL     1      60.870  27.471  50.548  1.00  0.00     0.000 C 
BRANCH   9  10
ATOM     10  C   UNL     1      60.248  27.739  49.165  1.00  0.00     0.000 C 
BRANCH  10  11
ATOM     11  C   UNL     1      59.158  28.822  49.208  1.00  0.00    -0.000 C 
BRANCH  11  12
ATOM     12  C   UNL     1      58.930  29.375  50.622  1.00  0.00    -0.000 C 
BRANCH  12  13
ATOM     13  C   UNL     1      57.456  29.256  51.025  1.00  0.00    -0.003 C 
ATOM     14  C   UNL     1      57.315  28.904  52.504  1.00  0.00     0.004 C 
ENDBRANCH  12  13
ENDBRANCH  11  12
ENDBRANCH  10  11
ENDBRANCH   9  10
ENDBRANCH   1   9
TORSDOF 9
ENDMDL
MODEL 5
REMARK VINA RESULT:    -3.670     11.608     13.409
REMARK INTER + INTRA:          -6.300
REMARK INTER:                  -5.549
REMARK INTRA:                  -0.751
REMARK UNBOUND:                -0.699
REMARK SMILES CCCCCCCCCC=CC(=O)[O-]
REMARK SMILES IDX 7 1 8 2 9 3 10 4 11 5 12 6 13 7 14 8 6 9 5 10 4 11 3 12 2 13
REMARK SMILES IDX 1 14
REMARK H PARENT
REMARK Flexibility Score: inf
ROOT
ATOM      1  C   UNL     1      61.039  31.162  61.474  1.00  0.00     0.000 C 
ENDROOT
BRANCH   1   2
ATOM      2  C   UNL     1      61.984  30.012  61.866  1.00  0.00     0.004 C 
BRANCH   2   3
ATOM      3  C   UNL     1      63.425  30.265  61.405  1.00  0.00     0.027 C 
BRANCH   3   4
ATOM      4  C   UNL     1      64.142  28.979  61.106  1.00  0.00    -0.025 C 
ATOM      5  C   UNL     1      65.458  28.946  60.871  1.00  0.00     0.020 C 
BRANCH   5   6
ATOM      6  C   UNL     1      66.170  27.702  60.541  1.00  0.00     0.064 C 
ATOM      7  O   UNL     1      67.406  27.582  60.759  1.00  0.00    -0.545 OA
ATOM      8  O   UNL     1      65.471  26.643  59.978  1.00  0.00    -0.545 OA
ENDBRANCH   5   6
ENDBRANCH   3   4
ENDBRANCH   2   3
ENDBRANCH   1   2
BRANCH   1   9
ATOM      9  C   UNL     1      60.882  31.302  59.952  1.00  0.00     0.000 C 
BRANCH   9  10
ATOM     10  C   UNL     1      61.361  32.670  59.433  1.00  0.00     0.000 C 
BRANCH  10  11
ATOM     11  C   UNL     1      61.723  33.640  60.569  1.00  0.00    -0.000 C 
BRANCH  11  12
ATOM     12  C   UNL     1      62.952  34.500  60.242  1.00  0.00    -0.000 C 
BRANCH  12  13
ATOM     13  C   UNL     1      64.122  34.160  61.172  1.00  0.00    -0.003 C 
ATOM     14  C   UNL     1      64.907  35.414  61.551  1.00  0.00     0.004 C 
ENDBRANCH  12  13
ENDBRANCH  11  12
ENDBRANCH  10  11
ENDBRANCH   9  10
ENDBRANCH   1   9
TORSDOF 9
ENDMDL
MODEL 6
REMARK VINA RESULT:    -3.622     12.829     14.491
REMARK INTER + INTRA:          -6.227
REMARK INTER:                  -5.267
REMARK INTRA:                  -0.960
REMARK UNBOUND:                -0.699
REMARK SMILES CCCCCCCCCC=CC(=O)[O-]
REMARK SMILES IDX 7 1 8 2 9 3 10 4 11 5 12 6 13 7 14 8 6 9 5 10 4 11 3 12 2 13
REMARK SMILES IDX 1 14
REMARK H PARENT
REMARK Flexibility Score: inf
ROOT
ATOM      1  C   UNL     1      61.469  31.835  59.833  1.00  0.00     0.000 C 
ENDROOT
BRANCH   1   2
ATOM      2  C   UNL     1      62.323  33.113  59.772  1.00  0.00     0.004 C 
BRANCH   2   3
ATOM      3  C   UNL     1      61.582  34.332  60.338  1.00  0.00     0.027 C 
BRANCH   3   4
ATOM      4  C   UNL     1      62.536  35.330  60.931  1.00  0.00    -0.025 C 
ATOM      5  C   UNL     1      63.853  35.102  60.977  1.00  0.00     0.020 C 
BRANCH   5   6
ATOM      6  C   UNL     1      64.797  36.050  61.586  1.00  0.00     0.064 C 
ATOM      7  O   UNL     1      64.394  36.980  62.336  1.00  0.00    -0.545 OA
ATOM      8  O   UNL     1      66.156  35.921  61.332  1.00  0.00    -0.545 OA
ENDBRANCH   5   6
ENDBRANCH   3   4
ENDBRANCH   2   3
ENDBRANCH   1   2
BRANCH   1   9
ATOM      9  C   UNL     1      61.024  31.492  61.263  1.00  0.00     0.000 C 
BRANCH   9  10
ATOM     10  C   UNL     1      61.657  30.188  61.782  1.00  0.00     0.000 C 
BRANCH  10  11
ATOM     11  C   UNL     1      62.338  29.378  60.668  1.00  0.00    -0.000 C 
BRANCH  11  12
ATOM     12  C   UNL     1      63.828  29.131  60.944  1.00  0.00    -0.000 C 
BRANCH  12  13
ATOM     13  C   UNL     1      64.618  30.445  60.905  1.00  0.00    -0.003 C 
ATOM     14  C   UNL     1      65.315  30.629  59.560  1.00  0.00     0.004 C 
ENDBRANCH  12  13
ENDBRANCH  11  12
ENDBRANCH  10  11
ENDBRANCH   9  10
ENDBRANCH   1   9
TORSDOF 9
ENDMDL
MODEL 7
REMARK VINA RESULT:    -3.614     12.331     13.542
REMARK INTER + INTRA:          -6.215
REMARK INTER:                  -5.656
REMARK INTRA:                  -0.559
REMARK UNBOUND:                -0.699
REMARK SMILES CCCCCCCCCC=CC(=O)[O-]
REMARK SMILES IDX 7 1 8 2 9 3 10 4 11 5 12 6 13 7 14 8 6 9 5 10 4 11 3 12 2 13
REMARK SMILES IDX 1 14
REMARK H PARENT
REMARK Flexibility Score: inf
ROOT
ATOM      1  C   UNL     1      61.713  30.413  61.736  1.00  0.00     0.000 C 
ENDROOT
BRANCH   1   2
ATOM      2  C   UNL     1      63.160  30.019  61.390  1.00  0.00     0.004 C 
BRANCH   2   3
ATOM      3  C   UNL     1      63.288  28.527  61.055  1.00  0.00     0.027 C 
BRANCH   3   4
ATOM      4  C   UNL     1      62.041  27.771  61.416  1.00  0.00    -0.025 C 
ATOM      5  C   UNL     1      62.085  26.642  62.129  1.00  0.00     0.020 C 
BRANCH   5   6
ATOM      6  C   UNL     1      60.878  25.870  62.461  1.00  0.00     0.064 C 
ATOM      7  O   UNL     1      60.700  25.404  63.618  1.00  0.00    -0.545 OA
ATOM      8  O   UNL     1      59.918  25.649  61.482  1.00  0.00    -0.545 OA
ENDBRANCH   5   6
ENDBRANCH   3   4
ENDBRANCH   2   3
ENDBRANCH   1   2
BRANCH   1   9
ATOM      9  C   UNL     1      61.260  31.689  61.012  1.00  0.00     0.000 C 
BRANCH   9  10
ATOM     10  C   UNL     1      62.442  32.588  60.604  1.00  0.00     0.000 C 
BRANCH  10  11
ATOM     11  C   UNL     1      62.002  34.016  60.246  1.00  0.00    -0.000 C 
BRANCH  11  12
ATOM     12  C   UNL     1      62.811  35.087  60.992  1.00  0.00    -0.000 C 
BRANCH  12  13
ATOM     13  C   UNL     1      64.207  34.566  61.354  1.00  0.00    -0.003 C 
ATOM     14  C   UNL     1      65.289  35.564  60.949  1.00  0.00     0.004 C 
ENDBRANCH  12  13
ENDBRANCH  11  12
ENDBRANCH  10  11
ENDBRANCH   9  10
ENDBRANCH   1   9
TORSDOF 9
ENDMDL
MODEL 8
REMARK VINA RESULT:    -3.595     12.171     13.656
REMARK INTER + INTRA:          -6.186
REMARK INTER:                  -5.444
REMARK INTRA:                  -0.742
REMARK UNBOUND:                -0.699
REMARK SMILES CCCCCCCCCC=CC(=O)[O-]
REMARK SMILES IDX 7 1 8 2 9 3 10 4 11 5 12 6 13 7 14 8 6 9 5 10 4 11 3 12 2 13
REMARK SMILES IDX 1 14
REMARK H PARENT
REMARK Flexibility Score: inf
ROOT
ATOM      1  C   UNL     1      61.725  32.905  60.617  1.00  0.00     0.000 C 
ENDROOT
BRANCH   1   2
ATOM      2  C   UNL     1      61.084  31.511  60.499  1.00  0.00     0.004 C 
BRANCH   2   3
ATOM      3  C   UNL     1      61.328  30.655  61.750  1.00  0.00     0.027 C 
BRANCH   3   4
ATOM      4  C   UNL     1      62.205  29.473  61.447  1.00  0.00    -0.025 C 
ATOM      5  C   UNL     1      63.538  29.573  61.435  1.00  0.00     0.020 C 
BRANCH   5   6
ATOM      6  C   UNL     1      64.411  28.436  61.105  1.00  0.00     0.064 C 
ATOM      7  O   UNL     1      65.637  28.605  60.864  1.00  0.00    -0.545 OA
ATOM      8  O   UNL     1      63.877  27.155  61.057  1.00  0.00    -0.545 OA
ENDBRANCH   5   6
ENDBRANCH   3   4
ENDBRANCH   2   3
ENDBRANCH   1   2
BRANCH   1   9
ATOM      9  C   UNL     1      63.191  32.921  60.157  1.00  0.00     0.000 C 
BRANCH   9  10
ATOM     10  C   UNL     1      64.063  33.873  60.995  1.00  0.00     0.000 C 
BRANCH  10  11
ATOM     11  C   UNL     1      63.990  35.328  60.504  1.00  0.00    -0.000 C 
BRANCH  11  12
ATOM     12  C   UNL     1      63.018  36.182  61.331  1.00  0.00    -0.000 C 
BRANCH  12  13
ATOM     13  C   UNL     1      62.077  36.978  60.420  1.00  0.00    -0.003 C 
ATOM     14  C   UNL     1      60.690  36.342  60.370  1.00  0.00     0.004 C 
ENDBRANCH  12  13
ENDBRANCH  11  12
ENDBRANCH  10  11
ENDBRANCH   9  10
ENDBRANCH   1   9
TORSDOF 9
ENDMDL
MODEL 9
REMARK VINA RESULT:    -3.570      2.376      4.708
REMARK INTER + INTRA:          -6.148
REMARK INTER:                  -4.686
REMARK INTRA:                  -1.462
REMARK UNBOUND:                -0.699
REMARK SMILES CCCCCCCCCC=CC(=O)[O-]
REMARK SMILES IDX 7 1 8 2 9 3 10 4 11 5 12 6 13 7 14 8 6 9 5 10 4 11 3 12 2 13
REMARK SMILES IDX 1 14
REMARK H PARENT
REMARK Flexibility Score: inf
ROOT
ATOM      1  C   UNL     1      58.975  29.554  50.669  1.00  0.00     0.000 C 
ENDROOT
BRANCH   1   2
ATOM      2  C   UNL     1      57.725  29.058  51.417  1.00  0.00     0.004 C 
BRANCH   2   3
ATOM      3  C   UNL     1      56.530  28.857  50.476  1.00  0.00     0.027 C 
BRANCH   3   4
ATOM      4  C   UNL     1      55.770  27.604  50.811  1.00  0.00    -0.025 C 
ATOM      5  C   UNL     1      55.221  26.841  49.860  1.00  0.00     0.020 C 
BRANCH   5   6
ATOM      6  C   UNL     1      54.443  25.632  50.170  1.00  0.00     0.064 C 
ATOM      7  O   UNL     1      54.372  25.187  51.348  1.00  0.00    -0.545 OA
ATOM      8  O   UNL     1      53.774  24.969  49.150  1.00  0.00    -0.545 OA
ENDBRANCH   5   6
ENDBRANCH   3   4
ENDBRANCH   2   3
ENDBRANCH   1   2
BRANCH   1   9
ATOM      9  C   UNL     1      59.157  28.869  49.306  1.00  0.00     0.000 C 
BRANCH   9  10
ATOM     10  C   UNL     1      59.950  27.553  49.408  1.00  0.00     0.000 C 
BRANCH  10  11
ATOM     11  C   UNL     1      59.041  26.314  49.417  1.00  0.00    -0.000 C 
BRANCH  11  12
ATOM     12  C   UNL     1      59.495  25.256  50.433  1.00  0.00    -0.000 C 
BRANCH  12  13
ATOM     13  C   UNL     1      58.377  24.943  51.434  1.00  0.00    -0.003 C 
ATOM     14  C   UNL     1      58.525  25.777  52.703  1.00  0.00     0.004 C 
ENDBRANCH  12  13
ENDBRANCH  11  12
ENDBRANCH  10  11
ENDBRANCH   9  10
ENDBRANCH   1   9
TORSDOF 9
ENDMDL
