MODEL 1
REMARK VINA RESULT:    -4.325      0.000      0.000
REMARK INTER + INTRA:          -6.456
REMARK INTER:                  -5.842
REMARK INTRA:                  -0.614
REMARK UNBOUND:                -0.614
REMARK SMILES CCCCCCC=CC(=O)[O-]
REMARK SMILES IDX 5 1 6 2 7 3 8 4 9 5 10 6 11 7 4 8 3 9 2 10 1 11
REMARK H PARENT
REMARK Flexibility Score: inf
ROOT
ATOM      1  C   UNL     1      -3.504  10.125  -2.154  1.00  0.00     0.004 C 
ENDROOT
BRANCH   1   2
ATOM      2  C   UNL     1      -4.805   9.314  -2.107  1.00  0.00     0.027 C 
BRANCH   2   3
ATOM      3  C   UNL     1      -5.434   9.201  -3.468  1.00  0.00    -0.025 C 
ATOM      4  C   UNL     1      -5.924  10.270  -4.105  1.00  0.00     0.020 C 
BRANCH   4   5
ATOM      5  C   UNL     1      -6.575  10.173  -5.421  1.00  0.00     0.064 C 
ATOM      6  O   UNL     1      -6.337  11.014  -6.329  1.00  0.00    -0.545 OA
ATOM      7  O   UNL     1      -7.467   9.137  -5.667  1.00  0.00    -0.545 OA
ENDBRANCH   4   5
ENDBRANCH   2   3
ENDBRANCH   1   2
BRANCH   1   8
ATOM      8  C   UNL     1      -3.585  11.401  -1.304  1.00  0.00     0.000 C 
BRANCH   8   9
ATOM      9  C   UNL     1      -3.224  12.638  -2.133  1.00  0.00    -0.000 C 
BRANCH   9  10
ATOM     10  C   UNL     1      -4.483  13.396  -2.569  1.00  0.00    -0.003 C 
ATOM     11  C   UNL     1      -4.481  13.650  -4.073  1.00  0.00     0.004 C 
ENDBRANCH   9  10
ENDBRANCH   8   9
ENDBRANCH   1   8
TORSDOF 6
ENDMDL
MODEL 2
REMARK VINA RESULT:    -4.306      1.166      3.112
REMARK INTER + INTRA:          -6.431
REMARK INTER:                  -5.746
REMARK INTRA:                  -0.685
REMARK UNBOUND:                -0.614
REMARK SMILES CCCCCCC=CC(=O)[O-]
REMARK SMILES IDX 5 1 6 2 7 3 8 4 9 5 10 6 11 7 4 8 3 9 2 10 1 11
REMARK H PARENT
REMARK Flexibility Score: inf
ROOT
ATOM      1  C   UNL     1      -3.269  13.015  -2.436  1.00  0.00     0.004 C 
ENDROOT
BRANCH   1   2
ATOM      2  C   UNL     1      -4.369  13.901  -3.032  1.00  0.00     0.027 C 
BRANCH   2   3
ATOM      3  C   UNL     1      -4.866  13.359  -4.343  1.00  0.00    -0.025 C 
ATOM      4  C   UNL     1      -5.791  12.395  -4.398  1.00  0.00     0.020 C 
BRANCH   4   5
ATOM      5  C   UNL     1      -6.264  11.827  -5.671  1.00  0.00     0.064 C 
ATOM      6  O   UNL     1      -6.160  10.596  -5.913  1.00  0.00    -0.545 OA
ATOM      7  O   UNL     1      -6.834  12.664  -6.621  1.00  0.00    -0.545 OA
ENDBRANCH   4   5
ENDBRANCH   2   3
ENDBRANCH   1   2
BRANCH   1   8
ATOM      8  C   UNL     1      -3.556  12.634  -0.977  1.00  0.00     0.000 C 
BRANCH   8   9
ATOM      9  C   UNL     1      -4.014  11.176  -0.867  1.00  0.00    -0.000 C 
BRANCH   9  10
ATOM     10  C   UNL     1      -3.502  10.347  -2.050  1.00  0.00    -0.003 C 
ATOM     11  C   UNL     1      -4.611   9.481  -2.639  1.00  0.00     0.004 C 
ENDBRANCH   9  10
ENDBRANCH   8   9
ENDBRANCH   1   8
TORSDOF 6
ENDMDL
MODEL 3
REMARK VINA RESULT:    -4.187      0.753      1.317
REMARK INTER + INTRA:          -6.270
REMARK INTER:                  -5.777
REMARK INTRA:                  -0.493
REMARK UNBOUND:                -0.614
REMARK SMILES CCCCCCC=CC(=O)[O-]
REMARK SMILES IDX 5 1 6 2 7 3 8 4 9 5 10 6 11 7 4 8 3 9 2 10 1 11
REMARK H PARENT
REMARK Flexibility Score: inf
ROOT
ATOM      1  C   UNL     1      -3.244  10.499  -1.719  1.00  0.00     0.004 C 
ENDROOT
BRANCH   1   2
ATOM      2  C   UNL     1      -4.327   9.467  -2.057  1.00  0.00     0.027 C 
BRANCH   2   3
ATOM      3  C   UNL     1      -5.129   9.882  -3.258  1.00  0.00    -0.025 C 
ATOM      4  C   UNL     1      -5.809   8.992  -3.989  1.00  0.00     0.020 C 
BRANCH   4   5
ATOM      5  C   UNL     1      -6.571   9.374  -5.189  1.00  0.00     0.064 C 
ATOM      6  O   UNL     1      -7.580   8.716  -5.556  1.00  0.00    -0.545 OA
ATOM      7  O   UNL     1      -6.171  10.480  -5.928  1.00  0.00    -0.545 OA
ENDBRANCH   4   5
ENDBRANCH   2   3
ENDBRANCH   1   2
BRANCH   1   8
ATOM      8  C   UNL     1      -3.680  11.452  -0.597  1.00  0.00     0.000 C 
BRANCH   8   9
ATOM      9  C   UNL     1      -3.583  12.913  -1.047  1.00  0.00    -0.000 C 
BRANCH   9  10
ATOM     10  C   UNL     1      -3.121  13.011  -2.506  1.00  0.00    -0.003 C 
ATOM     11  C   UNL     1      -4.159  13.725  -3.367  1.00  0.00     0.004 C 
ENDBRANCH   9  10
ENDBRANCH   8   9
ENDBRANCH   1   8
TORSDOF 6
ENDMDL
MODEL 4
REMARK VINA RESULT:    -4.169      2.031      3.141
REMARK INTER + INTRA:          -6.246
REMARK INTER:                  -5.855
REMARK INTRA:                  -0.391
REMARK UNBOUND:                -0.614
REMARK SMILES CCCCCCC=CC(=O)[O-]
REMARK SMILES IDX 5 1 6 2 7 3 8 4 9 5 10 6 11 7 4 8 3 9 2 10 1 11
REMARK H PARENT
REMARK Flexibility Score: inf
ROOT
ATOM      1  C   UNL     1      -5.809  12.726  -5.128  1.00  0.00     0.004 C 
ENDROOT
BRANCH   1   2
ATOM      2  C   UNL     1      -6.486  11.445  -5.630  1.00  0.00     0.027 C 
BRANCH   2   3
ATOM      3  C   UNL     1      -6.081  10.250  -4.814  1.00  0.00    -0.025 C 
ATOM      4  C   UNL     1      -6.496   9.016  -5.123  1.00  0.00     0.020 C 
BRANCH   4   5
ATOM      5  C   UNL     1      -6.139   7.839  -4.315  1.00  0.00     0.064 C 
ATOM      6  O   UNL     1      -6.126   7.892  -3.057  1.00  0.00    -0.545 OA
ATOM      7  O   UNL     1      -5.810   6.649  -4.951  1.00  0.00    -0.545 OA
ENDBRANCH   4   5
ENDBRANCH   2   3
ENDBRANCH   1   2
BRANCH   1   8
ATOM      8  C   UNL     1      -5.267  12.574  -3.699  1.00  0.00     0.000 C 
BRANCH   8   9
ATOM      9  C   UNL     1      -4.073  13.505  -3.461  1.00  0.00    -0.000 C 
BRANCH   9  10
ATOM     10  C   UNL     1      -3.260  13.056  -2.242  1.00  0.00    -0.003 C 
ATOM     11  C   UNL     1      -3.534  11.594  -1.903  1.00  0.00     0.004 C 
ENDBRANCH   9  10
ENDBRANCH   8   9
ENDBRANCH   1   8
TORSDOF 6
ENDMDL
MODEL 5
REMARK VINA RESULT:    -4.153      1.141      2.652
REMARK INTER + INTRA:          -6.224
REMARK INTER:                  -5.543
REMARK INTRA:                  -0.680
REMARK UNBOUND:                -0.614
REMARK SMILES CCCCCCC=CC(=O)[O-]
REMARK SMILES IDX 5 1 6 2 7 3 8 4 9 5 10 6 11 7 4 8 3 9 2 10 1 11
REMARK H PARENT
REMARK Flexibility Score: inf
ROOT
ATOM      1  C   UNL     1      -3.690  13.546  -3.186  1.00  0.00     0.004 C 
ENDROOT
BRANCH   1   2
ATOM      2  C   UNL     1      -5.178  13.178  -3.152  1.00  0.00     0.027 C 
BRANCH   2   3
ATOM      3  C   UNL     1      -5.554  12.290  -4.304  1.00  0.00    -0.025 C 
ATOM      4  C   UNL     1      -5.945  11.025  -4.116  1.00  0.00     0.020 C 
BRANCH   4   5
ATOM      5  C   UNL     1      -6.283  10.129  -5.234  1.00  0.00     0.064 C 
ATOM      6  O   UNL     1      -6.814  10.574  -6.286  1.00  0.00    -0.545 OA
ATOM      7  O   UNL     1      -6.011   8.772  -5.128  1.00  0.00    -0.545 OA
ENDBRANCH   4   5
ENDBRANCH   2   3
ENDBRANCH   1   2
BRANCH   1   8
ATOM      8  C   UNL     1      -2.885  12.805  -2.108  1.00  0.00     0.000 C 
BRANCH   8   9
ATOM      9  C   UNL     1      -3.796  12.319  -0.976  1.00  0.00    -0.000 C 
BRANCH   9  10
ATOM     10  C   UNL     1      -3.601  10.822  -0.716  1.00  0.00    -0.003 C 
ATOM     11  C   UNL     1      -3.145  10.097  -1.979  1.00  0.00     0.004 C 
ENDBRANCH   9  10
ENDBRANCH   8   9
ENDBRANCH   1   8
TORSDOF 6
ENDMDL
MODEL 6
REMARK VINA RESULT:    -4.073      2.714      3.755
REMARK INTER + INTRA:          -6.116
REMARK INTER:                  -5.633
REMARK INTRA:                  -0.483
REMARK UNBOUND:                -0.614
REMARK SMILES CCCCCCC=CC(=O)[O-]
REMARK SMILES IDX 5 1 6 2 7 3 8 4 9 5 10 6 11 7 4 8 3 9 2 10 1 11
REMARK H PARENT
REMARK Flexibility Score: inf
ROOT
ATOM      1  C   UNL     1      -6.089  11.197  -4.928  1.00  0.00     0.004 C 
ENDROOT
BRANCH   1   2
ATOM      2  C   UNL     1      -6.140   9.668  -4.826  1.00  0.00     0.027 C 
BRANCH   2   3
ATOM      3  C   UNL     1      -5.497   9.178  -3.559  1.00  0.00    -0.025 C 
ATOM      4  C   UNL     1      -5.973   8.118  -2.895  1.00  0.00     0.020 C 
BRANCH   4   5
ATOM      5  C   UNL     1      -5.378   7.645  -1.635  1.00  0.00     0.064 C 
ATOM      6  O   UNL     1      -5.141   6.423  -1.445  1.00  0.00    -0.545 OA
ATOM      7  O   UNL     1      -5.074   8.563  -0.637  1.00  0.00    -0.545 OA
ENDBRANCH   4   5
ENDBRANCH   2   3
ENDBRANCH   1   2
BRANCH   1   8
ATOM      8  C   UNL     1      -5.659  11.853  -3.608  1.00  0.00     0.000 C 
BRANCH   8   9
ATOM      9  C   UNL     1      -4.846  13.127  -3.865  1.00  0.00    -0.000 C 
BRANCH   9  10
ATOM     10  C   UNL     1      -3.674  13.240  -2.884  1.00  0.00    -0.003 C 
ATOM     11  C   UNL     1      -3.523  11.967  -2.056  1.00  0.00     0.004 C 
ENDBRANCH   9  10
ENDBRANCH   8   9
ENDBRANCH   1   8
TORSDOF 6
ENDMDL
MODEL 7
REMARK VINA RESULT:    -3.989      3.076      5.233
REMARK INTER + INTRA:          -6.002
REMARK INTER:                  -5.418
REMARK INTRA:                  -0.583
REMARK UNBOUND:                -0.614
REMARK SMILES CCCCCCC=CC(=O)[O-]
REMARK SMILES IDX 5 1 6 2 7 3 8 4 9 5 10 6 11 7 4 8 3 9 2 10 1 11
REMARK H PARENT
REMARK Flexibility Score: inf
ROOT
ATOM      1  C   UNL     1      -5.698  12.729  -5.148  1.00  0.00     0.004 C 
ENDROOT
BRANCH   1   2
ATOM      2  C   UNL     1      -4.718  13.519  -4.273  1.00  0.00     0.027 C 
BRANCH   2   3
ATOM      3  C   UNL     1      -4.709  13.012  -2.858  1.00  0.00    -0.025 C 
ATOM      4  C   UNL     1      -3.566  12.749  -2.215  1.00  0.00     0.020 C 
BRANCH   4   5
ATOM      5  C   UNL     1      -3.538  12.219  -0.842  1.00  0.00     0.064 C 
ATOM      6  O   UNL     1      -3.470  10.980  -0.624  1.00  0.00    -0.545 OA
ATOM      7  O   UNL     1      -3.587  13.100   0.230  1.00  0.00    -0.545 OA
ENDBRANCH   4   5
ENDBRANCH   2   3
ENDBRANCH   1   2
BRANCH   1   8
ATOM      8  C   UNL     1      -6.278  11.511  -4.416  1.00  0.00     0.000 C 
BRANCH   8   9
ATOM      9  C   UNL     1      -6.320  10.285  -5.334  1.00  0.00    -0.000 C 
BRANCH   9  10
ATOM     10  C   UNL     1      -5.878   9.021  -4.586  1.00  0.00    -0.003 C 
ATOM     11  C   UNL     1      -5.173   9.372  -3.279  1.00  0.00     0.004 C 
ENDBRANCH   9  10
ENDBRANCH   8   9
ENDBRANCH   1   8
TORSDOF 6
ENDMDL
MODEL 8
REMARK VINA RESULT:    -3.984      1.018      1.644
REMARK INTER + INTRA:          -5.996
REMARK INTER:                  -5.333
REMARK INTRA:                  -0.663
REMARK UNBOUND:                -0.614
REMARK SMILES CCCCCCC=CC(=O)[O-]
REMARK SMILES IDX 5 1 6 2 7 3 8 4 9 5 10 6 11 7 4 8 3 9 2 10 1 11
REMARK H PARENT
REMARK Flexibility Score: inf
ROOT
ATOM      1  C   UNL     1      -5.272  10.202  -2.459  1.00  0.00     0.004 C 
ENDROOT
BRANCH   1   2
ATOM      2  C   UNL     1      -5.440   9.070  -3.479  1.00  0.00     0.027 C 
BRANCH   2   3
ATOM      3  C   UNL     1      -5.862   9.595  -4.823  1.00  0.00    -0.025 C 
ATOM      4  C   UNL     1      -6.500  10.764  -4.950  1.00  0.00     0.020 C 
BRANCH   4   5
ATOM      5  C   UNL     1      -6.952  11.277  -6.253  1.00  0.00     0.064 C 
ATOM      6  O   UNL     1      -7.683  10.584  -7.009  1.00  0.00    -0.545 OA
ATOM      7  O   UNL     1      -6.565  12.549  -6.656  1.00  0.00    -0.545 OA
ENDBRANCH   4   5
ENDBRANCH   2   3
ENDBRANCH   1   2
BRANCH   1   8
ATOM      8  C   UNL     1      -3.804  10.412  -2.061  1.00  0.00     0.000 C 
BRANCH   8   9
ATOM      9  C   UNL     1      -3.417  11.892  -2.145  1.00  0.00    -0.000 C 
BRANCH   9  10
ATOM     10  C   UNL     1      -4.622  12.755  -2.535  1.00  0.00    -0.003 C 
ATOM     11  C   UNL     1      -4.323  13.594  -3.774  1.00  0.00     0.004 C 
ENDBRANCH   9  10
ENDBRANCH   8   9
ENDBRANCH   1   8
TORSDOF 6
ENDMDL
MODEL 9
REMARK VINA RESULT:    -3.971      3.217      5.493
REMARK INTER + INTRA:          -5.978
REMARK INTER:                  -5.685
REMARK INTRA:                  -0.292
REMARK UNBOUND:                -0.614
REMARK SMILES CCCCCCC=CC(=O)[O-]
REMARK SMILES IDX 5 1 6 2 7 3 8 4 9 5 10 6 11 7 4 8 3 9 2 10 1 11
REMARK H PARENT
REMARK Flexibility Score: inf
ROOT
ATOM      1  C   UNL     1      -6.947  10.957  -5.843  1.00  0.00     0.004 C 
ENDROOT
BRANCH   1   2
ATOM      2  C   UNL     1      -6.185  12.276  -5.662  1.00  0.00     0.027 C 
BRANCH   2   3
ATOM      3  C   UNL     1      -5.630  12.406  -4.271  1.00  0.00    -0.025 C 
ATOM      4  C   UNL     1      -4.691  13.311  -3.973  1.00  0.00     0.020 C 
BRANCH   4   5
ATOM      5  C   UNL     1      -4.110  13.430  -2.626  1.00  0.00     0.064 C 
ATOM      6  O   UNL     1      -2.900  13.152  -2.412  1.00  0.00    -0.545 OA
ATOM      7  O   UNL     1      -4.910  13.855  -1.573  1.00  0.00    -0.545 OA
ENDBRANCH   4   5
ENDBRANCH   2   3
ENDBRANCH   1   2
BRANCH   1   8
ATOM      8  C   UNL     1      -6.258   9.786  -5.128  1.00  0.00     0.000 C 
BRANCH   8   9
ATOM      9  C   UNL     1      -7.282   8.893  -4.420  1.00  0.00    -0.000 C 
BRANCH   9  10
ATOM     10  C   UNL     1      -7.341   7.504  -5.066  1.00  0.00    -0.003 C 
ATOM     11  C   UNL     1      -5.975   6.825  -5.041  1.00  0.00     0.004 C 
ENDBRANCH   9  10
ENDBRANCH   8   9
ENDBRANCH   1   8
TORSDOF 6
ENDMDL
