MODEL 1
REMARK VINA RESULT:    -3.271      0.000      0.000
REMARK INTER + INTRA:          -5.177
REMARK INTER:                  -4.992
REMARK INTRA:                  -0.185
REMARK UNBOUND:                -0.185
REMARK SMILES CC1=CCC[C@@H](C)C(=O)C[C@H](C(C)C)C(=O)C1
REMARK SMILES IDX 8 1 9 2 6 3 7 4 5 5 4 6 3 7 2 8 1 9 10 11 11 12 15 13 16 14
REMARK SMILES IDX 17 15 12 17 13 18 14 19
REMARK H PARENT
REMARK Flexibility Score: 70.00
ROOT
ATOM      1  C   UNL     1      13.735  15.302  15.465  1.00  0.00     0.136 C 
ATOM      2  O   UNL     1      13.278  15.794  16.487  1.00  0.00    -0.299 OA
ENDROOT
BRANCH   1   3
ATOM      3  C   UNL     1      13.271  13.932  15.003  1.00  0.00     0.053 C 
ATOM      4  C   UNL     1      11.899  13.984  14.311  1.00  0.00     0.016 C 
BRANCH   3   5
ATOM      5  C   UNL     1      13.289  12.910  16.158  1.00  0.00     0.015 C 
BRANCH   5   6
ATOM      6  C   UNL     1      14.707  12.527  16.632  1.00  0.00     0.028 C 
BRANCH   6   7
ATOM      7  C   UNL     1      15.553  12.041  15.483  1.00  0.00    -0.028 C 
ATOM      8  C   UNL     1      16.687  12.642  15.050  1.00  0.00    -0.070 CG0
ATOM      9  C   UNL     1      17.393  12.049  13.859  1.00  0.00     0.039 C 
ATOM     10  G   UNL     1      17.279  13.877  15.716  1.00  0.00     0.000 G0
ENDBRANCH   6   7
ENDBRANCH   5   6
ENDBRANCH   3   5
ENDBRANCH   1   3
BRANCH   1  11
ATOM     11  C   UNL     1      14.764  16.078  14.678  1.00  0.00     0.087 C 
BRANCH  11  12
ATOM     12  C   UNL     1      16.107  16.211  15.443  1.00  0.00     0.066 C 
BRANCH  12  13
ATOM     13  C   UNL     1      17.078  15.151  14.949  1.00  0.00     0.140 C 
ATOM     14  O   UNL     1      17.759  15.373  13.956  1.00  0.00    -0.299 OA
BRANCH  13  15
ATOM     15  C   UNL     1      17.289  13.879  15.730  1.00  0.00     0.106 CG0
ATOM     16  G   UNL     1      16.687  12.662  15.039  1.00  0.00     0.000 G0
ENDBRANCH  13  15
ENDBRANCH  12  13
BRANCH  12  17
ATOM     17  C   UNL     1      16.737  17.636  15.312  1.00  0.00    -0.006 C 
ATOM     18  C   UNL     1      17.192  18.173  16.684  1.00  0.00     0.008 C 
ATOM     19  C   UNL     1      15.765  18.653  14.684  1.00  0.00     0.008 C 
ENDBRANCH  12  17
ENDBRANCH  11  12
ENDBRANCH   1  11
TORSDOF 1
ENDMDL
MODEL 2
REMARK VINA RESULT:    -3.173     14.020     16.423
REMARK INTER + INTRA:          -5.027
REMARK INTER:                  -5.007
REMARK INTRA:                  -0.019
REMARK UNBOUND:                -0.185
REMARK SMILES CC1=CCC[C@@H](C)C(=O)C[C@H](C(C)C)C(=O)C1
REMARK SMILES IDX 8 1 9 2 6 3 7 4 5 5 4 6 3 7 2 8 1 9 10 11 11 12 15 13 16 14
REMARK SMILES IDX 17 15 12 17 13 18 14 19
REMARK H PARENT
REMARK Flexibility Score: 70.00
ROOT
ATOM      1  C   UNL     1       5.798  28.799  17.173  1.00  0.00     0.136 C 
ATOM      2  O   UNL     1       4.601  28.869  17.410  1.00  0.00    -0.299 OA
ENDROOT
BRANCH   1   3
ATOM      3  C   UNL     1       6.588  30.055  16.852  1.00  0.00     0.053 C 
ATOM      4  C   UNL     1       6.577  31.063  18.012  1.00  0.00     0.016 C 
BRANCH   3   5
ATOM      5  C   UNL     1       6.115  30.698  15.532  1.00  0.00     0.015 C 
BRANCH   5   6
ATOM      6  C   UNL     1       6.977  30.321  14.309  1.00  0.00     0.028 C 
BRANCH   6   7
ATOM      7  C   UNL     1       8.414  30.094  14.704  1.00  0.00    -0.028 C 
ATOM      8  C   UNL     1       9.046  28.897  14.665  1.00  0.00    -0.070 CG0
ATOM      9  C   UNL     1      10.476  28.835  15.135  1.00  0.00     0.039 C 
ATOM     10  G   UNL     1       8.381  27.622  14.165  1.00  0.00     0.000 G0
ENDBRANCH   6   7
ENDBRANCH   5   6
ENDBRANCH   3   5
ENDBRANCH   1   3
BRANCH   1  11
ATOM     11  C   UNL     1       6.471  27.447  17.208  1.00  0.00     0.087 C 
BRANCH  11  12
ATOM     12  C   UNL     1       6.500  26.774  15.810  1.00  0.00     0.066 C 
BRANCH  12  13
ATOM     13  C   UNL     1       7.932  26.723  15.302  1.00  0.00     0.140 C 
ATOM     14  O   UNL     1       8.703  25.887  15.756  1.00  0.00    -0.299 OA
BRANCH  13  15
ATOM     15  C   UNL     1       8.379  27.616  14.173  1.00  0.00     0.106 CG0
ATOM     16  G   UNL     1       9.060  28.885  14.665  1.00  0.00     0.000 G0
ENDBRANCH  13  15
ENDBRANCH  12  13
BRANCH  12  17
ATOM     17  C   UNL     1       5.869  25.343  15.817  1.00  0.00    -0.006 C 
ATOM     18  C   UNL     1       6.204  24.580  14.520  1.00  0.00     0.008 C 
ATOM     19  C   UNL     1       4.338  25.377  15.986  1.00  0.00     0.008 C 
ENDBRANCH  12  17
ENDBRANCH  11  12
ENDBRANCH   1  11
TORSDOF 1
ENDMDL
MODEL 3
REMARK VINA RESULT:    -3.169     15.185     17.776
REMARK INTER + INTRA:          -5.021
REMARK INTER:                  -4.788
REMARK INTRA:                  -0.232
REMARK UNBOUND:                -0.185
REMARK SMILES CC1=CCC[C@@H](C)C(=O)C[C@H](C(C)C)C(=O)C1
REMARK SMILES IDX 8 1 9 2 6 3 7 4 5 5 4 6 3 7 2 8 1 9 10 11 11 12 15 13 16 14
REMARK SMILES IDX 17 15 12 17 13 18 14 19
REMARK H PARENT
REMARK Flexibility Score: 70.00
ROOT
ATOM      1  C   UNL     1       6.643  26.958  16.410  1.00  0.00     0.136 C 
ATOM      2  O   UNL     1       7.157  26.435  17.389  1.00  0.00    -0.299 OA
ENDROOT
BRANCH   1   3
ATOM      3  C   UNL     1       7.097  28.332  15.952  1.00  0.00     0.053 C 
ATOM      4  C   UNL     1       8.458  28.289  15.240  1.00  0.00     0.016 C 
BRANCH   3   5
ATOM      5  C   UNL     1       7.093  29.345  17.115  1.00  0.00     0.015 C 
BRANCH   5   6
ATOM      6  C   UNL     1       5.714  29.526  17.783  1.00  0.00     0.028 C 
BRANCH   6   7
ATOM      7  C   UNL     1       4.752  30.233  16.863  1.00  0.00    -0.028 C 
ATOM      8  C   UNL     1       3.552  29.741  16.474  1.00  0.00    -0.070 CG0
ATOM      9  C   UNL     1       2.727  30.560  15.515  1.00  0.00     0.039 C 
ATOM     10  G   UNL     1       3.000  28.410  16.966  1.00  0.00     0.000 G0
ENDBRANCH   6   7
ENDBRANCH   5   6
ENDBRANCH   3   5
ENDBRANCH   1   3
BRANCH   1  11
ATOM     11  C   UNL     1       5.556  26.214  15.671  1.00  0.00     0.087 C 
BRANCH  11  12
ATOM     12  C   UNL     1       4.242  26.135  16.492  1.00  0.00     0.066 C 
BRANCH  12  13
ATOM     13  C   UNL     1       3.298  27.240  16.044  1.00  0.00     0.140 C 
ATOM     14  O   UNL     1       2.725  27.144  14.966  1.00  0.00    -0.299 OA
BRANCH  13  15
ATOM     15  C   UNL     1       2.979  28.395  16.959  1.00  0.00     0.106 CG0
ATOM     16  G   UNL     1       3.551  29.714  16.458  1.00  0.00     0.000 G0
ENDBRANCH  13  15
ENDBRANCH  12  13
BRANCH  12  17
ATOM     17  C   UNL     1       3.544  24.739  16.380  1.00  0.00    -0.006 C 
ATOM     18  C   UNL     1       3.244  24.153  17.774  1.00  0.00     0.008 C 
ATOM     19  C   UNL     1       4.389  23.723  15.589  1.00  0.00     0.008 C 
ENDBRANCH  12  17
ENDBRANCH  11  12
ENDBRANCH   1  11
TORSDOF 1
ENDMDL
MODEL 4
REMARK VINA RESULT:    -3.043     15.824     17.620
REMARK INTER + INTRA:          -4.829
REMARK INTER:                  -4.541
REMARK INTRA:                  -0.289
REMARK UNBOUND:                -0.185
REMARK SMILES CC1=CCC[C@@H](C)C(=O)C[C@H](C(C)C)C(=O)C1
REMARK SMILES IDX 8 1 9 2 6 3 7 4 5 5 4 6 3 7 2 8 1 9 10 11 11 12 15 13 16 14
REMARK SMILES IDX 17 15 12 17 13 18 14 19
REMARK H PARENT
REMARK Flexibility Score: 70.00
ROOT
ATOM      1  C   UNL     1       4.182  28.486  16.693  1.00  0.00     0.136 C 
ATOM      2  O   UNL     1       3.072  27.977  16.760  1.00  0.00    -0.299 OA
ENDROOT
BRANCH   1   3
ATOM      3  C   UNL     1       4.478  29.773  17.442  1.00  0.00     0.053 C 
ATOM      4  C   UNL     1       4.246  31.020  16.574  1.00  0.00     0.016 C 
BRANCH   3   5
ATOM      5  C   UNL     1       5.895  29.758  18.052  1.00  0.00     0.015 C 
BRANCH   5   6
ATOM      6  C   UNL     1       6.844  30.819  17.458  1.00  0.00     0.028 C 
BRANCH   6   7
ATOM      7  C   UNL     1       8.168  30.209  17.070  1.00  0.00    -0.028 C 
ATOM      8  C   UNL     1       8.499  29.813  15.819  1.00  0.00    -0.070 CG0
ATOM      9  C   UNL     1       9.852  29.183  15.610  1.00  0.00     0.039 C 
ATOM     10  G   UNL     1       7.574  29.981  14.621  1.00  0.00     0.000 G0
ENDBRANCH   6   7
ENDBRANCH   5   6
ENDBRANCH   3   5
ENDBRANCH   1   3
BRANCH   1  11
ATOM     11  C   UNL     1       5.245  27.813  15.857  1.00  0.00     0.087 C 
BRANCH  11  12
ATOM     12  C   UNL     1       5.407  28.485  14.468  1.00  0.00     0.066 C 
BRANCH  12  13
ATOM     13  C   UNL     1       6.885  28.699  14.180  1.00  0.00     0.140 C 
ATOM     14  O   UNL     1       7.498  27.866  13.526  1.00  0.00    -0.299 OA
BRANCH  13  15
ATOM     15  C   UNL     1       7.571  29.976  14.596  1.00  0.00     0.106 CG0
ATOM     16  G   UNL     1       8.478  29.785  15.804  1.00  0.00     0.000 G0
ENDBRANCH  13  15
ENDBRANCH  12  13
BRANCH  12  17
ATOM     17  C   UNL     1       4.738  27.663  13.318  1.00  0.00    -0.006 C 
ATOM     18  C   UNL     1       3.289  28.128  13.072  1.00  0.00     0.008 C 
ATOM     19  C   UNL     1       4.727  26.150  13.608  1.00  0.00     0.008 C 
ENDBRANCH  12  17
ENDBRANCH  11  12
ENDBRANCH   1  11
TORSDOF 1
ENDMDL
MODEL 5
REMARK VINA RESULT:    -2.998      9.649     11.743
REMARK INTER + INTRA:          -4.761
REMARK INTER:                  -4.513
REMARK INTRA:                  -0.248
REMARK UNBOUND:                -0.185
REMARK SMILES CC1=CCC[C@@H](C)C(=O)C[C@H](C(C)C)C(=O)C1
REMARK SMILES IDX 8 1 9 2 6 3 7 4 5 5 4 6 3 7 2 8 1 9 10 11 11 12 15 13 16 14
REMARK SMILES IDX 17 15 12 17 13 18 14 19
REMARK H PARENT
REMARK Flexibility Score: 70.00
ROOT
ATOM      1  C   UNL     1      13.059  27.158  15.314  1.00  0.00     0.136 C 
ATOM      2  O   UNL     1      11.869  27.324  15.543  1.00  0.00    -0.299 OA
ENDROOT
BRANCH   1   3
ATOM      3  C   UNL     1      13.833  28.192  14.515  1.00  0.00     0.053 C 
ATOM      4  C   UNL     1      13.745  27.945  13.001  1.00  0.00     0.016 C 
BRANCH   3   5
ATOM      5  C   UNL     1      15.297  28.294  14.993  1.00  0.00     0.015 C 
BRANCH   5   6
ATOM      6  C   UNL     1      16.327  27.776  13.968  1.00  0.00     0.028 C 
BRANCH   6   7
ATOM      7  C   UNL     1      17.297  26.816  14.608  1.00  0.00    -0.028 C 
ATOM      8  C   UNL     1      17.201  25.466  14.548  1.00  0.00    -0.070 CG0
ATOM      9  C   UNL     1      18.234  24.649  15.279  1.00  0.00     0.039 C 
ATOM     10  G   UNL     1      16.107  24.744  13.773  1.00  0.00     0.000 G0
ENDBRANCH   6   7
ENDBRANCH   5   6
ENDBRANCH   3   5
ENDBRANCH   1   3
BRANCH   1  11
ATOM     11  C   UNL     1      13.738  25.916  15.839  1.00  0.00     0.087 C 
BRANCH  11  12
ATOM     12  C   UNL     1      13.671  24.742  14.825  1.00  0.00     0.066 C 
BRANCH  12  13
ATOM     13  C   UNL     1      15.051  24.122  14.678  1.00  0.00     0.140 C 
ATOM     14  O   UNL     1      15.293  23.052  15.222  1.00  0.00    -0.299 OA
BRANCH  13  15
ATOM     15  C   UNL     1      16.086  24.755  13.781  1.00  0.00     0.106 CG0
ATOM     16  G   UNL     1      17.188  25.455  14.564  1.00  0.00     0.000 G0
ENDBRANCH  13  15
ENDBRANCH  12  13
BRANCH  12  17
ATOM     17  C   UNL     1      12.622  23.655  15.230  1.00  0.00    -0.006 C 
ATOM     18  C   UNL     1      11.600  23.420  14.099  1.00  0.00     0.008 C 
ATOM     19  C   UNL     1      11.858  24.027  16.515  1.00  0.00     0.008 C 
ENDBRANCH  12  17
ENDBRANCH  11  12
ENDBRANCH   1  11
TORSDOF 1
ENDMDL
MODEL 6
REMARK VINA RESULT:    -2.930     14.323     16.254
REMARK INTER + INTRA:          -4.657
REMARK INTER:                  -4.656
REMARK INTRA:                  -0.001
REMARK UNBOUND:                -0.185
REMARK SMILES CC1=CCC[C@@H](C)C(=O)C[C@H](C(C)C)C(=O)C1
REMARK SMILES IDX 8 1 9 2 6 3 7 4 5 5 4 6 3 7 2 8 1 9 10 11 11 12 15 13 16 14
REMARK SMILES IDX 17 15 12 17 13 18 14 19
REMARK H PARENT
REMARK Flexibility Score: 70.00
ROOT
ATOM      1  C   UNL     1       5.371  27.499  15.656  1.00  0.00     0.136 C 
ATOM      2  O   UNL     1       4.192  27.405  15.966  1.00  0.00    -0.299 OA
ENDROOT
BRANCH   1   3
ATOM      3  C   UNL     1       6.317  26.334  15.885  1.00  0.00     0.053 C 
ATOM      4  C   UNL     1       6.795  26.249  17.343  1.00  0.00     0.016 C 
BRANCH   3   5
ATOM      5  C   UNL     1       7.501  26.365  14.896  1.00  0.00     0.015 C 
BRANCH   5   6
ATOM      6  C   UNL     1       8.885  26.392  15.578  1.00  0.00     0.028 C 
BRANCH   6   7
ATOM      7  C   UNL     1       9.897  27.116  14.727  1.00  0.00    -0.028 C 
ATOM      8  C   UNL     1      10.139  28.448  14.779  1.00  0.00    -0.070 CG0
ATOM      9  C   UNL     1      11.158  29.021  13.828  1.00  0.00     0.039 C 
ATOM     10  G   UNL     1       9.439  29.382  15.756  1.00  0.00     0.000 G0
ENDBRANCH   6   7
ENDBRANCH   5   6
ENDBRANCH   3   5
ENDBRANCH   1   3
BRANCH   1  11
ATOM     11  C   UNL     1       5.864  28.789  15.043  1.00  0.00     0.087 C 
BRANCH  11  12
ATOM     12  C   UNL     1       6.821  29.558  15.991  1.00  0.00     0.066 C 
BRANCH  12  13
ATOM     13  C   UNL     1       8.105  29.894  15.251  1.00  0.00     0.140 C 
ATOM     14  O   UNL     1       8.064  30.640  14.281  1.00  0.00    -0.299 OA
BRANCH  13  15
ATOM     15  C   UNL     1       9.437  29.408  15.763  1.00  0.00     0.106 CG0
ATOM     16  G   UNL     1      10.129  28.465  14.789  1.00  0.00     0.000 G0
ENDBRANCH  13  15
ENDBRANCH  12  13
BRANCH  12  17
ATOM     17  C   UNL     1       6.173  30.853  16.582  1.00  0.00    -0.006 C 
ATOM     18  C   UNL     1       6.599  31.072  18.047  1.00  0.00     0.008 C 
ATOM     19  C   UNL     1       4.634  30.821  16.516  1.00  0.00     0.008 C 
ENDBRANCH  12  17
ENDBRANCH  11  12
ENDBRANCH   1  11
TORSDOF 1
ENDMDL
MODEL 7
REMARK VINA RESULT:    -2.891     15.593     17.717
REMARK INTER + INTRA:          -4.597
REMARK INTER:                  -4.242
REMARK INTRA:                  -0.356
REMARK UNBOUND:                -0.185
REMARK SMILES CC1=CCC[C@@H](C)C(=O)C[C@H](C(C)C)C(=O)C1
REMARK SMILES IDX 8 1 9 2 6 3 7 4 5 5 4 6 3 7 2 8 1 9 10 11 11 12 15 13 16 14
REMARK SMILES IDX 17 15 12 17 13 18 14 19
REMARK H PARENT
REMARK Flexibility Score: 70.00
ROOT
ATOM      1  C   UNL     1       3.614  26.846  14.826  1.00  0.00     0.136 C 
ATOM      2  O   UNL     1       2.568  26.501  14.293  1.00  0.00    -0.299 OA
ENDROOT
BRANCH   1   3
ATOM      3  C   UNL     1       4.565  25.803  15.386  1.00  0.00     0.053 C 
ATOM      4  C   UNL     1       4.220  25.418  16.833  1.00  0.00     0.016 C 
BRANCH   3   5
ATOM      5  C   UNL     1       6.035  26.248  15.248  1.00  0.00     0.015 C 
BRANCH   5   6
ATOM      6  C   UNL     1       6.746  26.488  16.596  1.00  0.00     0.028 C 
BRANCH   6   7
ATOM      7  C   UNL     1       7.612  27.721  16.544  1.00  0.00    -0.028 C 
ATOM      8  C   UNL     1       7.245  28.942  16.999  1.00  0.00    -0.070 CG0
ATOM      9  C   UNL     1       8.216  30.083  16.833  1.00  0.00     0.039 C 
ATOM     10  G   UNL     1       5.907  29.210  17.674  1.00  0.00     0.000 G0
ENDBRANCH   6   7
ENDBRANCH   5   6
ENDBRANCH   3   5
ENDBRANCH   1   3
BRANCH   1  11
ATOM     11  C   UNL     1       3.938  28.318  14.913  1.00  0.00     0.087 C 
BRANCH  11  12
ATOM     12  C   UNL     1       3.688  28.887  16.335  1.00  0.00     0.066 C 
BRANCH  12  13
ATOM     13  C   UNL     1       4.865  29.758  16.745  1.00  0.00     0.140 C 
ATOM     14  O   UNL     1       4.912  30.923  16.372  1.00  0.00    -0.299 OA
BRANCH  13  15
ATOM     15  C   UNL     1       5.914  29.234  17.694  1.00  0.00     0.106 CG0
ATOM     16  G   UNL     1       7.237  28.941  16.998  1.00  0.00     0.000 G0
ENDBRANCH  13  15
ENDBRANCH  12  13
BRANCH  12  17
ATOM     17  C   UNL     1       2.350  29.690  16.437  1.00  0.00    -0.006 C 
ATOM     18  C   UNL     1       1.280  28.894  17.212  1.00  0.00     0.008 C 
ATOM     19  C   UNL     1       1.782  30.062  15.055  1.00  0.00     0.008 C 
ENDBRANCH  12  17
ENDBRANCH  11  12
ENDBRANCH   1  11
TORSDOF 1
ENDMDL
MODEL 8
REMARK VINA RESULT:    -2.886     13.891     16.281
REMARK INTER + INTRA:          -4.590
REMARK INTER:                  -4.838
REMARK INTRA:                   0.248
REMARK UNBOUND:                -0.185
REMARK SMILES CC1=CCC[C@@H](C)C(=O)C[C@H](C(C)C)C(=O)C1
REMARK SMILES IDX 8 1 9 2 6 3 7 4 5 5 4 6 3 7 2 8 1 9 10 11 11 12 15 13 16 14
REMARK SMILES IDX 17 15 12 17 13 18 14 19
REMARK H PARENT
REMARK Flexibility Score: 70.00
ROOT
ATOM      1  C   UNL     1       8.042  29.997  16.042  1.00  0.00     0.136 C 
ATOM      2  O   UNL     1       9.155  30.297  16.450  1.00  0.00    -0.299 OA
ENDROOT
BRANCH   1   3
ATOM      3  C   UNL     1       6.813  30.706  16.584  1.00  0.00     0.053 C 
ATOM      4  C   UNL     1       6.868  30.884  18.109  1.00  0.00     0.016 C 
BRANCH   3   5
ATOM      5  C   UNL     1       5.514  30.005  16.137  1.00  0.00     0.015 C 
BRANCH   5   6
ATOM      6  C   UNL     1       4.783  29.257  17.271  1.00  0.00     0.028 C 
BRANCH   6   7
ATOM      7  C   UNL     1       4.391  27.865  16.842  1.00  0.00    -0.028 C 
ATOM      8  C   UNL     1       5.246  26.821  16.732  1.00  0.00    -0.070 CG0
ATOM      9  C   UNL     1       4.697  25.504  16.249  1.00  0.00     0.039 C 
ATOM     10  G   UNL     1       6.725  26.918  17.080  1.00  0.00     0.000 G0
ENDBRANCH   6   7
ENDBRANCH   5   6
ENDBRANCH   3   5
ENDBRANCH   1   3
BRANCH   1  11
ATOM     11  C   UNL     1       7.915  28.917  14.995  1.00  0.00     0.087 C 
BRANCH  11  12
ATOM     12  C   UNL     1       8.646  27.612  15.410  1.00  0.00     0.066 C 
BRANCH  12  13
ATOM     13  C   UNL     1       7.627  26.592  15.892  1.00  0.00     0.140 C 
ATOM     14  O   UNL     1       7.589  25.486  15.370  1.00  0.00    -0.299 OA
BRANCH  13  15
ATOM     15  C   UNL     1       6.741  26.891  17.075  1.00  0.00     0.106 CG0
ATOM     16  G   UNL     1       5.260  26.815  16.729  1.00  0.00     0.000 G0
ENDBRANCH  13  15
ENDBRANCH  12  13
BRANCH  12  17
ATOM     17  C   UNL     1       9.516  27.015  14.256  1.00  0.00    -0.006 C 
ATOM     18  C   UNL     1      11.021  27.183  14.549  1.00  0.00     0.008 C 
ATOM     19  C   UNL     1       9.205  27.661  12.892  1.00  0.00     0.008 C 
ENDBRANCH  12  17
ENDBRANCH  11  12
ENDBRANCH   1  11
TORSDOF 1
ENDMDL
MODEL 9
REMARK VINA RESULT:    -2.865     15.409     17.696
REMARK INTER + INTRA:          -4.557
REMARK INTER:                  -4.601
REMARK INTRA:                   0.044
REMARK UNBOUND:                -0.185
REMARK SMILES CC1=CCC[C@@H](C)C(=O)C[C@H](C(C)C)C(=O)C1
REMARK SMILES IDX 8 1 9 2 6 3 7 4 5 5 4 6 3 7 2 8 1 9 10 11 11 12 15 13 16 14
REMARK SMILES IDX 17 15 12 17 13 18 14 19
REMARK H PARENT
REMARK Flexibility Score: 70.00
ROOT
ATOM      1  C   UNL     1       4.676  29.821  17.044  1.00  0.00     0.136 C 
ATOM      2  O   UNL     1       4.389  30.911  16.570  1.00  0.00    -0.299 OA
ENDROOT
BRANCH   1   3
ATOM      3  C   UNL     1       6.074  29.565  17.579  1.00  0.00     0.053 C 
ATOM      4  C   UNL     1       6.858  30.867  17.809  1.00  0.00     0.016 C 
BRANCH   3   5
ATOM      5  C   UNL     1       6.852  28.581  16.680  1.00  0.00     0.015 C 
BRANCH   5   6
ATOM      6  C   UNL     1       6.886  27.136  17.218  1.00  0.00     0.028 C 
BRANCH   6   7
ATOM      7  C   UNL     1       6.685  26.137  16.106  1.00  0.00    -0.028 C 
ATOM      8  C   UNL     1       5.488  25.621  15.739  1.00  0.00    -0.070 CG0
ATOM      9  C   UNL     1       5.466  24.599  14.632  1.00  0.00     0.039 C 
ATOM     10  G   UNL     1       4.172  26.032  16.385  1.00  0.00     0.000 G0
ENDBRANCH   6   7
ENDBRANCH   5   6
ENDBRANCH   3   5
ENDBRANCH   1   3
BRANCH   1  11
ATOM     11  C   UNL     1       3.620  28.742  17.087  1.00  0.00     0.087 C 
BRANCH  11  12
ATOM     12  C   UNL     1       3.135  28.343  15.668  1.00  0.00     0.066 C 
BRANCH  12  13
ATOM     13  C   UNL     1       3.273  26.840  15.489  1.00  0.00     0.140 C 
ATOM     14  O   UNL     1       2.726  26.292  14.541  1.00  0.00    -0.299 OA
BRANCH  13  15
ATOM     15  C   UNL     1       4.164  26.037  16.403  1.00  0.00     0.106 CG0
ATOM     16  G   UNL     1       5.478  25.643  15.741  1.00  0.00     0.000 G0
ENDBRANCH  13  15
ENDBRANCH  12  13
BRANCH  12  17
ATOM     17  C   UNL     1       1.666  28.797  15.383  1.00  0.00    -0.006 C 
ATOM     18  C   UNL     1       1.618  30.259  14.898  1.00  0.00     0.008 C 
ATOM     19  C   UNL     1       0.759  28.658  16.620  1.00  0.00     0.008 C 
ENDBRANCH  12  17
ENDBRANCH  11  12
ENDBRANCH   1  11
TORSDOF 1
ENDMDL
