MODEL 1
REMARK VINA RESULT:    -5.087      0.000      0.000
REMARK INTER + INTRA:          -6.094
REMARK INTER:                  -5.830
REMARK INTRA:                  -0.264
REMARK UNBOUND:                -0.264
REMARK SMILES O=C([O-])C=Cc1ccc(O)cc1
REMARK SMILES IDX 6 1 7 2 12 3 8 4 11 5 9 6 5 7 4 8 2 9 1 10 3 11 10 12
REMARK H PARENT 10 13
REMARK Flexibility Score: inf
ROOT
ATOM      1  C   UNL     1       4.196  -9.057 -46.259  1.00  0.00    -0.025 A 
ATOM      2  C   UNL     1       3.185  -8.287 -45.664  1.00  0.00     0.012 A 
ATOM      3  C   UNL     1       4.097 -10.459 -46.234  1.00  0.00     0.012 A 
ATOM      4  C   UNL     1       2.065  -8.907 -45.101  1.00  0.00     0.047 A 
ATOM      5  C   UNL     1       2.977 -11.077 -45.669  1.00  0.00     0.047 A 
ATOM      6  C   UNL     1       1.955 -10.301 -45.105  1.00  0.00     0.115 A 
ENDROOT
BRANCH   1   7
ATOM      7  C   UNL     1       5.394  -8.383 -46.801  1.00  0.00     0.010 C 
ATOM      8  C   UNL     1       6.517  -8.121 -46.113  1.00  0.00     0.025 C 
BRANCH   8   9
ATOM      9  C   UNL     1       6.832  -8.611 -44.756  1.00  0.00     0.064 C 
ATOM     10  O   UNL     1       6.356  -8.059 -43.730  1.00  0.00    -0.545 OA
ATOM     11  O   UNL     1       7.613  -9.750 -44.613  1.00  0.00    -0.545 OA
ENDBRANCH   8   9
ENDBRANCH   1   7
BRANCH   6  12
ATOM     12  O   UNL     1       0.834 -10.904 -44.540  1.00  0.00    -0.508 OA
ATOM     13  H   UNL     1       0.343 -10.484 -43.759  1.00  0.00     0.293 HD
ENDBRANCH   6  12
TORSDOF 3
ENDMDL
MODEL 2
REMARK VINA RESULT:    -5.035      0.141      1.405
REMARK INTER + INTRA:          -6.035
REMARK INTER:                  -5.765
REMARK INTRA:                  -0.270
REMARK UNBOUND:                -0.264
REMARK SMILES O=C([O-])C=Cc1ccc(O)cc1
REMARK SMILES IDX 6 1 7 2 12 3 8 4 11 5 9 6 5 7 4 8 2 9 1 10 3 11 10 12
REMARK H PARENT 10 13
REMARK Flexibility Score: inf
ROOT
ATOM      1  C   UNL     1       4.154  -9.166 -46.153  1.00  0.00    -0.025 A 
ATOM      2  C   UNL     1       3.970 -10.557 -46.167  1.00  0.00     0.012 A 
ATOM      3  C   UNL     1       3.149  -8.345 -45.612  1.00  0.00     0.012 A 
ATOM      4  C   UNL     1       2.824 -11.123 -45.601  1.00  0.00     0.047 A 
ATOM      5  C   UNL     1       2.003  -8.913 -45.047  1.00  0.00     0.047 A 
ATOM      6  C   UNL     1       1.840 -10.305 -45.036  1.00  0.00     0.115 A 
ENDROOT
BRANCH   1   7
ATOM      7  C   UNL     1       5.348  -8.587 -46.804  1.00  0.00     0.010 C 
ATOM      8  C   UNL     1       6.500  -8.282 -46.185  1.00  0.00     0.025 C 
BRANCH   8   9
ATOM      9  C   UNL     1       6.850  -8.628 -44.793  1.00  0.00     0.064 C 
ATOM     10  O   UNL     1       6.405  -7.967 -43.819  1.00  0.00    -0.545 OA
ATOM     11  O   UNL     1       7.629  -9.751 -44.552  1.00  0.00    -0.545 OA
ENDBRANCH   8   9
ENDBRANCH   1   7
BRANCH   6  12
ATOM     12  O   UNL     1       0.703 -10.883 -44.475  1.00  0.00    -0.508 OA
ATOM     13  H   UNL     1       0.607 -10.996 -43.473  1.00  0.00     0.293 HD
ENDBRANCH   6  12
TORSDOF 3
ENDMDL
MODEL 3
REMARK VINA RESULT:    -4.994      1.342      4.747
REMARK INTER + INTRA:          -5.988
REMARK INTER:                  -5.696
REMARK INTRA:                  -0.292
REMARK UNBOUND:                -0.264
REMARK SMILES O=C([O-])C=Cc1ccc(O)cc1
REMARK SMILES IDX 6 1 7 2 12 3 8 4 11 5 9 6 5 7 4 8 2 9 1 10 3 11 10 12
REMARK H PARENT 10 13
REMARK Flexibility Score: inf
ROOT
ATOM      1  C   UNL     1       4.809 -10.181 -46.040  1.00  0.00    -0.025 A 
ATOM      2  C   UNL     1       5.772 -10.768 -45.205  1.00  0.00     0.012 A 
ATOM      3  C   UNL     1       4.968  -8.843 -46.438  1.00  0.00     0.012 A 
ATOM      4  C   UNL     1       6.905 -10.044 -44.818  1.00  0.00     0.047 A 
ATOM      5  C   UNL     1       6.100  -8.121 -46.048  1.00  0.00     0.047 A 
ATOM      6  C   UNL     1       7.074  -8.722 -45.240  1.00  0.00     0.115 A 
ENDROOT
BRANCH   1   7
ATOM      7  C   UNL     1       3.596 -10.947 -46.394  1.00  0.00     0.010 C 
ATOM      8  C   UNL     1       2.493 -11.050 -45.635  1.00  0.00     0.025 C 
BRANCH   8   9
ATOM      9  C   UNL     1       2.218 -10.283 -44.404  1.00  0.00     0.064 C 
ATOM     10  O   UNL     1       2.588 -10.695 -43.274  1.00  0.00    -0.545 OA
ATOM     11  O   UNL     1       1.597  -9.045 -44.504  1.00  0.00    -0.545 OA
ENDBRANCH   8   9
ENDBRANCH   1   7
BRANCH   6  12
ATOM     12  O   UNL     1       8.208  -8.014 -44.846  1.00  0.00    -0.508 OA
ATOM     13  H   UNL     1       8.400  -7.824 -43.869  1.00  0.00     0.293 HD
ENDBRANCH   6  12
TORSDOF 3
ENDMDL
MODEL 4
REMARK VINA RESULT:    -4.918      1.345      4.577
REMARK INTER + INTRA:          -5.901
REMARK INTER:                  -5.610
REMARK INTRA:                  -0.291
REMARK UNBOUND:                -0.264
REMARK SMILES O=C([O-])C=Cc1ccc(O)cc1
REMARK SMILES IDX 6 1 7 2 12 3 8 4 11 5 9 6 5 7 4 8 2 9 1 10 3 11 10 12
REMARK H PARENT 10 13
REMARK Flexibility Score: inf
ROOT
ATOM      1  C   UNL     1       4.925  -9.825 -46.050  1.00  0.00    -0.025 A 
ATOM      2  C   UNL     1       5.277  -8.513 -46.400  1.00  0.00     0.012 A 
ATOM      3  C   UNL     1       5.806 -10.586 -45.261  1.00  0.00     0.012 A 
ATOM      4  C   UNL     1       6.466  -7.951 -45.925  1.00  0.00     0.047 A 
ATOM      5  C   UNL     1       6.995 -10.022 -44.789  1.00  0.00     0.047 A 
ATOM      6  C   UNL     1       7.326  -8.701 -45.116  1.00  0.00     0.115 A 
ENDROOT
BRANCH   1   7
ATOM      7  C   UNL     1       3.690 -10.416 -46.606  1.00  0.00     0.010 C 
ATOM      8  C   UNL     1       2.508 -10.486 -45.973  1.00  0.00     0.025 C 
BRANCH   8   9
ATOM      9  C   UNL     1       2.176  -9.836 -44.690  1.00  0.00     0.064 C 
ATOM     10  O   UNL     1       1.588  -8.723 -44.649  1.00  0.00    -0.545 OA
ATOM     11  O   UNL     1       2.457 -10.499 -43.504  1.00  0.00    -0.545 OA
ENDBRANCH   8   9
ENDBRANCH   1   7
BRANCH   6  12
ATOM     12  O   UNL     1       8.506  -8.127 -44.650  1.00  0.00    -0.508 OA
ATOM     13  H   UNL     1       9.369  -8.657 -44.600  1.00  0.00     0.293 HD
ENDBRANCH   6  12
TORSDOF 3
ENDMDL
MODEL 5
REMARK VINA RESULT:    -4.902      5.416      7.397
REMARK INTER + INTRA:          -5.883
REMARK INTER:                  -5.591
REMARK INTRA:                  -0.292
REMARK UNBOUND:                -0.264
REMARK SMILES O=C([O-])C=Cc1ccc(O)cc1
REMARK SMILES IDX 6 1 7 2 12 3 8 4 11 5 9 6 5 7 4 8 2 9 1 10 3 11 10 12
REMARK H PARENT 10 13
REMARK Flexibility Score: inf
ROOT
ATOM      1  C   UNL     1       0.266  -5.655 -41.858  1.00  0.00    -0.025 A 
ATOM      2  C   UNL     1       0.930  -5.731 -40.625  1.00  0.00     0.012 A 
ATOM      3  C   UNL     1       0.948  -5.143 -42.976  1.00  0.00     0.012 A 
ATOM      4  C   UNL     1       2.272  -5.354 -40.522  1.00  0.00     0.047 A 
ATOM      5  C   UNL     1       2.289  -4.764 -42.870  1.00  0.00     0.047 A 
ATOM      6  C   UNL     1       2.957  -4.873 -41.642  1.00  0.00     0.115 A 
ENDROOT
BRANCH   1   7
ATOM      7  C   UNL     1      -1.167  -6.010 -41.932  1.00  0.00     0.010 C 
ATOM      8  C   UNL     1      -1.657  -7.171 -42.393  1.00  0.00     0.025 C 
BRANCH   8   9
ATOM      9  C   UNL     1      -0.863  -8.366 -42.742  1.00  0.00     0.064 C 
ATOM     10  O   UNL     1      -0.581  -8.643 -43.937  1.00  0.00    -0.545 OA
ATOM     11  O   UNL     1      -0.356  -9.161 -41.723  1.00  0.00    -0.545 OA
ENDBRANCH   8   9
ENDBRANCH   1   7
BRANCH   6  12
ATOM     12  O   UNL     1       4.294  -4.500 -41.524  1.00  0.00    -0.508 OA
ATOM     13  H   UNL     1       4.570  -3.526 -41.482  1.00  0.00     0.293 HD
ENDBRANCH   6  12
TORSDOF 3
ENDMDL
MODEL 6
REMARK VINA RESULT:    -4.836      1.429      2.201
REMARK INTER + INTRA:          -5.807
REMARK INTER:                  -5.544
REMARK INTRA:                  -0.262
REMARK UNBOUND:                -0.264
REMARK SMILES O=C([O-])C=Cc1ccc(O)cc1
REMARK SMILES IDX 6 1 7 2 12 3 8 4 11 5 9 6 5 7 4 8 2 9 1 10 3 11 10 12
REMARK H PARENT 10 13
REMARK Flexibility Score: inf
ROOT
ATOM      1  C   UNL     1       4.988  -9.376 -45.939  1.00  0.00    -0.025 A 
ATOM      2  C   UNL     1       4.209 -10.451 -46.394  1.00  0.00     0.012 A 
ATOM      3  C   UNL     1       4.349  -8.228 -45.439  1.00  0.00     0.012 A 
ATOM      4  C   UNL     1       2.814 -10.401 -46.302  1.00  0.00     0.047 A 
ATOM      5  C   UNL     1       2.955  -8.179 -45.349  1.00  0.00     0.047 A 
ATOM      6  C   UNL     1       2.184  -9.268 -45.777  1.00  0.00     0.115 A 
ENDROOT
BRANCH   1   7
ATOM      7  C   UNL     1       6.456  -9.430 -46.095  1.00  0.00     0.010 C 
ATOM      8  C   UNL     1       7.327  -9.783 -45.137  1.00  0.00     0.025 C 
BRANCH   8   9
ATOM      9  C   UNL     1       6.978 -10.350 -43.819  1.00  0.00     0.064 C 
ATOM     10  O   UNL     1       6.529 -11.520 -43.704  1.00  0.00    -0.545 OA
ATOM     11  O   UNL     1       7.215  -9.599 -42.676  1.00  0.00    -0.545 OA
ENDBRANCH   8   9
ENDBRANCH   1   7
BRANCH   6  12
ATOM     12  O   UNL     1       0.794  -9.233 -45.691  1.00  0.00    -0.508 OA
ATOM     13  H   UNL     1       0.249 -10.080 -45.569  1.00  0.00     0.293 HD
ENDBRANCH   6  12
TORSDOF 3
ENDMDL
MODEL 7
REMARK VINA RESULT:    -4.782      5.884      6.576
REMARK INTER + INTRA:          -5.745
REMARK INTER:                  -5.450
REMARK INTRA:                  -0.294
REMARK UNBOUND:                -0.264
REMARK SMILES O=C([O-])C=Cc1ccc(O)cc1
REMARK SMILES IDX 6 1 7 2 12 3 8 4 11 5 9 6 5 7 4 8 2 9 1 10 3 11 10 12
REMARK H PARENT 10 13
REMARK Flexibility Score: inf
ROOT
ATOM      1  C   UNL     1       8.775 -12.202 -40.895  1.00  0.00    -0.025 A 
ATOM      2  C   UNL     1       8.011 -12.072 -39.724  1.00  0.00     0.012 A 
ATOM      3  C   UNL     1       8.220 -12.857 -42.007  1.00  0.00     0.012 A 
ATOM      4  C   UNL     1       6.695 -12.541 -39.685  1.00  0.00     0.047 A 
ATOM      5  C   UNL     1       6.904 -13.327 -41.966  1.00  0.00     0.047 A 
ATOM      6  C   UNL     1       6.136 -13.166 -40.804  1.00  0.00     0.115 A 
ENDROOT
BRANCH   1   7
ATOM      7  C   UNL     1      10.181 -11.745 -40.896  1.00  0.00     0.010 C 
ATOM      8  C   UNL     1      10.603 -10.530 -41.278  1.00  0.00     0.025 C 
BRANCH   8   9
ATOM      9  C   UNL     1       9.738  -9.376 -41.595  1.00  0.00     0.064 C 
ATOM     10  O   UNL     1       9.337  -9.156 -42.768  1.00  0.00    -0.545 OA
ATOM     11  O   UNL     1       9.301  -8.556 -40.564  1.00  0.00    -0.545 OA
ENDBRANCH   8   9
ENDBRANCH   1   7
BRANCH   6  12
ATOM     12  O   UNL     1       4.823 -13.628 -40.750  1.00  0.00    -0.508 OA
ATOM     13  H   UNL     1       4.409 -14.137 -41.523  1.00  0.00     0.293 HD
ENDBRANCH   6  12
TORSDOF 3
ENDMDL
MODEL 8
REMARK VINA RESULT:    -4.554      4.187      6.237
REMARK INTER + INTRA:          -5.484
REMARK INTER:                  -5.233
REMARK INTRA:                  -0.250
REMARK UNBOUND:                -0.264
REMARK SMILES O=C([O-])C=Cc1ccc(O)cc1
REMARK SMILES IDX 6 1 7 2 12 3 8 4 11 5 9 6 5 7 4 8 2 9 1 10 3 11 10 12
REMARK H PARENT 10 13
REMARK Flexibility Score: inf
ROOT
ATOM      1  C   UNL     1       2.376  -5.873 -43.032  1.00  0.00    -0.025 A 
ATOM      2  C   UNL     1       3.490  -5.239 -42.461  1.00  0.00     0.012 A 
ATOM      3  C   UNL     1       2.569  -7.012 -43.832  1.00  0.00     0.012 A 
ATOM      4  C   UNL     1       4.773  -5.767 -42.643  1.00  0.00     0.047 A 
ATOM      5  C   UNL     1       3.852  -7.537 -44.015  1.00  0.00     0.047 A 
ATOM      6  C   UNL     1       4.957  -6.917 -43.416  1.00  0.00     0.115 A 
ENDROOT
BRANCH   1   7
ATOM      7  C   UNL     1       1.038  -5.268 -42.869  1.00  0.00     0.010 C 
ATOM      8  C   UNL     1       0.145  -5.598 -41.922  1.00  0.00     0.025 C 
BRANCH   8   9
ATOM      9  C   UNL     1       0.398  -6.487 -40.771  1.00  0.00     0.064 C 
ATOM     10  O   UNL     1      -0.142  -7.620 -40.683  1.00  0.00    -0.545 OA
ATOM     11  O   UNL     1       1.306  -6.092 -39.798  1.00  0.00    -0.545 OA
ENDBRANCH   8   9
ENDBRANCH   1   7
BRANCH   6  12
ATOM     12  O   UNL     1       6.240  -7.431 -43.589  1.00  0.00    -0.508 OA
ATOM     13  H   UNL     1       6.437  -8.418 -43.461  1.00  0.00     0.293 HD
ENDBRANCH   6  12
TORSDOF 3
ENDMDL
MODEL 9
REMARK VINA RESULT:    -4.518      1.786      4.641
REMARK INTER + INTRA:          -5.443
REMARK INTER:                  -5.151
REMARK INTRA:                  -0.291
REMARK UNBOUND:                -0.264
REMARK SMILES O=C([O-])C=Cc1ccc(O)cc1
REMARK SMILES IDX 6 1 7 2 12 3 8 4 11 5 9 6 5 7 4 8 2 9 1 10 3 11 10 12
REMARK H PARENT 10 13
REMARK Flexibility Score: inf
ROOT
ATOM      1  C   UNL     1       2.523  -9.454 -45.619  1.00  0.00    -0.025 A 
ATOM      2  C   UNL     1       3.147 -10.705 -45.738  1.00  0.00     0.012 A 
ATOM      3  C   UNL     1       3.304  -8.288 -45.682  1.00  0.00     0.012 A 
ATOM      4  C   UNL     1       4.523 -10.788 -45.971  1.00  0.00     0.047 A 
ATOM      5  C   UNL     1       4.681  -8.373 -45.913  1.00  0.00     0.047 A 
ATOM      6  C   UNL     1       5.293  -9.624 -46.062  1.00  0.00     0.115 A 
ENDROOT
BRANCH   1   7
ATOM      7  C   UNL     1       1.076  -9.393 -45.322  1.00  0.00     0.010 C 
ATOM      8  C   UNL     1       0.534  -9.413 -44.094  1.00  0.00     0.025 C 
BRANCH   8   9
ATOM      9  C   UNL     1       1.276  -9.319 -42.821  1.00  0.00     0.064 C 
ATOM     10  O   UNL     1       1.632 -10.348 -42.190  1.00  0.00    -0.545 OA
ATOM     11  O   UNL     1       1.649  -8.070 -42.346  1.00  0.00    -0.545 OA
ENDBRANCH   8   9
ENDBRANCH   1   7
BRANCH   6  12
ATOM     12  O   UNL     1       6.663  -9.722 -46.294  1.00  0.00    -0.508 OA
ATOM     13  H   UNL     1       7.252  -8.899 -46.344  1.00  0.00     0.293 HD
ENDBRANCH   6  12
TORSDOF 3
ENDMDL
