MODEL 1
REMARK VINA RESULT:    -3.748      0.000      0.000
REMARK INTER + INTRA:          -5.004
REMARK INTER:                  -4.844
REMARK INTRA:                  -0.160
REMARK UNBOUND:                -0.160
REMARK SMILES CO[C@@]1(CO)O[C@@H](CO)[C@H](O)[C@@H]1O
REMARK SMILES IDX 3 1 12 2 10 3 7 4 6 5 2 6 1 7 4 8 5 9 13 11 11 13 8 15 9 16
REMARK H PARENT 5 10 13 12 11 14 9 17
REMARK Flexibility Score: inf
ROOT
ATOM      1  C   UNL     1       6.828  -4.292  -1.568  1.00  0.00     0.221 C 
ATOM      2  C   UNL     1       8.255  -4.009  -2.065  1.00  0.00     0.207 C 
ATOM      3  C   UNL     1       8.997  -5.287  -1.738  1.00  0.00     0.180 C 
ATOM      4  C   UNL     1       7.877  -6.336  -1.701  1.00  0.00     0.179 C 
ATOM      5  O   UNL     1       6.618  -5.694  -1.628  1.00  0.00    -0.337 OA
ENDROOT
BRANCH   1   6
ATOM      6  O   UNL     1       5.886  -3.568  -2.356  1.00  0.00    -0.349 OA
ATOM      7  C   UNL     1       5.045  -4.405  -3.125  1.00  0.00     0.198 C 
ENDBRANCH   1   6
BRANCH   1   8
ATOM      8  C   UNL     1       6.628  -3.850  -0.099  1.00  0.00     0.224 C 
BRANCH   8   9
ATOM      9  O   UNL     1       5.301  -3.450   0.117  1.00  0.00    -0.391 OA
ATOM     10  H   UNL     1       5.151  -2.640  -0.438  1.00  0.00     0.210 HD
ENDBRANCH   8   9
ENDBRANCH   1   8
BRANCH   2  11
ATOM     11  O   UNL     1       8.829  -2.878  -1.458  1.00  0.00    -0.385 OA
ATOM     12  H   UNL     1       9.473  -2.502  -2.114  1.00  0.00     0.211 HD
ENDBRANCH   2  11
BRANCH   3  13
ATOM     13  O   UNL     1       9.614  -5.210  -0.477  1.00  0.00    -0.387 OA
ATOM     14  H   UNL     1       9.447  -6.076  -0.021  1.00  0.00     0.211 HD
ENDBRANCH   3  13
BRANCH   4  15
ATOM     15  C   UNL     1       7.913  -7.243  -2.938  1.00  0.00     0.191 C 
BRANCH  15  16
ATOM     16  O   UNL     1       6.776  -8.063  -2.980  1.00  0.00    -0.394 OA
ATOM     17  H   UNL     1       6.972  -8.851  -2.408  1.00  0.00     0.210 HD
ENDBRANCH  15  16
ENDBRANCH   4  15
TORSDOF 7
ENDMDL
MODEL 2
REMARK VINA RESULT:    -3.730      1.450      3.744
REMARK INTER + INTRA:          -4.980
REMARK INTER:                  -4.522
REMARK INTRA:                  -0.458
REMARK UNBOUND:                -0.160
REMARK SMILES CO[C@@]1(CO)O[C@@H](CO)[C@H](O)[C@@H]1O
REMARK SMILES IDX 3 1 12 2 10 3 7 4 6 5 2 6 1 7 4 8 5 9 13 11 11 13 8 15 9 16
REMARK H PARENT 5 10 13 12 11 14 9 17
REMARK Flexibility Score: inf
ROOT
ATOM      1  C   UNL     1       8.326  -4.854  -2.479  1.00  0.00     0.221 C 
ATOM      2  C   UNL     1       8.424  -5.048  -0.958  1.00  0.00     0.207 C 
ATOM      3  C   UNL     1       7.814  -3.779  -0.405  1.00  0.00     0.180 C 
ATOM      4  C   UNL     1       6.897  -3.313  -1.544  1.00  0.00     0.179 C 
ATOM      5  O   UNL     1       7.225  -3.999  -2.737  1.00  0.00    -0.337 OA
ENDROOT
BRANCH   1   6
ATOM      6  O   UNL     1       8.195  -6.119  -3.124  1.00  0.00    -0.349 OA
ATOM      7  C   UNL     1       7.372  -7.022  -2.413  1.00  0.00     0.198 C 
ENDBRANCH   1   6
BRANCH   1   8
ATOM      8  C   UNL     1       9.591  -4.177  -3.059  1.00  0.00     0.224 C 
BRANCH   8   9
ATOM      9  O   UNL     1      10.652  -5.094  -3.124  1.00  0.00    -0.391 OA
ATOM     10  H   UNL     1      11.363  -4.754  -2.519  1.00  0.00     0.210 HD
ENDBRANCH   8   9
ENDBRANCH   1   8
BRANCH   2  11
ATOM     11  O   UNL     1       9.744  -5.252  -0.518  1.00  0.00    -0.385 OA
ATOM     12  H   UNL     1      10.150  -4.351  -0.414  1.00  0.00     0.211 HD
ENDBRANCH   2  11
BRANCH   3  13
ATOM     13  O   UNL     1       8.798  -2.804  -0.163  1.00  0.00    -0.387 OA
ATOM     14  H   UNL     1       8.675  -2.496   0.773  1.00  0.00     0.211 HD
ENDBRANCH   3  13
BRANCH   4  15
ATOM     15  C   UNL     1       5.418  -3.553  -1.211  1.00  0.00     0.191 C 
BRANCH  15  16
ATOM     16  O   UNL     1       5.172  -3.303   0.146  1.00  0.00    -0.394 OA
ATOM     17  H   UNL     1       4.918  -2.345   0.218  1.00  0.00     0.210 HD
ENDBRANCH  15  16
ENDBRANCH   4  15
TORSDOF 7
ENDMDL
MODEL 3
REMARK VINA RESULT:    -3.557      1.599      2.253
REMARK INTER + INTRA:          -4.757
REMARK INTER:                  -4.665
REMARK INTRA:                  -0.091
REMARK UNBOUND:                -0.160
REMARK SMILES CO[C@@]1(CO)O[C@@H](CO)[C@H](O)[C@@H]1O
REMARK SMILES IDX 3 1 12 2 10 3 7 4 6 5 2 6 1 7 4 8 5 9 13 11 11 13 8 15 9 16
REMARK H PARENT 5 10 13 12 11 14 9 17
REMARK Flexibility Score: inf
ROOT
ATOM      1  C   UNL     1       6.665  -4.308  -2.103  1.00  0.00     0.221 C 
ATOM      2  C   UNL     1       7.620  -3.355  -2.840  1.00  0.00     0.207 C 
ATOM      3  C   UNL     1       8.861  -3.369  -1.976  1.00  0.00     0.180 C 
ATOM      4  C   UNL     1       8.763  -4.718  -1.252  1.00  0.00     0.179 C 
ATOM      5  O   UNL     1       7.454  -5.240  -1.382  1.00  0.00    -0.337 OA
ENDROOT
BRANCH   1   6
ATOM      6  O   UNL     1       5.792  -4.941  -3.035  1.00  0.00    -0.349 OA
ATOM      7  C   UNL     1       4.491  -4.387  -3.042  1.00  0.00     0.198 C 
ENDBRANCH   1   6
BRANCH   1   8
ATOM      8  C   UNL     1       5.775  -3.559  -1.083  1.00  0.00     0.224 C 
BRANCH   8   9
ATOM      9  O   UNL     1       6.225  -3.792   0.226  1.00  0.00    -0.391 OA
ATOM     10  H   UNL     1       5.673  -3.224   0.825  1.00  0.00     0.210 HD
ENDBRANCH   8   9
ENDBRANCH   1   8
BRANCH   2  11
ATOM     11  O   UNL     1       7.085  -2.065  -3.003  1.00  0.00    -0.385 OA
ATOM     12  H   UNL     1       6.172  -2.182  -3.374  1.00  0.00     0.211 HD
ENDBRANCH   2  11
BRANCH   3  13
ATOM     13  O   UNL     1       8.837  -2.325  -1.034  1.00  0.00    -0.387 OA
ATOM     14  H   UNL     1       8.012  -2.442  -0.495  1.00  0.00     0.211 HD
ENDBRANCH   3  13
BRANCH   4  15
ATOM     15  C   UNL     1       9.771  -5.733  -1.811  1.00  0.00     0.191 C 
BRANCH  15  16
ATOM     16  O   UNL     1      11.083  -5.323  -1.539  1.00  0.00    -0.394 OA
ATOM     17  H   UNL     1      11.222  -4.469  -2.027  1.00  0.00     0.210 HD
ENDBRANCH  15  16
ENDBRANCH   4  15
TORSDOF 7
ENDMDL
MODEL 4
REMARK VINA RESULT:    -3.514      1.539      2.971
REMARK INTER + INTRA:          -4.701
REMARK INTER:                  -4.509
REMARK INTRA:                  -0.192
REMARK UNBOUND:                -0.160
REMARK SMILES CO[C@@]1(CO)O[C@@H](CO)[C@H](O)[C@@H]1O
REMARK SMILES IDX 3 1 12 2 10 3 7 4 6 5 2 6 1 7 4 8 5 9 13 11 11 13 8 15 9 16
REMARK H PARENT 5 10 13 12 11 14 9 17
REMARK Flexibility Score: inf
ROOT
ATOM      1  C   UNL     1       8.367  -3.415  -2.008  1.00  0.00     0.221 C 
ATOM      2  C   UNL     1       8.245  -4.289  -0.750  1.00  0.00     0.207 C 
ATOM      3  C   UNL     1       6.769  -4.617  -0.695  1.00  0.00     0.180 C 
ATOM      4  C   UNL     1       6.330  -4.475  -2.159  1.00  0.00     0.179 C 
ATOM      5  O   UNL     1       7.321  -3.782  -2.894  1.00  0.00    -0.337 OA
ENDROOT
BRANCH   1   6
ATOM      6  O   UNL     1       9.657  -3.580  -2.593  1.00  0.00    -0.349 OA
ATOM      7  C   UNL     1      10.054  -4.934  -2.688  1.00  0.00     0.198 C 
ENDBRANCH   1   6
BRANCH   1   8
ATOM      8  C   UNL     1       8.203  -1.911  -1.686  1.00  0.00     0.224 C 
BRANCH   8   9
ATOM      9  O   UNL     1       7.289  -1.316  -2.570  1.00  0.00    -0.391 OA
ATOM     10  H   UNL     1       7.799  -0.658  -3.111  1.00  0.00     0.210 HD
ENDBRANCH   8   9
ENDBRANCH   1   8
BRANCH   2  11
ATOM     11  O   UNL     1       8.700  -3.639   0.412  1.00  0.00    -0.385 OA
ATOM     12  H   UNL     1       9.628  -3.341   0.223  1.00  0.00     0.211 HD
ENDBRANCH   2  11
BRANCH   3  13
ATOM     13  O   UNL     1       6.070  -3.690   0.099  1.00  0.00    -0.387 OA
ATOM     14  H   UNL     1       6.344  -3.852   1.040  1.00  0.00     0.211 HD
ENDBRANCH   3  13
BRANCH   4  15
ATOM     15  C   UNL     1       6.080  -5.843  -2.809  1.00  0.00     0.191 C 
BRANCH  15  16
ATOM     16  O   UNL     1       6.645  -6.866  -2.034  1.00  0.00    -0.394 OA
ATOM     17  H   UNL     1       6.005  -7.624  -2.054  1.00  0.00     0.210 HD
ENDBRANCH  15  16
ENDBRANCH   4  15
TORSDOF 7
ENDMDL
MODEL 5
REMARK VINA RESULT:    -3.302      2.699      4.572
REMARK INTER + INTRA:          -4.428
REMARK INTER:                  -4.019
REMARK INTRA:                  -0.408
REMARK UNBOUND:                -0.160
REMARK SMILES CO[C@@]1(CO)O[C@@H](CO)[C@H](O)[C@@H]1O
REMARK SMILES IDX 3 1 12 2 10 3 7 4 6 5 2 6 1 7 4 8 5 9 13 11 11 13 8 15 9 16
REMARK H PARENT 5 10 13 12 11 14 9 17
REMARK Flexibility Score: inf
ROOT
ATOM      1  C   UNL     1       9.815  -5.316  -1.959  1.00  0.00     0.221 C 
ATOM      2  C   UNL     1      10.776  -6.001  -0.974  1.00  0.00     0.207 C 
ATOM      3  C   UNL     1      12.011  -6.254  -1.811  1.00  0.00     0.180 C 
ATOM      4  C   UNL     1      11.907  -5.189  -2.910  1.00  0.00     0.179 C 
ATOM      5  O   UNL     1      10.599  -4.649  -2.935  1.00  0.00    -0.337 OA
ENDROOT
BRANCH   1   6
ATOM      6  O   UNL     1       8.950  -4.427  -1.257  1.00  0.00    -0.349 OA
ATOM      7  C   UNL     1       8.728  -3.211  -1.944  1.00  0.00     0.198 C 
ENDBRANCH   1   6
BRANCH   1   8
ATOM      8  C   UNL     1       8.917  -6.338  -2.696  1.00  0.00     0.224 C 
BRANCH   8   9
ATOM      9  O   UNL     1       7.810  -6.679  -1.905  1.00  0.00    -0.391 OA
ATOM     10  H   UNL     1       7.840  -6.096  -1.101  1.00  0.00     0.210 HD
ENDBRANCH   8   9
ENDBRANCH   1   8
BRANCH   2  11
ATOM     11  O   UNL     1      10.243  -7.180  -0.423  1.00  0.00    -0.385 OA
ATOM     12  H   UNL     1      10.795  -7.394   0.375  1.00  0.00     0.211 HD
ENDBRANCH   2  11
BRANCH   3  13
ATOM     13  O   UNL     1      11.979  -7.535  -2.391  1.00  0.00    -0.387 OA
ATOM     14  H   UNL     1      11.927  -8.189  -1.645  1.00  0.00     0.211 HD
ENDBRANCH   3  13
BRANCH   4  15
ATOM     15  C   UNL     1      12.919  -4.055  -2.694  1.00  0.00     0.191 C 
BRANCH  15  16
ATOM     16  O   UNL     1      13.717  -4.315  -1.572  1.00  0.00    -0.394 OA
ATOM     17  H   UNL     1      14.648  -4.422  -1.903  1.00  0.00     0.210 HD
ENDBRANCH  15  16
ENDBRANCH   4  15
TORSDOF 7
ENDMDL
MODEL 6
REMARK VINA RESULT:    -3.232      1.584      3.567
REMARK INTER + INTRA:          -4.336
REMARK INTER:                  -3.878
REMARK INTRA:                  -0.458
REMARK UNBOUND:                -0.160
REMARK SMILES CO[C@@]1(CO)O[C@@H](CO)[C@H](O)[C@@H]1O
REMARK SMILES IDX 3 1 12 2 10 3 7 4 6 5 2 6 1 7 4 8 5 9 13 11 11 13 8 15 9 16
REMARK H PARENT 5 10 13 12 11 14 9 17
REMARK Flexibility Score: inf
ROOT
ATOM      1  C   UNL     1       9.395  -5.089  -2.110  1.00  0.00     0.221 C 
ATOM      2  C   UNL     1       8.541  -4.581  -0.937  1.00  0.00     0.207 C 
ATOM      3  C   UNL     1       7.125  -4.731  -1.447  1.00  0.00     0.180 C 
ATOM      4  C   UNL     1       7.255  -5.834  -2.506  1.00  0.00     0.179 C 
ATOM      5  O   UNL     1       8.617  -6.023  -2.841  1.00  0.00    -0.337 OA
ENDROOT
BRANCH   1   6
ATOM      6  O   UNL     1      10.607  -5.658  -1.619  1.00  0.00    -0.349 OA
ATOM      7  C   UNL     1      10.402  -6.840  -0.871  1.00  0.00     0.198 C 
ENDBRANCH   1   6
BRANCH   1   8
ATOM      8  C   UNL     1       9.787  -3.946  -3.076  1.00  0.00     0.224 C 
BRANCH   8   9
ATOM      9  O   UNL     1      11.062  -3.452  -2.761  1.00  0.00    -0.391 OA
ATOM     10  H   UNL     1      11.718  -4.132  -3.068  1.00  0.00     0.210 HD
ENDBRANCH   8   9
ENDBRANCH   1   8
BRANCH   2  11
ATOM     11  O   UNL     1       8.848  -3.259  -0.570  1.00  0.00    -0.385 OA
ATOM     12  H   UNL     1       8.042  -2.715  -0.772  1.00  0.00     0.211 HD
ENDBRANCH   2  11
BRANCH   3  13
ATOM     13  O   UNL     1       6.673  -3.545  -2.054  1.00  0.00    -0.387 OA
ATOM     14  H   UNL     1       7.481  -3.034  -2.324  1.00  0.00     0.211 HD
ENDBRANCH   3  13
BRANCH   4  15
ATOM     15  C   UNL     1       6.666  -7.163  -2.013  1.00  0.00     0.191 C 
BRANCH  15  16
ATOM     16  O   UNL     1       7.506  -8.231  -2.355  1.00  0.00    -0.394 OA
ATOM     17  H   UNL     1       7.191  -9.019  -1.838  1.00  0.00     0.210 HD
ENDBRANCH  15  16
ENDBRANCH   4  15
TORSDOF 7
ENDMDL
MODEL 7
REMARK VINA RESULT:    -3.231      1.870      2.630
REMARK INTER + INTRA:          -4.336
REMARK INTER:                  -4.171
REMARK INTRA:                  -0.164
REMARK UNBOUND:                -0.160
REMARK SMILES CO[C@@]1(CO)O[C@@H](CO)[C@H](O)[C@@H]1O
REMARK SMILES IDX 3 1 12 2 10 3 7 4 6 5 2 6 1 7 4 8 5 9 13 11 11 13 8 15 9 16
REMARK H PARENT 5 10 13 12 11 14 9 17
REMARK Flexibility Score: inf
ROOT
ATOM      1  C   UNL     1       8.129  -4.864  -1.355  1.00  0.00     0.221 C 
ATOM      2  C   UNL     1       8.498  -4.458  -2.791  1.00  0.00     0.207 C 
ATOM      3  C   UNL     1      10.006  -4.577  -2.810  1.00  0.00     0.180 C 
ATOM      4  C   UNL     1      10.287  -5.590  -1.692  1.00  0.00     0.179 C 
ATOM      5  O   UNL     1       9.138  -5.741  -0.880  1.00  0.00    -0.337 OA
ENDROOT
BRANCH   1   6
ATOM      6  O   UNL     1       6.835  -5.461  -1.334  1.00  0.00    -0.349 OA
ATOM      7  C   UNL     1       6.586  -6.284  -2.456  1.00  0.00     0.198 C 
ENDBRANCH   1   6
BRANCH   1   8
ATOM      8  C   UNL     1       8.083  -3.644  -0.403  1.00  0.00     0.224 C 
BRANCH   8   9
ATOM      9  O   UNL     1       8.881  -3.873   0.728  1.00  0.00    -0.391 OA
ATOM     10  H   UNL     1       8.279  -3.837   1.517  1.00  0.00     0.210 HD
ENDBRANCH   8   9
ENDBRANCH   1   8
BRANCH   2  11
ATOM     11  O   UNL     1       8.050  -3.168  -3.125  1.00  0.00    -0.385 OA
ATOM     12  H   UNL     1       7.079  -3.246  -3.315  1.00  0.00     0.211 HD
ENDBRANCH   2  11
BRANCH   3  13
ATOM     13  O   UNL     1      10.617  -3.349  -2.499  1.00  0.00    -0.387 OA
ATOM     14  H   UNL     1      10.411  -2.727  -3.245  1.00  0.00     0.211 HD
ENDBRANCH   3  13
BRANCH   4  15
ATOM     15  C   UNL     1      10.690  -6.958  -2.259  1.00  0.00     0.191 C 
BRANCH  15  16
ATOM     16  O   UNL     1      11.279  -7.749  -1.262  1.00  0.00    -0.394 OA
ATOM     17  H   UNL     1      11.545  -8.602  -1.696  1.00  0.00     0.210 HD
ENDBRANCH  15  16
ENDBRANCH   4  15
TORSDOF 7
ENDMDL
MODEL 8
REMARK VINA RESULT:    -3.173      4.252      5.912
REMARK INTER + INTRA:          -4.260
REMARK INTER:                  -3.930
REMARK INTRA:                  -0.330
REMARK UNBOUND:                -0.160
REMARK SMILES CO[C@@]1(CO)O[C@@H](CO)[C@H](O)[C@@H]1O
REMARK SMILES IDX 3 1 12 2 10 3 7 4 6 5 2 6 1 7 4 8 5 9 13 11 11 13 8 15 9 16
REMARK H PARENT 5 10 13 12 11 14 9 17
REMARK Flexibility Score: inf
ROOT
ATOM      1  C   UNL     1      11.713  -6.607  -1.860  1.00  0.00     0.221 C 
ATOM      2  C   UNL     1      12.052  -5.423  -2.780  1.00  0.00     0.207 C 
ATOM      3  C   UNL     1      13.528  -5.202  -2.534  1.00  0.00     0.180 C 
ATOM      4  C   UNL     1      14.007  -6.576  -2.048  1.00  0.00     0.179 C 
ATOM      5  O   UNL     1      12.894  -7.374  -1.689  1.00  0.00    -0.337 OA
ENDROOT
BRANCH   1   6
ATOM      6  O   UNL     1      10.647  -7.370  -2.420  1.00  0.00    -0.349 OA
ATOM      7  C   UNL     1      10.674  -8.729  -2.032  1.00  0.00     0.198 C 
ENDBRANCH   1   6
BRANCH   1   8
ATOM      8  C   UNL     1      11.252  -6.138  -0.460  1.00  0.00     0.224 C 
BRANCH   8   9
ATOM      9  O   UNL     1       9.963  -5.586  -0.527  1.00  0.00    -0.391 OA
ATOM     10  H   UNL     1       9.852  -5.227  -1.447  1.00  0.00     0.210 HD
ENDBRANCH   8   9
ENDBRANCH   1   8
BRANCH   2  11
ATOM     11  O   UNL     1      11.279  -4.281  -2.506  1.00  0.00    -0.385 OA
ATOM     12  H   UNL     1      10.424  -4.605  -2.118  1.00  0.00     0.211 HD
ENDBRANCH   2  11
BRANCH   3  13
ATOM     13  O   UNL     1      13.738  -4.245  -1.525  1.00  0.00    -0.387 OA
ATOM     14  H   UNL     1      14.715  -4.227  -1.344  1.00  0.00     0.211 HD
ENDBRANCH   3  13
BRANCH   4  15
ATOM     15  C   UNL     1      14.825  -7.302  -3.125  1.00  0.00     0.191 C 
BRANCH  15  16
ATOM     16  O   UNL     1      16.177  -7.361  -2.759  1.00  0.00    -0.394 OA
ATOM     17  H   UNL     1      16.283  -6.773  -1.965  1.00  0.00     0.210 HD
ENDBRANCH  15  16
ENDBRANCH   4  15
TORSDOF 7
ENDMDL
MODEL 9
REMARK VINA RESULT:    -3.069      2.022      2.473
REMARK INTER + INTRA:          -4.126
REMARK INTER:                  -3.714
REMARK INTRA:                  -0.412
REMARK UNBOUND:                -0.160
REMARK SMILES CO[C@@]1(CO)O[C@@H](CO)[C@H](O)[C@@H]1O
REMARK SMILES IDX 3 1 12 2 10 3 7 4 6 5 2 6 1 7 4 8 5 9 13 11 11 13 8 15 9 16
REMARK H PARENT 5 10 13 12 11 14 9 17
REMARK Flexibility Score: inf
ROOT
ATOM      1  C   UNL     1       8.870  -5.356  -1.865  1.00  0.00     0.221 C 
ATOM      2  C   UNL     1      10.305  -5.408  -2.413  1.00  0.00     0.207 C 
ATOM      3  C   UNL     1      10.983  -6.421  -1.518  1.00  0.00     0.180 C 
ATOM      4  C   UNL     1       9.812  -7.275  -1.015  1.00  0.00     0.179 C 
ATOM      5  O   UNL     1       8.588  -6.612  -1.269  1.00  0.00    -0.337 OA
ENDROOT
BRANCH   1   6
ATOM      6  O   UNL     1       7.958  -5.036  -2.914  1.00  0.00    -0.349 OA
ATOM      7  C   UNL     1       6.655  -5.537  -2.688  1.00  0.00     0.198 C 
ENDBRANCH   1   6
BRANCH   1   8
ATOM      8  C   UNL     1       8.706  -4.271  -0.774  1.00  0.00     0.224 C 
BRANCH   8   9
ATOM      9  O   UNL     1       8.740  -2.991  -1.346  1.00  0.00    -0.391 OA
ATOM     10  H   UNL     1       8.220  -2.394  -0.745  1.00  0.00     0.210 HD
ENDBRANCH   8   9
ENDBRANCH   1   8
BRANCH   2  11
ATOM     11  O   UNL     1      10.941  -4.154  -2.394  1.00  0.00    -0.385 OA
ATOM     12  H   UNL     1      10.225  -3.475  -2.283  1.00  0.00     0.211 HD
ENDBRANCH   2  11
BRANCH   3  13
ATOM     13  O   UNL     1      11.615  -5.796  -0.428  1.00  0.00    -0.387 OA
ATOM     14  H   UNL     1      10.981  -5.837   0.335  1.00  0.00     0.211 HD
ENDBRANCH   3  13
BRANCH   4  15
ATOM     15  C   UNL     1       9.790  -8.655  -1.687  1.00  0.00     0.191 C 
BRANCH  15  16
ATOM     16  O   UNL     1       8.644  -8.796  -2.482  1.00  0.00    -0.394 OA
ATOM     17  H   UNL     1       8.164  -7.928  -2.446  1.00  0.00     0.210 HD
ENDBRANCH  15  16
ENDBRANCH   4  15
TORSDOF 7
ENDMDL
