MODEL 1
REMARK VINA RESULT:    -4.542      0.000      0.000
REMARK INTER + INTRA:         -10.064
REMARK INTER:                  -7.994
REMARK INTRA:                  -2.069
REMARK UNBOUND:                -2.069
REMARK SMILES CCCCCCCCCCCCCCC(=O)[O-]
REMARK SMILES IDX 9 1 10 2 11 3 12 4 13 5 14 6 15 7 16 8 17 9 8 10 7 11 6 12
REMARK SMILES IDX 5 13 4 14 3 15 2 16 1 17
REMARK H PARENT
REMARK Flexibility Score: inf
ROOT
ATOM      1  C   UNL     1     -47.059  25.304 -13.720  1.00  0.00     0.000 C 
ENDROOT
BRANCH   1   2
ATOM      2  C   UNL     1     -45.699  26.011 -13.873  1.00  0.00     0.000 C 
BRANCH   2   3
ATOM      3  C   UNL     1     -45.842  27.475 -14.319  1.00  0.00     0.000 C 
BRANCH   3   4
ATOM      4  C   UNL     1     -44.888  27.838 -15.467  1.00  0.00     0.000 C 
BRANCH   4   5
ATOM      5  C   UNL     1     -44.896  26.755 -16.552  1.00  0.00     0.006 C 
BRANCH   5   6
ATOM      6  C   UNL     1     -44.951  27.377 -17.950  1.00  0.00     0.053 C 
BRANCH   6   7
ATOM      7  C   UNL     1     -44.686  26.340 -18.996  1.00  0.00     0.041 C 
ATOM      8  O   UNL     1     -43.839  26.556 -19.902  1.00  0.00    -0.550 OA
ATOM      9  O   UNL     1     -45.342  25.117 -18.945  1.00  0.00    -0.550 OA
ENDBRANCH   6   7
ENDBRANCH   5   6
ENDBRANCH   4   5
ENDBRANCH   3   4
ENDBRANCH   2   3
ENDBRANCH   1   2
BRANCH   1  10
ATOM     10  C   UNL     1     -48.116  25.834 -14.702  1.00  0.00     0.000 C 
BRANCH  10  11
ATOM     11  C   UNL     1     -48.249  24.955 -15.958  1.00  0.00    -0.000 C 
BRANCH  11  12
ATOM     12  C   UNL     1     -48.377  25.783 -17.248  1.00  0.00    -0.000 C 
BRANCH  12  13
ATOM     13  C   UNL     1     -48.635  27.274 -16.970  1.00  0.00    -0.000 C 
BRANCH  13  14
ATOM     14  C   UNL     1     -50.075  27.695 -17.306  1.00  0.00    -0.000 C 
BRANCH  14  15
ATOM     15  C   UNL     1     -50.964  27.817 -16.059  1.00  0.00    -0.000 C 
BRANCH  15  16
ATOM     16  C   UNL     1     -52.082  26.767 -16.079  1.00  0.00    -0.003 C 
ATOM     17  C   UNL     1     -51.817  25.658 -15.066  1.00  0.00     0.004 C 
ENDBRANCH  15  16
ENDBRANCH  14  15
ENDBRANCH  13  14
ENDBRANCH  12  13
ENDBRANCH  11  12
ENDBRANCH  10  11
ENDBRANCH   1  10
TORSDOF 13
ENDMDL
MODEL 2
REMARK VINA RESULT:    -4.403      3.086      5.959
REMARK INTER + INTRA:          -9.819
REMARK INTER:                  -7.783
REMARK INTRA:                  -2.036
REMARK UNBOUND:                -2.069
REMARK SMILES CCCCCCCCCCCCCCC(=O)[O-]
REMARK SMILES IDX 9 1 10 2 11 3 12 4 13 5 14 6 15 7 16 8 17 9 8 10 7 11 6 12
REMARK SMILES IDX 5 13 4 14 3 15 2 16 1 17
REMARK H PARENT
REMARK Flexibility Score: inf
ROOT
ATOM      1  C   UNL     1     -48.443  27.565 -17.855  1.00  0.00     0.000 C 
ENDROOT
BRANCH   1   2
ATOM      2  C   UNL     1     -48.596  28.404 -16.574  1.00  0.00     0.000 C 
BRANCH   2   3
ATOM      3  C   UNL     1     -49.523  27.743 -15.541  1.00  0.00     0.000 C 
BRANCH   3   4
ATOM      4  C   UNL     1     -51.010  27.935 -15.874  1.00  0.00     0.000 C 
BRANCH   4   5
ATOM      5  C   UNL     1     -51.769  26.606 -15.788  1.00  0.00     0.006 C 
BRANCH   5   6
ATOM      6  C   UNL     1     -50.903  25.518 -15.144  1.00  0.00     0.053 C 
BRANCH   6   7
ATOM      7  C   UNL     1     -51.735  24.327 -14.790  1.00  0.00     0.041 C 
ATOM      8  O   UNL     1     -52.850  24.478 -14.224  1.00  0.00    -0.550 OA
ATOM      9  O   UNL     1     -51.302  23.050 -15.124  1.00  0.00    -0.550 OA
ENDBRANCH   6   7
ENDBRANCH   5   6
ENDBRANCH   4   5
ENDBRANCH   3   4
ENDBRANCH   2   3
ENDBRANCH   1   2
BRANCH   1  10
ATOM     10  C   UNL     1     -48.196  26.076 -17.563  1.00  0.00     0.000 C 
BRANCH  10  11
ATOM     11  C   UNL     1     -46.845  25.584 -18.109  1.00  0.00    -0.000 C 
BRANCH  11  12
ATOM     12  C   UNL     1     -45.898  26.741 -18.472  1.00  0.00    -0.000 C 
BRANCH  12  13
ATOM     13  C   UNL     1     -44.675  26.819 -17.540  1.00  0.00    -0.000 C 
BRANCH  13  14
ATOM     14  C   UNL     1     -45.000  27.493 -16.197  1.00  0.00    -0.000 C 
BRANCH  14  15
ATOM     15  C   UNL     1     -45.059  26.495 -15.030  1.00  0.00    -0.000 C 
BRANCH  15  16
ATOM     16  C   UNL     1     -46.254  26.789 -14.117  1.00  0.00    -0.003 C 
ATOM     17  C   UNL     1     -47.014  25.512 -13.772  1.00  0.00     0.004 C 
ENDBRANCH  15  16
ENDBRANCH  14  15
ENDBRANCH  13  14
ENDBRANCH  12  13
ENDBRANCH  11  12
ENDBRANCH  10  11
ENDBRANCH   1  10
TORSDOF 13
ENDMDL
MODEL 3
REMARK VINA RESULT:    -4.371      3.091      6.338
REMARK INTER + INTRA:          -9.762
REMARK INTER:                  -8.203
REMARK INTRA:                  -1.559
REMARK UNBOUND:                -2.069
REMARK SMILES CCCCCCCCCCCCCCC(=O)[O-]
REMARK SMILES IDX 9 1 10 2 11 3 12 4 13 5 14 6 15 7 16 8 17 9 8 10 7 11 6 12
REMARK SMILES IDX 5 13 4 14 3 15 2 16 1 17
REMARK H PARENT
REMARK Flexibility Score: inf
ROOT
ATOM      1  C   UNL     1     -47.993  25.803 -15.836  1.00  0.00     0.000 C 
ENDROOT
BRANCH   1   2
ATOM      2  C   UNL     1     -49.080  26.865 -16.082  1.00  0.00     0.000 C 
BRANCH   2   3
ATOM      3  C   UNL     1     -49.879  27.199 -14.812  1.00  0.00     0.000 C 
BRANCH   3   4
ATOM      4  C   UNL     1     -51.392  27.019 -15.002  1.00  0.00     0.000 C 
BRANCH   4   5
ATOM      5  C   UNL     1     -51.722  25.596 -15.467  1.00  0.00     0.006 C 
BRANCH   5   6
ATOM      6  C   UNL     1     -52.442  24.810 -14.366  1.00  0.00     0.053 C 
BRANCH   6   7
ATOM      7  C   UNL     1     -51.751  23.508 -14.114  1.00  0.00     0.041 C 
ATOM      8  O   UNL     1     -51.649  23.061 -12.942  1.00  0.00    -0.550 OA
ATOM      9  O   UNL     1     -51.260  22.763 -15.179  1.00  0.00    -0.550 OA
ENDBRANCH   6   7
ENDBRANCH   5   6
ENDBRANCH   4   5
ENDBRANCH   3   4
ENDBRANCH   2   3
ENDBRANCH   1   2
BRANCH   1  10
ATOM     10  C   UNL     1     -47.806  25.481 -14.345  1.00  0.00     0.000 C 
BRANCH  10  11
ATOM     11  C   UNL     1     -46.354  25.677 -13.876  1.00  0.00    -0.000 C 
BRANCH  11  12
ATOM     12  C   UNL     1     -45.881  27.134 -14.012  1.00  0.00    -0.000 C 
BRANCH  12  13
ATOM     13  C   UNL     1     -44.857  27.320 -15.145  1.00  0.00    -0.000 C 
BRANCH  13  14
ATOM     14  C   UNL     1     -45.319  28.345 -16.195  1.00  0.00    -0.000 C 
BRANCH  14  15
ATOM     15  C   UNL     1     -45.197  27.818 -17.633  1.00  0.00    -0.000 C 
BRANCH  15  16
ATOM     16  C   UNL     1     -44.768  26.346 -17.643  1.00  0.00    -0.003 C 
ATOM     17  C   UNL     1     -45.327  25.616 -18.860  1.00  0.00     0.004 C 
ENDBRANCH  15  16
ENDBRANCH  14  15
ENDBRANCH  13  14
ENDBRANCH  12  13
ENDBRANCH  11  12
ENDBRANCH  10  11
ENDBRANCH   1  10
TORSDOF 13
ENDMDL
MODEL 4
REMARK VINA RESULT:    -4.297      1.414      2.681
REMARK INTER + INTRA:          -9.632
REMARK INTER:                  -7.612
REMARK INTRA:                  -2.020
REMARK UNBOUND:                -2.069
REMARK SMILES CCCCCCCCCCCCCCC(=O)[O-]
REMARK SMILES IDX 9 1 10 2 11 3 12 4 13 5 14 6 15 7 16 8 17 9 8 10 7 11 6 12
REMARK SMILES IDX 5 13 4 14 3 15 2 16 1 17
REMARK H PARENT
REMARK Flexibility Score: inf
ROOT
ATOM      1  C   UNL     1     -48.265  24.629 -15.778  1.00  0.00     0.000 C 
ENDROOT
BRANCH   1   2
ATOM      2  C   UNL     1     -48.333  25.250 -14.371  1.00  0.00     0.000 C 
BRANCH   2   3
ATOM      3  C   UNL     1     -46.944  25.434 -13.739  1.00  0.00     0.000 C 
BRANCH   3   4
ATOM      4  C   UNL     1     -46.697  26.874 -13.265  1.00  0.00     0.000 C 
BRANCH   4   5
ATOM      5  C   UNL     1     -45.567  27.531 -14.065  1.00  0.00     0.006 C 
BRANCH   5   6
ATOM      6  C   UNL     1     -44.998  26.565 -15.109  1.00  0.00     0.053 C 
BRANCH   6   7
ATOM      7  C   UNL     1     -45.158  27.126 -16.486  1.00  0.00     0.041 C 
ATOM      8  O   UNL     1     -45.630  28.282 -16.648  1.00  0.00    -0.550 OA
ATOM      9  O   UNL     1     -44.743  26.391 -17.589  1.00  0.00    -0.550 OA
ENDBRANCH   6   7
ENDBRANCH   5   6
ENDBRANCH   4   5
ENDBRANCH   3   4
ENDBRANCH   2   3
ENDBRANCH   1   2
BRANCH   1  10
ATOM     10  C   UNL     1     -48.529  25.655 -16.892  1.00  0.00     0.000 C 
BRANCH  10  11
ATOM     11  C   UNL     1     -48.963  27.024 -16.342  1.00  0.00    -0.000 C 
BRANCH  11  12
ATOM     12  C   UNL     1     -50.105  27.654 -17.159  1.00  0.00    -0.000 C 
BRANCH  12  13
ATOM     13  C   UNL     1     -51.496  27.237 -16.650  1.00  0.00    -0.000 C 
BRANCH  13  14
ATOM     14  C   UNL     1     -51.590  27.251 -15.115  1.00  0.00    -0.000 C 
BRANCH  14  15
ATOM     15  C   UNL     1     -52.409  26.076 -14.560  1.00  0.00    -0.000 C 
BRANCH  15  16
ATOM     16  C   UNL     1     -51.875  24.738 -15.087  1.00  0.00    -0.003 C 
ATOM     17  C   UNL     1     -52.115  23.614 -14.084  1.00  0.00     0.004 C 
ENDBRANCH  15  16
ENDBRANCH  14  15
ENDBRANCH  13  14
ENDBRANCH  12  13
ENDBRANCH  11  12
ENDBRANCH  10  11
ENDBRANCH   1  10
TORSDOF 13
ENDMDL
MODEL 5
REMARK VINA RESULT:    -4.296      0.933      1.868
REMARK INTER + INTRA:          -9.631
REMARK INTER:                  -7.785
REMARK INTRA:                  -1.846
REMARK UNBOUND:                -2.069
REMARK SMILES CCCCCCCCCCCCCCC(=O)[O-]
REMARK SMILES IDX 9 1 10 2 11 3 12 4 13 5 14 6 15 7 16 8 17 9 8 10 7 11 6 12
REMARK SMILES IDX 5 13 4 14 3 15 2 16 1 17
REMARK H PARENT
REMARK Flexibility Score: inf
ROOT
ATOM      1  C   UNL     1     -47.721  26.214 -14.999  1.00  0.00     0.000 C 
ENDROOT
BRANCH   1   2
ATOM      2  C   UNL     1     -46.956  27.547 -14.909  1.00  0.00     0.000 C 
BRANCH   2   3
ATOM      3  C   UNL     1     -45.439  27.370 -15.079  1.00  0.00     0.000 C 
BRANCH   3   4
ATOM      4  C   UNL     1     -44.807  28.478 -15.934  1.00  0.00     0.000 C 
BRANCH   4   5
ATOM      5  C   UNL     1     -44.699  28.046 -17.401  1.00  0.00     0.006 C 
BRANCH   5   6
ATOM      6  C   UNL     1     -44.466  26.537 -17.515  1.00  0.00     0.053 C 
BRANCH   6   7
ATOM      7  C   UNL     1     -44.910  26.037 -18.853  1.00  0.00     0.041 C 
ATOM      8  O   UNL     1     -45.605  24.991 -18.941  1.00  0.00    -0.550 OA
ATOM      9  O   UNL     1     -44.595  26.752 -20.002  1.00  0.00    -0.550 OA
ENDBRANCH   6   7
ENDBRANCH   5   6
ENDBRANCH   4   5
ENDBRANCH   3   4
ENDBRANCH   2   3
ENDBRANCH   1   2
BRANCH   1  10
ATOM     10  C   UNL     1     -48.074  25.828 -16.445  1.00  0.00     0.000 C 
BRANCH  10  11
ATOM     11  C   UNL     1     -48.296  27.056 -17.344  1.00  0.00    -0.000 C 
BRANCH  11  12
ATOM     12  C   UNL     1     -49.760  27.199 -17.797  1.00  0.00    -0.000 C 
BRANCH  12  13
ATOM     13  C   UNL     1     -50.659  27.811 -16.708  1.00  0.00    -0.000 C 
BRANCH  13  14
ATOM     14  C   UNL     1     -51.820  26.883 -16.313  1.00  0.00    -0.000 C 
BRANCH  14  15
ATOM     15  C   UNL     1     -51.733  26.410 -14.854  1.00  0.00    -0.000 C 
BRANCH  15  16
ATOM     16  C   UNL     1     -52.151  24.940 -14.728  1.00  0.00    -0.003 C 
ATOM     17  C   UNL     1     -50.953  24.009 -14.883  1.00  0.00     0.004 C 
ENDBRANCH  15  16
ENDBRANCH  14  15
ENDBRANCH  13  14
ENDBRANCH  12  13
ENDBRANCH  11  12
ENDBRANCH  10  11
ENDBRANCH   1  10
TORSDOF 13
ENDMDL
MODEL 6
REMARK VINA RESULT:    -4.296      3.223      6.536
REMARK INTER + INTRA:          -9.630
REMARK INTER:                  -8.139
REMARK INTRA:                  -1.490
REMARK UNBOUND:                -2.069
REMARK SMILES CCCCCCCCCCCCCCC(=O)[O-]
REMARK SMILES IDX 9 1 10 2 11 3 12 4 13 5 14 6 15 7 16 8 17 9 8 10 7 11 6 12
REMARK SMILES IDX 5 13 4 14 3 15 2 16 1 17
REMARK H PARENT
REMARK Flexibility Score: inf
ROOT
ATOM      1  C   UNL     1     -47.231  26.392 -14.102  1.00  0.00     0.000 C 
ENDROOT
BRANCH   1   2
ATOM      2  C   UNL     1     -48.025  25.178 -14.620  1.00  0.00     0.000 C 
BRANCH   2   3
ATOM      3  C   UNL     1     -48.867  25.511 -15.862  1.00  0.00     0.000 C 
BRANCH   3   4
ATOM      4  C   UNL     1     -49.626  26.838 -15.722  1.00  0.00     0.000 C 
BRANCH   4   5
ATOM      5  C   UNL     1     -50.873  26.670 -14.846  1.00  0.00     0.006 C 
BRANCH   5   6
ATOM      6  C   UNL     1     -51.855  25.675 -15.472  1.00  0.00     0.053 C 
BRANCH   6   7
ATOM      7  C   UNL     1     -52.171  24.574 -14.510  1.00  0.00     0.041 C 
ATOM      8  O   UNL     1     -53.208  24.631 -13.800  1.00  0.00    -0.550 OA
ATOM      9  O   UNL     1     -51.342  23.461 -14.430  1.00  0.00    -0.550 OA
ENDBRANCH   6   7
ENDBRANCH   5   6
ENDBRANCH   4   5
ENDBRANCH   3   4
ENDBRANCH   2   3
ENDBRANCH   1   2
BRANCH   1  10
ATOM     10  C   UNL     1     -45.712  26.150 -14.100  1.00  0.00     0.000 C 
BRANCH  10  11
ATOM     11  C   UNL     1     -44.992  26.915 -15.224  1.00  0.00    -0.000 C 
BRANCH  11  12
ATOM     12  C   UNL     1     -45.942  27.826 -16.021  1.00  0.00    -0.000 C 
BRANCH  12  13
ATOM     13  C   UNL     1     -46.064  27.407 -17.497  1.00  0.00    -0.000 C 
BRANCH  13  14
ATOM     14  C   UNL     1     -45.211  26.172 -17.830  1.00  0.00    -0.000 C 
BRANCH  14  15
ATOM     15  C   UNL     1     -44.568  26.252 -19.223  1.00  0.00    -0.000 C 
BRANCH  15  16
ATOM     16  C   UNL     1     -43.398  27.245 -19.229  1.00  0.00    -0.003 C 
ATOM     17  C   UNL     1     -43.061  27.692 -20.648  1.00  0.00     0.004 C 
ENDBRANCH  15  16
ENDBRANCH  14  15
ENDBRANCH  13  14
ENDBRANCH  12  13
ENDBRANCH  11  12
ENDBRANCH  10  11
ENDBRANCH   1  10
TORSDOF 13
ENDMDL
MODEL 7
REMARK VINA RESULT:    -4.234      1.433      2.315
REMARK INTER + INTRA:          -9.522
REMARK INTER:                  -7.654
REMARK INTRA:                  -1.868
REMARK UNBOUND:                -2.069
REMARK SMILES CCCCCCCCCCCCCCC(=O)[O-]
REMARK SMILES IDX 9 1 10 2 11 3 12 4 13 5 14 6 15 7 16 8 17 9 8 10 7 11 6 12
REMARK SMILES IDX 5 13 4 14 3 15 2 16 1 17
REMARK H PARENT
REMARK Flexibility Score: inf
ROOT
ATOM      1  C   UNL     1     -46.601  27.631 -13.449  1.00  0.00     0.000 C 
ENDROOT
BRANCH   1   2
ATOM      2  C   UNL     1     -45.902  26.326 -13.874  1.00  0.00     0.000 C 
BRANCH   2   3
ATOM      3  C   UNL     1     -44.949  26.526 -15.063  1.00  0.00     0.000 C 
BRANCH   3   4
ATOM      4  C   UNL     1     -44.562  27.998 -15.268  1.00  0.00     0.000 C 
BRANCH   4   5
ATOM      5  C   UNL     1     -44.839  28.444 -16.709  1.00  0.00     0.006 C 
BRANCH   5   6
ATOM      6  C   UNL     1     -45.182  27.245 -17.599  1.00  0.00     0.053 C 
BRANCH   6   7
ATOM      7  C   UNL     1     -44.345  27.257 -18.839  1.00  0.00     0.041 C 
ATOM      8  O   UNL     1     -44.190  26.203 -19.509  1.00  0.00    -0.550 OA
ATOM      9  O   UNL     1     -43.774  28.444 -19.281  1.00  0.00    -0.550 OA
ENDBRANCH   6   7
ENDBRANCH   5   6
ENDBRANCH   4   5
ENDBRANCH   3   4
ENDBRANCH   2   3
ENDBRANCH   1   2
BRANCH   1  10
ATOM     10  C   UNL     1     -48.086  27.664 -13.844  1.00  0.00     0.000 C 
BRANCH  10  11
ATOM     11  C   UNL     1     -48.292  27.927 -15.345  1.00  0.00    -0.000 C 
BRANCH  11  12
ATOM     12  C   UNL     1     -49.153  26.846 -16.021  1.00  0.00    -0.000 C 
BRANCH  12  13
ATOM     13  C   UNL     1     -48.320  25.648 -16.511  1.00  0.00    -0.000 C 
BRANCH  13  14
ATOM     14  C   UNL     1     -48.747  24.325 -15.852  1.00  0.00    -0.000 C 
BRANCH  14  15
ATOM     15  C   UNL     1     -49.811  24.522 -14.762  1.00  0.00    -0.000 C 
BRANCH  15  16
ATOM     16  C   UNL     1     -50.963  23.525 -14.934  1.00  0.00    -0.003 C 
ATOM     17  C   UNL     1     -52.275  24.100 -14.407  1.00  0.00     0.004 C 
ENDBRANCH  15  16
ENDBRANCH  14  15
ENDBRANCH  13  14
ENDBRANCH  12  13
ENDBRANCH  11  12
ENDBRANCH  10  11
ENDBRANCH   1  10
TORSDOF 13
ENDMDL
MODEL 8
REMARK VINA RESULT:    -4.209      4.159      6.579
REMARK INTER + INTRA:          -9.477
REMARK INTER:                  -7.773
REMARK INTRA:                  -1.704
REMARK UNBOUND:                -2.069
REMARK SMILES CCCCCCCCCCCCCCC(=O)[O-]
REMARK SMILES IDX 9 1 10 2 11 3 12 4 13 5 14 6 15 7 16 8 17 9 8 10 7 11 6 12
REMARK SMILES IDX 5 13 4 14 3 15 2 16 1 17
REMARK H PARENT
REMARK Flexibility Score: inf
ROOT
ATOM      1  C   UNL     1     -48.499  26.902 -14.503  1.00  0.00     0.000 C 
ENDROOT
BRANCH   1   2
ATOM      2  C   UNL     1     -48.354  25.387 -14.737  1.00  0.00     0.000 C 
BRANCH   2   3
ATOM      3  C   UNL     1     -49.686  24.715 -15.102  1.00  0.00     0.000 C 
BRANCH   3   4
ATOM      4  C   UNL     1     -50.850  25.715 -15.182  1.00  0.00     0.000 C 
BRANCH   4   5
ATOM      5  C   UNL     1     -52.169  25.057 -14.762  1.00  0.00     0.006 C 
BRANCH   5   6
ATOM      6  C   UNL     1     -51.917  23.742 -14.018  1.00  0.00     0.053 C 
BRANCH   6   7
ATOM      7  C   UNL     1     -53.027  23.462 -13.056  1.00  0.00     0.041 C 
ATOM      8  O   UNL     1     -52.873  22.611 -12.141  1.00  0.00    -0.550 OA
ATOM      9  O   UNL     1     -54.217  24.174 -13.141  1.00  0.00    -0.550 OA
ENDBRANCH   6   7
ENDBRANCH   5   6
ENDBRANCH   4   5
ENDBRANCH   3   4
ENDBRANCH   2   3
ENDBRANCH   1   2
BRANCH   1  10
ATOM     10  C   UNL     1     -47.151  27.596 -14.250  1.00  0.00     0.000 C 
BRANCH  10  11
ATOM     11  C   UNL     1     -46.018  26.595 -13.964  1.00  0.00    -0.000 C 
BRANCH  11  12
ATOM     12  C   UNL     1     -45.030  26.471 -15.137  1.00  0.00    -0.000 C 
BRANCH  12  13
ATOM     13  C   UNL     1     -44.964  27.749 -15.992  1.00  0.00    -0.000 C 
BRANCH  13  14
ATOM     14  C   UNL     1     -45.167  27.466 -17.490  1.00  0.00    -0.000 C 
BRANCH  14  15
ATOM     15  C   UNL     1     -46.458  26.684 -17.776  1.00  0.00    -0.000 C 
BRANCH  15  16
ATOM     16  C   UNL     1     -47.615  27.635 -18.101  1.00  0.00    -0.003 C 
ATOM     17  C   UNL     1     -48.950  26.896 -18.122  1.00  0.00     0.004 C 
ENDBRANCH  15  16
ENDBRANCH  14  15
ENDBRANCH  13  14
ENDBRANCH  12  13
ENDBRANCH  11  12
ENDBRANCH  10  11
ENDBRANCH   1  10
TORSDOF 13
ENDMDL
MODEL 9
REMARK VINA RESULT:    -4.170      3.045      6.007
REMARK INTER + INTRA:          -9.409
REMARK INTER:                  -7.606
REMARK INTRA:                  -1.803
REMARK UNBOUND:                -2.069
REMARK SMILES CCCCCCCCCCCCCCC(=O)[O-]
REMARK SMILES IDX 9 1 10 2 11 3 12 4 13 5 14 6 15 7 16 8 17 9 8 10 7 11 6 12
REMARK SMILES IDX 5 13 4 14 3 15 2 16 1 17
REMARK H PARENT
REMARK Flexibility Score: inf
ROOT
ATOM      1  C   UNL     1     -46.667  26.262 -17.910  1.00  0.00     0.000 C 
ENDROOT
BRANCH   1   2
ATOM      2  C   UNL     1     -47.475  27.571 -17.979  1.00  0.00     0.000 C 
BRANCH   2   3
ATOM      3  C   UNL     1     -48.587  27.636 -16.921  1.00  0.00     0.000 C 
BRANCH   3   4
ATOM      4  C   UNL     1     -49.024  26.245 -16.437  1.00  0.00     0.000 C 
BRANCH   4   5
ATOM      5  C   UNL     1     -49.932  26.351 -15.206  1.00  0.00     0.006 C 
BRANCH   5   6
ATOM      6  C   UNL     1     -51.388  26.039 -15.568  1.00  0.00     0.053 C 
BRANCH   6   7
ATOM      7  C   UNL     1     -51.844  24.794 -14.875  1.00  0.00     0.041 C 
ATOM      8  O   UNL     1     -52.820  24.833 -14.081  1.00  0.00    -0.550 OA
ATOM      9  O   UNL     1     -51.221  23.582 -15.141  1.00  0.00    -0.550 OA
ENDBRANCH   6   7
ENDBRANCH   5   6
ENDBRANCH   4   5
ENDBRANCH   3   4
ENDBRANCH   2   3
ENDBRANCH   1   2
BRANCH   1  10
ATOM     10  C   UNL     1     -45.211  26.487 -17.474  1.00  0.00     0.000 C 
BRANCH  10  11
ATOM     11  C   UNL     1     -44.646  27.828 -17.973  1.00  0.00    -0.000 C 
BRANCH  11  12
ATOM     12  C   UNL     1     -44.058  28.681 -16.837  1.00  0.00    -0.000 C 
BRANCH  12  13
ATOM     13  C   UNL     1     -45.115  29.088 -15.795  1.00  0.00    -0.000 C 
BRANCH  13  14
ATOM     14  C   UNL     1     -44.918  28.376 -14.446  1.00  0.00    -0.000 C 
BRANCH  14  15
ATOM     15  C   UNL     1     -46.143  27.551 -14.026  1.00  0.00    -0.000 C 
BRANCH  15  16
ATOM     16  C   UNL     1     -45.733  26.132 -13.613  1.00  0.00    -0.003 C 
ATOM     17  C   UNL     1     -46.929  25.185 -13.629  1.00  0.00     0.004 C 
ENDBRANCH  15  16
ENDBRANCH  14  15
ENDBRANCH  13  14
ENDBRANCH  12  13
ENDBRANCH  11  12
ENDBRANCH  10  11
ENDBRANCH   1  10
TORSDOF 13
ENDMDL
