MODEL 1
REMARK VINA RESULT:    -4.611      0.000      0.000
REMARK INTER + INTRA:          -8.183
REMARK INTER:                  -6.768
REMARK INTRA:                  -1.415
REMARK UNBOUND:                -1.415
REMARK SMILES CC(C)(O)CC[C@@H](O)[C@@](C)(O)[C@H]1CC[C@]2(O)C3=CC(=O)[C@@H]4C[C@H](O)[C@@H](O)C[C@@]4(C)[C@H]3CC[C@]12C
REMARK SMILES IDX 6 1 7 2 9 3 10 4 12 5 34 6 33 7 32 8 15 9 31 10 17 11 14 12
REMARK SMILES IDX 13 13 30 14 18 15 28 16 19 17 21 18 27 19 29 20 20 21 22 22
REMARK SMILES IDX 25 23 23 24 16 25 26 27 24 29 11 31 8 33 5 35 2 36 1 37 3 38
REMARK SMILES IDX 4 39
REMARK H PARENT 16 26 26 28 24 30 11 32 8 34 4 40
REMARK Flexibility Score: inf
ROOT
ATOM      1  C   UNL     1      16.764  19.413   8.158  1.00  0.00     0.038 C 
ENDROOT
BRANCH   1   2
ATOM      2  C   UNL     1      18.309  19.250   8.225  1.00  0.00     0.146 C 
BRANCH   2   3
ATOM      3  C   UNL     1      18.774  17.889   8.887  1.00  0.00     0.091 C 
ATOM      4  C   UNL     1      19.948  18.122   9.859  1.00  0.00     0.045 C 
BRANCH   3   5
ATOM      5  C   UNL     1      19.100  16.694   7.875  1.00  0.00     0.032 C 
ATOM      6  C   UNL     1      20.028  14.936   9.538  1.00  0.00     0.015 C 
ATOM      7  C   UNL     1      19.191  15.164   8.253  1.00  0.00     0.006 C 
ATOM      8  C   UNL     1      17.801  14.482   8.499  1.00  0.00     0.011 C 
ATOM      9  C   UNL     1      19.916  14.505   6.990  1.00  0.00     0.092 C 
ATOM     10  C   UNL     1      16.835  14.467   7.291  1.00  0.00     0.009 C 
ATOM     11  C   UNL     1      18.916  13.722   6.125  1.00  0.00    -0.031 C 
ATOM     12  C   UNL     1      20.490  15.680   6.156  1.00  0.00     0.041 C 
ATOM     13  C   UNL     1      20.339  16.930   7.004  1.00  0.00     0.010 C 
ATOM     14  C   UNL     1      17.546  14.357   5.917  1.00  0.00     0.025 C 
ATOM     15  C   UNL     1      19.179  12.468   5.691  1.00  0.00     0.050 C 
ATOM     16  C   UNL     1      16.718  13.682   4.757  1.00  0.00    -0.013 C 
ATOM     17  C   UNL     1      18.152  11.643   5.032  1.00  0.00     0.159 C 
ATOM     18  C   UNL     1      16.730  12.138   4.968  1.00  0.00     0.070 C 
ATOM     19  C   UNL     1      15.241  14.189   4.734  1.00  0.00     0.042 C 
ATOM     20  C   UNL     1      17.398  14.080   3.407  1.00  0.00     0.013 C 
ATOM     21  O   UNL     1      18.461  10.499   4.602  1.00  0.00    -0.295 OA
ATOM     22  C   UNL     1      15.874  11.388   3.923  1.00  0.00     0.047 C 
ATOM     23  C   UNL     1      14.364  13.441   3.705  1.00  0.00     0.143 C 
ATOM     24  C   UNL     1      14.425  11.910   3.925  1.00  0.00     0.143 C 
BRANCH   9  25
ATOM     25  O   UNL     1      20.961  13.634   7.385  1.00  0.00    -0.385 OA
ATOM     26  H   UNL     1      20.575  12.776   7.702  1.00  0.00     0.211 HD
ENDBRANCH   9  25
BRANCH  23  27
ATOM     27  O   UNL     1      13.035  13.898   3.774  1.00  0.00    -0.390 OA
ATOM     28  H   UNL     1      12.617  13.496   4.580  1.00  0.00     0.211 HD
ENDBRANCH  23  27
BRANCH  24  29
ATOM     29  O   UNL     1      13.658  11.237   2.958  1.00  0.00    -0.390 OA
ATOM     30  H   UNL     1      12.850  11.787   2.779  1.00  0.00     0.211 HD
ENDBRANCH  24  29
ENDBRANCH   3   5
BRANCH   3  31
ATOM     31  O   UNL     1      17.720  17.436   9.712  1.00  0.00    -0.387 OA
ATOM     32  H   UNL     1      16.921  18.003   9.551  1.00  0.00     0.211 HD
ENDBRANCH   3  31
ENDBRANCH   2   3
BRANCH   2  33
ATOM     33  O   UNL     1      18.888  20.374   8.834  1.00  0.00    -0.390 OA
ATOM     34  H   UNL     1      19.305  20.086   9.687  1.00  0.00     0.211 HD
ENDBRANCH   2  33
ENDBRANCH   1   2
BRANCH   1  35
ATOM     35  C   UNL     1      16.293  19.758   6.730  1.00  0.00     0.037 C 
BRANCH  35  36
ATOM     36  C   UNL     1      15.522  18.604   6.027  1.00  0.00     0.059 C 
ATOM     37  C   UNL     1      16.467  17.766   5.149  1.00  0.00     0.042 C 
ATOM     38  C   UNL     1      14.898  17.684   7.096  1.00  0.00     0.042 C 
BRANCH  36  39
ATOM     39  O   UNL     1      14.501  19.120   5.206  1.00  0.00    -0.390 OA
ATOM     40  H   UNL     1      14.827  19.106   4.268  1.00  0.00     0.211 HD
ENDBRANCH  36  39
ENDBRANCH  35  36
ENDBRANCH   1  35
TORSDOF 11
ENDMDL
MODEL 2
REMARK VINA RESULT:    -4.533      0.911      1.154
REMARK INTER + INTRA:          -8.067
REMARK INTER:                  -6.627
REMARK INTRA:                  -1.441
REMARK UNBOUND:                -1.415
REMARK SMILES CC(C)(O)CC[C@@H](O)[C@@](C)(O)[C@H]1CC[C@]2(O)C3=CC(=O)[C@@H]4C[C@H](O)[C@@H](O)C[C@@]4(C)[C@H]3CC[C@]12C
REMARK SMILES IDX 6 1 7 2 9 3 10 4 12 5 34 6 33 7 32 8 15 9 31 10 17 11 14 12
REMARK SMILES IDX 13 13 30 14 18 15 28 16 19 17 21 18 27 19 29 20 20 21 22 22
REMARK SMILES IDX 25 23 23 24 16 25 26 27 24 29 11 31 8 33 5 35 2 36 1 37 3 38
REMARK SMILES IDX 4 39
REMARK H PARENT 16 26 26 28 24 30 11 32 8 34 4 40
REMARK Flexibility Score: inf
ROOT
ATOM      1  C   UNL     1      15.900  18.147   7.401  1.00  0.00     0.038 C 
ENDROOT
BRANCH   1   2
ATOM      2  C   UNL     1      16.918  18.908   8.297  1.00  0.00     0.146 C 
BRANCH   2   3
ATOM      3  C   UNL     1      18.141  18.015   8.762  1.00  0.00     0.091 C 
ATOM      4  C   UNL     1      19.325  18.894   9.212  1.00  0.00     0.045 C 
BRANCH   3   5
ATOM      5  C   UNL     1      18.624  16.896   7.727  1.00  0.00     0.032 C 
ATOM      6  C   UNL     1      19.907  15.318   9.334  1.00  0.00     0.015 C 
ATOM      7  C   UNL     1      18.990  15.403   8.087  1.00  0.00     0.006 C 
ATOM      8  C   UNL     1      17.748  14.492   8.382  1.00  0.00     0.011 C 
ATOM      9  C   UNL     1      19.764  14.881   6.789  1.00  0.00     0.092 C 
ATOM     10  C   UNL     1      16.749  14.316   7.215  1.00  0.00     0.009 C 
ATOM     11  C   UNL     1      18.877  13.940   5.958  1.00  0.00    -0.031 C 
ATOM     12  C   UNL     1      20.094  16.138   5.943  1.00  0.00     0.041 C 
ATOM     13  C   UNL     1      19.766  17.342   6.808  1.00  0.00     0.010 C 
ATOM     14  C   UNL     1      17.411  14.332   5.812  1.00  0.00     0.025 C 
ATOM     15  C   UNL     1      19.331  12.750   5.502  1.00  0.00     0.050 C 
ATOM     16  C   UNL     1      16.663  13.528   4.680  1.00  0.00    -0.013 C 
ATOM     17  C   UNL     1      18.434  11.763   4.878  1.00  0.00     0.159 C 
ATOM     18  C   UNL     1      16.947  12.008   4.876  1.00  0.00     0.070 C 
ATOM     19  C   UNL     1      15.121  13.775   4.722  1.00  0.00     0.042 C 
ATOM     20  C   UNL     1      17.208  14.039   3.308  1.00  0.00     0.013 C 
ATOM     21  O   UNL     1      18.915  10.690   4.424  1.00  0.00    -0.295 OA
ATOM     22  C   UNL     1      16.188  11.125   3.860  1.00  0.00     0.047 C 
ATOM     23  C   UNL     1      14.343  12.890   3.723  1.00  0.00     0.143 C 
ATOM     24  C   UNL     1      14.673  11.392   3.926  1.00  0.00     0.143 C 
BRANCH   9  25
ATOM     25  O   UNL     1      20.958  14.200   7.133  1.00  0.00    -0.385 OA
ATOM     26  H   UNL     1      21.560  14.170   6.344  1.00  0.00     0.211 HD
ENDBRANCH   9  25
BRANCH  23  27
ATOM     27  O   UNL     1      12.959  13.113   3.850  1.00  0.00    -0.390 OA
ATOM     28  H   UNL     1      12.787  14.071   3.655  1.00  0.00     0.211 HD
ENDBRANCH  23  27
BRANCH  24  29
ATOM     29  O   UNL     1      13.992  10.600   2.984  1.00  0.00    -0.390 OA
ATOM     30  H   UNL     1      14.663  10.013   2.545  1.00  0.00     0.211 HD
ENDBRANCH  24  29
ENDBRANCH   3   5
BRANCH   3  31
ATOM     31  O   UNL     1      17.747  17.331   9.934  1.00  0.00    -0.387 OA
ATOM     32  H   UNL     1      17.140  17.916  10.457  1.00  0.00     0.211 HD
ENDBRANCH   3  31
ENDBRANCH   2   3
BRANCH   2  33
ATOM     33  O   UNL     1      16.255  19.519   9.372  1.00  0.00    -0.390 OA
ATOM     34  H   UNL     1      16.865  19.521  10.154  1.00  0.00     0.211 HD
ENDBRANCH   2  33
ENDBRANCH   1   2
BRANCH   1  35
ATOM     35  C   UNL     1      15.546  18.955   6.136  1.00  0.00     0.037 C 
BRANCH  35  36
ATOM     36  C   UNL     1      15.416  18.087   4.852  1.00  0.00     0.059 C 
ATOM     37  C   UNL     1      14.743  18.879   3.717  1.00  0.00     0.042 C 
ATOM     38  C   UNL     1      16.821  17.656   4.384  1.00  0.00     0.042 C 
BRANCH  36  39
ATOM     39  O   UNL     1      14.641  16.940   5.107  1.00  0.00    -0.390 OA
ATOM     40  H   UNL     1      14.280  16.615   4.240  1.00  0.00     0.211 HD
ENDBRANCH  36  39
ENDBRANCH  35  36
ENDBRANCH   1  35
TORSDOF 11
ENDMDL
MODEL 3
REMARK VINA RESULT:    -4.517      2.380      5.875
REMARK INTER + INTRA:          -8.045
REMARK INTER:                  -7.007
REMARK INTRA:                  -1.038
REMARK UNBOUND:                -1.415
REMARK SMILES CC(C)(O)CC[C@@H](O)[C@@](C)(O)[C@H]1CC[C@]2(O)C3=CC(=O)[C@@H]4C[C@H](O)[C@@H](O)C[C@@]4(C)[C@H]3CC[C@]12C
REMARK SMILES IDX 6 1 7 2 9 3 10 4 12 5 34 6 33 7 32 8 15 9 31 10 17 11 14 12
REMARK SMILES IDX 13 13 30 14 18 15 28 16 19 17 21 18 27 19 29 20 20 21 22 22
REMARK SMILES IDX 25 23 23 24 16 25 26 27 24 29 11 31 8 33 5 35 2 36 1 37 3 38
REMARK SMILES IDX 4 39
REMARK H PARENT 16 26 26 28 24 30 11 32 8 34 4 40
REMARK Flexibility Score: inf
ROOT
ATOM      1  C   UNL     1      18.966  17.906   8.432  1.00  0.00     0.038 C 
ENDROOT
BRANCH   1   2
ATOM      2  C   UNL     1      19.806  16.608   8.600  1.00  0.00     0.146 C 
BRANCH   2   3
ATOM      3  C   UNL     1      19.102  15.319   8.007  1.00  0.00     0.091 C 
ATOM      4  C   UNL     1      20.098  14.148   7.901  1.00  0.00     0.045 C 
BRANCH   3   5
ATOM      5  C   UNL     1      18.314  15.524   6.630  1.00  0.00     0.032 C 
ATOM      6  C   UNL     1      16.252  14.015   7.063  1.00  0.00     0.015 C 
ATOM      7  C   UNL     1      16.762  15.329   6.417  1.00  0.00     0.006 C 
ATOM      8  C   UNL     1      15.885  16.487   7.008  1.00  0.00     0.011 C 
ATOM      9  C   UNL     1      16.603  15.270   4.828  1.00  0.00     0.092 C 
ATOM     10  C   UNL     1      16.128  17.891   6.406  1.00  0.00     0.009 C 
ATOM     11  C   UNL     1      16.011  16.579   4.282  1.00  0.00    -0.031 C 
ATOM     12  C   UNL     1      18.032  15.086   4.254  1.00  0.00     0.041 C 
ATOM     13  C   UNL     1      18.942  14.797   5.434  1.00  0.00     0.010 C 
ATOM     14  C   UNL     1      16.521  17.873   4.905  1.00  0.00     0.025 C 
ATOM     15  C   UNL     1      14.985  16.584   3.400  1.00  0.00     0.050 C 
ATOM     16  C   UNL     1      16.140  19.156   4.071  1.00  0.00    -0.013 C 
ATOM     17  C   UNL     1      14.288  17.826   3.026  1.00  0.00     0.159 C 
ATOM     18  C   UNL     1      14.616  19.108   3.748  1.00  0.00     0.070 C 
ATOM     19  C   UNL     1      16.460  20.468   4.856  1.00  0.00     0.042 C 
ATOM     20  C   UNL     1      17.002  19.137   2.768  1.00  0.00     0.013 C 
ATOM     21  O   UNL     1      13.371  17.784   2.163  1.00  0.00    -0.295 OA
ATOM     22  C   UNL     1      14.126  20.368   2.999  1.00  0.00     0.047 C 
ATOM     23  C   UNL     1      15.965  21.739   4.130  1.00  0.00     0.143 C 
ATOM     24  C   UNL     1      14.456  21.643   3.798  1.00  0.00     0.143 C 
BRANCH   9  25
ATOM     25  O   UNL     1      15.777  14.191   4.427  1.00  0.00    -0.385 OA
ATOM     26  H   UNL     1      14.927  14.545   4.056  1.00  0.00     0.211 HD
ENDBRANCH   9  25
BRANCH  23  27
ATOM     27  O   UNL     1      16.226  22.880   4.911  1.00  0.00    -0.390 OA
ATOM     28  H   UNL     1      17.187  23.108   4.804  1.00  0.00     0.211 HD
ENDBRANCH  23  27
BRANCH  24  29
ATOM     29  O   UNL     1      14.026  22.785   3.100  1.00  0.00    -0.390 OA
ATOM     30  H   UNL     1      13.405  22.485   2.385  1.00  0.00     0.211 HD
ENDBRANCH  24  29
ENDBRANCH   3   5
BRANCH   3  31
ATOM     31  O   UNL     1      18.146  14.883   8.952  1.00  0.00    -0.387 OA
ATOM     32  H   UNL     1      17.381  14.476   8.468  1.00  0.00     0.211 HD
ENDBRANCH   3  31
ENDBRANCH   2   3
BRANCH   2  33
ATOM     33  O   UNL     1      20.186  16.449   9.941  1.00  0.00    -0.390 OA
ATOM     34  H   UNL     1      20.895  15.756   9.983  1.00  0.00     0.211 HD
ENDBRANCH   2  33
ENDBRANCH   1   2
BRANCH   1  35
ATOM     35  C   UNL     1      18.037  18.140   9.641  1.00  0.00     0.037 C 
BRANCH  35  36
ATOM     36  C   UNL     1      17.749  19.641   9.931  1.00  0.00     0.059 C 
ATOM     37  C   UNL     1      18.781  20.218  10.916  1.00  0.00     0.042 C 
ATOM     38  C   UNL     1      17.829  20.438   8.613  1.00  0.00     0.042 C 
BRANCH  36  39
ATOM     39  O   UNL     1      16.468  19.800  10.492  1.00  0.00    -0.390 OA
ATOM     40  H   UNL     1      16.470  19.367  11.387  1.00  0.00     0.211 HD
ENDBRANCH  36  39
ENDBRANCH  35  36
ENDBRANCH   1  35
TORSDOF 11
ENDMDL
MODEL 4
REMARK VINA RESULT:    -4.490      3.025      5.121
REMARK INTER + INTRA:          -8.005
REMARK INTER:                  -7.289
REMARK INTRA:                  -0.715
REMARK UNBOUND:                -1.415
REMARK SMILES CC(C)(O)CC[C@@H](O)[C@@](C)(O)[C@H]1CC[C@]2(O)C3=CC(=O)[C@@H]4C[C@H](O)[C@@H](O)C[C@@]4(C)[C@H]3CC[C@]12C
REMARK SMILES IDX 6 1 7 2 9 3 10 4 12 5 34 6 33 7 32 8 15 9 31 10 17 11 14 12
REMARK SMILES IDX 13 13 30 14 18 15 28 16 19 17 21 18 27 19 29 20 20 21 22 22
REMARK SMILES IDX 25 23 23 24 16 25 26 27 24 29 11 31 8 33 5 35 2 36 1 37 3 38
REMARK SMILES IDX 4 39
REMARK H PARENT 16 26 26 28 24 30 11 32 8 34 4 40
REMARK Flexibility Score: inf
ROOT
ATOM      1  C   UNL     1      15.719  22.378   3.715  1.00  0.00     0.038 C 
ENDROOT
BRANCH   1   2
ATOM      2  C   UNL     1      17.243  22.226   3.443  1.00  0.00     0.146 C 
BRANCH   2   3
ATOM      3  C   UNL     1      18.144  22.516   4.713  1.00  0.00     0.091 C 
ATOM      4  C   UNL     1      19.233  23.558   4.389  1.00  0.00     0.045 C 
BRANCH   3   5
ATOM      5  C   UNL     1      18.777  21.233   5.428  1.00  0.00     0.032 C 
ATOM      6  C   UNL     1      18.777  22.045   7.890  1.00  0.00     0.015 C 
ATOM      7  C   UNL     1      18.583  20.833   6.944  1.00  0.00     0.006 C 
ATOM      8  C   UNL     1      17.173  20.231   7.271  1.00  0.00     0.011 C 
ATOM      9  C   UNL     1      19.723  19.741   7.194  1.00  0.00     0.092 C 
ATOM     10  C   UNL     1      16.812  18.920   6.534  1.00  0.00     0.009 C 
ATOM     11  C   UNL     1      19.128  18.325   7.260  1.00  0.00    -0.031 C 
ATOM     12  C   UNL     1      20.684  19.827   5.980  1.00  0.00     0.041 C 
ATOM     13  C   UNL     1      20.282  21.063   5.194  1.00  0.00     0.010 C 
ATOM     14  C   UNL     1      18.028  17.998   6.256  1.00  0.00     0.025 C 
ATOM     15  C   UNL     1      19.455  17.460   8.246  1.00  0.00     0.050 C 
ATOM     16  C   UNL     1      17.722  16.454   6.152  1.00  0.00    -0.013 C 
ATOM     17  C   UNL     1      18.745  16.182   8.425  1.00  0.00     0.159 C 
ATOM     18  C   UNL     1      17.527  15.886   7.589  1.00  0.00     0.070 C 
ATOM     19  C   UNL     1      16.437  16.179   5.308  1.00  0.00     0.042 C 
ATOM     20  C   UNL     1      18.937  15.786   5.433  1.00  0.00     0.013 C 
ATOM     21  O   UNL     1      19.120  15.388   9.330  1.00  0.00    -0.295 OA
ATOM     22  C   UNL     1      17.139  14.390   7.590  1.00  0.00     0.047 C 
ATOM     23  C   UNL     1      16.024  14.690   5.308  1.00  0.00     0.143 C 
ATOM     24  C   UNL     1      15.870  14.151   6.751  1.00  0.00     0.143 C 
BRANCH   9  25
ATOM     25  O   UNL     1      20.433  19.995   8.394  1.00  0.00    -0.385 OA
ATOM     26  H   UNL     1      20.694  20.953   8.427  1.00  0.00     0.211 HD
ENDBRANCH   9  25
BRANCH  23  27
ATOM     27  O   UNL     1      14.831  14.515   4.585  1.00  0.00    -0.390 OA
ATOM     28  H   UNL     1      15.064  14.455   3.622  1.00  0.00     0.211 HD
ENDBRANCH  23  27
BRANCH  24  29
ATOM     29  O   UNL     1      15.538  12.785   6.739  1.00  0.00    -0.390 OA
ATOM     30  H   UNL     1      15.738  12.419   7.641  1.00  0.00     0.211 HD
ENDBRANCH  24  29
ENDBRANCH   3   5
BRANCH   3  31
ATOM     31  O   UNL     1      17.328  23.148   5.677  1.00  0.00    -0.387 OA
ATOM     32  H   UNL     1      17.905  23.690   6.278  1.00  0.00     0.211 HD
ENDBRANCH   3  31
ENDBRANCH   2   3
BRANCH   2  33
ATOM     33  O   UNL     1      17.614  22.993   2.329  1.00  0.00    -0.390 OA
ATOM     34  H   UNL     1      17.943  23.872   2.652  1.00  0.00     0.211 HD
ENDBRANCH   2  33
ENDBRANCH   1   2
BRANCH   1  35
ATOM     35  C   UNL     1      14.880  21.586   2.691  1.00  0.00     0.037 C 
BRANCH  35  36
ATOM     36  C   UNL     1      13.797  20.674   3.338  1.00  0.00     0.059 C 
ATOM     37  C   UNL     1      12.588  20.507   2.401  1.00  0.00     0.042 C 
ATOM     38  C   UNL     1      14.402  19.283   3.614  1.00  0.00     0.042 C 
BRANCH  36  39
ATOM     39  O   UNL     1      13.342  21.230   4.548  1.00  0.00    -0.390 OA
ATOM     40  H   UNL     1      12.531  20.729   4.829  1.00  0.00     0.211 HD
ENDBRANCH  36  39
ENDBRANCH  35  36
ENDBRANCH   1  35
TORSDOF 11
ENDMDL
MODEL 5
REMARK VINA RESULT:    -4.415      2.666      5.613
REMARK INTER + INTRA:          -7.895
REMARK INTER:                  -6.311
REMARK INTRA:                  -1.584
REMARK UNBOUND:                -1.415
REMARK SMILES CC(C)(O)CC[C@@H](O)[C@@](C)(O)[C@H]1CC[C@]2(O)C3=CC(=O)[C@@H]4C[C@H](O)[C@@H](O)C[C@@]4(C)[C@H]3CC[C@]12C
REMARK SMILES IDX 6 1 7 2 9 3 10 4 12 5 34 6 33 7 32 8 15 9 31 10 17 11 14 12
REMARK SMILES IDX 13 13 30 14 18 15 28 16 19 17 21 18 27 19 29 20 20 21 22 22
REMARK SMILES IDX 25 23 23 24 16 25 26 27 24 29 11 31 8 33 5 35 2 36 1 37 3 38
REMARK SMILES IDX 4 39
REMARK H PARENT 16 26 26 28 24 30 11 32 8 34 4 40
REMARK Flexibility Score: inf
ROOT
ATOM      1  C   UNL     1      19.514  20.485   8.117  1.00  0.00     0.038 C 
ENDROOT
BRANCH   1   2
ATOM      2  C   UNL     1      19.811  21.916   7.585  1.00  0.00     0.146 C 
BRANCH   2   3
ATOM      3  C   UNL     1      19.527  22.085   6.035  1.00  0.00     0.091 C 
ATOM      4  C   UNL     1      19.488  23.575   5.643  1.00  0.00     0.045 C 
BRANCH   3   5
ATOM      5  C   UNL     1      18.245  21.313   5.471  1.00  0.00     0.032 C 
ATOM      6  C   UNL     1      18.719  21.452   2.927  1.00  0.00     0.015 C 
ATOM      7  C   UNL     1      18.149  20.581   4.075  1.00  0.00     0.006 C 
ATOM      8  C   UNL     1      18.911  19.212   4.018  1.00  0.00     0.011 C 
ATOM      9  C   UNL     1      16.580  20.351   3.876  1.00  0.00     0.092 C 
ATOM     10  C   UNL     1      18.414  18.122   4.997  1.00  0.00     0.009 C 
ATOM     11  C   UNL     1      16.202  18.880   4.114  1.00  0.00    -0.031 C 
ATOM     12  C   UNL     1      15.873  21.230   4.940  1.00  0.00     0.041 C 
ATOM     13  C   UNL     1      16.942  22.116   5.554  1.00  0.00     0.010 C 
ATOM     14  C   UNL     1      16.890  18.176   5.278  1.00  0.00     0.025 C 
ATOM     15  C   UNL     1      15.415  18.199   3.251  1.00  0.00     0.050 C 
ATOM     16  C   UNL     1      16.206  16.810   5.669  1.00  0.00    -0.013 C 
ATOM     17  C   UNL     1      15.210  16.745   3.368  1.00  0.00     0.159 C 
ATOM     18  C   UNL     1      16.010  15.962   4.378  1.00  0.00     0.070 C 
ATOM     19  C   UNL     1      17.071  16.006   6.691  1.00  0.00     0.042 C 
ATOM     20  C   UNL     1      14.837  17.151   6.342  1.00  0.00     0.013 C 
ATOM     21  O   UNL     1      14.428  16.164   2.569  1.00  0.00    -0.295 OA
ATOM     22  C   UNL     1      15.418  14.564   4.667  1.00  0.00     0.047 C 
ATOM     23  C   UNL     1      16.503  14.598   6.983  1.00  0.00     0.143 C 
ATOM     24  C   UNL     1      16.293  13.796   5.676  1.00  0.00     0.143 C 
BRANCH   9  25
ATOM     25  O   UNL     1      16.159  20.728   2.577  1.00  0.00    -0.385 OA
ATOM     26  H   UNL     1      16.334  21.696   2.441  1.00  0.00     0.211 HD
ENDBRANCH   9  25
BRANCH  23  27
ATOM     27  O   UNL     1      17.355  13.901   7.859  1.00  0.00    -0.390 OA
ATOM     28  H   UNL     1      17.697  13.102   7.379  1.00  0.00     0.211 HD
ENDBRANCH  23  27
BRANCH  24  29
ATOM     29  O   UNL     1      15.736  12.535   5.950  1.00  0.00    -0.390 OA
ATOM     30  H   UNL     1      16.369  12.049   6.541  1.00  0.00     0.211 HD
ENDBRANCH  24  29
ENDBRANCH   3   5
BRANCH   3  31
ATOM     31  O   UNL     1      20.642  21.567   5.340  1.00  0.00    -0.387 OA
ATOM     32  H   UNL     1      20.586  21.849   4.390  1.00  0.00     0.211 HD
ENDBRANCH   3  31
ENDBRANCH   2   3
BRANCH   2  33
ATOM     33  O   UNL     1      21.110  22.305   7.943  1.00  0.00    -0.390 OA
ATOM     34  H   UNL     1      21.544  21.547   8.414  1.00  0.00     0.211 HD
ENDBRANCH   2  33
ENDBRANCH   1   2
BRANCH   1  35
ATOM     35  C   UNL     1      18.848  20.527   9.508  1.00  0.00     0.037 C 
BRANCH  35  36
ATOM     36  C   UNL     1      17.643  19.553   9.657  1.00  0.00     0.059 C 
ATOM     37  C   UNL     1      16.619  19.768   8.529  1.00  0.00     0.042 C 
ATOM     38  C   UNL     1      18.153  18.099   9.587  1.00  0.00     0.042 C 
BRANCH  36  39
ATOM     39  O   UNL     1      16.992  19.757  10.888  1.00  0.00    -0.390 OA
ATOM     40  H   UNL     1      17.588  20.306  11.462  1.00  0.00     0.211 HD
ENDBRANCH  36  39
ENDBRANCH  35  36
ENDBRANCH   1  35
TORSDOF 11
ENDMDL
MODEL 6
REMARK VINA RESULT:    -4.401      2.275      7.798
REMARK INTER + INTRA:          -7.875
REMARK INTER:                  -6.879
REMARK INTRA:                  -0.996
REMARK UNBOUND:                -1.415
REMARK SMILES CC(C)(O)CC[C@@H](O)[C@@](C)(O)[C@H]1CC[C@]2(O)C3=CC(=O)[C@@H]4C[C@H](O)[C@@H](O)C[C@@]4(C)[C@H]3CC[C@]12C
REMARK SMILES IDX 6 1 7 2 9 3 10 4 12 5 34 6 33 7 32 8 15 9 31 10 17 11 14 12
REMARK SMILES IDX 13 13 30 14 18 15 28 16 19 17 21 18 27 19 29 20 20 21 22 22
REMARK SMILES IDX 25 23 23 24 16 25 26 27 24 29 11 31 8 33 5 35 2 36 1 37 3 38
REMARK SMILES IDX 4 39
REMARK H PARENT 16 26 26 28 24 30 11 32 8 34 4 40
REMARK Flexibility Score: inf
ROOT
ATOM      1  C   UNL     1      17.835  14.277   7.514  1.00  0.00     0.038 C 
ENDROOT
BRANCH   1   2
ATOM      2  C   UNL     1      17.892  13.769   6.045  1.00  0.00     0.146 C 
BRANCH   2   3
ATOM      3  C   UNL     1      16.598  14.123   5.203  1.00  0.00     0.091 C 
ATOM      4  C   UNL     1      16.256  12.989   4.217  1.00  0.00     0.045 C 
BRANCH   3   5
ATOM      5  C   UNL     1      16.614  15.539   4.460  1.00  0.00     0.032 C 
ATOM      6  C   UNL     1      14.090  15.797   3.931  1.00  0.00     0.015 C 
ATOM      7  C   UNL     1      15.391  16.532   4.341  1.00  0.00     0.006 C 
ATOM      8  C   UNL     1      15.068  17.309   5.664  1.00  0.00     0.011 C 
ATOM      9  C   UNL     1      15.843  17.551   3.196  1.00  0.00     0.092 C 
ATOM     10  C   UNL     1      16.191  18.230   6.196  1.00  0.00     0.009 C 
ATOM     11  C   UNL     1      16.248  18.908   3.791  1.00  0.00    -0.031 C 
ATOM     12  C   UNL     1      17.079  16.914   2.508  1.00  0.00     0.041 C 
ATOM     13  C   UNL     1      17.191  15.497   3.041  1.00  0.00     0.010 C 
ATOM     14  C   UNL     1      17.058  18.875   5.083  1.00  0.00     0.025 C 
ATOM     15  C   UNL     1      15.791  20.075   3.284  1.00  0.00     0.050 C 
ATOM     16  C   UNL     1      17.724  20.260   5.435  1.00  0.00    -0.013 C 
ATOM     17  C   UNL     1      16.016  21.361   3.965  1.00  0.00     0.159 C 
ATOM     18  C   UNL     1      16.640  21.375   5.337  1.00  0.00     0.070 C 
ATOM     19  C   UNL     1      18.333  20.257   6.873  1.00  0.00     0.042 C 
ATOM     20  C   UNL     1      18.879  20.495   4.410  1.00  0.00     0.013 C 
ATOM     21  O   UNL     1      15.611  22.426   3.426  1.00  0.00    -0.295 OA
ATOM     22  C   UNL     1      17.177  22.766   5.745  1.00  0.00     0.047 C 
ATOM     23  C   UNL     1      18.863  21.642   7.306  1.00  0.00     0.143 C 
ATOM     24  C   UNL     1      17.770  22.729   7.166  1.00  0.00     0.143 C 
BRANCH   9  25
ATOM     25  O   UNL     1      14.812  17.757   2.246  1.00  0.00    -0.385 OA
ATOM     26  H   UNL     1      15.050  18.523   1.660  1.00  0.00     0.211 HD
ENDBRANCH   9  25
BRANCH  23  27
ATOM     27  O   UNL     1      19.342  21.590   8.627  1.00  0.00    -0.390 OA
ATOM     28  H   UNL     1      19.371  22.519   8.977  1.00  0.00     0.211 HD
ENDBRANCH  23  27
BRANCH  24  29
ATOM     29  O   UNL     1      18.275  23.992   7.520  1.00  0.00    -0.390 OA
ATOM     30  H   UNL     1      17.651  24.677   7.163  1.00  0.00     0.211 HD
ENDBRANCH  24  29
ENDBRANCH   3   5
BRANCH   3  31
ATOM     31  O   UNL     1      15.504  14.154   6.097  1.00  0.00    -0.387 OA
ATOM     32  H   UNL     1      14.747  13.656   5.692  1.00  0.00     0.211 HD
ENDBRANCH   3  31
ENDBRANCH   2   3
BRANCH   2  33
ATOM     33  O   UNL     1      18.198  12.400   6.018  1.00  0.00    -0.390 OA
ATOM     34  H   UNL     1      19.062  12.283   5.545  1.00  0.00     0.211 HD
ENDBRANCH   2  33
ENDBRANCH   1   2
BRANCH   1  35
ATOM     35  C   UNL     1      18.358  15.723   7.633  1.00  0.00     0.037 C 
BRANCH  35  36
ATOM     36  C   UNL     1      18.771  16.124   9.079  1.00  0.00     0.059 C 
ATOM     37  C   UNL     1      18.944  14.880   9.967  1.00  0.00     0.042 C 
ATOM     38  C   UNL     1      20.111  16.885   9.032  1.00  0.00     0.042 C 
BRANCH  36  39
ATOM     39  O   UNL     1      17.790  16.948   9.662  1.00  0.00    -0.390 OA
ATOM     40  H   UNL     1      16.908  16.690   9.283  1.00  0.00     0.211 HD
ENDBRANCH  36  39
ENDBRANCH  35  36
ENDBRANCH   1  35
TORSDOF 11
ENDMDL
MODEL 7
REMARK VINA RESULT:    -4.260      3.201      7.735
REMARK INTER + INTRA:          -7.667
REMARK INTER:                  -6.011
REMARK INTRA:                  -1.656
REMARK UNBOUND:                -1.415
REMARK SMILES CC(C)(O)CC[C@@H](O)[C@@](C)(O)[C@H]1CC[C@]2(O)C3=CC(=O)[C@@H]4C[C@H](O)[C@@H](O)C[C@@]4(C)[C@H]3CC[C@]12C
REMARK SMILES IDX 6 1 7 2 9 3 10 4 12 5 34 6 33 7 32 8 15 9 31 10 17 11 14 12
REMARK SMILES IDX 13 13 30 14 18 15 28 16 19 17 21 18 27 19 29 20 20 21 22 22
REMARK SMILES IDX 25 23 23 24 16 25 26 27 24 29 11 31 8 33 5 35 2 36 1 37 3 38
REMARK SMILES IDX 4 39
REMARK H PARENT 16 26 26 28 24 30 11 32 8 34 4 40
REMARK Flexibility Score: inf
ROOT
ATOM      1  C   UNL     1      15.647  16.319   3.417  1.00  0.00     0.038 C 
ENDROOT
BRANCH   1   2
ATOM      2  C   UNL     1      15.508  15.211   4.500  1.00  0.00     0.146 C 
BRANCH   2   3
ATOM      3  C   UNL     1      16.499  15.395   5.722  1.00  0.00     0.091 C 
ATOM      4  C   UNL     1      16.260  14.312   6.792  1.00  0.00     0.045 C 
BRANCH   3   5
ATOM      5  C   UNL     1      16.533  16.852   6.382  1.00  0.00     0.032 C 
ATOM      6  C   UNL     1      18.069  16.389   8.417  1.00  0.00     0.015 C 
ATOM      7  C   UNL     1      17.669  17.412   7.324  1.00  0.00     0.006 C 
ATOM      8  C   UNL     1      18.989  17.801   6.572  1.00  0.00     0.011 C 
ATOM      9  C   UNL     1      17.007  18.707   7.986  1.00  0.00     0.092 C 
ATOM     10  C   UNL     1      18.857  18.919   5.512  1.00  0.00     0.009 C 
ATOM     11  C   UNL     1      17.572  19.995   7.367  1.00  0.00    -0.031 C 
ATOM     12  C   UNL     1      15.489  18.626   7.678  1.00  0.00     0.041 C 
ATOM     13  C   UNL     1      15.236  17.246   7.098  1.00  0.00     0.010 C 
ATOM     14  C   UNL     1      17.790  19.991   5.857  1.00  0.00     0.025 C 
ATOM     15  C   UNL     1      17.995  21.028   8.131  1.00  0.00     0.050 C 
ATOM     16  C   UNL     1      18.032  21.431   5.261  1.00  0.00    -0.013 C 
ATOM     17  C   UNL     1      18.714  22.177   7.556  1.00  0.00     0.159 C 
ATOM     18  C   UNL     1      19.128  22.145   6.107  1.00  0.00     0.070 C 
ATOM     19  C   UNL     1      18.491  21.366   3.770  1.00  0.00     0.042 C 
ATOM     20  C   UNL     1      16.671  22.196   5.326  1.00  0.00     0.013 C 
ATOM     21  O   UNL     1      19.043  23.138   8.304  1.00  0.00    -0.295 OA
ATOM     22  C   UNL     1      19.497  23.538   5.551  1.00  0.00     0.047 C 
ATOM     23  C   UNL     1      18.878  22.748   3.198  1.00  0.00     0.143 C 
ATOM     24  C   UNL     1      19.945  23.441   4.080  1.00  0.00     0.143 C 
BRANCH   9  25
ATOM     25  O   UNL     1      17.217  18.742   9.386  1.00  0.00    -0.385 OA
ATOM     26  H   UNL     1      18.101  18.342   9.598  1.00  0.00     0.211 HD
ENDBRANCH   9  25
BRANCH  23  27
ATOM     27  O   UNL     1      19.340  22.617   1.876  1.00  0.00    -0.390 OA
ATOM     28  H   UNL     1      20.279  22.298   1.912  1.00  0.00     0.211 HD
ENDBRANCH  23  27
BRANCH  24  29
ATOM     29  O   UNL     1      20.257  24.715   3.576  1.00  0.00    -0.390 OA
ATOM     30  H   UNL     1      19.628  25.364   3.988  1.00  0.00     0.211 HD
ENDBRANCH  24  29
ENDBRANCH   3   5
BRANCH   3  31
ATOM     31  O   UNL     1      17.807  15.141   5.251  1.00  0.00    -0.387 OA
ATOM     32  H   UNL     1      18.193  14.388   5.770  1.00  0.00     0.211 HD
ENDBRANCH   3  31
ENDBRANCH   2   3
BRANCH   2  33
ATOM     33  O   UNL     1      15.606  13.942   3.910  1.00  0.00    -0.390 OA
ATOM     34  H   UNL     1      15.195  13.986   3.008  1.00  0.00     0.211 HD
ENDBRANCH   2  33
ENDBRANCH   1   2
BRANCH   1  35
ATOM     35  C   UNL     1      14.394  17.217   3.363  1.00  0.00     0.037 C 
BRANCH  35  36
ATOM     36  C   UNL     1      14.702  18.704   3.023  1.00  0.00     0.059 C 
ATOM     37  C   UNL     1      14.425  19.613   4.233  1.00  0.00     0.042 C 
ATOM     38  C   UNL     1      16.188  18.840   2.636  1.00  0.00     0.042 C 
BRANCH  36  39
ATOM     39  O   UNL     1      13.901  19.142   1.952  1.00  0.00    -0.390 OA
ATOM     40  H   UNL     1      12.957  18.917   2.163  1.00  0.00     0.211 HD
ENDBRANCH  36  39
ENDBRANCH  35  36
ENDBRANCH   1  35
TORSDOF 11
ENDMDL
MODEL 8
REMARK VINA RESULT:    -4.235      2.045      7.516
REMARK INTER + INTRA:          -7.631
REMARK INTER:                  -6.161
REMARK INTRA:                  -1.470
REMARK UNBOUND:                -1.415
REMARK SMILES CC(C)(O)CC[C@@H](O)[C@@](C)(O)[C@H]1CC[C@]2(O)C3=CC(=O)[C@@H]4C[C@H](O)[C@@H](O)C[C@@]4(C)[C@H]3CC[C@]12C
REMARK SMILES IDX 6 1 7 2 9 3 10 4 12 5 34 6 33 7 32 8 15 9 31 10 17 11 14 12
REMARK SMILES IDX 13 13 30 14 18 15 28 16 19 17 21 18 27 19 29 20 20 21 22 22
REMARK SMILES IDX 25 23 23 24 16 25 26 27 24 29 11 31 8 33 5 35 2 36 1 37 3 38
REMARK SMILES IDX 4 39
REMARK H PARENT 16 26 26 28 24 30 11 32 8 34 4 40
REMARK Flexibility Score: inf
ROOT
ATOM      1  C   UNL     1      15.316  11.518   5.230  1.00  0.00     0.038 C 
ENDROOT
BRANCH   1   2
ATOM      2  C   UNL     1      14.011  11.709   4.406  1.00  0.00     0.146 C 
BRANCH   2   3
ATOM      3  C   UNL     1      13.999  13.035   3.541  1.00  0.00     0.091 C 
ATOM      4  C   UNL     1      13.600  12.737   2.082  1.00  0.00     0.045 C 
BRANCH   3   5
ATOM      5  C   UNL     1      15.330  13.920   3.599  1.00  0.00     0.032 C 
ATOM      6  C   UNL     1      14.368  16.227   2.912  1.00  0.00     0.015 C 
ATOM      7  C   UNL     1      15.390  15.484   3.810  1.00  0.00     0.006 C 
ATOM      8  C   UNL     1      15.107  15.942   5.283  1.00  0.00     0.011 C 
ATOM      9  C   UNL     1      16.884  15.865   3.389  1.00  0.00     0.092 C 
ATOM     10  C   UNL     1      16.098  15.425   6.351  1.00  0.00     0.009 C 
ATOM     11  C   UNL     1      17.747  16.165   4.624  1.00  0.00    -0.031 C 
ATOM     12  C   UNL     1      17.461  14.623   2.660  1.00  0.00     0.041 C 
ATOM     13  C   UNL     1      16.301  13.670   2.439  1.00  0.00     0.010 C 
ATOM     14  C   UNL     1      17.551  15.257   5.833  1.00  0.00     0.025 C 
ATOM     15  C   UNL     1      18.534  17.262   4.695  1.00  0.00     0.050 C 
ATOM     16  C   UNL     1      18.695  15.400   6.910  1.00  0.00    -0.013 C 
ATOM     17  C   UNL     1      19.208  17.656   5.944  1.00  0.00     0.159 C 
ATOM     18  C   UNL     1      18.904  16.912   7.219  1.00  0.00     0.070 C 
ATOM     19  C   UNL     1      18.338  14.646   8.231  1.00  0.00     0.042 C 
ATOM     20  C   UNL     1      19.984  14.756   6.307  1.00  0.00     0.013 C 
ATOM     21  O   UNL     1      19.970  18.661   5.945  1.00  0.00    -0.295 OA
ATOM     22  C   UNL     1      19.953  17.154   8.327  1.00  0.00     0.047 C 
ATOM     23  C   UNL     1      19.368  14.887   9.357  1.00  0.00     0.143 C 
ATOM     24  C   UNL     1      19.573  16.400   9.615  1.00  0.00     0.143 C 
BRANCH   9  25
ATOM     25  O   UNL     1      16.911  16.990   2.527  1.00  0.00    -0.385 OA
ATOM     26  H   UNL     1      16.800  17.819   3.062  1.00  0.00     0.211 HD
ENDBRANCH   9  25
BRANCH  23  27
ATOM     27  O   UNL     1      18.962  14.236  10.536  1.00  0.00    -0.390 OA
ATOM     28  H   UNL     1      18.988  13.258  10.367  1.00  0.00     0.211 HD
ENDBRANCH  23  27
BRANCH  24  29
ATOM     29  O   UNL     1      20.543  16.608  10.611  1.00  0.00    -0.390 OA
ATOM     30  H   UNL     1      20.223  16.164  11.440  1.00  0.00     0.211 HD
ENDBRANCH  24  29
ENDBRANCH   3   5
BRANCH   3  31
ATOM     31  O   UNL     1      12.956  13.853   4.030  1.00  0.00    -0.387 OA
ATOM     32  H   UNL     1      12.272  13.959   3.317  1.00  0.00     0.211 HD
ENDBRANCH   3  31
ENDBRANCH   2   3
BRANCH   2  33
ATOM     33  O   UNL     1      12.890  11.597   5.242  1.00  0.00    -0.390 OA
ATOM     34  H   UNL     1      13.159  11.102   6.059  1.00  0.00     0.211 HD
ENDBRANCH   2  33
ENDBRANCH   1   2
BRANCH   1  35
ATOM     35  C   UNL     1      16.037  10.208   4.852  1.00  0.00     0.037 C 
BRANCH  35  36
ATOM     36  C   UNL     1      17.588  10.330   4.825  1.00  0.00     0.059 C 
ATOM     37  C   UNL     1      18.150   9.896   3.460  1.00  0.00     0.042 C 
ATOM     38  C   UNL     1      17.987  11.799   5.076  1.00  0.00     0.042 C 
BRANCH  36  39
ATOM     39  O   UNL     1      18.166   9.516   5.817  1.00  0.00    -0.390 OA
ATOM     40  H   UNL     1      17.707   8.635   5.796  1.00  0.00     0.211 HD
ENDBRANCH  36  39
ENDBRANCH  35  36
ENDBRANCH   1  35
TORSDOF 11
ENDMDL
MODEL 9
REMARK VINA RESULT:    -4.127      2.893      7.498
REMARK INTER + INTRA:          -7.471
REMARK INTER:                  -6.435
REMARK INTRA:                  -1.036
REMARK UNBOUND:                -1.415
REMARK SMILES CC(C)(O)CC[C@@H](O)[C@@](C)(O)[C@H]1CC[C@]2(O)C3=CC(=O)[C@@H]4C[C@H](O)[C@@H](O)C[C@@]4(C)[C@H]3CC[C@]12C
REMARK SMILES IDX 6 1 7 2 9 3 10 4 12 5 34 6 33 7 32 8 15 9 31 10 17 11 14 12
REMARK SMILES IDX 13 13 30 14 18 15 28 16 19 17 21 18 27 19 29 20 20 21 22 22
REMARK SMILES IDX 25 23 23 24 16 25 26 27 24 29 11 31 8 33 5 35 2 36 1 37 3 38
REMARK SMILES IDX 4 39
REMARK H PARENT 16 26 26 28 24 30 11 32 8 34 4 40
REMARK Flexibility Score: inf
ROOT
ATOM      1  C   UNL     1      13.924  18.930   2.811  1.00  0.00     0.038 C 
ENDROOT
BRANCH   1   2
ATOM      2  C   UNL     1      15.085  18.171   2.109  1.00  0.00     0.146 C 
BRANCH   2   3
ATOM      3  C   UNL     1      15.449  16.793   2.800  1.00  0.00     0.091 C 
ATOM      4  C   UNL     1      14.337  15.750   2.568  1.00  0.00     0.045 C 
BRANCH   3   5
ATOM      5  C   UNL     1      15.843  16.870   4.349  1.00  0.00     0.032 C 
ATOM      6  C   UNL     1      17.640  15.005   4.448  1.00  0.00     0.015 C 
ATOM      7  C   UNL     1      17.214  16.399   4.976  1.00  0.00     0.006 C 
ATOM      8  C   UNL     1      18.413  17.370   4.695  1.00  0.00     0.011 C 
ATOM      9  C   UNL     1      16.909  16.334   6.543  1.00  0.00     0.092 C 
ATOM     10  C   UNL     1      18.266  18.802   5.259  1.00  0.00     0.009 C 
ATOM     11  C   UNL     1      17.549  17.520   7.281  1.00  0.00    -0.031 C 
ATOM     12  C   UNL     1      15.367  16.422   6.691  1.00  0.00     0.041 C 
ATOM     13  C   UNL     1      14.787  16.287   5.295  1.00  0.00     0.010 C 
ATOM     14  C   UNL     1      17.473  18.877   6.590  1.00  0.00     0.025 C 
ATOM     15  C   UNL     1      18.270  17.351   8.412  1.00  0.00     0.050 C 
ATOM     16  C   UNL     1      17.829  20.081   7.545  1.00  0.00    -0.013 C 
ATOM     17  C   UNL     1      19.046  18.451   9.012  1.00  0.00     0.159 C 
ATOM     18  C   UNL     1      19.167  19.761   8.276  1.00  0.00     0.070 C 
ATOM     19  C   UNL     1      17.980  21.418   6.752  1.00  0.00     0.042 C 
ATOM     20  C   UNL     1      16.648  20.238   8.556  1.00  0.00     0.013 C 
ATOM     21  O   UNL     1      19.662  18.255  10.093  1.00  0.00    -0.295 OA
ATOM     22  C   UNL     1      19.646  20.920   9.178  1.00  0.00     0.047 C 
ATOM     23  C   UNL     1      18.472  22.588   7.634  1.00  0.00     0.143 C 
ATOM     24  C   UNL     1      19.785  22.223   8.368  1.00  0.00     0.143 C 
BRANCH   9  25
ATOM     25  O   UNL     1      17.383  15.128   7.117  1.00  0.00    -0.385 OA
ATOM     26  H   UNL     1      16.726  14.402   6.952  1.00  0.00     0.211 HD
ENDBRANCH   9  25
BRANCH  23  27
ATOM     27  O   UNL     1      18.647  23.746   6.854  1.00  0.00    -0.390 OA
ATOM     28  H   UNL     1      18.033  24.443   7.203  1.00  0.00     0.211 HD
ENDBRANCH  23  27
BRANCH  24  29
ATOM     29  O   UNL     1      20.200  23.277   9.200  1.00  0.00    -0.390 OA
ATOM     30  H   UNL     1      19.746  24.104   8.887  1.00  0.00     0.211 HD
ENDBRANCH  24  29
ENDBRANCH   3   5
BRANCH   3  31
ATOM     31  O   UNL     1      16.573  16.263   2.129  1.00  0.00    -0.387 OA
ATOM     32  H   UNL     1      17.191  15.872   2.799  1.00  0.00     0.211 HD
ENDBRANCH   3  31
ENDBRANCH   2   3
BRANCH   2  33
ATOM     33  O   UNL     1      16.197  19.014   1.965  1.00  0.00    -0.390 OA
ATOM     34  H   UNL     1      16.149  19.716   2.665  1.00  0.00     0.211 HD
ENDBRANCH   2  33
ENDBRANCH   1   2
BRANCH   1  35
ATOM     35  C   UNL     1      13.762  20.358   2.252  1.00  0.00     0.037 C 
BRANCH  35  36
ATOM     36  C   UNL     1      13.944  21.476   3.319  1.00  0.00     0.059 C 
ATOM     37  C   UNL     1      12.582  21.975   3.832  1.00  0.00     0.042 C 
ATOM     38  C   UNL     1      14.742  20.913   4.513  1.00  0.00     0.042 C 
BRANCH  36  39
ATOM     39  O   UNL     1      14.638  22.572   2.774  1.00  0.00    -0.390 OA
ATOM     40  H   UNL     1      14.815  23.218   3.508  1.00  0.00     0.211 HD
ENDBRANCH  36  39
ENDBRANCH  35  36
ENDBRANCH   1  35
TORSDOF 11
ENDMDL
