MODEL 1
REMARK VINA RESULT:    -4.969      0.000      0.000
REMARK INTER + INTRA:          -9.500
REMARK INTER:                  -8.455
REMARK INTRA:                  -1.044
REMARK UNBOUND:                -1.044
REMARK SMILES CCCCCCCCCCCCCC(=O)[O-]
REMARK SMILES IDX 8 1 9 2 10 3 11 4 12 5 13 6 14 7 15 8 16 9 7 10 6 11 5 12
REMARK SMILES IDX 4 13 3 14 2 15 1 16
REMARK H PARENT
REMARK Flexibility Score: inf
ROOT
ATOM      1  C   UNL     1      -5.754  35.888  20.679  1.00  0.00     0.000 C 
ENDROOT
BRANCH   1   2
ATOM      2  C   UNL     1      -4.765  35.456  21.768  1.00  0.00     0.000 C 
BRANCH   2   3
ATOM      3  C   UNL     1      -5.495  35.129  23.076  1.00  0.00     0.000 C 
BRANCH   3   4
ATOM      4  C   UNL     1      -6.056  36.400  23.727  1.00  0.00     0.000 C 
BRANCH   4   5
ATOM      5  C   UNL     1      -4.922  37.307  24.228  1.00  0.00     0.006 C 
BRANCH   5   6
ATOM      6  C   UNL     1      -5.196  38.790  23.940  1.00  0.00     0.053 C 
BRANCH   6   7
ATOM      7  C   UNL     1      -4.974  39.125  22.497  1.00  0.00     0.041 C 
ATOM      8  O   UNL     1      -3.918  38.758  21.916  1.00  0.00    -0.550 OA
ATOM      9  O   UNL     1      -5.948  39.813  21.784  1.00  0.00    -0.550 OA
ENDBRANCH   6   7
ENDBRANCH   5   6
ENDBRANCH   4   5
ENDBRANCH   3   4
ENDBRANCH   2   3
ENDBRANCH   1   2
BRANCH   1  10
ATOM     10  C   UNL     1      -5.022  36.551  19.502  1.00  0.00     0.000 C 
BRANCH  10  11
ATOM     11  C   UNL     1      -3.513  36.263  19.507  1.00  0.00    -0.000 C 
BRANCH  11  12
ATOM     12  C   UNL     1      -2.715  37.274  18.665  1.00  0.00    -0.000 C 
BRANCH  12  13
ATOM     13  C   UNL     1      -3.132  37.276  17.186  1.00  0.00    -0.000 C 
BRANCH  13  14
ATOM     14  C   UNL     1      -2.125  36.537  16.288  1.00  0.00    -0.000 C 
BRANCH  14  15
ATOM     15  C   UNL     1      -2.626  36.386  14.843  1.00  0.00    -0.003 C 
ATOM     16  C   UNL     1      -3.780  37.333  14.513  1.00  0.00     0.004 C 
ENDBRANCH  14  15
ENDBRANCH  13  14
ENDBRANCH  12  13
ENDBRANCH  11  12
ENDBRANCH  10  11
ENDBRANCH   1  10
TORSDOF 12
ENDMDL
MODEL 2
REMARK VINA RESULT:    -4.866      2.668      6.362
REMARK INTER + INTRA:          -9.324
REMARK INTER:                  -7.841
REMARK INTRA:                  -1.484
REMARK UNBOUND:                -1.044
REMARK SMILES CCCCCCCCCCCCCC(=O)[O-]
REMARK SMILES IDX 8 1 9 2 10 3 11 4 12 5 13 6 14 7 15 8 16 9 7 10 6 11 5 12
REMARK SMILES IDX 4 13 3 14 2 15 1 16
REMARK H PARENT
REMARK Flexibility Score: inf
ROOT
ATOM      1  C   UNL     1      -6.125  35.306  21.428  1.00  0.00     0.000 C 
ENDROOT
BRANCH   1   2
ATOM      2  C   UNL     1      -5.365  35.765  20.177  1.00  0.00     0.000 C 
BRANCH   2   3
ATOM      3  C   UNL     1      -3.932  36.183  20.527  1.00  0.00     0.000 C 
BRANCH   3   4
ATOM      4  C   UNL     1      -3.391  37.199  19.513  1.00  0.00     0.000 C 
BRANCH   4   5
ATOM      5  C   UNL     1      -3.539  36.675  18.077  1.00  0.00     0.006 C 
BRANCH   5   6
ATOM      6  C   UNL     1      -2.284  36.938  17.232  1.00  0.00     0.053 C 
BRANCH   6   7
ATOM      7  C   UNL     1      -2.599  36.976  15.768  1.00  0.00     0.041 C 
ATOM      8  O   UNL     1      -1.967  36.240  14.965  1.00  0.00    -0.550 OA
ATOM      9  O   UNL     1      -3.613  37.799  15.296  1.00  0.00    -0.550 OA
ENDBRANCH   6   7
ENDBRANCH   5   6
ENDBRANCH   4   5
ENDBRANCH   3   4
ENDBRANCH   2   3
ENDBRANCH   1   2
BRANCH   1  10
ATOM     10  C   UNL     1      -5.214  35.331  22.665  1.00  0.00     0.000 C 
BRANCH  10  11
ATOM     11  C   UNL     1      -6.005  35.294  23.982  1.00  0.00    -0.000 C 
BRANCH  11  12
ATOM     12  C   UNL     1      -6.008  36.650  24.709  1.00  0.00    -0.000 C 
BRANCH  12  13
ATOM     13  C   UNL     1      -4.710  37.443  24.492  1.00  0.00    -0.000 C 
BRANCH  13  14
ATOM     14  C   UNL     1      -4.972  38.887  24.028  1.00  0.00    -0.000 C 
BRANCH  14  15
ATOM     15  C   UNL     1      -4.569  39.116  22.563  1.00  0.00    -0.003 C 
ATOM     16  C   UNL     1      -5.772  39.302  21.638  1.00  0.00     0.004 C 
ENDBRANCH  14  15
ENDBRANCH  13  14
ENDBRANCH  12  13
ENDBRANCH  11  12
ENDBRANCH  10  11
ENDBRANCH   1  10
TORSDOF 12
ENDMDL
MODEL 3
REMARK VINA RESULT:    -4.813      0.649      1.153
REMARK INTER + INTRA:          -9.233
REMARK INTER:                  -8.352
REMARK INTRA:                  -0.882
REMARK UNBOUND:                -1.044
REMARK SMILES CCCCCCCCCCCCCC(=O)[O-]
REMARK SMILES IDX 8 1 9 2 10 3 11 4 12 5 13 6 14 7 15 8 16 9 7 10 6 11 5 12
REMARK SMILES IDX 4 13 3 14 2 15 1 16
REMARK H PARENT
REMARK Flexibility Score: inf
ROOT
ATOM      1  C   UNL     1      -5.634  36.427  20.046  1.00  0.00     0.000 C 
ENDROOT
BRANCH   1   2
ATOM      2  C   UNL     1      -6.068  35.326  21.021  1.00  0.00     0.000 C 
BRANCH   2   3
ATOM      3  C   UNL     1      -5.334  35.458  22.361  1.00  0.00     0.000 C 
BRANCH   3   4
ATOM      4  C   UNL     1      -6.011  36.500  23.260  1.00  0.00     0.000 C 
BRANCH   4   5
ATOM      5  C   UNL     1      -4.983  37.200  24.161  1.00  0.00     0.006 C 
BRANCH   5   6
ATOM      6  C   UNL     1      -5.004  38.726  23.987  1.00  0.00     0.053 C 
BRANCH   6   7
ATOM      7  C   UNL     1      -4.906  39.121  22.546  1.00  0.00     0.041 C 
ATOM      8  O   UNL     1      -5.806  39.826  22.019  1.00  0.00    -0.550 OA
ATOM      9  O   UNL     1      -3.802  38.738  21.793  1.00  0.00    -0.550 OA
ENDBRANCH   6   7
ENDBRANCH   5   6
ENDBRANCH   4   5
ENDBRANCH   3   4
ENDBRANCH   2   3
ENDBRANCH   1   2
BRANCH   1  10
ATOM     10  C   UNL     1      -4.245  36.128  19.461  1.00  0.00     0.000 C 
BRANCH  10  11
ATOM     11  C   UNL     1      -3.756  37.228  18.507  1.00  0.00    -0.000 C 
BRANCH  11  12
ATOM     12  C   UNL     1      -2.243  37.151  18.241  1.00  0.00    -0.000 C 
BRANCH  12  13
ATOM     13  C   UNL     1      -1.913  36.758  16.792  1.00  0.00    -0.000 C 
BRANCH  13  14
ATOM     14  C   UNL     1      -3.118  36.143  16.060  1.00  0.00    -0.000 C 
BRANCH  14  15
ATOM     15  C   UNL     1      -3.106  36.443  14.553  1.00  0.00    -0.003 C 
ATOM     16  C   UNL     1      -4.010  37.615  14.174  1.00  0.00     0.004 C 
ENDBRANCH  14  15
ENDBRANCH  13  14
ENDBRANCH  12  13
ENDBRANCH  11  12
ENDBRANCH  10  11
ENDBRANCH   1  10
TORSDOF 12
ENDMDL
MODEL 4
REMARK VINA RESULT:    -4.586      0.797      1.447
REMARK INTER + INTRA:          -8.847
REMARK INTER:                  -7.792
REMARK INTRA:                  -1.055
REMARK UNBOUND:                -1.044
REMARK SMILES CCCCCCCCCCCCCC(=O)[O-]
REMARK SMILES IDX 8 1 9 2 10 3 11 4 12 5 13 6 14 7 15 8 16 9 7 10 6 11 5 12
REMARK SMILES IDX 4 13 3 14 2 15 1 16
REMARK H PARENT
REMARK Flexibility Score: inf
ROOT
ATOM      1  C   UNL     1      -4.258  35.314  21.778  1.00  0.00     0.000 C 
ENDROOT
BRANCH   1   2
ATOM      2  C   UNL     1      -5.702  35.587  22.213  1.00  0.00     0.000 C 
BRANCH   2   3
ATOM      3  C   UNL     1      -5.878  35.352  23.717  1.00  0.00     0.000 C 
BRANCH   3   4
ATOM      4  C   UNL     1      -6.125  36.673  24.457  1.00  0.00     0.000 C 
BRANCH   4   5
ATOM      5  C   UNL     1      -4.898  37.592  24.365  1.00  0.00     0.006 C 
BRANCH   5   6
ATOM      6  C   UNL     1      -5.272  39.016  23.929  1.00  0.00     0.053 C 
BRANCH   6   7
ATOM      7  C   UNL     1      -5.050  39.223  22.463  1.00  0.00     0.041 C 
ATOM      8  O   UNL     1      -5.888  39.868  21.779  1.00  0.00    -0.550 OA
ATOM      9  O   UNL     1      -3.899  38.733  21.858  1.00  0.00    -0.550 OA
ENDBRANCH   6   7
ENDBRANCH   5   6
ENDBRANCH   4   5
ENDBRANCH   3   4
ENDBRANCH   2   3
ENDBRANCH   1   2
BRANCH   1  10
ATOM     10  C   UNL     1      -4.115  35.410  20.252  1.00  0.00     0.000 C 
BRANCH  10  11
ATOM     11  C   UNL     1      -5.012  36.497  19.641  1.00  0.00    -0.000 C 
BRANCH  11  12
ATOM     12  C   UNL     1      -4.248  37.422  18.676  1.00  0.00    -0.000 C 
BRANCH  12  13
ATOM     13  C   UNL     1      -2.723  37.262  18.783  1.00  0.00    -0.000 C 
BRANCH  13  14
ATOM     14  C   UNL     1      -2.073  36.897  17.437  1.00  0.00    -0.000 C 
BRANCH  14  15
ATOM     15  C   UNL     1      -3.105  36.738  16.310  1.00  0.00    -0.003 C 
ATOM     16  C   UNL     1      -2.461  36.465  14.950  1.00  0.00     0.004 C 
ENDBRANCH  14  15
ENDBRANCH  13  14
ENDBRANCH  12  13
ENDBRANCH  11  12
ENDBRANCH  10  11
ENDBRANCH   1  10
TORSDOF 12
ENDMDL
MODEL 5
REMARK VINA RESULT:    -4.409      2.441      6.036
REMARK INTER + INTRA:          -8.546
REMARK INTER:                  -7.079
REMARK INTRA:                  -1.467
REMARK UNBOUND:                -1.044
REMARK SMILES CCCCCCCCCCCCCC(=O)[O-]
REMARK SMILES IDX 8 1 9 2 10 3 11 4 12 5 13 6 14 7 15 8 16 9 7 10 6 11 5 12
REMARK SMILES IDX 4 13 3 14 2 15 1 16
REMARK H PARENT
REMARK Flexibility Score: inf
ROOT
ATOM      1  C   UNL     1      -4.488  34.700  22.354  1.00  0.00     0.000 C 
ENDROOT
BRANCH   1   2
ATOM      2  C   UNL     1      -4.136  35.458  21.069  1.00  0.00     0.000 C 
BRANCH   2   3
ATOM      3  C   UNL     1      -5.402  35.875  20.312  1.00  0.00     0.000 C 
BRANCH   3   4
ATOM      4  C   UNL     1      -5.170  37.166  19.517  1.00  0.00     0.000 C 
BRANCH   4   5
ATOM      5  C   UNL     1      -3.681  37.348  19.186  1.00  0.00     0.006 C 
BRANCH   5   6
ATOM      6  C   UNL     1      -3.416  37.326  17.675  1.00  0.00     0.053 C 
BRANCH   6   7
ATOM      7  C   UNL     1      -2.019  36.885  17.363  1.00  0.00     0.041 C 
ATOM      8  O   UNL     1      -1.784  36.210  16.326  1.00  0.00    -0.550 OA
ATOM      9  O   UNL     1      -0.972  37.249  18.200  1.00  0.00    -0.550 OA
ENDBRANCH   6   7
ENDBRANCH   5   6
ENDBRANCH   4   5
ENDBRANCH   3   4
ENDBRANCH   2   3
ENDBRANCH   1   2
BRANCH   1  10
ATOM     10  C   UNL     1      -5.941  34.972  22.773  1.00  0.00     0.000 C 
BRANCH  10  11
ATOM     11  C   UNL     1      -6.124  34.987  24.298  1.00  0.00    -0.000 C 
BRANCH  11  12
ATOM     12  C   UNL     1      -6.034  36.404  24.891  1.00  0.00    -0.000 C 
BRANCH  12  13
ATOM     13  C   UNL     1      -5.936  37.494  23.813  1.00  0.00    -0.000 C 
BRANCH  13  14
ATOM     14  C   UNL     1      -4.623  38.292  23.899  1.00  0.00    -0.000 C 
BRANCH  14  15
ATOM     15  C   UNL     1      -4.405  39.200  22.678  1.00  0.00    -0.003 C 
ATOM     16  C   UNL     1      -5.701  39.505  21.927  1.00  0.00     0.004 C 
ENDBRANCH  14  15
ENDBRANCH  13  14
ENDBRANCH  12  13
ENDBRANCH  11  12
ENDBRANCH  10  11
ENDBRANCH   1  10
TORSDOF 12
ENDMDL
MODEL 6
REMARK VINA RESULT:    -4.209      1.994      2.639
REMARK INTER + INTRA:          -8.206
REMARK INTER:                  -7.658
REMARK INTRA:                  -0.548
REMARK UNBOUND:                -1.044
REMARK SMILES CCCCCCCCCCCCCC(=O)[O-]
REMARK SMILES IDX 8 1 9 2 10 3 11 4 12 5 13 6 14 7 15 8 16 9 7 10 6 11 5 12
REMARK SMILES IDX 4 13 3 14 2 15 1 16
REMARK H PARENT
REMARK Flexibility Score: inf
ROOT
ATOM      1  C   UNL     1      -5.364  36.150  20.735  1.00  0.00     0.000 C 
ENDROOT
BRANCH   1   2
ATOM      2  C   UNL     1      -5.311  37.667  20.517  1.00  0.00     0.000 C 
BRANCH   2   3
ATOM      3  C   UNL     1      -4.220  38.309  21.382  1.00  0.00     0.000 C 
BRANCH   3   4
ATOM      4  C   UNL     1      -4.819  39.330  22.357  1.00  0.00     0.000 C 
BRANCH   4   5
ATOM      5  C   UNL     1      -4.891  38.756  23.780  1.00  0.00     0.006 C 
BRANCH   5   6
ATOM      6  C   UNL     1      -5.869  37.577  23.880  1.00  0.00     0.053 C 
BRANCH   6   7
ATOM      7  C   UNL     1      -5.418  36.567  24.890  1.00  0.00     0.041 C 
ATOM      8  O   UNL     1      -4.508  36.855  25.712  1.00  0.00    -0.550 OA
ATOM      9  O   UNL     1      -6.026  35.319  24.945  1.00  0.00    -0.550 OA
ENDBRANCH   6   7
ENDBRANCH   5   6
ENDBRANCH   4   5
ENDBRANCH   3   4
ENDBRANCH   2   3
ENDBRANCH   1   2
BRANCH   1  10
ATOM     10  C   UNL     1      -4.230  35.445  19.974  1.00  0.00     0.000 C 
BRANCH  10  11
ATOM     11  C   UNL     1      -4.479  35.392  18.459  1.00  0.00    -0.000 C 
BRANCH  11  12
ATOM     12  C   UNL     1      -3.469  36.238  17.663  1.00  0.00    -0.000 C 
BRANCH  12  13
ATOM     13  C   UNL     1      -3.048  35.574  16.343  1.00  0.00    -0.000 C 
BRANCH  13  14
ATOM     14  C   UNL     1      -2.092  36.454  15.519  1.00  0.00    -0.000 C 
BRANCH  14  15
ATOM     15  C   UNL     1      -2.629  36.747  14.110  1.00  0.00    -0.003 C 
ATOM     16  C   UNL     1      -4.007  37.408  14.126  1.00  0.00     0.004 C 
ENDBRANCH  14  15
ENDBRANCH  13  14
ENDBRANCH  12  13
ENDBRANCH  11  12
ENDBRANCH  10  11
ENDBRANCH   1  10
TORSDOF 12
ENDMDL
MODEL 7
REMARK VINA RESULT:    -4.193      2.936      6.837
REMARK INTER + INTRA:          -8.178
REMARK INTER:                  -7.289
REMARK INTRA:                  -0.889
REMARK UNBOUND:                -1.044
REMARK SMILES CCCCCCCCCCCCCC(=O)[O-]
REMARK SMILES IDX 8 1 9 2 10 3 11 4 12 5 13 6 14 7 15 8 16 9 7 10 6 11 5 12
REMARK SMILES IDX 4 13 3 14 2 15 1 16
REMARK H PARENT
REMARK Flexibility Score: inf
ROOT
ATOM      1  C   UNL     1      -4.458  37.896  21.113  1.00  0.00     0.000 C 
ENDROOT
BRANCH   1   2
ATOM      2  C   UNL     1      -5.232  36.957  20.180  1.00  0.00     0.000 C 
BRANCH   2   3
ATOM      3  C   UNL     1      -4.410  36.622  18.930  1.00  0.00     0.000 C 
BRANCH   3   4
ATOM      4  C   UNL     1      -2.983  37.174  19.045  1.00  0.00     0.000 C 
BRANCH   4   5
ATOM      5  C   UNL     1      -2.254  37.098  17.695  1.00  0.00     0.006 C 
BRANCH   5   6
ATOM      6  C   UNL     1      -3.113  37.634  16.541  1.00  0.00     0.053 C 
BRANCH   6   7
ATOM      7  C   UNL     1      -2.987  36.783  15.315  1.00  0.00     0.041 C 
ATOM      8  O   UNL     1      -1.937  36.117  15.110  1.00  0.00    -0.550 OA
ATOM      9  O   UNL     1      -4.042  36.700  14.415  1.00  0.00    -0.550 OA
ENDBRANCH   6   7
ENDBRANCH   5   6
ENDBRANCH   4   5
ENDBRANCH   3   4
ENDBRANCH   2   3
ENDBRANCH   1   2
BRANCH   1  10
ATOM     10  C   UNL     1      -5.393  38.943  21.738  1.00  0.00     0.000 C 
BRANCH  10  11
ATOM     11  C   UNL     1      -4.975  39.332  23.164  1.00  0.00    -0.000 C 
BRANCH  11  12
ATOM     12  C   UNL     1      -4.893  38.120  24.109  1.00  0.00    -0.000 C 
BRANCH  12  13
ATOM     13  C   UNL     1      -6.125  37.207  24.011  1.00  0.00    -0.000 C 
BRANCH  13  14
ATOM     14  C   UNL     1      -5.952  35.897  24.800  1.00  0.00    -0.000 C 
BRANCH  14  15
ATOM     15  C   UNL     1      -6.056  34.653  23.905  1.00  0.00    -0.003 C 
ATOM     16  C   UNL     1      -5.000  34.626  22.800  1.00  0.00     0.004 C 
ENDBRANCH  14  15
ENDBRANCH  13  14
ENDBRANCH  12  13
ENDBRANCH  11  12
ENDBRANCH  10  11
ENDBRANCH   1  10
TORSDOF 12
ENDMDL
MODEL 8
REMARK VINA RESULT:    -3.973      2.839      6.789
REMARK INTER + INTRA:          -7.805
REMARK INTER:                  -6.758
REMARK INTRA:                  -1.047
REMARK UNBOUND:                -1.044
REMARK SMILES CCCCCCCCCCCCCC(=O)[O-]
REMARK SMILES IDX 8 1 9 2 10 3 11 4 12 5 13 6 14 7 15 8 16 9 7 10 6 11 5 12
REMARK SMILES IDX 4 13 3 14 2 15 1 16
REMARK H PARENT
REMARK Flexibility Score: inf
ROOT
ATOM      1  C   UNL     1      -4.142  36.053  21.437  1.00  0.00     0.000 C 
ENDROOT
BRANCH   1   2
ATOM      2  C   UNL     1      -3.873  35.123  20.249  1.00  0.00     0.000 C 
BRANCH   2   3
ATOM      3  C   UNL     1      -4.853  35.398  19.101  1.00  0.00     0.000 C 
BRANCH   3   4
ATOM      4  C   UNL     1      -4.105  35.646  17.785  1.00  0.00     0.000 C 
BRANCH   4   5
ATOM      5  C   UNL     1      -3.246  36.917  17.871  1.00  0.00     0.006 C 
BRANCH   5   6
ATOM      6  C   UNL     1      -2.324  37.077  16.654  1.00  0.00     0.053 C 
BRANCH   6   7
ATOM      7  C   UNL     1      -3.100  37.123  15.373  1.00  0.00     0.041 C 
ATOM      8  O   UNL     1      -3.781  38.142  15.080  1.00  0.00    -0.550 OA
ATOM      9  O   UNL     1      -3.044  36.054  14.488  1.00  0.00    -0.550 OA
ENDBRANCH   6   7
ENDBRANCH   5   6
ENDBRANCH   4   5
ENDBRANCH   3   4
ENDBRANCH   2   3
ENDBRANCH   1   2
BRANCH   1  10
ATOM     10  C   UNL     1      -5.413  36.885  21.208  1.00  0.00     0.000 C 
BRANCH  10  11
ATOM     11  C   UNL     1      -5.110  38.370  20.953  1.00  0.00    -0.000 C 
BRANCH  11  12
ATOM     12  C   UNL     1      -5.004  39.185  22.254  1.00  0.00    -0.000 C 
BRANCH  12  13
ATOM     13  C   UNL     1      -5.630  38.465  23.458  1.00  0.00    -0.000 C 
BRANCH  13  14
ATOM     14  C   UNL     1      -4.578  38.005  24.483  1.00  0.00    -0.000 C 
BRANCH  14  15
ATOM     15  C   UNL     1      -5.106  36.901  25.413  1.00  0.00    -0.003 C 
ATOM     16  C   UNL     1      -6.124  35.988  24.731  1.00  0.00     0.004 C 
ENDBRANCH  14  15
ENDBRANCH  13  14
ENDBRANCH  12  13
ENDBRANCH  11  12
ENDBRANCH  10  11
ENDBRANCH   1  10
TORSDOF 12
ENDMDL
