MODEL 1
REMARK VINA RESULT:    -3.211      0.000      0.000
REMARK INTER + INTRA:          -8.780
REMARK INTER:                  -5.839
REMARK INTRA:                  -2.941
REMARK UNBOUND:                -2.941
REMARK SMILES CCCCCCCCCCCCCCCC(=O)[O-]
REMARK SMILES IDX 9 1 10 2 11 3 12 4 13 5 14 6 15 7 16 8 17 9 18 10 8 11 7 12
REMARK SMILES IDX 6 13 5 14 4 15 3 16 2 17 1 18
REMARK H PARENT
REMARK Flexibility Score: inf
ROOT
ATOM      1  C   UNL     1      17.505  11.920  28.622  1.00  0.00     0.000 C 
ENDROOT
BRANCH   1   2
ATOM      2  C   UNL     1      18.120  12.751  27.489  1.00  0.00     0.000 C 
BRANCH   2   3
ATOM      3  C   UNL     1      19.081  13.810  28.042  1.00  0.00     0.000 C 
BRANCH   3   4
ATOM      4  C   UNL     1      18.994  15.110  27.230  1.00  0.00     0.000 C 
BRANCH   4   5
ATOM      5  C   UNL     1      18.243  14.930  25.901  1.00  0.00     0.000 C 
BRANCH   5   6
ATOM      6  C   UNL     1      17.525  16.213  25.447  1.00  0.00     0.006 C 
BRANCH   6   7
ATOM      7  C   UNL     1      16.000  16.052  25.445  1.00  0.00     0.053 C 
BRANCH   7   8
ATOM      8  C   UNL     1      15.533  15.201  24.304  1.00  0.00     0.041 C 
ATOM      9  O   UNL     1      16.143  15.228  23.203  1.00  0.00    -0.550 OA
ATOM     10  O   UNL     1      14.446  14.353  24.468  1.00  0.00    -0.550 OA
ENDBRANCH   7   8
ENDBRANCH   6   7
ENDBRANCH   5   6
ENDBRANCH   4   5
ENDBRANCH   3   4
ENDBRANCH   2   3
ENDBRANCH   1   2
BRANCH   1  11
ATOM     11  C   UNL     1      15.977  12.045  28.629  1.00  0.00     0.000 C 
BRANCH  11  12
ATOM     12  C   UNL     1      15.496  13.000  27.530  1.00  0.00    -0.000 C 
BRANCH  12  13
ATOM     13  C   UNL     1      14.427  13.963  28.067  1.00  0.00    -0.000 C 
BRANCH  13  14
ATOM     14  C   UNL     1      14.856  14.677  29.362  1.00  0.00    -0.000 C 
BRANCH  14  15
ATOM     15  C   UNL     1      15.940  15.758  29.184  1.00  0.00    -0.000 C 
BRANCH  15  16
ATOM     16  C   UNL     1      16.982  15.753  30.315  1.00  0.00    -0.000 C 
BRANCH  16  17
ATOM     17  C   UNL     1      16.896  14.493  31.190  1.00  0.00    -0.003 C 
ATOM     18  C   UNL     1      18.244  14.090  31.785  1.00  0.00     0.004 C 
ENDBRANCH  16  17
ENDBRANCH  15  16
ENDBRANCH  14  15
ENDBRANCH  13  14
ENDBRANCH  12  13
ENDBRANCH  11  12
ENDBRANCH   1  11
TORSDOF 14
ENDMDL
MODEL 2
REMARK VINA RESULT:    -3.159      3.029      5.626
REMARK INTER + INTRA:          -8.686
REMARK INTER:                  -6.686
REMARK INTRA:                  -2.000
REMARK UNBOUND:                -2.941
REMARK SMILES CCCCCCCCCCCCCCCC(=O)[O-]
REMARK SMILES IDX 9 1 10 2 11 3 12 4 13 5 14 6 15 7 16 8 17 9 18 10 8 11 7 12
REMARK SMILES IDX 6 13 5 14 4 15 3 16 2 17 1 18
REMARK H PARENT
REMARK Flexibility Score: inf
ROOT
ATOM      1  C   UNL     1      17.465  13.079  32.255  1.00  0.00     0.000 C 
ENDROOT
BRANCH   1   2
ATOM      2  C   UNL     1      17.495  12.128  31.053  1.00  0.00     0.000 C 
BRANCH   2   3
ATOM      3  C   UNL     1      16.106  11.537  30.783  1.00  0.00     0.000 C 
BRANCH   3   4
ATOM      4  C   UNL     1      15.030  12.260  31.606  1.00  0.00     0.000 C 
BRANCH   4   5
ATOM      5  C   UNL     1      13.669  12.303  30.894  1.00  0.00     0.000 C 
BRANCH   5   6
ATOM      6  C   UNL     1      12.913  13.621  31.140  1.00  0.00     0.006 C 
BRANCH   6   7
ATOM      7  C   UNL     1      12.450  14.274  29.832  1.00  0.00     0.053 C 
BRANCH   7   8
ATOM      8  C   UNL     1      11.167  15.027  30.012  1.00  0.00     0.041 C 
ATOM      9  O   UNL     1      10.539  15.458  29.010  1.00  0.00    -0.550 OA
ATOM     10  O   UNL     1      10.650  15.222  31.285  1.00  0.00    -0.550 OA
ENDBRANCH   7   8
ENDBRANCH   6   7
ENDBRANCH   5   6
ENDBRANCH   4   5
ENDBRANCH   3   4
ENDBRANCH   2   3
ENDBRANCH   1   2
BRANCH   1  11
ATOM     11  C   UNL     1      18.041  14.452  31.887  1.00  0.00     0.000 C 
BRANCH  11  12
ATOM     12  C   UNL     1      17.777  14.783  30.413  1.00  0.00    -0.000 C 
BRANCH  12  13
ATOM     13  C   UNL     1      16.715  15.883  30.279  1.00  0.00    -0.000 C 
BRANCH  13  14
ATOM     14  C   UNL     1      15.829  15.714  29.031  1.00  0.00    -0.000 C 
BRANCH  14  15
ATOM     15  C   UNL     1      15.892  14.325  28.367  1.00  0.00    -0.000 C 
BRANCH  15  16
ATOM     16  C   UNL     1      16.061  14.398  26.840  1.00  0.00    -0.000 C 
BRANCH  16  17
ATOM     17  C   UNL     1      16.633  15.746  26.376  1.00  0.00    -0.003 C 
ATOM     18  C   UNL     1      16.127  16.161  24.994  1.00  0.00     0.004 C 
ENDBRANCH  16  17
ENDBRANCH  15  16
ENDBRANCH  14  15
ENDBRANCH  13  14
ENDBRANCH  12  13
ENDBRANCH  11  12
ENDBRANCH   1  11
TORSDOF 14
ENDMDL
MODEL 3
REMARK VINA RESULT:    -3.157      2.226      3.666
REMARK INTER + INTRA:          -8.683
REMARK INTER:                  -6.595
REMARK INTRA:                  -2.088
REMARK UNBOUND:                -2.941
REMARK SMILES CCCCCCCCCCCCCCCC(=O)[O-]
REMARK SMILES IDX 9 1 10 2 11 3 12 4 13 5 14 6 15 7 16 8 17 9 18 10 8 11 7 12
REMARK SMILES IDX 6 13 5 14 4 15 3 16 2 17 1 18
REMARK H PARENT
REMARK Flexibility Score: inf
ROOT
ATOM      1  C   UNL     1      17.304  14.205  31.628  1.00  0.00     0.000 C 
ENDROOT
BRANCH   1   2
ATOM      2  C   UNL     1      17.602  14.963  30.329  1.00  0.00     0.000 C 
BRANCH   2   3
ATOM      3  C   UNL     1      16.505  15.989  30.025  1.00  0.00     0.000 C 
BRANCH   3   4
ATOM      4  C   UNL     1      15.894  15.747  28.637  1.00  0.00     0.000 C 
BRANCH   4   5
ATOM      5  C   UNL     1      16.892  15.118  27.652  1.00  0.00     0.000 C 
BRANCH   5   6
ATOM      6  C   UNL     1      16.324  13.872  26.948  1.00  0.00     0.006 C 
BRANCH   6   7
ATOM      7  C   UNL     1      15.410  14.239  25.772  1.00  0.00     0.053 C 
BRANCH   7   8
ATOM      8  C   UNL     1      16.137  15.040  24.735  1.00  0.00     0.041 C 
ATOM      9  O   UNL     1      15.730  16.189  24.421  1.00  0.00    -0.550 OA
ATOM     10  O   UNL     1      17.283  14.529  24.140  1.00  0.00    -0.550 OA
ENDBRANCH   7   8
ENDBRANCH   6   7
ENDBRANCH   5   6
ENDBRANCH   4   5
ENDBRANCH   3   4
ENDBRANCH   2   3
ENDBRANCH   1   2
BRANCH   1  11
ATOM     11  C   UNL     1      16.811  12.783  31.335  1.00  0.00     0.000 C 
BRANCH  11  12
ATOM     12  C   UNL     1      15.279  12.717  31.348  1.00  0.00    -0.000 C 
BRANCH  12  13
ATOM     13  C   UNL     1      14.741  12.171  30.018  1.00  0.00    -0.000 C 
BRANCH  13  14
ATOM     14  C   UNL     1      13.610  13.033  29.428  1.00  0.00    -0.000 C 
BRANCH  14  15
ATOM     15  C   UNL     1      13.151  14.206  30.315  1.00  0.00    -0.000 C 
BRANCH  15  16
ATOM     16  C   UNL     1      11.662  14.546  30.136  1.00  0.00    -0.000 C 
BRANCH  16  17
ATOM     17  C   UNL     1      10.950  14.788  31.476  1.00  0.00    -0.003 C 
ATOM     18  C   UNL     1      11.480  13.897  32.599  1.00  0.00     0.004 C 
ENDBRANCH  16  17
ENDBRANCH  15  16
ENDBRANCH  14  15
ENDBRANCH  13  14
ENDBRANCH  12  13
ENDBRANCH  11  12
ENDBRANCH   1  11
TORSDOF 14
ENDMDL
MODEL 4
REMARK VINA RESULT:    -3.102      1.659      4.196
REMARK INTER + INTRA:          -8.582
REMARK INTER:                  -5.795
REMARK INTRA:                  -2.787
REMARK UNBOUND:                -2.941
REMARK SMILES CCCCCCCCCCCCCCCC(=O)[O-]
REMARK SMILES IDX 9 1 10 2 11 3 12 4 13 5 14 6 15 7 16 8 17 9 18 10 8 11 7 12
REMARK SMILES IDX 6 13 5 14 4 15 3 16 2 17 1 18
REMARK H PARENT
REMARK Flexibility Score: inf
ROOT
ATOM      1  C   UNL     1      17.283  12.822  32.247  1.00  0.00     0.000 C 
ENDROOT
BRANCH   1   2
ATOM      2  C   UNL     1      16.149  13.246  31.307  1.00  0.00     0.000 C 
BRANCH   2   3
ATOM      3  C   UNL     1      16.391  14.653  30.749  1.00  0.00     0.000 C 
BRANCH   3   4
ATOM      4  C   UNL     1      15.411  14.971  29.610  1.00  0.00     0.000 C 
BRANCH   4   5
ATOM      5  C   UNL     1      16.067  15.763  28.468  1.00  0.00     0.000 C 
BRANCH   5   6
ATOM      6  C   UNL     1      15.745  15.180  27.081  1.00  0.00     0.006 C 
BRANCH   6   7
ATOM      7  C   UNL     1      16.518  15.890  25.962  1.00  0.00     0.053 C 
BRANCH   7   8
ATOM      8  C   UNL     1      17.638  15.044  25.439  1.00  0.00     0.041 C 
ATOM      9  O   UNL     1      17.408  13.884  25.007  1.00  0.00    -0.550 OA
ATOM     10  O   UNL     1      18.930  15.550  25.397  1.00  0.00    -0.550 OA
ENDBRANCH   7   8
ENDBRANCH   6   7
ENDBRANCH   5   6
ENDBRANCH   4   5
ENDBRANCH   3   4
ENDBRANCH   2   3
ENDBRANCH   1   2
BRANCH   1  11
ATOM     11  C   UNL     1      18.448  13.817  32.187  1.00  0.00     0.000 C 
BRANCH  11  12
ATOM     12  C   UNL     1      19.793  13.087  32.089  1.00  0.00    -0.000 C 
BRANCH  12  13
ATOM     13  C   UNL     1      20.503  13.418  30.768  1.00  0.00    -0.000 C 
BRANCH  13  14
ATOM     14  C   UNL     1      19.943  14.678  30.084  1.00  0.00    -0.000 C 
BRANCH  14  15
ATOM     15  C   UNL     1      19.469  14.478  28.632  1.00  0.00    -0.000 C 
BRANCH  15  16
ATOM     16  C   UNL     1      19.404  12.998  28.221  1.00  0.00    -0.000 C 
BRANCH  16  17
ATOM     17  C   UNL     1      17.966  12.459  28.189  1.00  0.00    -0.003 C 
ATOM     18  C   UNL     1      17.821  11.109  28.891  1.00  0.00     0.004 C 
ENDBRANCH  16  17
ENDBRANCH  15  16
ENDBRANCH  14  15
ENDBRANCH  13  14
ENDBRANCH  12  13
ENDBRANCH  11  12
ENDBRANCH   1  11
TORSDOF 14
ENDMDL
MODEL 5
REMARK VINA RESULT:    -3.071      3.267      5.407
REMARK INTER + INTRA:          -8.526
REMARK INTER:                  -6.214
REMARK INTRA:                  -2.312
REMARK UNBOUND:                -2.941
REMARK SMILES CCCCCCCCCCCCCCCC(=O)[O-]
REMARK SMILES IDX 9 1 10 2 11 3 12 4 13 5 14 6 15 7 16 8 17 9 18 10 8 11 7 12
REMARK SMILES IDX 6 13 5 14 4 15 3 16 2 17 1 18
REMARK H PARENT
REMARK Flexibility Score: inf
ROOT
ATOM      1  C   UNL     1      14.481  12.648  28.638  1.00  0.00     0.000 C 
ENDROOT
BRANCH   1   2
ATOM      2  C   UNL     1      13.899  12.421  30.038  1.00  0.00     0.000 C 
BRANCH   2   3
ATOM      3  C   UNL     1      13.520  13.751  30.699  1.00  0.00     0.000 C 
BRANCH   3   4
ATOM      4  C   UNL     1      12.361  13.562  31.690  1.00  0.00     0.000 C 
BRANCH   4   5
ATOM      5  C   UNL     1      11.165  14.478  31.383  1.00  0.00     0.000 C 
BRANCH   5   6
ATOM      6  C   UNL     1      11.321  15.229  30.049  1.00  0.00     0.006 C 
BRANCH   6   7
ATOM      7  C   UNL     1      10.178  14.919  29.075  1.00  0.00     0.053 C 
BRANCH   7   8
ATOM      8  C   UNL     1      10.045  13.447  28.826  1.00  0.00     0.041 C 
ATOM      9  O   UNL     1      10.933  12.830  28.183  1.00  0.00    -0.550 OA
ATOM     10  O   UNL     1       8.957  12.752  29.337  1.00  0.00    -0.550 OA
ENDBRANCH   7   8
ENDBRANCH   6   7
ENDBRANCH   5   6
ENDBRANCH   4   5
ENDBRANCH   3   4
ENDBRANCH   2   3
ENDBRANCH   1   2
BRANCH   1  11
ATOM     11  C   UNL     1      14.280  14.099  28.186  1.00  0.00     0.000 C 
BRANCH  11  12
ATOM     12  C   UNL     1      15.381  14.530  27.209  1.00  0.00    -0.000 C 
BRANCH  12  13
ATOM     13  C   UNL     1      16.484  15.315  27.935  1.00  0.00    -0.000 C 
BRANCH  13  14
ATOM     14  C   UNL     1      16.005  15.942  29.257  1.00  0.00    -0.000 C 
BRANCH  14  15
ATOM     15  C   UNL     1      16.900  15.657  30.478  1.00  0.00    -0.000 C 
BRANCH  15  16
ATOM     16  C   UNL     1      17.359  14.191  30.556  1.00  0.00    -0.000 C 
BRANCH  16  17
ATOM     17  C   UNL     1      17.602  13.727  32.000  1.00  0.00    -0.003 C 
ATOM     18  C   UNL     1      16.831  12.456  32.353  1.00  0.00     0.004 C 
ENDBRANCH  16  17
ENDBRANCH  15  16
ENDBRANCH  14  15
ENDBRANCH  13  14
ENDBRANCH  12  13
ENDBRANCH  11  12
ENDBRANCH   1  11
TORSDOF 14
ENDMDL
MODEL 6
REMARK VINA RESULT:    -3.069      3.123      5.676
REMARK INTER + INTRA:          -8.522
REMARK INTER:                  -6.788
REMARK INTRA:                  -1.734
REMARK UNBOUND:                -2.941
REMARK SMILES CCCCCCCCCCCCCCCC(=O)[O-]
REMARK SMILES IDX 9 1 10 2 11 3 12 4 13 5 14 6 15 7 16 8 17 9 18 10 8 11 7 12
REMARK SMILES IDX 6 13 5 14 4 15 3 16 2 17 1 18
REMARK H PARENT
REMARK Flexibility Score: inf
ROOT
ATOM      1  C   UNL     1      16.875  12.292  30.637  1.00  0.00     0.000 C 
ENDROOT
BRANCH   1   2
ATOM      2  C   UNL     1      15.401  11.999  30.334  1.00  0.00     0.000 C 
BRANCH   2   3
ATOM      3  C   UNL     1      14.483  12.661  31.369  1.00  0.00     0.000 C 
BRANCH   3   4
ATOM      4  C   UNL     1      13.582  13.716  30.710  1.00  0.00     0.000 C 
BRANCH   4   5
ATOM      5  C   UNL     1      12.202  13.817  31.379  1.00  0.00     0.000 C 
BRANCH   5   6
ATOM      6  C   UNL     1      11.356  14.975  30.821  1.00  0.00     0.006 C 
BRANCH   6   7
ATOM      7  C   UNL     1      11.353  15.002  29.287  1.00  0.00     0.053 C 
BRANCH   7   8
ATOM      8  C   UNL     1      10.003  14.666  28.730  1.00  0.00     0.041 C 
ATOM      9  O   UNL     1       9.257  13.847  29.328  1.00  0.00    -0.550 OA
ATOM     10  O   UNL     1       9.558  15.283  27.569  1.00  0.00    -0.550 OA
ENDBRANCH   7   8
ENDBRANCH   6   7
ENDBRANCH   5   6
ENDBRANCH   4   5
ENDBRANCH   3   4
ENDBRANCH   2   3
ENDBRANCH   1   2
BRANCH   1  11
ATOM     11  C   UNL     1      17.029  13.010  31.984  1.00  0.00     0.000 C 
BRANCH  11  12
ATOM     12  C   UNL     1      17.748  14.353  31.813  1.00  0.00    -0.000 C 
BRANCH  12  13
ATOM     13  C   UNL     1      17.727  14.806  30.346  1.00  0.00    -0.000 C 
BRANCH  13  14
ATOM     14  C   UNL     1      16.618  15.833  30.050  1.00  0.00    -0.000 C 
BRANCH  14  15
ATOM     15  C   UNL     1      15.896  15.646  28.703  1.00  0.00    -0.000 C 
BRANCH  15  16
ATOM     16  C   UNL     1      16.614  14.656  27.770  1.00  0.00    -0.000 C 
BRANCH  16  17
ATOM     17  C   UNL     1      16.196  14.824  26.301  1.00  0.00    -0.003 C 
ATOM     18  C   UNL     1      16.301  16.269  25.816  1.00  0.00     0.004 C 
ENDBRANCH  16  17
ENDBRANCH  15  16
ENDBRANCH  14  15
ENDBRANCH  13  14
ENDBRANCH  12  13
ENDBRANCH  11  12
ENDBRANCH   1  11
TORSDOF 14
ENDMDL
MODEL 7
REMARK VINA RESULT:    -3.014      2.693      5.767
REMARK INTER + INTRA:          -8.423
REMARK INTER:                  -6.866
REMARK INTRA:                  -1.557
REMARK UNBOUND:                -2.941
REMARK SMILES CCCCCCCCCCCCCCCC(=O)[O-]
REMARK SMILES IDX 9 1 10 2 11 3 12 4 13 5 14 6 15 7 16 8 17 9 18 10 8 11 7 12
REMARK SMILES IDX 6 13 5 14 4 15 3 16 2 17 1 18
REMARK H PARENT
REMARK Flexibility Score: inf
ROOT
ATOM      1  C   UNL     1      17.915  14.466  30.599  1.00  0.00     0.000 C 
ENDROOT
BRANCH   1   2
ATOM      2  C   UNL     1      18.088  14.153  32.089  1.00  0.00     0.000 C 
BRANCH   2   3
ATOM      3  C   UNL     1      17.407  12.829  32.458  1.00  0.00     0.000 C 
BRANCH   3   4
ATOM      4  C   UNL     1      16.449  12.375  31.346  1.00  0.00     0.000 C 
BRANCH   4   5
ATOM      5  C   UNL     1      14.980  12.366  31.798  1.00  0.00     0.000 C 
BRANCH   5   6
ATOM      6  C   UNL     1      14.007  12.710  30.657  1.00  0.00     0.006 C 
BRANCH   6   7
ATOM      7  C   UNL     1      12.732  13.391  31.169  1.00  0.00     0.053 C 
BRANCH   7   8
ATOM      8  C   UNL     1      12.211  14.401  30.192  1.00  0.00     0.041 C 
ATOM      9  O   UNL     1      12.616  14.396  29.000  1.00  0.00    -0.550 OA
ATOM     10  O   UNL     1      11.254  15.324  30.590  1.00  0.00    -0.550 OA
ENDBRANCH   7   8
ENDBRANCH   6   7
ENDBRANCH   5   6
ENDBRANCH   4   5
ENDBRANCH   3   4
ENDBRANCH   2   3
ENDBRANCH   1   2
BRANCH   1  11
ATOM     11  C   UNL     1      17.221  15.819  30.397  1.00  0.00     0.000 C 
BRANCH  11  12
ATOM     12  C   UNL     1      15.907  15.654  29.624  1.00  0.00    -0.000 C 
BRANCH  12  13
ATOM     13  C   UNL     1      16.115  14.814  28.356  1.00  0.00    -0.000 C 
BRANCH  13  14
ATOM     14  C   UNL     1      15.558  15.488  27.089  1.00  0.00    -0.000 C 
BRANCH  14  15
ATOM     15  C   UNL     1      16.620  16.049  26.125  1.00  0.00    -0.000 C 
BRANCH  15  16
ATOM     16  C   UNL     1      16.109  16.180  24.681  1.00  0.00    -0.000 C 
BRANCH  16  17
ATOM     17  C   UNL     1      16.075  14.832  23.945  1.00  0.00    -0.003 C 
ATOM     18  C   UNL     1      14.654  14.328  23.694  1.00  0.00     0.004 C 
ENDBRANCH  16  17
ENDBRANCH  15  16
ENDBRANCH  14  15
ENDBRANCH  13  14
ENDBRANCH  12  13
ENDBRANCH  11  12
ENDBRANCH   1  11
TORSDOF 14
ENDMDL
MODEL 8
REMARK VINA RESULT:    -2.991      3.954      6.071
REMARK INTER + INTRA:          -8.381
REMARK INTER:                  -6.210
REMARK INTRA:                  -2.171
REMARK UNBOUND:                -2.941
REMARK SMILES CCCCCCCCCCCCCCCC(=O)[O-]
REMARK SMILES IDX 9 1 10 2 11 3 12 4 13 5 14 6 15 7 16 8 17 9 18 10 8 11 7 12
REMARK SMILES IDX 6 13 5 14 4 15 3 16 2 17 1 18
REMARK H PARENT
REMARK Flexibility Score: inf
ROOT
ATOM      1  C   UNL     1      13.902  12.622  28.782  1.00  0.00     0.000 C 
ENDROOT
BRANCH   1   2
ATOM      2  C   UNL     1      14.024  14.139  28.603  1.00  0.00     0.000 C 
BRANCH   2   3
ATOM      3  C   UNL     1      15.114  14.488  27.583  1.00  0.00     0.000 C 
BRANCH   3   4
ATOM      4  C   UNL     1      15.995  15.640  28.091  1.00  0.00     0.000 C 
BRANCH   4   5
ATOM      5  C   UNL     1      15.870  15.856  29.607  1.00  0.00     0.000 C 
BRANCH   5   6
ATOM      6  C   UNL     1      17.159  15.493  30.366  1.00  0.00     0.006 C 
BRANCH   6   7
ATOM      7  C   UNL     1      17.005  14.202  31.181  1.00  0.00     0.053 C 
BRANCH   7   8
ATOM      8  C   UNL     1      18.302  13.783  31.804  1.00  0.00     0.041 C 
ATOM      9  O   UNL     1      18.348  13.473  33.023  1.00  0.00    -0.550 OA
ATOM     10  O   UNL     1      19.451  13.702  31.029  1.00  0.00    -0.550 OA
ENDBRANCH   7   8
ENDBRANCH   6   7
ENDBRANCH   5   6
ENDBRANCH   4   5
ENDBRANCH   3   4
ENDBRANCH   2   3
ENDBRANCH   1   2
BRANCH   1  11
ATOM     11  C   UNL     1      13.186  12.277  30.094  1.00  0.00     0.000 C 
BRANCH  11  12
ATOM     12  C   UNL     1      13.306  13.424  31.105  1.00  0.00    -0.000 C 
BRANCH  12  13
ATOM     13  C   UNL     1      11.941  13.757  31.724  1.00  0.00    -0.000 C 
BRANCH  13  14
ATOM     14  C   UNL     1      11.246  14.949  31.041  1.00  0.00    -0.000 C 
BRANCH  14  15
ATOM     15  C   UNL     1      10.075  14.579  30.110  1.00  0.00    -0.000 C 
BRANCH  15  16
ATOM     16  C   UNL     1      10.417  14.750  28.620  1.00  0.00    -0.000 C 
BRANCH  16  17
ATOM     17  C   UNL     1      10.365  13.423  27.849  1.00  0.00    -0.003 C 
ATOM     18  C   UNL     1      11.031  13.507  26.476  1.00  0.00     0.004 C 
ENDBRANCH  16  17
ENDBRANCH  15  16
ENDBRANCH  14  15
ENDBRANCH  13  14
ENDBRANCH  12  13
ENDBRANCH  11  12
ENDBRANCH   1  11
TORSDOF 14
ENDMDL
MODEL 9
REMARK VINA RESULT:    -2.963      5.910      7.467
REMARK INTER + INTRA:          -8.329
REMARK INTER:                  -7.719
REMARK INTRA:                  -0.611
REMARK UNBOUND:                -2.941
REMARK SMILES CCCCCCCCCCCCCCCC(=O)[O-]
REMARK SMILES IDX 9 1 10 2 11 3 12 4 13 5 14 6 15 7 16 8 17 9 18 10 8 11 7 12
REMARK SMILES IDX 6 13 5 14 4 15 3 16 2 17 1 18
REMARK H PARENT
REMARK Flexibility Score: inf
ROOT
ATOM      1  C   UNL     1      10.832  14.217  29.267  1.00  0.00     0.000 C 
ENDROOT
BRANCH   1   2
ATOM      2  C   UNL     1      10.028  15.270  28.496  1.00  0.00     0.000 C 
BRANCH   2   3
ATOM      3  C   UNL     1       9.460  14.688  27.196  1.00  0.00     0.000 C 
BRANCH   3   4
ATOM      4  C   UNL     1       8.842  15.790  26.323  1.00  0.00     0.000 C 
BRANCH   4   5
ATOM      5  C   UNL     1       8.700  17.126  27.068  1.00  0.00     0.000 C 
BRANCH   5   6
ATOM      6  C   UNL     1       8.433  18.308  26.119  1.00  0.00     0.006 C 
BRANCH   6   7
ATOM      7  C   UNL     1       7.732  19.473  26.829  1.00  0.00     0.053 C 
BRANCH   7   8
ATOM      8  C   UNL     1       6.440  19.832  26.161  1.00  0.00     0.041 C 
ATOM      9  O   UNL     1       6.420  20.123  24.936  1.00  0.00    -0.550 OA
ATOM     10  O   UNL     1       5.255  19.812  26.883  1.00  0.00    -0.550 OA
ENDBRANCH   7   8
ENDBRANCH   6   7
ENDBRANCH   5   6
ENDBRANCH   4   5
ENDBRANCH   3   4
ENDBRANCH   2   3
ENDBRANCH   1   2
BRANCH   1  11
ATOM     11  C   UNL     1      11.279  14.755  30.632  1.00  0.00     0.000 C 
BRANCH  11  12
ATOM     12  C   UNL     1      12.598  14.111  31.073  1.00  0.00    -0.000 C 
BRANCH  12  13
ATOM     13  C   UNL     1      13.627  14.128  29.933  1.00  0.00    -0.000 C 
BRANCH  13  14
ATOM     14  C   UNL     1      15.073  13.932  30.425  1.00  0.00    -0.000 C 
BRANCH  14  15
ATOM     15  C   UNL     1      16.035  15.090  30.104  1.00  0.00    -0.000 C 
BRANCH  15  16
ATOM     16  C   UNL     1      17.352  15.013  30.895  1.00  0.00    -0.000 C 
BRANCH  16  17
ATOM     17  C   UNL     1      17.406  13.794  31.828  1.00  0.00    -0.003 C 
ATOM     18  C   UNL     1      18.642  13.789  32.727  1.00  0.00     0.004 C 
ENDBRANCH  16  17
ENDBRANCH  15  16
ENDBRANCH  14  15
ENDBRANCH  13  14
ENDBRANCH  12  13
ENDBRANCH  11  12
ENDBRANCH   1  11
TORSDOF 14
ENDMDL
