MODEL 1
REMARK VINA RESULT:    59.316      0.000      0.000
REMARK INTER + INTRA:          98.954
REMARK INTER:                  97.459
REMARK INTRA:                   1.495
REMARK UNBOUND:                 1.495
REMARK SMILES COc1ccc([C@@H]2CC(=O)c3c(O)cc(O[C@H]4O[C@H](CO[C@H]5O[C@H](C)[C@H](O)[C@H](O)[C@@H]5O)[C@@H](O)[C@H](O)[C@@H]4O)cc3O2)cc1O
REMARK SMILES IDX 19 1 32 2 34 3 36 4 17 5 18 6 20 7 21 8 22 9 25 10 24 11
REMARK SMILES IDX 26 12 23 13 28 14 30 15 27 16 29 18 31 20 33 22 35 24 16 26
REMARK SMILES IDX 15 27 14 28 38 29 12 30 39 31 11 32 40 33 9 34 7 35 10 36
REMARK SMILES IDX 8 37 13 38 6 40 41 41 5 42 42 43 4 44 3 45 43 46 2 48 1 49
REMARK SMILES IDX 37 50
REMARK H PARENT 27 17 29 19 31 21 33 23 35 25 13 39 43 47 37 51
REMARK Flexibility Score: inf
ROOT
ATOM      1  C   UNL     1      25.630  27.528   2.556  1.00  0.00     0.180 C 
ATOM      2  C   UNL     1      25.097  26.098   2.271  1.00  0.00     0.177 C 
ATOM      3  C   UNL     1      26.031  25.355   1.301  1.00  0.00     0.180 C 
ATOM      4  C   UNL     1      27.495  25.467   1.762  1.00  0.00     0.214 C 
ATOM      5  C   UNL     1      27.843  26.949   2.003  1.00  0.00     0.339 C 
ATOM      6  O   UNL     1      26.984  27.498   2.987  1.00  0.00    -0.332 OA
ENDROOT
BRANCH   1   7
ATOM      7  C   UNL     1      24.810  28.217   3.655  1.00  0.00     0.198 C 
BRANCH   7   8
ATOM      8  O   UNL     1      25.058  29.609   3.642  1.00  0.00    -0.347 OA
BRANCH   8   9
ATOM      9  C   UNL     1      25.874  29.990   4.737  1.00  0.00     0.281 C 
ATOM     10  C   UNL     1      23.727  32.657   6.098  1.00  0.00     0.041 C 
ATOM     11  C   UNL     1      24.134  31.236   5.705  1.00  0.00     0.150 C 
ATOM     12  C   UNL     1      23.949  30.250   6.881  1.00  0.00     0.174 C 
ATOM     13  O   UNL     1      25.483  31.254   5.262  1.00  0.00    -0.344 OA
ATOM     14  C   UNL     1      24.410  28.847   6.444  1.00  0.00     0.179 C 
ATOM     15  C   UNL     1      25.821  28.901   5.824  1.00  0.00     0.202 C 
BRANCH  12  16
ATOM     16  O   UNL     1      24.699  30.667   7.998  1.00  0.00    -0.388 OA
ATOM     17  H   UNL     1      25.533  30.127   8.007  1.00  0.00     0.211 HD
ENDBRANCH  12  16
BRANCH  14  18
ATOM     18  O   UNL     1      24.400  27.961   7.535  1.00  0.00    -0.387 OA
ATOM     19  H   UNL     1      25.177  28.204   8.105  1.00  0.00     0.211 HD
ENDBRANCH  14  18
BRANCH  15  20
ATOM     20  O   UNL     1      26.785  29.183   6.808  1.00  0.00    -0.385 OA
ATOM     21  H   UNL     1      27.675  29.048   6.389  1.00  0.00     0.211 HD
ENDBRANCH  15  20
ENDBRANCH   8   9
ENDBRANCH   7   8
ENDBRANCH   1   7
BRANCH   2  22
ATOM     22  O   UNL     1      23.821  26.179   1.679  1.00  0.00    -0.387 OA
ATOM     23  H   UNL     1      23.153  25.947   2.375  1.00  0.00     0.211 HD
ENDBRANCH   2  22
BRANCH   3  24
ATOM     24  O   UNL     1      25.647  24.008   1.225  1.00  0.00    -0.387 OA
ATOM     25  H   UNL     1      25.270  23.767   2.111  1.00  0.00     0.211 HD
ENDBRANCH   3  24
BRANCH   5  26
ATOM     26  O   UNL     1      27.764  27.705   0.787  1.00  0.00    -0.462 OA
BRANCH  26  27
ATOM     27  C   UNL     1      27.413  29.061   0.684  1.00  0.00     0.130 A 
ATOM     28  C   UNL     1      28.416  29.976   0.344  1.00  0.00     0.093 A 
ATOM     29  C   UNL     1      26.102  29.523   0.895  1.00  0.00     0.094 A 
ATOM     30  C   UNL     1      28.128  31.342   0.214  1.00  0.00     0.133 A 
ATOM     31  C   UNL     1      25.803  30.882   0.768  1.00  0.00     0.138 A 
ATOM     32  C   UNL     1      26.809  31.801   0.416  1.00  0.00     0.102 A 
ATOM     33  O   UNL     1      24.487  31.317   0.977  1.00  0.00    -0.484 OA
ATOM     34  C   UNL     1      26.414  33.216   0.224  1.00  0.00     0.174 C 
ATOM     35  C   UNL     1      24.142  32.701   1.106  1.00  0.00     0.211 C 
ATOM     36  O   UNL     1      27.278  34.124   0.087  1.00  0.00    -0.294 OA
ATOM     37  C   UNL     1      24.957  33.562   0.126  1.00  0.00     0.131 C 
BRANCH  30  38
ATOM     38  O   UNL     1      29.147  32.233  -0.124  1.00  0.00    -0.507 OA
ATOM     39  H   UNL     1      29.665  32.141  -0.991  1.00  0.00     0.293 HD
ENDBRANCH  30  38
BRANCH  35  40
ATOM     40  C   UNL     1      22.662  32.882   0.866  1.00  0.00    -0.003 A 
ATOM     41  C   UNL     1      21.743  31.937   1.352  1.00  0.00     0.057 A 
ATOM     42  C   UNL     1      22.192  33.969   0.115  1.00  0.00     0.011 A 
ATOM     43  C   UNL     1      20.370  32.093   1.119  1.00  0.00     0.158 A 
ATOM     44  C   UNL     1      20.824  34.124  -0.124  1.00  0.00     0.051 A 
ATOM     45  C   UNL     1      19.901  33.189   0.383  1.00  0.00     0.160 A 
BRANCH  43  46
ATOM     46  O   UNL     1      19.464  31.158   1.616  1.00  0.00    -0.504 OA
ATOM     47  H   UNL     1      18.641  31.437   2.135  1.00  0.00     0.293 HD
ENDBRANCH  43  46
BRANCH  45  48
ATOM     48  O   UNL     1      18.519  33.318   0.184  1.00  0.00    -0.493 OA
ATOM     49  C   UNL     1      17.542  33.183   1.210  1.00  0.00     0.278 C 
ENDBRANCH  45  48
ENDBRANCH  35  40
ENDBRANCH  26  27
ENDBRANCH   5  26
BRANCH   4  50
ATOM     50  O   UNL     1      27.670  24.734   2.950  1.00  0.00    -0.384 OA
ATOM     51  H   UNL     1      27.713  25.395   3.692  1.00  0.00     0.211 HD
ENDBRANCH   4  50
TORSDOF 15
ENDMDL
