MODEL 1
REMARK VINA RESULT:    -3.344      0.000      0.000
REMARK INTER + INTRA:          -6.788
REMARK INTER:                  -5.298
REMARK INTRA:                  -1.490
REMARK UNBOUND:                -1.490
REMARK SMILES CCCCCCCCCCCC(=O)[O-]
REMARK SMILES IDX 7 1 8 2 9 3 10 4 11 5 12 6 13 7 14 8 6 9 5 10 4 11 3 12 2 13
REMARK SMILES IDX 1 14
REMARK H PARENT
REMARK Flexibility Score: inf
ROOT
ATOM      1  C   UNL     1      -4.968  -2.564  34.421  1.00  0.00     0.000 C 
ENDROOT
BRANCH   1   2
ATOM      2  C   UNL     1      -3.550  -2.922  33.944  1.00  0.00     0.000 C 
BRANCH   2   3
ATOM      3  C   UNL     1      -2.455  -2.103  34.652  1.00  0.00     0.000 C 
BRANCH   3   4
ATOM      4  C   UNL     1      -1.688  -2.850  35.763  1.00  0.00     0.006 C 
BRANCH   4   5
ATOM      5  C   UNL     1      -0.806  -1.953  36.645  1.00  0.00     0.053 C 
BRANCH   5   6
ATOM      6  C   UNL     1       0.611  -1.908  36.159  1.00  0.00     0.041 C 
ATOM      7  O   UNL     1       1.169  -2.954  35.736  1.00  0.00    -0.550 OA
ATOM      8  O   UNL     1       1.326  -0.718  36.205  1.00  0.00    -0.550 OA
ENDBRANCH   5   6
ENDBRANCH   4   5
ENDBRANCH   3   4
ENDBRANCH   2   3
ENDBRANCH   1   2
BRANCH   1   9
ATOM      9  C   UNL     1      -5.346  -3.255  35.744  1.00  0.00     0.000 C 
BRANCH   9  10
ATOM     10  C   UNL     1      -5.855  -2.316  36.858  1.00  0.00    -0.000 C 
BRANCH  10  11
ATOM     11  C   UNL     1      -4.919  -2.169  38.072  1.00  0.00    -0.000 C 
BRANCH  11  12
ATOM     12  C   UNL     1      -4.032  -0.915  37.992  1.00  0.00    -0.000 C 
BRANCH  12  13
ATOM     13  C   UNL     1      -4.567   0.121  36.992  1.00  0.00    -0.003 C 
ATOM     14  C   UNL     1      -3.483   1.075  36.490  1.00  0.00     0.004 C 
ENDBRANCH  12  13
ENDBRANCH  11  12
ENDBRANCH  10  11
ENDBRANCH   9  10
ENDBRANCH   1   9
TORSDOF 10
ENDMDL
MODEL 2
REMARK VINA RESULT:    -3.224      1.589      2.735
REMARK INTER + INTRA:          -6.599
REMARK INTER:                  -4.832
REMARK INTRA:                  -1.766
REMARK UNBOUND:                -1.490
REMARK SMILES CCCCCCCCCCCC(=O)[O-]
REMARK SMILES IDX 7 1 8 2 9 3 10 4 11 5 12 6 13 7 14 8 6 9 5 10 4 11 3 12 2 13
REMARK SMILES IDX 1 14
REMARK H PARENT
REMARK Flexibility Score: inf
ROOT
ATOM      1  C   UNL     1      -5.861  -2.495  36.756  1.00  0.00     0.000 C 
ENDROOT
BRANCH   1   2
ATOM      2  C   UNL     1      -5.173  -3.315  35.652  1.00  0.00     0.000 C 
BRANCH   2   3
ATOM      3  C   UNL     1      -3.648  -3.417  35.844  1.00  0.00     0.000 C 
BRANCH   3   4
ATOM      4  C   UNL     1      -2.799  -2.796  34.715  1.00  0.00     0.006 C 
BRANCH   4   5
ATOM      5  C   UNL     1      -1.986  -1.561  35.132  1.00  0.00     0.053 C 
BRANCH   5   6
ATOM      6  C   UNL     1      -1.138  -1.828  36.339  1.00  0.00     0.041 C 
ATOM      7  O   UNL     1      -1.185  -1.053  37.329  1.00  0.00    -0.550 OA
ATOM      8  O   UNL     1      -0.272  -2.913  36.354  1.00  0.00    -0.550 OA
ENDBRANCH   5   6
ENDBRANCH   4   5
ENDBRANCH   3   4
ENDBRANCH   2   3
ENDBRANCH   1   2
BRANCH   1   9
ATOM      9  C   UNL     1      -4.862  -1.849  37.732  1.00  0.00     0.000 C 
BRANCH   9  10
ATOM     10  C   UNL     1      -4.623  -0.338  37.529  1.00  0.00    -0.000 C 
BRANCH  10  11
ATOM     11  C   UNL     1      -5.517   0.333  36.469  1.00  0.00    -0.000 C 
BRANCH  11  12
ATOM     12  C   UNL     1      -4.721   0.855  35.261  1.00  0.00    -0.000 C 
BRANCH  12  13
ATOM     13  C   UNL     1      -5.070   0.112  33.962  1.00  0.00    -0.003 C 
ATOM     14  C   UNL     1      -6.554  -0.243  33.863  1.00  0.00     0.004 C 
ENDBRANCH  12  13
ENDBRANCH  11  12
ENDBRANCH  10  11
ENDBRANCH   9  10
ENDBRANCH   1   9
TORSDOF 10
ENDMDL
MODEL 3
REMARK VINA RESULT:    -3.221      1.582      2.805
REMARK INTER + INTRA:          -6.594
REMARK INTER:                  -5.129
REMARK INTRA:                  -1.465
REMARK UNBOUND:                -1.490
REMARK SMILES CCCCCCCCCCCC(=O)[O-]
REMARK SMILES IDX 7 1 8 2 9 3 10 4 11 5 12 6 13 7 14 8 6 9 5 10 4 11 3 12 2 13
REMARK SMILES IDX 1 14
REMARK H PARENT
REMARK Flexibility Score: inf
ROOT
ATOM      1  C   UNL     1      -6.518  -1.291  37.195  1.00  0.00     0.000 C 
ENDROOT
BRANCH   1   2
ATOM      2  C   UNL     1      -5.728  -2.562  36.843  1.00  0.00     0.000 C 
BRANCH   2   3
ATOM      3  C   UNL     1      -5.268  -2.595  35.373  1.00  0.00     0.000 C 
BRANCH   3   4
ATOM      4  C   UNL     1      -4.111  -3.569  35.066  1.00  0.00     0.006 C 
BRANCH   4   5
ATOM      5  C   UNL     1      -3.010  -3.612  36.136  1.00  0.00     0.053 C 
BRANCH   5   6
ATOM      6  C   UNL     1      -1.789  -2.853  35.716  1.00  0.00     0.041 C 
ATOM      7  O   UNL     1      -1.837  -2.071  34.731  1.00  0.00    -0.550 OA
ATOM      8  O   UNL     1      -0.588  -3.036  36.390  1.00  0.00    -0.550 OA
ENDBRANCH   5   6
ENDBRANCH   4   5
ENDBRANCH   3   4
ENDBRANCH   2   3
ENDBRANCH   1   2
BRANCH   1   9
ATOM      9  C   UNL     1      -6.061  -0.651  38.519  1.00  0.00     0.000 C 
BRANCH   9  10
ATOM     10  C   UNL     1      -4.769  -1.238  39.125  1.00  0.00    -0.000 C 
BRANCH  10  11
ATOM     11  C   UNL     1      -3.551  -0.295  39.115  1.00  0.00    -0.000 C 
BRANCH  11  12
ATOM     12  C   UNL     1      -2.787  -0.322  37.781  1.00  0.00    -0.000 C 
BRANCH  12  13
ATOM     13  C   UNL     1      -2.981   0.967  36.965  1.00  0.00    -0.003 C 
ATOM     14  C   UNL     1      -3.750   0.734  35.664  1.00  0.00     0.004 C 
ENDBRANCH  12  13
ENDBRANCH  11  12
ENDBRANCH  10  11
ENDBRANCH   9  10
ENDBRANCH   1   9
TORSDOF 10
ENDMDL
MODEL 4
REMARK VINA RESULT:    -3.215      1.545      2.003
REMARK INTER + INTRA:          -6.585
REMARK INTER:                  -5.251
REMARK INTRA:                  -1.333
REMARK UNBOUND:                -1.490
REMARK SMILES CCCCCCCCCCCC(=O)[O-]
REMARK SMILES IDX 7 1 8 2 9 3 10 4 11 5 12 6 13 7 14 8 6 9 5 10 4 11 3 12 2 13
REMARK SMILES IDX 1 14
REMARK H PARENT
REMARK Flexibility Score: inf
ROOT
ATOM      1  C   UNL     1      -3.945  -3.641  35.340  1.00  0.00     0.000 C 
ENDROOT
BRANCH   1   2
ATOM      2  C   UNL     1      -3.494  -2.972  34.031  1.00  0.00     0.000 C 
BRANCH   2   3
ATOM      3  C   UNL     1      -3.069  -1.504  34.223  1.00  0.00     0.000 C 
BRANCH   3   4
ATOM      4  C   UNL     1      -2.116  -1.244  35.408  1.00  0.00     0.006 C 
BRANCH   4   5
ATOM      5  C   UNL     1      -0.623  -1.368  35.068  1.00  0.00     0.053 C 
BRANCH   5   6
ATOM      6  C   UNL     1       0.027  -2.501  35.802  1.00  0.00     0.041 C 
ATOM      7  O   UNL     1      -0.635  -3.187  36.623  1.00  0.00    -0.550 OA
ATOM      8  O   UNL     1       1.374  -2.777  35.604  1.00  0.00    -0.550 OA
ENDBRANCH   5   6
ENDBRANCH   4   5
ENDBRANCH   3   4
ENDBRANCH   2   3
ENDBRANCH   1   2
BRANCH   1   9
ATOM      9  C   UNL     1      -5.342  -3.181  35.795  1.00  0.00     0.000 C 
BRANCH   9  10
ATOM     10  C   UNL     1      -5.398  -2.511  37.184  1.00  0.00    -0.000 C 
BRANCH  10  11
ATOM     11  C   UNL     1      -6.247  -1.229  37.262  1.00  0.00    -0.000 C 
BRANCH  11  12
ATOM     12  C   UNL     1      -5.799  -0.154  36.258  1.00  0.00    -0.000 C 
BRANCH  12  13
ATOM     13  C   UNL     1      -6.899   0.198  35.243  1.00  0.00    -0.003 C 
ATOM     14  C   UNL     1      -6.530  -0.191  33.811  1.00  0.00     0.004 C 
ENDBRANCH  12  13
ENDBRANCH  11  12
ENDBRANCH  10  11
ENDBRANCH   9  10
ENDBRANCH   1   9
TORSDOF 10
ENDMDL
MODEL 5
REMARK VINA RESULT:    -3.202      1.522      2.158
REMARK INTER + INTRA:          -6.565
REMARK INTER:                  -5.011
REMARK INTRA:                  -1.553
REMARK UNBOUND:                -1.490
REMARK SMILES CCCCCCCCCCCC(=O)[O-]
REMARK SMILES IDX 7 1 8 2 9 3 10 4 11 5 12 6 13 7 14 8 6 9 5 10 4 11 3 12 2 13
REMARK SMILES IDX 1 14
REMARK H PARENT
REMARK Flexibility Score: inf
ROOT
ATOM      1  C   UNL     1      -5.415  -2.742  35.297  1.00  0.00     0.000 C 
ENDROOT
BRANCH   1   2
ATOM      2  C   UNL     1      -5.430  -1.403  34.541  1.00  0.00     0.000 C 
BRANCH   2   3
ATOM      3  C   UNL     1      -4.017  -0.877  34.225  1.00  0.00     0.000 C 
BRANCH   3   4
ATOM      4  C   UNL     1      -2.900  -1.941  34.240  1.00  0.00     0.006 C 
BRANCH   4   5
ATOM      5  C   UNL     1      -1.773  -1.670  35.249  1.00  0.00     0.053 C 
BRANCH   5   6
ATOM      6  C   UNL     1      -1.471  -2.874  36.089  1.00  0.00     0.041 C 
ATOM      7  O   UNL     1      -2.348  -3.758  36.267  1.00  0.00    -0.550 OA
ATOM      8  O   UNL     1      -0.231  -3.001  36.703  1.00  0.00    -0.550 OA
ENDBRANCH   5   6
ENDBRANCH   4   5
ENDBRANCH   3   4
ENDBRANCH   2   3
ENDBRANCH   1   2
BRANCH   1   9
ATOM      9  C   UNL     1      -5.788  -2.594  36.784  1.00  0.00     0.000 C 
BRANCH   9  10
ATOM     10  C   UNL     1      -6.573  -1.315  37.143  1.00  0.00    -0.000 C 
BRANCH  10  11
ATOM     11  C   UNL     1      -5.902  -0.403  38.187  1.00  0.00    -0.000 C 
BRANCH  11  12
ATOM     12  C   UNL     1      -5.184   0.800  37.554  1.00  0.00    -0.000 C 
BRANCH  12  13
ATOM     13  C   UNL     1      -3.654   0.660  37.595  1.00  0.00    -0.003 C 
ATOM     14  C   UNL     1      -3.189  -0.504  38.470  1.00  0.00     0.004 C 
ENDBRANCH  12  13
ENDBRANCH  11  12
ENDBRANCH  10  11
ENDBRANCH   9  10
ENDBRANCH   1   9
TORSDOF 10
ENDMDL
MODEL 6
REMARK VINA RESULT:    -3.195      3.217      4.793
REMARK INTER + INTRA:          -6.553
REMARK INTER:                  -4.782
REMARK INTRA:                  -1.771
REMARK UNBOUND:                -1.490
REMARK SMILES CCCCCCCCCCCC(=O)[O-]
REMARK SMILES IDX 7 1 8 2 9 3 10 4 11 5 12 6 13 7 14 8 6 9 5 10 4 11 3 12 2 13
REMARK SMILES IDX 1 14
REMARK H PARENT
REMARK Flexibility Score: inf
ROOT
ATOM      1  C   UNL     1      -5.366  -3.113  36.099  1.00  0.00     0.000 C 
ENDROOT
BRANCH   1   2
ATOM      2  C   UNL     1      -4.971  -2.487  37.447  1.00  0.00     0.000 C 
BRANCH   2   3
ATOM      3  C   UNL     1      -4.984  -0.948  37.419  1.00  0.00     0.000 C 
BRANCH   3   4
ATOM      4  C   UNL     1      -5.840  -0.315  36.301  1.00  0.00     0.006 C 
BRANCH   4   5
ATOM      5  C   UNL     1      -5.044   0.498  35.269  1.00  0.00     0.053 C 
BRANCH   5   6
ATOM      6  C   UNL     1      -5.564   0.301  33.878  1.00  0.00     0.041 C 
ATOM      7  O   UNL     1      -6.333  -0.662  33.619  1.00  0.00    -0.550 OA
ATOM      8  O   UNL     1      -5.173   1.161  32.860  1.00  0.00    -0.550 OA
ENDBRANCH   5   6
ENDBRANCH   4   5
ENDBRANCH   3   4
ENDBRANCH   2   3
ENDBRANCH   1   2
BRANCH   1   9
ATOM      9  C   UNL     1      -4.172  -3.745  35.361  1.00  0.00     0.000 C 
BRANCH   9  10
ATOM     10  C   UNL     1      -3.638  -2.939  34.158  1.00  0.00    -0.000 C 
BRANCH  10  11
ATOM     11  C   UNL     1      -2.472  -1.983  34.472  1.00  0.00    -0.000 C 
BRANCH  11  12
ATOM     12  C   UNL     1      -1.497  -2.555  35.514  1.00  0.00    -0.000 C 
BRANCH  12  13
ATOM     13  C   UNL     1      -1.363  -1.652  36.751  1.00  0.00    -0.003 C 
ATOM     14  C   UNL     1      -1.508  -0.167  36.420  1.00  0.00     0.004 C 
ENDBRANCH  12  13
ENDBRANCH  11  12
ENDBRANCH  10  11
ENDBRANCH   9  10
ENDBRANCH   1   9
TORSDOF 10
ENDMDL
MODEL 7
REMARK VINA RESULT:    -3.189      1.553      3.070
REMARK INTER + INTRA:          -6.544
REMARK INTER:                  -4.843
REMARK INTRA:                  -1.701
REMARK UNBOUND:                -1.490
REMARK SMILES CCCCCCCCCCCC(=O)[O-]
REMARK SMILES IDX 7 1 8 2 9 3 10 4 11 5 12 6 13 7 14 8 6 9 5 10 4 11 3 12 2 13
REMARK SMILES IDX 1 14
REMARK H PARENT
REMARK Flexibility Score: inf
ROOT
ATOM      1  C   UNL     1      -4.881  -2.344  37.789  1.00  0.00     0.000 C 
ENDROOT
BRANCH   1   2
ATOM      2  C   UNL     1      -5.768  -2.758  36.603  1.00  0.00     0.000 C 
BRANCH   2   3
ATOM      3  C   UNL     1      -4.976  -3.430  35.467  1.00  0.00     0.000 C 
BRANCH   3   4
ATOM      4  C   UNL     1      -3.451  -3.512  35.686  1.00  0.00     0.006 C 
BRANCH   4   5
ATOM      5  C   UNL     1      -2.626  -2.562  34.804  1.00  0.00     0.053 C 
BRANCH   5   6
ATOM      6  C   UNL     1      -1.279  -2.275  35.395  1.00  0.00     0.041 C 
ATOM      7  O   UNL     1      -0.582  -1.327  34.950  1.00  0.00    -0.550 OA
ATOM      8  O   UNL     1      -0.781  -3.076  36.414  1.00  0.00    -0.550 OA
ENDBRANCH   5   6
ENDBRANCH   4   5
ENDBRANCH   3   4
ENDBRANCH   2   3
ENDBRANCH   1   2
BRANCH   1   9
ATOM      9  C   UNL     1      -4.874  -0.823  38.028  1.00  0.00     0.000 C 
BRANCH   9  10
ATOM     10  C   UNL     1      -3.550  -0.107  37.687  1.00  0.00    -0.000 C 
BRANCH  10  11
ATOM     11  C   UNL     1      -3.515   0.592  36.315  1.00  0.00    -0.000 C 
BRANCH  11  12
ATOM     12  C   UNL     1      -4.913   0.772  35.701  1.00  0.00    -0.000 C 
BRANCH  12  13
ATOM     13  C   UNL     1      -4.970   0.330  34.230  1.00  0.00    -0.003 C 
ATOM     14  C   UNL     1      -6.293  -0.342  33.864  1.00  0.00     0.004 C 
ENDBRANCH  12  13
ENDBRANCH  11  12
ENDBRANCH  10  11
ENDBRANCH   9  10
ENDBRANCH   1   9
TORSDOF 10
ENDMDL
MODEL 8
REMARK VINA RESULT:    -3.171      1.138      2.712
REMARK INTER + INTRA:          -6.516
REMARK INTER:                  -4.885
REMARK INTRA:                  -1.630
REMARK UNBOUND:                -1.490
REMARK SMILES CCCCCCCCCCCC(=O)[O-]
REMARK SMILES IDX 7 1 8 2 9 3 10 4 11 5 12 6 13 7 14 8 6 9 5 10 4 11 3 12 2 13
REMARK SMILES IDX 1 14
REMARK H PARENT
REMARK Flexibility Score: inf
ROOT
ATOM      1  C   UNL     1      -4.939  -0.434  37.984  1.00  0.00     0.000 C 
ENDROOT
BRANCH   1   2
ATOM      2  C   UNL     1      -3.533   0.123  37.704  1.00  0.00     0.000 C 
BRANCH   2   3
ATOM      3  C   UNL     1      -2.500  -0.978  37.401  1.00  0.00     0.000 C 
BRANCH   3   4
ATOM      4  C   UNL     1      -1.791  -0.858  36.036  1.00  0.00     0.006 C 
BRANCH   4   5
ATOM      5  C   UNL     1      -1.091  -2.142  35.564  1.00  0.00     0.053 C 
BRANCH   5   6
ATOM      6  C   UNL     1       0.358  -2.164  35.945  1.00  0.00     0.041 C 
ATOM      7  O   UNL     1       0.962  -3.260  36.076  1.00  0.00    -0.550 OA
ATOM      8  O   UNL     1       1.032  -0.974  36.190  1.00  0.00    -0.550 OA
ENDBRANCH   5   6
ENDBRANCH   4   5
ENDBRANCH   3   4
ENDBRANCH   2   3
ENDBRANCH   1   2
BRANCH   1   9
ATOM      9  C   UNL     1      -4.993  -1.972  37.931  1.00  0.00     0.000 C 
BRANCH   9  10
ATOM     10  C   UNL     1      -5.881  -2.564  36.816  1.00  0.00    -0.000 C 
BRANCH  10  11
ATOM     11  C   UNL     1      -5.134  -3.374  35.741  1.00  0.00    -0.000 C 
BRANCH  11  12
ATOM     12  C   UNL     1      -4.816  -2.547  34.484  1.00  0.00    -0.000 C 
BRANCH  12  13
ATOM     13  C   UNL     1      -5.691  -1.288  34.372  1.00  0.00    -0.003 C 
ATOM     14  C   UNL     1      -4.870  -0.010  34.202  1.00  0.00     0.004 C 
ENDBRANCH  12  13
ENDBRANCH  11  12
ENDBRANCH  10  11
ENDBRANCH   9  10
ENDBRANCH   1   9
TORSDOF 10
ENDMDL
MODEL 9
REMARK VINA RESULT:    -3.167      4.054      5.670
REMARK INTER + INTRA:          -6.509
REMARK INTER:                  -5.088
REMARK INTRA:                  -1.422
REMARK UNBOUND:                -1.490
REMARK SMILES CCCCCCCCCCCC(=O)[O-]
REMARK SMILES IDX 7 1 8 2 9 3 10 4 11 5 12 6 13 7 14 8 6 9 5 10 4 11 3 12 2 13
REMARK SMILES IDX 1 14
REMARK H PARENT
REMARK Flexibility Score: inf
ROOT
ATOM      1  C   UNL     1      -6.152  -1.110  36.793  1.00  0.00     0.000 C 
ENDROOT
BRANCH   1   2
ATOM      2  C   UNL     1      -5.090  -0.009  36.642  1.00  0.00     0.000 C 
BRANCH   2   3
ATOM      3  C   UNL     1      -5.245   0.800  35.341  1.00  0.00     0.000 C 
BRANCH   3   4
ATOM      4  C   UNL     1      -5.605  -0.028  34.090  1.00  0.00     0.006 C 
BRANCH   4   5
ATOM      5  C   UNL     1      -6.875   0.434  33.360  1.00  0.00     0.053 C 
BRANCH   5   6
ATOM      6  C   UNL     1      -6.560   1.309  32.184  1.00  0.00     0.041 C 
ATOM      7  O   UNL     1      -5.364   1.558  31.883  1.00  0.00    -0.550 OA
ATOM      8  O   UNL     1      -7.589   1.876  31.443  1.00  0.00    -0.550 OA
ENDBRANCH   5   6
ENDBRANCH   4   5
ENDBRANCH   3   4
ENDBRANCH   2   3
ENDBRANCH   1   2
BRANCH   1   9
ATOM      9  C   UNL     1      -5.541  -2.503  37.029  1.00  0.00     0.000 C 
BRANCH   9  10
ATOM     10  C   UNL     1      -5.388  -3.379  35.768  1.00  0.00    -0.000 C 
BRANCH  10  11
ATOM     11  C   UNL     1      -3.937  -3.686  35.352  1.00  0.00    -0.000 C 
BRANCH  11  12
ATOM     12  C   UNL     1      -3.517  -2.952  34.068  1.00  0.00    -0.000 C 
BRANCH  12  13
ATOM     13  C   UNL     1      -2.442  -1.883  34.327  1.00  0.00    -0.003 C 
ATOM     14  C   UNL     1      -1.958  -1.869  35.777  1.00  0.00     0.004 C 
ENDBRANCH  12  13
ENDBRANCH  11  12
ENDBRANCH  10  11
ENDBRANCH   9  10
ENDBRANCH   1   9
TORSDOF 10
ENDMDL
