MODEL 1
REMARK VINA RESULT:    -3.821      0.000      0.000
REMARK INTER + INTRA:          -3.961
REMARK INTER:                  -4.715
REMARK INTRA:                   0.754
REMARK UNBOUND:                 0.754
REMARK SMILES CC1=CC=CC(C)(C)CC1=O
REMARK SMILES IDX 1 1 2 2 3 3 10 4 11 5 9 6 4 8 5 9 6 10 7 11 8 12
REMARK H PARENT
REMARK Flexibility Score: 80.00
ROOT
ATOM      1  C   UNL     1      12.832 -30.084  23.283  1.00  0.00     0.048 C 
ATOM      2  C   UNL     1      13.542 -31.364  22.912  1.00  0.00    -0.008 C 
ATOM      3  C   UNL     1      13.925 -32.181  23.916  1.00  0.00     0.007 C 
ENDROOT
BRANCH   2   4
ATOM      4  C   UNL     1      13.829 -31.586  21.472  1.00  0.00     0.159 C 
ATOM      5  O   UNL     1      13.650 -30.634  20.663  1.00  0.00    -0.295 OA
BRANCH   4   6
ATOM      6  C   UNL     1      14.308 -32.891  20.916  1.00  0.00     0.091 CG0
ATOM      7  G   UNL     1      15.637 -33.367  21.542  1.00  0.00     0.000 G0
ENDBRANCH   4   6
ENDBRANCH   2   4
BRANCH   3   8
ATOM      8  C   UNL     1      14.652 -33.471  23.868  1.00  0.00    -0.003 C 
ATOM      9  C   UNL     1      15.394 -33.987  22.879  1.00  0.00    -0.020 C 
BRANCH   9  10
ATOM     10  C   UNL     1      15.645 -33.362  21.527  1.00  0.00    -0.010 CG0
ATOM     11  C   UNL     1      16.233 -34.446  20.594  1.00  0.00     0.016 C 
ATOM     12  C   UNL     1      16.687 -32.227  21.656  1.00  0.00     0.016 C 
ATOM     13  G   UNL     1      14.309 -32.879  20.920  1.00  0.00     0.000 G0
ENDBRANCH   9  10
ENDBRANCH   3   8
TORSDOF 0
ENDMDL
MODEL 2
REMARK VINA RESULT:    -3.788      2.021      3.002
REMARK INTER + INTRA:          -3.920
REMARK INTER:                  -4.690
REMARK INTRA:                   0.770
REMARK UNBOUND:                 0.754
REMARK SMILES CC1=CC=CC(C)(C)CC1=O
REMARK SMILES IDX 1 1 2 2 3 3 10 4 11 5 9 6 4 8 5 9 6 10 7 11 8 12
REMARK H PARENT
REMARK Flexibility Score: 80.00
ROOT
ATOM      1  C   UNL     1      11.064 -30.278  21.709  1.00  0.00     0.048 C 
ATOM      2  C   UNL     1      12.507 -30.694  21.873  1.00  0.00    -0.008 C 
ATOM      3  C   UNL     1      13.000 -31.598  21.000  1.00  0.00     0.007 C 
ENDROOT
BRANCH   2   4
ATOM      4  C   UNL     1      13.246 -30.128  23.030  1.00  0.00     0.159 C 
ATOM      5  O   UNL     1      12.598 -29.521  23.927  1.00  0.00    -0.295 OA
BRANCH   4   6
ATOM      6  C   UNL     1      14.732 -30.225  23.188  1.00  0.00     0.091 CG0
ATOM      7  G   UNL     1      15.243 -31.682  23.253  1.00  0.00     0.000 G0
ENDBRANCH   4   6
ENDBRANCH   2   4
BRANCH   3   8
ATOM      8  C   UNL     1      14.348 -32.209  20.925  1.00  0.00    -0.003 C 
ATOM      9  C   UNL     1      15.303 -32.268  21.862  1.00  0.00    -0.020 C 
BRANCH   9  10
ATOM     10  C   UNL     1      15.233 -31.680  23.252  1.00  0.00    -0.010 CG0
ATOM     11  C   UNL     1      16.660 -31.669  23.845  1.00  0.00     0.016 C 
ATOM     12  C   UNL     1      14.348 -32.569  24.157  1.00  0.00     0.016 C 
ATOM     13  G   UNL     1      14.732 -30.221  23.175  1.00  0.00     0.000 G0
ENDBRANCH   9  10
ENDBRANCH   3   8
TORSDOF 0
ENDMDL
MODEL 3
REMARK VINA RESULT:    -3.740      2.294      3.602
REMARK INTER + INTRA:          -3.860
REMARK INTER:                  -4.624
REMARK INTRA:                   0.764
REMARK UNBOUND:                 0.754
REMARK SMILES CC1=CC=CC(C)(C)CC1=O
REMARK SMILES IDX 1 1 2 2 3 3 10 4 11 5 9 6 4 8 5 9 6 10 7 11 8 12
REMARK H PARENT
REMARK Flexibility Score: 80.00
ROOT
ATOM      1  C   UNL     1      13.004 -27.306  24.322  1.00  0.00     0.048 C 
ATOM      2  C   UNL     1      12.895 -28.425  23.313  1.00  0.00    -0.008 C 
ATOM      3  C   UNL     1      11.657 -28.830  22.958  1.00  0.00     0.007 C 
ENDROOT
BRANCH   2   4
ATOM      4  C   UNL     1      14.163 -29.043  22.849  1.00  0.00     0.159 C 
ATOM      5  O   UNL     1      15.236 -28.753  23.448  1.00  0.00    -0.295 OA
BRANCH   4   6
ATOM      6  C   UNL     1      14.246 -29.988  21.690  1.00  0.00     0.091 CG0
ATOM      7  G   UNL     1      13.390 -31.259  21.879  1.00  0.00     0.000 G0
ENDBRANCH   4   6
ENDBRANCH   2   4
BRANCH   3   8
ATOM      8  C   UNL     1      11.237 -29.904  22.028  1.00  0.00    -0.003 C 
ATOM      9  C   UNL     1      11.942 -30.945  21.567  1.00  0.00    -0.020 C 
BRANCH   9  10
ATOM     10  C   UNL     1      13.386 -31.260  21.879  1.00  0.00    -0.010 CG0
ATOM     11  C   UNL     1      13.877 -32.327  20.875  1.00  0.00     0.016 C 
ATOM     12  C   UNL     1      13.500 -31.855  23.302  1.00  0.00     0.016 C 
ATOM     13  G   UNL     1      14.247 -29.991  21.693  1.00  0.00     0.000 G0
ENDBRANCH   9  10
ENDBRANCH   3   8
TORSDOF 0
ENDMDL
MODEL 4
REMARK VINA RESULT:    -3.724      2.363      4.601
REMARK INTER + INTRA:          -3.841
REMARK INTER:                  -4.603
REMARK INTRA:                   0.762
REMARK UNBOUND:                 0.754
REMARK SMILES CC1=CC=CC(C)(C)CC1=O
REMARK SMILES IDX 1 1 2 2 3 3 10 4 11 5 9 6 4 8 5 9 6 10 7 11 8 12
REMARK H PARENT
REMARK Flexibility Score: 80.00
ROOT
ATOM      1  C   UNL     1      14.936 -32.906  21.323  1.00  0.00     0.048 C 
ATOM      2  C   UNL     1      14.023 -31.892  21.970  1.00  0.00    -0.008 C 
ATOM      3  C   UNL     1      12.968 -31.451  21.252  1.00  0.00     0.007 C 
ENDROOT
BRANCH   2   4
ATOM      4  C   UNL     1      14.402 -31.406  23.320  1.00  0.00     0.159 C 
ATOM      5  O   UNL     1      15.539 -31.707  23.778  1.00  0.00    -0.295 OA
BRANCH   4   6
ATOM      6  C   UNL     1      13.499 -30.582  24.186  1.00  0.00     0.091 CG0
ATOM      7  G   UNL     1      13.065 -29.255  23.524  1.00  0.00     0.000 G0
ENDBRANCH   4   6
ENDBRANCH   2   4
BRANCH   3   8
ATOM      8  C   UNL     1      11.928 -30.455  21.602  1.00  0.00    -0.003 C 
ATOM      9  C   UNL     1      11.950 -29.509  22.550  1.00  0.00    -0.020 C 
BRANCH   9  10
ATOM     10  C   UNL     1      13.068 -29.249  23.532  1.00  0.00    -0.010 CG0
ATOM     11  C   UNL     1      12.529 -28.319  24.643  1.00  0.00     0.016 C 
ATOM     12  C   UNL     1      14.234 -28.521  22.824  1.00  0.00     0.016 C 
ATOM     13  G   UNL     1      13.505 -30.578  24.188  1.00  0.00     0.000 G0
ENDBRANCH   9  10
ENDBRANCH   3   8
TORSDOF 0
ENDMDL
MODEL 5
REMARK VINA RESULT:    -3.717      1.902      2.128
REMARK INTER + INTRA:          -3.832
REMARK INTER:                  -4.583
REMARK INTRA:                   0.752
REMARK UNBOUND:                 0.754
REMARK SMILES CC1=CC=CC(C)(C)CC1=O
REMARK SMILES IDX 1 1 2 2 3 3 10 4 11 5 9 6 4 8 5 9 6 10 7 11 8 12
REMARK H PARENT
REMARK Flexibility Score: 80.00
ROOT
ATOM      1  C   UNL     1      12.749 -29.280  24.297  1.00  0.00     0.048 C 
ATOM      2  C   UNL     1      13.691 -30.233  23.602  1.00  0.00    -0.008 C 
ATOM      3  C   UNL     1      13.747 -31.502  24.059  1.00  0.00     0.007 C 
ENDROOT
BRANCH   2   4
ATOM      4  C   UNL     1      14.537 -29.677  22.517  1.00  0.00     0.159 C 
ATOM      5  O   UNL     1      14.580 -28.425  22.360  1.00  0.00    -0.295 OA
BRANCH   4   6
ATOM      6  C   UNL     1      15.340 -30.524  21.577  1.00  0.00     0.091 CG0
ATOM      7  G   UNL     1      16.380 -31.411  22.297  1.00  0.00     0.000 G0
ENDBRANCH   4   6
ENDBRANCH   2   4
BRANCH   3   8
ATOM      8  C   UNL     1      14.581 -32.641  23.606  1.00  0.00    -0.003 C 
ATOM      9  C   UNL     1      15.704 -32.628  22.877  1.00  0.00    -0.020 C 
BRANCH   9  10
ATOM     10  C   UNL     1      16.387 -31.409  22.304  1.00  0.00    -0.010 CG0
ATOM     11  C   UNL     1      17.414 -31.880  21.249  1.00  0.00     0.016 C 
ATOM     12  C   UNL     1      17.157 -30.663  23.418  1.00  0.00     0.016 C 
ATOM     13  G   UNL     1      15.346 -30.513  21.595  1.00  0.00     0.000 G0
ENDBRANCH   9  10
ENDBRANCH   3   8
TORSDOF 0
ENDMDL
MODEL 6
REMARK VINA RESULT:    -3.683      8.459     10.024
REMARK INTER + INTRA:          -3.791
REMARK INTER:                  -4.537
REMARK INTRA:                   0.746
REMARK UNBOUND:                 0.754
REMARK SMILES CC1=CC=CC(C)(C)CC1=O
REMARK SMILES IDX 1 1 2 2 3 3 10 4 11 5 9 6 4 8 5 9 6 10 7 11 8 12
REMARK H PARENT
REMARK Flexibility Score: 80.00
ROOT
ATOM      1  C   UNL     1      21.042 -29.755  21.991  1.00  0.00     0.048 C 
ATOM      2  C   UNL     1      21.245 -28.308  21.609  1.00  0.00    -0.008 C 
ATOM      3  C   UNL     1      20.324 -27.738  20.804  1.00  0.00     0.007 C 
ENDROOT
BRANCH   2   4
ATOM      4  C   UNL     1      22.486 -27.650  22.090  1.00  0.00     0.159 C 
ATOM      5  O   UNL     1      23.392 -28.362  22.605  1.00  0.00    -0.295 OA
BRANCH   4   6
ATOM      6  C   UNL     1      22.721 -26.172  22.014  1.00  0.00     0.091 CG0
ATOM      7  G   UNL     1      22.671 -25.623  20.571  1.00  0.00     0.000 G0
ENDBRANCH   4   6
ENDBRANCH   2   4
BRANCH   3   8
ATOM      8  C   UNL     1      20.266 -26.366  20.246  1.00  0.00    -0.003 C 
ATOM      9  C   UNL     1      21.247 -25.462  20.125  1.00  0.00    -0.020 C 
BRANCH   9  10
ATOM     10  C   UNL     1      22.680 -25.628  20.571  1.00  0.00    -0.010 CG0
ATOM     11  C   UNL     1      23.349 -24.234  20.579  1.00  0.00     0.016 C 
ATOM     12  C   UNL     1      23.446 -26.518  19.565  1.00  0.00     0.016 C 
ATOM     13  G   UNL     1      22.716 -26.187  22.011  1.00  0.00     0.000 G0
ENDBRANCH   9  10
ENDBRANCH   3   8
TORSDOF 0
ENDMDL
MODEL 7
REMARK VINA RESULT:    -3.680      1.913      3.875
REMARK INTER + INTRA:          -3.787
REMARK INTER:                  -4.546
REMARK INTRA:                   0.759
REMARK UNBOUND:                 0.754
REMARK SMILES CC1=CC=CC(C)(C)CC1=O
REMARK SMILES IDX 1 1 2 2 3 3 10 4 11 5 9 6 4 8 5 9 6 10 7 11 8 12
REMARK H PARENT
REMARK Flexibility Score: 80.00
ROOT
ATOM      1  C   UNL     1      15.989 -35.074  20.720  1.00  0.00     0.048 C 
ATOM      2  C   UNL     1      15.127 -33.946  21.238  1.00  0.00    -0.008 C 
ATOM      3  C   UNL     1      14.392 -33.257  20.341  1.00  0.00     0.007 C 
ENDROOT
BRANCH   2   4
ATOM      4  C   UNL     1      15.217 -33.639  22.688  1.00  0.00     0.159 C 
ATOM      5  O   UNL     1      16.141 -34.167  23.366  1.00  0.00    -0.295 OA
BRANCH   4   6
ATOM      6  C   UNL     1      14.255 -32.741  23.404  1.00  0.00     0.091 CG0
ATOM      7  G   UNL     1      14.248 -31.297  22.854  1.00  0.00     0.000 G0
ENDBRANCH   4   6
ENDBRANCH   2   4
BRANCH   3   8
ATOM      8  C   UNL     1      13.486 -32.102  20.540  1.00  0.00    -0.003 C 
ATOM      9  C   UNL     1      13.411 -31.255  21.575  1.00  0.00    -0.020 C 
BRANCH   9  10
ATOM     10  C   UNL     1      14.244 -31.303  22.835  1.00  0.00    -0.010 CG0
ATOM     11  C   UNL     1      13.585 -30.381  23.886  1.00  0.00     0.016 C 
ATOM     12  C   UNL     1      15.664 -30.762  22.549  1.00  0.00     0.016 C 
ATOM     13  G   UNL     1      14.256 -32.742  23.396  1.00  0.00     0.000 G0
ENDBRANCH   9  10
ENDBRANCH   3   8
TORSDOF 0
ENDMDL
MODEL 8
REMARK VINA RESULT:    -3.630      1.464      2.336
REMARK INTER + INTRA:          -3.725
REMARK INTER:                  -4.466
REMARK INTRA:                   0.742
REMARK UNBOUND:                 0.754
REMARK SMILES CC1=CC=CC(C)(C)CC1=O
REMARK SMILES IDX 1 1 2 2 3 3 10 4 11 5 9 6 4 8 5 9 6 10 7 11 8 12
REMARK H PARENT
REMARK Flexibility Score: 80.00
ROOT
ATOM      1  C   UNL     1      13.926 -29.104  22.762  1.00  0.00     0.048 C 
ATOM      2  C   UNL     1      14.319 -30.371  22.039  1.00  0.00    -0.008 C 
ATOM      3  C   UNL     1      13.386 -30.965  21.264  1.00  0.00     0.007 C 
ENDROOT
BRANCH   2   4
ATOM      4  C   UNL     1      15.680 -30.903  22.299  1.00  0.00     0.159 C 
ATOM      5  O   UNL     1      16.358 -30.406  23.240  1.00  0.00    -0.295 OA
BRANCH   4   6
ATOM      6  C   UNL     1      16.308 -31.998  21.492  1.00  0.00     0.091 CG0
ATOM      7  G   UNL     1      15.506 -33.318  21.531  1.00  0.00     0.000 G0
ENDBRANCH   4   6
ENDBRANCH   2   4
BRANCH   3   8
ATOM      8  C   UNL     1      13.465 -32.211  20.466  1.00  0.00    -0.003 C 
ATOM      9  C   UNL     1      14.340 -33.220  20.561  1.00  0.00    -0.020 C 
BRANCH   9  10
ATOM     10  C   UNL     1      15.505 -33.311  21.518  1.00  0.00    -0.010 CG0
ATOM     11  C   UNL     1      16.448 -34.434  21.028  1.00  0.00     0.016 C 
ATOM     12  C   UNL     1      15.000 -33.694  22.929  1.00  0.00     0.016 C 
ATOM     13  G   UNL     1      16.293 -31.982  21.507  1.00  0.00     0.000 G0
ENDBRANCH   9  10
ENDBRANCH   3   8
TORSDOF 0
ENDMDL
MODEL 9
REMARK VINA RESULT:    -3.525      1.540      2.439
REMARK INTER + INTRA:          -3.595
REMARK INTER:                  -4.350
REMARK INTRA:                   0.754
REMARK UNBOUND:                 0.754
REMARK SMILES CC1=CC=CC(C)(C)CC1=O
REMARK SMILES IDX 1 1 2 2 3 3 10 4 11 5 9 6 4 8 5 9 6 10 7 11 8 12
REMARK H PARENT
REMARK Flexibility Score: 80.00
ROOT
ATOM      1  C   UNL     1      14.344 -29.041  23.335  1.00  0.00     0.048 C 
ATOM      2  C   UNL     1      15.033 -30.292  22.846  1.00  0.00    -0.008 C 
ATOM      3  C   UNL     1      16.071 -30.143  21.996  1.00  0.00     0.007 C 
ENDROOT
BRANCH   2   4
ATOM      4  C   UNL     1      14.463 -31.592  23.282  1.00  0.00     0.159 C 
ATOM      5  O   UNL     1      13.342 -31.601  23.861  1.00  0.00    -0.295 OA
BRANCH   4   6
ATOM      6  C   UNL     1      15.156 -32.906  23.086  1.00  0.00     0.091 CG0
ATOM      7  G   UNL     1      15.442 -33.226  21.602  1.00  0.00     0.000 G0
ENDBRANCH   4   6
ENDBRANCH   2   4
BRANCH   3   8
ATOM      8  C   UNL     1      16.915 -31.168  21.337  1.00  0.00    -0.003 C 
ATOM      9  C   UNL     1      16.668 -32.470  21.144  1.00  0.00    -0.020 C 
BRANCH   9  10
ATOM     10  C   UNL     1      15.441 -33.226  21.597  1.00  0.00    -0.010 CG0
ATOM     11  C   UNL     1      15.737 -34.739  21.488  1.00  0.00     0.016 C 
ATOM     12  C   UNL     1      14.250 -32.905  20.664  1.00  0.00     0.016 C 
ATOM     13  G   UNL     1      15.144 -32.899  23.077  1.00  0.00     0.000 G0
ENDBRANCH   9  10
ENDBRANCH   3   8
TORSDOF 0
ENDMDL
