MODEL 1
REMARK VINA RESULT:    -3.910      0.000      0.000
REMARK INTER + INTRA:          -7.380
REMARK INTER:                  -6.196
REMARK INTRA:                  -1.184
REMARK UNBOUND:                -1.184
REMARK SMILES CCCCCCCCCCCC(=O)[O-]
REMARK SMILES IDX 7 1 8 2 9 3 10 4 11 5 12 6 13 7 14 8 6 9 5 10 4 11 3 12 2 13
REMARK SMILES IDX 1 14
REMARK H PARENT
REMARK Flexibility Score: inf
ROOT
ATOM      1  C   UNL     1       7.149 -16.527  22.842  1.00  0.00     0.000 C 
ENDROOT
BRANCH   1   2
ATOM      2  C   UNL     1       6.221 -17.222  23.852  1.00  0.00     0.000 C 
BRANCH   2   3
ATOM      3  C   UNL     1       6.946 -18.310  24.664  1.00  0.00     0.000 C 
BRANCH   3   4
ATOM      4  C   UNL     1       7.587 -19.383  23.768  1.00  0.00     0.006 C 
BRANCH   4   5
ATOM      5  C   UNL     1       6.550 -20.222  23.012  1.00  0.00     0.053 C 
BRANCH   5   6
ATOM      6  C   UNL     1       6.994 -20.457  21.603  1.00  0.00     0.041 C 
ATOM      7  O   UNL     1       7.333 -21.610  21.229  1.00  0.00    -0.550 OA
ATOM      8  O   UNL     1       7.081 -19.392  20.714  1.00  0.00    -0.550 OA
ENDBRANCH   5   6
ENDBRANCH   4   5
ENDBRANCH   3   4
ENDBRANCH   2   3
ENDBRANCH   1   2
BRANCH   1   9
ATOM      9  C   UNL     1       7.398 -15.049  23.191  1.00  0.00     0.000 C 
BRANCH   9  10
ATOM     10  C   UNL     1       8.391 -14.865  24.353  1.00  0.00    -0.000 C 
BRANCH  10  11
ATOM     11  C   UNL     1       9.878 -14.923  23.962  1.00  0.00    -0.000 C 
BRANCH  11  12
ATOM     12  C   UNL     1      10.555 -16.241  24.373  1.00  0.00    -0.000 C 
BRANCH  12  13
ATOM     13  C   UNL     1      10.454 -16.509  25.882  1.00  0.00    -0.003 C 
ATOM     14  C   UNL     1      10.285 -17.993  26.213  1.00  0.00     0.004 C 
ENDBRANCH  12  13
ENDBRANCH  11  12
ENDBRANCH  10  11
ENDBRANCH   9  10
ENDBRANCH   1   9
TORSDOF 10
ENDMDL
MODEL 2
REMARK VINA RESULT:    -3.815      2.886      5.218
REMARK INTER + INTRA:          -7.230
REMARK INTER:                  -5.811
REMARK INTRA:                  -1.419
REMARK UNBOUND:                -1.184
REMARK SMILES CCCCCCCCCCCC(=O)[O-]
REMARK SMILES IDX 7 1 8 2 9 3 10 4 11 5 12 6 13 7 14 8 6 9 5 10 4 11 3 12 2 13
REMARK SMILES IDX 1 14
REMARK H PARENT
REMARK Flexibility Score: inf
ROOT
ATOM      1  C   UNL     1       6.940 -20.032  24.115  1.00  0.00     0.000 C 
ENDROOT
BRANCH   1   2
ATOM      2  C   UNL     1       7.420 -18.740  24.798  1.00  0.00     0.000 C 
BRANCH   2   3
ATOM      3  C   UNL     1       8.940 -18.535  24.664  1.00  0.00     0.000 C 
BRANCH   3   4
ATOM      4  C   UNL     1       9.574 -17.977  25.949  1.00  0.00     0.006 C 
BRANCH   4   5
ATOM      5  C   UNL     1      10.485 -16.771  25.686  1.00  0.00     0.053 C 
BRANCH   5   6
ATOM      6  C   UNL     1       9.684 -15.612  25.184  1.00  0.00     0.041 C 
ATOM      7  O   UNL     1      10.079 -14.954  24.186  1.00  0.00    -0.550 OA
ATOM      8  O   UNL     1       8.525 -15.226  25.848  1.00  0.00    -0.550 OA
ENDBRANCH   5   6
ENDBRANCH   4   5
ENDBRANCH   3   4
ENDBRANCH   2   3
ENDBRANCH   1   2
BRANCH   1   9
ATOM      9  C   UNL     1       6.375 -19.779  22.707  1.00  0.00     0.000 C 
BRANCH   9  10
ATOM     10  C   UNL     1       7.398 -20.056  21.590  1.00  0.00    -0.000 C 
BRANCH  10  11
ATOM     11  C   UNL     1       8.056 -18.806  20.978  1.00  0.00    -0.000 C 
BRANCH  11  12
ATOM     12  C   UNL     1       7.162 -17.557  21.059  1.00  0.00    -0.000 C 
BRANCH  12  13
ATOM     13  C   UNL     1       7.814 -16.417  21.855  1.00  0.00    -0.003 C 
ATOM     14  C   UNL     1       6.818 -15.662  22.736  1.00  0.00     0.004 C 
ENDBRANCH  12  13
ENDBRANCH  11  12
ENDBRANCH  10  11
ENDBRANCH   9  10
ENDBRANCH   1   9
TORSDOF 10
ENDMDL
MODEL 3
REMARK VINA RESULT:    -3.800      3.119      5.382
REMARK INTER + INTRA:          -7.205
REMARK INTER:                  -5.828
REMARK INTRA:                  -1.377
REMARK UNBOUND:                -1.184
REMARK SMILES CCCCCCCCCCCC(=O)[O-]
REMARK SMILES IDX 7 1 8 2 9 3 10 4 11 5 12 6 13 7 14 8 6 9 5 10 4 11 3 12 2 13
REMARK SMILES IDX 1 14
REMARK H PARENT
REMARK Flexibility Score: inf
ROOT
ATOM      1  C   UNL     1       8.425 -17.603  20.073  1.00  0.00     0.000 C 
ENDROOT
BRANCH   1   2
ATOM      2  C   UNL     1       8.470 -16.593  21.232  1.00  0.00     0.000 C 
BRANCH   2   3
ATOM      3  C   UNL     1       7.070 -16.087  21.625  1.00  0.00     0.000 C 
BRANCH   3   4
ATOM      4  C   UNL     1       6.983 -15.687  23.106  1.00  0.00     0.006 C 
BRANCH   4   5
ATOM      5  C   UNL     1       7.778 -14.414  23.424  1.00  0.00     0.053 C 
BRANCH   5   6
ATOM      6  C   UNL     1       8.892 -14.718  24.375  1.00  0.00     0.041 C 
ATOM      7  O   UNL     1      10.089 -14.645  23.992  1.00  0.00    -0.550 OA
ATOM      8  O   UNL     1       8.607 -15.129  25.672  1.00  0.00    -0.550 OA
ENDBRANCH   5   6
ENDBRANCH   4   5
ENDBRANCH   3   4
ENDBRANCH   2   3
ENDBRANCH   1   2
BRANCH   1   9
ATOM      9  C   UNL     1       7.295 -18.635  20.234  1.00  0.00     0.000 C 
BRANCH   9  10
ATOM     10  C   UNL     1       7.816 -20.056  20.517  1.00  0.00    -0.000 C 
BRANCH  10  11
ATOM     11  C   UNL     1       7.905 -20.439  22.005  1.00  0.00    -0.000 C 
BRANCH  11  12
ATOM     12  C   UNL     1       6.639 -20.069  22.796  1.00  0.00    -0.000 C 
BRANCH  12  13
ATOM     13  C   UNL     1       6.946 -19.200  24.025  1.00  0.00    -0.003 C 
ATOM     14  C   UNL     1       8.434 -18.876  24.167  1.00  0.00     0.004 C 
ENDBRANCH  12  13
ENDBRANCH  11  12
ENDBRANCH  10  11
ENDBRANCH   9  10
ENDBRANCH   1   9
TORSDOF 10
ENDMDL
MODEL 4
REMARK VINA RESULT:    -3.796      3.084      5.190
REMARK INTER + INTRA:          -7.199
REMARK INTER:                  -5.887
REMARK INTRA:                  -1.312
REMARK UNBOUND:                -1.184
REMARK SMILES CCCCCCCCCCCC(=O)[O-]
REMARK SMILES IDX 7 1 8 2 9 3 10 4 11 5 12 6 13 7 14 8 6 9 5 10 4 11 3 12 2 13
REMARK SMILES IDX 1 14
REMARK H PARENT
REMARK Flexibility Score: inf
ROOT
ATOM      1  C   UNL     1       6.943 -19.778  24.121  1.00  0.00     0.000 C 
ENDROOT
BRANCH   1   2
ATOM      2  C   UNL     1       7.047 -18.323  24.607  1.00  0.00     0.000 C 
BRANCH   2   3
ATOM      3  C   UNL     1       6.477 -17.320  23.588  1.00  0.00     0.000 C 
BRANCH   3   4
ATOM      4  C   UNL     1       7.573 -16.477  22.916  1.00  0.00     0.006 C 
BRANCH   4   5
ATOM      5  C   UNL     1       7.617 -15.036  23.439  1.00  0.00     0.053 C 
BRANCH   5   6
ATOM      6  C   UNL     1       8.782 -14.849  24.358  1.00  0.00     0.041 C 
ATOM      7  O   UNL     1       9.890 -14.459  23.905  1.00  0.00    -0.550 OA
ATOM      8  O   UNL     1       8.659 -15.151  25.709  1.00  0.00    -0.550 OA
ENDBRANCH   5   6
ENDBRANCH   4   5
ENDBRANCH   3   4
ENDBRANCH   2   3
ENDBRANCH   1   2
BRANCH   1   9
ATOM      9  C   UNL     1       6.047 -19.921  22.878  1.00  0.00     0.000 C 
BRANCH   9  10
ATOM     10  C   UNL     1       6.778 -20.556  21.680  1.00  0.00    -0.000 C 
BRANCH  10  11
ATOM     11  C   UNL     1       7.897 -19.698  21.064  1.00  0.00    -0.000 C 
BRANCH  11  12
ATOM     12  C   UNL     1       9.279 -20.368  21.143  1.00  0.00    -0.000 C 
BRANCH  12  13
ATOM     13  C   UNL     1      10.386 -19.386  21.555  1.00  0.00    -0.003 C 
ATOM     14  C   UNL     1      10.376 -19.073  23.052  1.00  0.00     0.004 C 
ENDBRANCH  12  13
ENDBRANCH  11  12
ENDBRANCH  10  11
ENDBRANCH   9  10
ENDBRANCH   1   9
TORSDOF 10
ENDMDL
MODEL 5
REMARK VINA RESULT:    -3.784      2.457      3.208
REMARK INTER + INTRA:          -7.181
REMARK INTER:                  -5.634
REMARK INTRA:                  -1.547
REMARK UNBOUND:                -1.184
REMARK SMILES CCCCCCCCCCCC(=O)[O-]
REMARK SMILES IDX 7 1 8 2 9 3 10 4 11 5 12 6 13 7 14 8 6 9 5 10 4 11 3 12 2 13
REMARK SMILES IDX 1 14
REMARK H PARENT
REMARK Flexibility Score: inf
ROOT
ATOM      1  C   UNL     1       7.539 -16.432  21.324  1.00  0.00     0.000 C 
ENDROOT
BRANCH   1   2
ATOM      2  C   UNL     1       7.722 -17.959  21.317  1.00  0.00     0.000 C 
BRANCH   2   3
ATOM      3  C   UNL     1       6.972 -18.645  22.474  1.00  0.00     0.000 C 
BRANCH   3   4
ATOM      4  C   UNL     1       7.908 -19.464  23.378  1.00  0.00     0.006 C 
BRANCH   4   5
ATOM      5  C   UNL     1       8.430 -18.659  24.575  1.00  0.00     0.053 C 
BRANCH   5   6
ATOM      6  C   UNL     1       7.389 -18.580  25.645  1.00  0.00     0.041 C 
ATOM      7  O   UNL     1       6.839 -17.480  25.915  1.00  0.00    -0.550 OA
ATOM      8  O   UNL     1       7.059 -19.712  26.381  1.00  0.00    -0.550 OA
ENDBRANCH   5   6
ENDBRANCH   4   5
ENDBRANCH   3   4
ENDBRANCH   2   3
ENDBRANCH   1   2
BRANCH   1   9
ATOM      9  C   UNL     1       6.825 -15.929  22.590  1.00  0.00     0.000 C 
BRANCH   9  10
ATOM     10  C   UNL     1       7.448 -14.642  23.161  1.00  0.00    -0.000 C 
BRANCH  10  11
ATOM     11  C   UNL     1       8.494 -14.854  24.270  1.00  0.00    -0.000 C 
BRANCH  11  12
ATOM     12  C   UNL     1       9.936 -14.627  23.786  1.00  0.00    -0.000 C 
BRANCH  12  13
ATOM     13  C   UNL     1      10.834 -15.852  24.015  1.00  0.00    -0.003 C 
ATOM     14  C   UNL     1      11.007 -16.705  22.758  1.00  0.00     0.004 C 
ENDBRANCH  12  13
ENDBRANCH  11  12
ENDBRANCH  10  11
ENDBRANCH   9  10
ENDBRANCH   1   9
TORSDOF 10
ENDMDL
MODEL 6
REMARK VINA RESULT:    -3.764      1.216      1.845
REMARK INTER + INTRA:          -7.149
REMARK INTER:                  -6.078
REMARK INTRA:                  -1.070
REMARK UNBOUND:                -1.184
REMARK SMILES CCCCCCCCCCCC(=O)[O-]
REMARK SMILES IDX 7 1 8 2 9 3 10 4 11 5 12 6 13 7 14 8 6 9 5 10 4 11 3 12 2 13
REMARK SMILES IDX 1 14
REMARK H PARENT
REMARK Flexibility Score: inf
ROOT
ATOM      1  C   UNL     1       7.424 -17.516  22.765  1.00  0.00     0.000 C 
ENDROOT
BRANCH   1   2
ATOM      2  C   UNL     1       7.775 -18.652  23.740  1.00  0.00     0.000 C 
BRANCH   2   3
ATOM      3  C   UNL     1       6.981 -19.940  23.452  1.00  0.00     0.000 C 
BRANCH   3   4
ATOM      4  C   UNL     1       6.677 -20.121  21.956  1.00  0.00     0.006 C 
BRANCH   4   5
ATOM      5  C   UNL     1       7.448 -21.291  21.332  1.00  0.00     0.053 C 
BRANCH   5   6
ATOM      6  C   UNL     1       8.515 -20.784  20.415  1.00  0.00     0.041 C 
ATOM      7  O   UNL     1       8.479 -21.057  19.187  1.00  0.00    -0.550 OA
ATOM      8  O   UNL     1       9.579 -20.048  20.925  1.00  0.00    -0.550 OA
ENDBRANCH   5   6
ENDBRANCH   4   5
ENDBRANCH   3   4
ENDBRANCH   2   3
ENDBRANCH   1   2
BRANCH   1   9
ATOM      9  C   UNL     1       6.734 -16.332  23.464  1.00  0.00     0.000 C 
BRANCH   9  10
ATOM     10  C   UNL     1       7.516 -15.013  23.324  1.00  0.00    -0.000 C 
BRANCH  10  11
ATOM     11  C   UNL     1       8.571 -14.755  24.414  1.00  0.00    -0.000 C 
BRANCH  11  12
ATOM     12  C   UNL     1      10.011 -14.948  23.912  1.00  0.00    -0.000 C 
BRANCH  12  13
ATOM     13  C   UNL     1      10.724 -16.121  24.602  1.00  0.00    -0.003 C 
ATOM     14  C   UNL     1      10.041 -16.549  25.902  1.00  0.00     0.004 C 
ENDBRANCH  12  13
ENDBRANCH  11  12
ENDBRANCH  10  11
ENDBRANCH   9  10
ENDBRANCH   1   9
TORSDOF 10
ENDMDL
MODEL 7
REMARK VINA RESULT:    -3.759      2.621      4.268
REMARK INTER + INTRA:          -7.141
REMARK INTER:                  -5.580
REMARK INTRA:                  -1.561
REMARK UNBOUND:                -1.184
REMARK SMILES CCCCCCCCCCCC(=O)[O-]
REMARK SMILES IDX 7 1 8 2 9 3 10 4 11 5 12 6 13 7 14 8 6 9 5 10 4 11 3 12 2 13
REMARK SMILES IDX 1 14
REMARK H PARENT
REMARK Flexibility Score: inf
ROOT
ATOM      1  C   UNL     1      10.123 -14.727  23.691  1.00  0.00     0.000 C 
ENDROOT
BRANCH   1   2
ATOM      2  C   UNL     1      10.971 -15.933  24.126  1.00  0.00     0.000 C 
BRANCH   2   3
ATOM      3  C   UNL     1      10.394 -16.640  25.367  1.00  0.00     0.000 C 
BRANCH   3   4
ATOM      4  C   UNL     1      10.590 -18.164  25.320  1.00  0.00     0.006 C 
BRANCH   4   5
ATOM      5  C   UNL     1      10.706 -18.704  23.889  1.00  0.00     0.053 C 
BRANCH   5   6
ATOM      6  C   UNL     1      11.975 -19.478  23.725  1.00  0.00     0.041 C 
ATOM      7  O   UNL     1      12.986 -19.193  24.418  1.00  0.00    -0.550 OA
ATOM      8  O   UNL     1      12.057 -20.485  22.770  1.00  0.00    -0.550 OA
ENDBRANCH   5   6
ENDBRANCH   4   5
ENDBRANCH   3   4
ENDBRANCH   2   3
ENDBRANCH   1   2
BRANCH   1   9
ATOM      9  C   UNL     1       8.714 -14.742  24.309  1.00  0.00     0.000 C 
BRANCH   9  10
ATOM     10  C   UNL     1       7.594 -14.691  23.254  1.00  0.00    -0.000 C 
BRANCH  10  11
ATOM     11  C   UNL     1       6.636 -15.896  23.254  1.00  0.00    -0.000 C 
BRANCH  11  12
ATOM     12  C   UNL     1       7.368 -17.244  23.141  1.00  0.00    -0.000 C 
BRANCH  12  13
ATOM     13  C   UNL     1       6.854 -18.280  24.152  1.00  0.00    -0.003 C 
ATOM     14  C   UNL     1       6.828 -17.748  25.586  1.00  0.00     0.004 C 
ENDBRANCH  12  13
ENDBRANCH  11  12
ENDBRANCH  10  11
ENDBRANCH   9  10
ENDBRANCH   1   9
TORSDOF 10
ENDMDL
MODEL 8
REMARK VINA RESULT:    -3.736      1.471      2.661
REMARK INTER + INTRA:          -7.105
REMARK INTER:                  -6.007
REMARK INTRA:                  -1.098
REMARK UNBOUND:                -1.184
REMARK SMILES CCCCCCCCCCCC(=O)[O-]
REMARK SMILES IDX 7 1 8 2 9 3 10 4 11 5 12 6 13 7 14 8 6 9 5 10 4 11 3 12 2 13
REMARK SMILES IDX 1 14
REMARK H PARENT
REMARK Flexibility Score: inf
ROOT
ATOM      1  C   UNL     1       6.695 -17.264  23.373  1.00  0.00     0.000 C 
ENDROOT
BRANCH   1   2
ATOM      2  C   UNL     1       7.562 -17.374  22.108  1.00  0.00     0.000 C 
BRANCH   2   3
ATOM      3  C   UNL     1       8.108 -18.797  21.893  1.00  0.00     0.000 C 
BRANCH   3   4
ATOM      4  C   UNL     1       7.194 -19.648  20.996  1.00  0.00     0.006 C 
BRANCH   4   5
ATOM      5  C   UNL     1       7.225 -21.138  21.361  1.00  0.00     0.053 C 
BRANCH   5   6
ATOM      6  C   UNL     1       8.219 -21.863  20.510  1.00  0.00     0.041 C 
ATOM      7  O   UNL     1       8.848 -22.851  20.972  1.00  0.00    -0.550 OA
ATOM      8  O   UNL     1       8.486 -21.419  19.220  1.00  0.00    -0.550 OA
ENDBRANCH   5   6
ENDBRANCH   4   5
ENDBRANCH   3   4
ENDBRANCH   2   3
ENDBRANCH   1   2
BRANCH   1   9
ATOM      9  C   UNL     1       6.962 -18.403  24.373  1.00  0.00     0.000 C 
BRANCH   9  10
ATOM     10  C   UNL     1       7.399 -17.895  25.759  1.00  0.00    -0.000 C 
BRANCH  10  11
ATOM     11  C   UNL     1       8.057 -16.504  25.772  1.00  0.00    -0.000 C 
BRANCH  11  12
ATOM     12  C   UNL     1       9.592 -16.568  25.842  1.00  0.00    -0.000 C 
BRANCH  12  13
ATOM     13  C   UNL     1      10.265 -15.898  24.634  1.00  0.00    -0.003 C 
ATOM     14  C   UNL     1       9.448 -14.736  24.068  1.00  0.00     0.004 C 
ENDBRANCH  12  13
ENDBRANCH  11  12
ENDBRANCH  10  11
ENDBRANCH   9  10
ENDBRANCH   1   9
TORSDOF 10
ENDMDL
MODEL 9
REMARK VINA RESULT:    -3.709      3.173      6.079
REMARK INTER + INTRA:          -7.061
REMARK INTER:                  -6.111
REMARK INTRA:                  -0.950
REMARK UNBOUND:                -1.184
REMARK SMILES CCCCCCCCCCCC(=O)[O-]
REMARK SMILES IDX 7 1 8 2 9 3 10 4 11 5 12 6 13 7 14 8 6 9 5 10 4 11 3 12 2 13
REMARK SMILES IDX 1 14
REMARK H PARENT
REMARK Flexibility Score: inf
ROOT
ATOM      1  C   UNL     1       8.000 -18.378  22.666  1.00  0.00     0.000 C 
ENDROOT
BRANCH   1   2
ATOM      2  C   UNL     1       7.620 -17.631  21.376  1.00  0.00     0.000 C 
BRANCH   2   3
ATOM      3  C   UNL     1       7.099 -16.209  21.653  1.00  0.00     0.000 C 
BRANCH   3   4
ATOM      4  C   UNL     1       7.005 -15.898  23.156  1.00  0.00     0.006 C 
BRANCH   4   5
ATOM      5  C   UNL     1       7.803 -14.651  23.555  1.00  0.00     0.053 C 
BRANCH   5   6
ATOM      6  C   UNL     1       8.797 -14.986  24.621  1.00  0.00     0.041 C 
ATOM      7  O   UNL     1      10.030 -14.957  24.370  1.00  0.00    -0.550 OA
ATOM      8  O   UNL     1       8.360 -15.379  25.881  1.00  0.00    -0.550 OA
ENDBRANCH   5   6
ENDBRANCH   4   5
ENDBRANCH   3   4
ENDBRANCH   2   3
ENDBRANCH   1   2
BRANCH   1   9
ATOM      9  C   UNL     1       7.201 -19.680  22.850  1.00  0.00     0.000 C 
BRANCH   9  10
ATOM     10  C   UNL     1       6.828 -20.350  21.516  1.00  0.00    -0.000 C 
BRANCH  10  11
ATOM     11  C   UNL     1       7.582 -21.656  21.203  1.00  0.00    -0.000 C 
BRANCH  11  12
ATOM     12  C   UNL     1       8.882 -21.423  20.417  1.00  0.00    -0.000 C 
BRANCH  12  13
ATOM     13  C   UNL     1       8.623 -20.982  18.968  1.00  0.00    -0.003 C 
ATOM     14  C   UNL     1       9.169 -19.586  18.665  1.00  0.00     0.004 C 
ENDBRANCH  12  13
ENDBRANCH  11  12
ENDBRANCH  10  11
ENDBRANCH   9  10
ENDBRANCH   1   9
TORSDOF 10
ENDMDL
