MODEL 1
REMARK VINA RESULT:    -1.436      0.000      0.000
REMARK INTER + INTRA:          -7.729
REMARK INTER:                  -3.283
REMARK INTRA:                  -4.446
REMARK UNBOUND:                -4.446
REMARK SMILES CCCCCCCCCCCCCCCCCCCCCCCC(=O)[O-]
REMARK SMILES IDX 13 1 14 2 15 3 16 4 17 5 18 6 19 7 20 8 21 9 22 10 23 11
REMARK SMILES IDX 24 12 25 13 26 14 12 15 11 16 10 17 9 18 8 19 7 20 6 21 5 22
REMARK SMILES IDX 4 23 3 24 2 25 1 26
REMARK H PARENT
REMARK Flexibility Score: inf
ROOT
ATOM      1  C   UNL     1     173.638 181.010 193.331  1.00  0.00     0.000 C 
ENDROOT
BRANCH   1   2
ATOM      2  C   UNL     1     173.179 180.253 192.077  1.00  0.00     0.000 C 
BRANCH   2   3
ATOM      3  C   UNL     1     171.903 179.423 192.310  1.00  0.00     0.000 C 
BRANCH   3   4
ATOM      4  C   UNL     1     171.887 178.044 191.618  1.00  0.00     0.000 C 
BRANCH   4   5
ATOM      5  C   UNL     1     172.396 176.875 192.483  1.00  0.00     0.000 C 
BRANCH   5   6
ATOM      6  C   UNL     1     172.187 177.049 194.001  1.00  0.00     0.000 C 
BRANCH   6   7
ATOM      7  C   UNL     1     173.461 176.902 194.852  1.00  0.00     0.000 C 
BRANCH   7   8
ATOM      8  C   UNL     1     174.715 177.443 194.149  1.00  0.00     0.000 C 
BRANCH   8   9
ATOM      9  C   UNL     1     175.970 177.198 195.000  1.00  0.00     0.000 C 
BRANCH   9  10
ATOM     10  C   UNL     1     176.417 178.449 195.778  1.00  0.00     0.006 C 
BRANCH  10  11
ATOM     11  C   UNL     1     176.628 179.695 194.904  1.00  0.00     0.053 C 
BRANCH  11  12
ATOM     12  C   UNL     1     177.163 180.850 195.693  1.00  0.00     0.041 C 
ATOM     13  O   UNL     1     177.490 181.918 195.110  1.00  0.00    -0.550 OA
ATOM     14  O   UNL     1     177.266 180.760 197.075  1.00  0.00    -0.550 OA
ENDBRANCH  11  12
ENDBRANCH  10  11
ENDBRANCH   9  10
ENDBRANCH   8   9
ENDBRANCH   7   8
ENDBRANCH   6   7
ENDBRANCH   5   6
ENDBRANCH   4   5
ENDBRANCH   3   4
ENDBRANCH   2   3
ENDBRANCH   1   2
BRANCH   1  15
ATOM     15  C   UNL     1     172.757 180.655 194.539  1.00  0.00     0.000 C 
BRANCH  15  16
ATOM     16  C   UNL     1     172.877 181.680 195.678  1.00  0.00     0.000 C 
BRANCH  16  17
ATOM     17  C   UNL     1     173.651 181.129 196.890  1.00  0.00     0.000 C 
BRANCH  17  18
ATOM     18  C   UNL     1     173.249 179.688 197.240  1.00  0.00    -0.000 C 
BRANCH  18  19
ATOM     19  C   UNL     1     174.182 179.052 198.282  1.00  0.00    -0.000 C 
BRANCH  19  20
ATOM     20  C   UNL     1     173.731 177.628 198.627  1.00  0.00    -0.000 C 
BRANCH  20  21
ATOM     21  C   UNL     1     172.224 177.583 198.918  1.00  0.00    -0.000 C 
BRANCH  21  22
ATOM     22  C   UNL     1     171.898 177.656 200.421  1.00  0.00    -0.000 C 
BRANCH  22  23
ATOM     23  C   UNL     1     171.737 179.080 200.982  1.00  0.00    -0.000 C 
BRANCH  23  24
ATOM     24  C   UNL     1     170.885 179.987 200.082  1.00  0.00    -0.000 C 
BRANCH  24  25
ATOM     25  C   UNL     1     171.250 181.462 200.285  1.00  0.00    -0.003 C 
ATOM     26  C   UNL     1     172.741 181.627 200.565  1.00  0.00     0.004 C 
ENDBRANCH  24  25
ENDBRANCH  23  24
ENDBRANCH  22  23
ENDBRANCH  21  22
ENDBRANCH  20  21
ENDBRANCH  19  20
ENDBRANCH  18  19
ENDBRANCH  17  18
ENDBRANCH  16  17
ENDBRANCH  15  16
ENDBRANCH   1  15
TORSDOF 22
ENDMDL
MODEL 2
REMARK VINA RESULT:    -1.415      2.388      6.029
REMARK INTER + INTRA:          -7.682
REMARK INTER:                  -2.427
REMARK INTRA:                  -5.255
REMARK UNBOUND:                -4.446
REMARK SMILES CCCCCCCCCCCCCCCCCCCCCCCC(=O)[O-]
REMARK SMILES IDX 13 1 14 2 15 3 16 4 17 5 18 6 19 7 20 8 21 9 22 10 23 11
REMARK SMILES IDX 24 12 25 13 26 14 12 15 11 16 10 17 9 18 8 19 7 20 6 21 5 22
REMARK SMILES IDX 4 23 3 24 2 25 1 26
REMARK H PARENT
REMARK Flexibility Score: inf
ROOT
ATOM      1  C   UNL     1     174.260 180.652 197.721  1.00  0.00     0.000 C 
ENDROOT
BRANCH   1   2
ATOM      2  C   UNL     1     172.756 180.962 197.740  1.00  0.00     0.000 C 
BRANCH   2   3
ATOM      3  C   UNL     1     172.374 182.014 198.798  1.00  0.00     0.000 C 
BRANCH   3   4
ATOM      4  C   UNL     1     171.255 181.586 199.768  1.00  0.00     0.000 C 
BRANCH   4   5
ATOM      5  C   UNL     1     171.139 180.067 200.001  1.00  0.00     0.000 C 
BRANCH   5   6
ATOM      6  C   UNL     1     172.102 179.495 201.060  1.00  0.00     0.000 C 
BRANCH   6   7
ATOM      7  C   UNL     1     172.898 178.256 200.612  1.00  0.00     0.000 C 
BRANCH   7   8
ATOM      8  C   UNL     1     172.352 177.630 199.320  1.00  0.00     0.000 C 
BRANCH   8   9
ATOM      9  C   UNL     1     173.497 177.230 198.378  1.00  0.00     0.000 C 
BRANCH   9  10
ATOM     10  C   UNL     1     173.055 177.144 196.905  1.00  0.00     0.006 C 
BRANCH  10  11
ATOM     11  C   UNL     1     174.187 177.369 195.891  1.00  0.00     0.053 C 
BRANCH  11  12
ATOM     12  C   UNL     1     173.697 178.030 194.639  1.00  0.00     0.041 C 
ATOM     13  O   UNL     1     173.972 177.539 193.513  1.00  0.00    -0.550 OA
ATOM     14  O   UNL     1     172.905 179.169 194.719  1.00  0.00    -0.550 OA
ENDBRANCH  11  12
ENDBRANCH  10  11
ENDBRANCH   9  10
ENDBRANCH   8   9
ENDBRANCH   7   8
ENDBRANCH   6   7
ENDBRANCH   5   6
ENDBRANCH   4   5
ENDBRANCH   3   4
ENDBRANCH   2   3
ENDBRANCH   1   2
BRANCH   1  15
ATOM     15  C   UNL     1     174.913 181.019 199.063  1.00  0.00     0.000 C 
BRANCH  15  16
ATOM     16  C   UNL     1     176.044 180.054 199.452  1.00  0.00     0.000 C 
BRANCH  16  17
ATOM     17  C   UNL     1     176.509 179.181 198.273  1.00  0.00     0.000 C 
BRANCH  17  18
ATOM     18  C   UNL     1     177.824 179.679 197.655  1.00  0.00    -0.000 C 
BRANCH  18  19
ATOM     19  C   UNL     1     177.698 179.965 196.150  1.00  0.00    -0.000 C 
BRANCH  19  20
ATOM     20  C   UNL     1     177.374 181.442 195.896  1.00  0.00    -0.000 C 
BRANCH  20  21
ATOM     21  C   UNL     1     178.041 182.340 196.948  1.00  0.00    -0.000 C 
BRANCH  21  22
ATOM     22  C   UNL     1     177.110 183.451 197.468  1.00  0.00    -0.000 C 
BRANCH  22  23
ATOM     23  C   UNL     1     176.141 184.029 196.420  1.00  0.00    -0.000 C 
BRANCH  23  24
ATOM     24  C   UNL     1     174.740 184.302 196.986  1.00  0.00    -0.000 C 
BRANCH  24  25
ATOM     25  C   UNL     1     173.666 184.109 195.910  1.00  0.00    -0.003 C 
ATOM     26  C   UNL     1     174.091 183.057 194.889  1.00  0.00     0.004 C 
ENDBRANCH  24  25
ENDBRANCH  23  24
ENDBRANCH  22  23
ENDBRANCH  21  22
ENDBRANCH  20  21
ENDBRANCH  19  20
ENDBRANCH  18  19
ENDBRANCH  17  18
ENDBRANCH  16  17
ENDBRANCH  15  16
ENDBRANCH   1  15
TORSDOF 22
ENDMDL
MODEL 3
REMARK VINA RESULT:    -1.318      2.005      5.210
REMARK INTER + INTRA:          -7.460
REMARK INTER:                  -2.872
REMARK INTRA:                  -4.588
REMARK UNBOUND:                -4.446
REMARK SMILES CCCCCCCCCCCCCCCCCCCCCCCC(=O)[O-]
REMARK SMILES IDX 13 1 14 2 15 3 16 4 17 5 18 6 19 7 20 8 21 9 22 10 23 11
REMARK SMILES IDX 24 12 25 13 26 14 12 15 11 16 10 17 9 18 8 19 7 20 6 21 5 22
REMARK SMILES IDX 4 23 3 24 2 25 1 26
REMARK H PARENT
REMARK Flexibility Score: inf
ROOT
ATOM      1  C   UNL     1     173.125 178.778 196.562  1.00  0.00     0.000 C 
ENDROOT
BRANCH   1   2
ATOM      2  C   UNL     1     173.033 177.301 196.153  1.00  0.00     0.000 C 
BRANCH   2   3
ATOM      3  C   UNL     1     172.382 177.101 194.772  1.00  0.00     0.000 C 
BRANCH   3   4
ATOM      4  C   UNL     1     173.372 177.025 193.591  1.00  0.00     0.000 C 
BRANCH   4   5
ATOM      5  C   UNL     1     172.734 177.167 192.195  1.00  0.00     0.000 C 
BRANCH   5   6
ATOM      6  C   UNL     1     171.661 178.267 192.079  1.00  0.00     0.000 C 
BRANCH   6   7
ATOM      7  C   UNL     1     172.209 179.687 191.846  1.00  0.00     0.000 C 
BRANCH   7   8
ATOM      8  C   UNL     1     172.030 180.604 193.065  1.00  0.00     0.000 C 
BRANCH   8   9
ATOM      9  C   UNL     1     173.362 180.806 193.801  1.00  0.00     0.000 C 
BRANCH   9  10
ATOM     10  C   UNL     1     173.513 182.222 194.385  1.00  0.00     0.006 C 
BRANCH  10  11
ATOM     11  C   UNL     1     174.477 182.315 195.579  1.00  0.00     0.053 C 
BRANCH  11  12
ATOM     12  C   UNL     1     173.756 182.588 196.863  1.00  0.00     0.041 C 
ATOM     13  O   UNL     1     172.533 182.308 196.975  1.00  0.00    -0.550 OA
ATOM     14  O   UNL     1     174.443 183.117 197.947  1.00  0.00    -0.550 OA
ENDBRANCH  11  12
ENDBRANCH  10  11
ENDBRANCH   9  10
ENDBRANCH   8   9
ENDBRANCH   7   8
ENDBRANCH   6   7
ENDBRANCH   5   6
ENDBRANCH   4   5
ENDBRANCH   3   4
ENDBRANCH   2   3
ENDBRANCH   1   2
BRANCH   1  15
ATOM     15  C   UNL     1     173.141 178.925 198.091  1.00  0.00     0.000 C 
BRANCH  15  16
ATOM     16  C   UNL     1     173.015 177.575 198.815  1.00  0.00     0.000 C 
BRANCH  16  17
ATOM     17  C   UNL     1     174.136 177.349 199.845  1.00  0.00     0.000 C 
BRANCH  17  18
ATOM     18  C   UNL     1     175.446 176.875 199.197  1.00  0.00    -0.000 C 
BRANCH  18  19
ATOM     19  C   UNL     1     176.545 177.949 199.233  1.00  0.00    -0.000 C 
BRANCH  19  20
ATOM     20  C   UNL     1     177.206 178.105 197.858  1.00  0.00    -0.000 C 
BRANCH  20  21
ATOM     21  C   UNL     1     176.557 177.172 196.826  1.00  0.00    -0.000 C 
BRANCH  21  22
ATOM     22  C   UNL     1     176.530 177.769 195.407  1.00  0.00    -0.000 C 
BRANCH  22  23
ATOM     23  C   UNL     1     176.631 179.304 195.347  1.00  0.00    -0.000 C 
BRANCH  23  24
ATOM     24  C   UNL     1     176.825 179.837 193.920  1.00  0.00    -0.000 C 
BRANCH  24  25
ATOM     25  C   UNL     1     176.407 178.791 192.881  1.00  0.00    -0.003 C 
ATOM     26  C   UNL     1     176.038 179.449 191.554  1.00  0.00     0.004 C 
ENDBRANCH  24  25
ENDBRANCH  23  24
ENDBRANCH  22  23
ENDBRANCH  21  22
ENDBRANCH  20  21
ENDBRANCH  19  20
ENDBRANCH  18  19
ENDBRANCH  17  18
ENDBRANCH  16  17
ENDBRANCH  15  16
ENDBRANCH   1  15
TORSDOF 22
ENDMDL
MODEL 4
REMARK VINA RESULT:    -1.311      2.663      6.144
REMARK INTER + INTRA:          -7.443
REMARK INTER:                  -3.088
REMARK INTRA:                  -4.354
REMARK UNBOUND:                -4.446
REMARK SMILES CCCCCCCCCCCCCCCCCCCCCCCC(=O)[O-]
REMARK SMILES IDX 13 1 14 2 15 3 16 4 17 5 18 6 19 7 20 8 21 9 22 10 23 11
REMARK SMILES IDX 24 12 25 13 26 14 12 15 11 16 10 17 9 18 8 19 7 20 6 21 5 22
REMARK SMILES IDX 4 23 3 24 2 25 1 26
REMARK H PARENT
REMARK Flexibility Score: inf
ROOT
ATOM      1  C   UNL     1     173.773 179.509 195.419  1.00  0.00     0.000 C 
ENDROOT
BRANCH   1   2
ATOM      2  C   UNL     1     174.897 180.552 195.494  1.00  0.00     0.000 C 
BRANCH   2   3
ATOM      3  C   UNL     1     174.824 181.422 196.762  1.00  0.00     0.000 C 
BRANCH   3   4
ATOM      4  C   UNL     1     173.802 180.951 197.817  1.00  0.00     0.000 C 
BRANCH   4   5
ATOM      5  C   UNL     1     174.364 180.784 199.242  1.00  0.00     0.000 C 
BRANCH   5   6
ATOM      6  C   UNL     1     175.894 180.608 199.321  1.00  0.00     0.000 C 
BRANCH   6   7
ATOM      7  C   UNL     1     176.373 179.152 199.462  1.00  0.00     0.000 C 
BRANCH   7   8
ATOM      8  C   UNL     1     176.750 178.515 198.116  1.00  0.00     0.000 C 
BRANCH   8   9
ATOM      9  C   UNL     1     175.769 177.392 197.746  1.00  0.00     0.000 C 
BRANCH   9  10
ATOM     10  C   UNL     1     174.826 177.018 198.905  1.00  0.00     0.006 C 
BRANCH  10  11
ATOM     11  C   UNL     1     173.341 177.302 198.628  1.00  0.00     0.053 C 
BRANCH  11  12
ATOM     12  C   UNL     1     172.559 177.482 199.892  1.00  0.00     0.041 C 
ATOM     13  O   UNL     1     173.131 177.882 200.940  1.00  0.00    -0.550 OA
ATOM     14  O   UNL     1     171.191 177.244 199.903  1.00  0.00    -0.550 OA
ENDBRANCH  11  12
ENDBRANCH  10  11
ENDBRANCH   9  10
ENDBRANCH   8   9
ENDBRANCH   7   8
ENDBRANCH   6   7
ENDBRANCH   5   6
ENDBRANCH   4   5
ENDBRANCH   3   4
ENDBRANCH   2   3
ENDBRANCH   1   2
BRANCH   1  15
ATOM     15  C   UNL     1     174.220 178.276 194.619  1.00  0.00     0.000 C 
BRANCH  15  16
ATOM     16  C   UNL     1     173.295 177.067 194.830  1.00  0.00     0.000 C 
BRANCH  16  17
ATOM     17  C   UNL     1     172.127 177.034 193.828  1.00  0.00     0.000 C 
BRANCH  17  18
ATOM     18  C   UNL     1     172.500 177.643 192.468  1.00  0.00    -0.000 C 
BRANCH  18  19
ATOM     19  C   UNL     1     171.403 178.566 191.915  1.00  0.00    -0.000 C 
BRANCH  19  20
ATOM     20  C   UNL     1     171.967 179.953 191.585  1.00  0.00    -0.000 C 
BRANCH  20  21
ATOM     21  C   UNL     1     171.083 181.061 192.176  1.00  0.00    -0.000 C 
BRANCH  21  22
ATOM     22  C   UNL     1     171.582 181.565 193.542  1.00  0.00    -0.000 C 
BRANCH  22  23
ATOM     23  C   UNL     1     172.557 182.755 193.479  1.00  0.00    -0.000 C 
BRANCH  23  24
ATOM     24  C   UNL     1     172.649 183.527 194.803  1.00  0.00    -0.000 C 
BRANCH  24  25
ATOM     25  C   UNL     1     171.323 183.464 195.569  1.00  0.00    -0.003 C 
ATOM     26  C   UNL     1     171.527 183.772 197.050  1.00  0.00     0.004 C 
ENDBRANCH  24  25
ENDBRANCH  23  24
ENDBRANCH  22  23
ENDBRANCH  21  22
ENDBRANCH  20  21
ENDBRANCH  19  20
ENDBRANCH  18  19
ENDBRANCH  17  18
ENDBRANCH  16  17
ENDBRANCH  15  16
ENDBRANCH   1  15
TORSDOF 22
ENDMDL
MODEL 5
REMARK VINA RESULT:    -1.294      2.450      5.892
REMARK INTER + INTRA:          -7.404
REMARK INTER:                  -2.611
REMARK INTRA:                  -4.793
REMARK UNBOUND:                -4.446
REMARK SMILES CCCCCCCCCCCCCCCCCCCCCCCC(=O)[O-]
REMARK SMILES IDX 13 1 14 2 15 3 16 4 17 5 18 6 19 7 20 8 21 9 22 10 23 11
REMARK SMILES IDX 24 12 25 13 26 14 12 15 11 16 10 17 9 18 8 19 7 20 6 21 5 22
REMARK SMILES IDX 4 23 3 24 2 25 1 26
REMARK H PARENT
REMARK Flexibility Score: inf
ROOT
ATOM      1  C   UNL     1     174.146 182.197 196.726  1.00  0.00     0.000 C 
ENDROOT
BRANCH   1   2
ATOM      2  C   UNL     1     172.773 181.818 197.300  1.00  0.00     0.000 C 
BRANCH   2   3
ATOM      3  C   UNL     1     172.523 182.410 198.699  1.00  0.00     0.000 C 
BRANCH   3   4
ATOM      4  C   UNL     1     172.192 181.376 199.795  1.00  0.00     0.000 C 
BRANCH   4   5
ATOM      5  C   UNL     1     171.825 179.972 199.276  1.00  0.00     0.000 C 
BRANCH   5   6
ATOM      6  C   UNL     1     172.408 178.803 200.094  1.00  0.00     0.000 C 
BRANCH   6   7
ATOM      7  C   UNL     1     173.115 177.718 199.262  1.00  0.00     0.000 C 
BRANCH   7   8
ATOM      8  C   UNL     1     173.264 178.103 197.782  1.00  0.00     0.000 C 
BRANCH   8   9
ATOM      9  C   UNL     1     173.080 176.877 196.875  1.00  0.00     0.000 C 
BRANCH   9  10
ATOM     10  C   UNL     1     172.621 177.250 195.454  1.00  0.00     0.006 C 
BRANCH  10  11
ATOM     11  C   UNL     1     173.043 178.658 195.002  1.00  0.00     0.053 C 
BRANCH  11  12
ATOM     12  C   UNL     1     173.449 178.687 193.561  1.00  0.00     0.041 C 
ATOM     13  O   UNL     1     174.353 177.916 193.142  1.00  0.00    -0.550 OA
ATOM     14  O   UNL     1     172.804 179.539 192.674  1.00  0.00    -0.550 OA
ENDBRANCH  11  12
ENDBRANCH  10  11
ENDBRANCH   9  10
ENDBRANCH   8   9
ENDBRANCH   7   8
ENDBRANCH   6   7
ENDBRANCH   5   6
ENDBRANCH   4   5
ENDBRANCH   3   4
ENDBRANCH   2   3
ENDBRANCH   1   2
BRANCH   1  15
ATOM     15  C   UNL     1     175.180 181.096 197.005  1.00  0.00     0.000 C 
BRANCH  15  16
ATOM     16  C   UNL     1     175.997 181.363 198.279  1.00  0.00     0.000 C 
BRANCH  16  17
ATOM     17  C   UNL     1     175.928 180.196 199.281  1.00  0.00     0.000 C 
BRANCH  17  18
ATOM     18  C   UNL     1     177.228 179.378 199.323  1.00  0.00    -0.000 C 
BRANCH  18  19
ATOM     19  C   UNL     1     176.994 177.920 199.747  1.00  0.00    -0.000 C 
BRANCH  19  20
ATOM     20  C   UNL     1     176.686 177.037 198.532  1.00  0.00    -0.000 C 
BRANCH  20  21
ATOM     21  C   UNL     1     177.510 177.474 197.312  1.00  0.00    -0.000 C 
BRANCH  21  22
ATOM     22  C   UNL     1     176.642 177.772 196.076  1.00  0.00    -0.000 C 
BRANCH  22  23
ATOM     23  C   UNL     1     177.172 178.897 195.167  1.00  0.00    -0.000 C 
BRANCH  23  24
ATOM     24  C   UNL     1     178.635 178.692 194.750  1.00  0.00    -0.000 C 
BRANCH  24  25
ATOM     25  C   UNL     1     179.460 179.960 194.996  1.00  0.00    -0.003 C 
ATOM     26  C   UNL     1     179.091 180.607 196.328  1.00  0.00     0.004 C 
ENDBRANCH  24  25
ENDBRANCH  23  24
ENDBRANCH  22  23
ENDBRANCH  21  22
ENDBRANCH  20  21
ENDBRANCH  19  20
ENDBRANCH  18  19
ENDBRANCH  17  18
ENDBRANCH  16  17
ENDBRANCH  15  16
ENDBRANCH   1  15
TORSDOF 22
ENDMDL
MODEL 6
REMARK VINA RESULT:    -1.248      2.405      7.055
REMARK INTER + INTRA:          -7.299
REMARK INTER:                  -2.918
REMARK INTRA:                  -4.382
REMARK UNBOUND:                -4.446
REMARK SMILES CCCCCCCCCCCCCCCCCCCCCCCC(=O)[O-]
REMARK SMILES IDX 13 1 14 2 15 3 16 4 17 5 18 6 19 7 20 8 21 9 22 10 23 11
REMARK SMILES IDX 24 12 25 13 26 14 12 15 11 16 10 17 9 18 8 19 7 20 6 21 5 22
REMARK SMILES IDX 4 23 3 24 2 25 1 26
REMARK H PARENT
REMARK Flexibility Score: inf
ROOT
ATOM      1  C   UNL     1     173.166 178.812 195.767  1.00  0.00     0.000 C 
ENDROOT
BRANCH   1   2
ATOM      2  C   UNL     1     174.565 178.813 196.400  1.00  0.00     0.000 C 
BRANCH   2   3
ATOM      3  C   UNL     1     175.498 179.875 195.789  1.00  0.00     0.000 C 
BRANCH   3   4
ATOM      4  C   UNL     1     174.809 180.885 194.849  1.00  0.00     0.000 C 
BRANCH   4   5
ATOM      5  C   UNL     1     174.893 182.356 195.298  1.00  0.00     0.000 C 
BRANCH   5   6
ATOM      6  C   UNL     1     173.539 183.014 195.630  1.00  0.00     0.000 C 
BRANCH   6   7
ATOM      7  C   UNL     1     172.844 182.467 196.890  1.00  0.00     0.000 C 
BRANCH   7   8
ATOM      8  C   UNL     1     173.793 182.345 198.091  1.00  0.00     0.000 C 
BRANCH   8   9
ATOM      9  C   UNL     1     173.083 181.697 199.289  1.00  0.00     0.000 C 
BRANCH   9  10
ATOM     10  C   UNL     1     172.350 180.396 198.915  1.00  0.00     0.006 C 
BRANCH  10  11
ATOM     11  C   UNL     1     172.270 179.366 200.052  1.00  0.00     0.053 C 
BRANCH  11  12
ATOM     12  C   UNL     1     172.868 178.050 199.662  1.00  0.00     0.041 C 
ATOM     13  O   UNL     1     172.213 177.241 198.953  1.00  0.00    -0.550 OA
ATOM     14  O   UNL     1     174.163 177.732 200.051  1.00  0.00    -0.550 OA
ENDBRANCH  11  12
ENDBRANCH  10  11
ENDBRANCH   9  10
ENDBRANCH   8   9
ENDBRANCH   7   8
ENDBRANCH   6   7
ENDBRANCH   5   6
ENDBRANCH   4   5
ENDBRANCH   3   4
ENDBRANCH   2   3
ENDBRANCH   1   2
BRANCH   1  15
ATOM     15  C   UNL     1     172.697 177.378 195.473  1.00  0.00     0.000 C 
BRANCH  15  16
ATOM     16  C   UNL     1     172.709 177.049 193.973  1.00  0.00     0.000 C 
BRANCH  16  17
ATOM     17  C   UNL     1     172.796 178.307 193.091  1.00  0.00     0.000 C 
BRANCH  17  18
ATOM     18  C   UNL     1     171.636 178.406 192.089  1.00  0.00    -0.000 C 
BRANCH  18  19
ATOM     19  C   UNL     1     171.256 179.860 191.768  1.00  0.00    -0.000 C 
BRANCH  19  20
ATOM     20  C   UNL     1     171.709 180.806 192.886  1.00  0.00    -0.000 C 
BRANCH  20  21
ATOM     21  C   UNL     1     172.289 182.104 192.307  1.00  0.00    -0.000 C 
BRANCH  21  22
ATOM     22  C   UNL     1     173.107 181.878 191.022  1.00  0.00    -0.000 C 
BRANCH  22  23
ATOM     23  C   UNL     1     174.600 181.575 191.247  1.00  0.00    -0.000 C 
BRANCH  23  24
ATOM     24  C   UNL     1     175.008 180.175 190.766  1.00  0.00    -0.000 C 
BRANCH  24  25
ATOM     25  C   UNL     1     175.997 179.526 191.739  1.00  0.00    -0.003 C 
ATOM     26  C   UNL     1     177.232 179.008 191.007  1.00  0.00     0.004 C 
ENDBRANCH  24  25
ENDBRANCH  23  24
ENDBRANCH  22  23
ENDBRANCH  21  22
ENDBRANCH  20  21
ENDBRANCH  19  20
ENDBRANCH  18  19
ENDBRANCH  17  18
ENDBRANCH  16  17
ENDBRANCH  15  16
ENDBRANCH   1  15
TORSDOF 22
ENDMDL
MODEL 7
REMARK VINA RESULT:    -1.246      2.776      5.423
REMARK INTER + INTRA:          -7.294
REMARK INTER:                  -2.759
REMARK INTRA:                  -4.535
REMARK UNBOUND:                -4.446
REMARK SMILES CCCCCCCCCCCCCCCCCCCCCCCC(=O)[O-]
REMARK SMILES IDX 13 1 14 2 15 3 16 4 17 5 18 6 19 7 20 8 21 9 22 10 23 11
REMARK SMILES IDX 24 12 25 13 26 14 12 15 11 16 10 17 9 18 8 19 7 20 6 21 5 22
REMARK SMILES IDX 4 23 3 24 2 25 1 26
REMARK H PARENT
REMARK Flexibility Score: inf
ROOT
ATOM      1  C   UNL     1     176.874 181.726 195.611  1.00  0.00     0.000 C 
ENDROOT
BRANCH   1   2
ATOM      2  C   UNL     1     176.210 182.016 196.965  1.00  0.00     0.000 C 
BRANCH   2   3
ATOM      3  C   UNL     1     176.430 180.891 197.993  1.00  0.00     0.000 C 
BRANCH   3   4
ATOM      4  C   UNL     1     176.403 179.463 197.412  1.00  0.00     0.000 C 
BRANCH   4   5
ATOM      5  C   UNL     1     175.327 178.535 198.010  1.00  0.00     0.000 C 
BRANCH   5   6
ATOM      6  C   UNL     1     174.625 177.613 196.994  1.00  0.00     0.000 C 
BRANCH   6   7
ATOM      7  C   UNL     1     173.226 178.080 196.554  1.00  0.00     0.000 C 
BRANCH   7   8
ATOM      8  C   UNL     1     172.731 177.371 195.284  1.00  0.00     0.000 C 
BRANCH   8   9
ATOM      9  C   UNL     1     173.736 177.538 194.135  1.00  0.00     0.000 C 
BRANCH   9  10
ATOM     10  C   UNL     1     173.112 177.272 192.753  1.00  0.00     0.006 C 
BRANCH  10  11
ATOM     11  C   UNL     1     171.793 178.020 192.501  1.00  0.00     0.053 C 
BRANCH  11  12
ATOM     12  C   UNL     1     171.743 178.624 191.131  1.00  0.00     0.041 C 
ATOM     13  O   UNL     1     171.897 177.900 190.113  1.00  0.00    -0.550 OA
ATOM     14  O   UNL     1     171.490 179.981 190.979  1.00  0.00    -0.550 OA
ENDBRANCH  11  12
ENDBRANCH  10  11
ENDBRANCH   9  10
ENDBRANCH   8   9
ENDBRANCH   7   8
ENDBRANCH   6   7
ENDBRANCH   5   6
ENDBRANCH   4   5
ENDBRANCH   3   4
ENDBRANCH   2   3
ENDBRANCH   1   2
BRANCH   1  15
ATOM     15  C   UNL     1     175.851 181.814 194.468  1.00  0.00     0.000 C 
BRANCH  15  16
ATOM     16  C   UNL     1     174.553 181.051 194.777  1.00  0.00     0.000 C 
BRANCH  16  17
ATOM     17  C   UNL     1     173.490 181.221 193.677  1.00  0.00     0.000 C 
BRANCH  17  18
ATOM     18  C   UNL     1     172.073 181.380 194.246  1.00  0.00    -0.000 C 
BRANCH  18  19
ATOM     19  C   UNL     1     171.476 182.768 193.964  1.00  0.00    -0.000 C 
BRANCH  19  20
ATOM     20  C   UNL     1     171.315 183.570 195.261  1.00  0.00    -0.000 C 
BRANCH  20  21
ATOM     21  C   UNL     1     172.661 184.152 195.719  1.00  0.00    -0.000 C 
BRANCH  21  22
ATOM     22  C   UNL     1     172.981 183.841 197.192  1.00  0.00    -0.000 C 
BRANCH  22  23
ATOM     23  C   UNL     1     172.087 182.766 197.837  1.00  0.00    -0.000 C 
BRANCH  23  24
ATOM     24  C   UNL     1     172.771 181.394 197.931  1.00  0.00    -0.000 C 
BRANCH  24  25
ATOM     25  C   UNL     1     172.814 180.900 199.381  1.00  0.00    -0.003 C 
ATOM     26  C   UNL     1     171.769 179.814 199.625  1.00  0.00     0.004 C 
ENDBRANCH  24  25
ENDBRANCH  23  24
ENDBRANCH  22  23
ENDBRANCH  21  22
ENDBRANCH  20  21
ENDBRANCH  19  20
ENDBRANCH  18  19
ENDBRANCH  17  18
ENDBRANCH  16  17
ENDBRANCH  15  16
ENDBRANCH   1  15
TORSDOF 22
ENDMDL
MODEL 8
REMARK VINA RESULT:    -1.242      2.636      5.185
REMARK INTER + INTRA:          -7.287
REMARK INTER:                  -3.153
REMARK INTRA:                  -4.134
REMARK UNBOUND:                -4.446
REMARK SMILES CCCCCCCCCCCCCCCCCCCCCCCC(=O)[O-]
REMARK SMILES IDX 13 1 14 2 15 3 16 4 17 5 18 6 19 7 20 8 21 9 22 10 23 11
REMARK SMILES IDX 24 12 25 13 26 14 12 15 11 16 10 17 9 18 8 19 7 20 6 21 5 22
REMARK SMILES IDX 4 23 3 24 2 25 1 26
REMARK H PARENT
REMARK Flexibility Score: inf
ROOT
ATOM      1  C   UNL     1     175.482 180.969 197.796  1.00  0.00     0.000 C 
ENDROOT
BRANCH   1   2
ATOM      2  C   UNL     1     176.602 179.994 198.187  1.00  0.00     0.000 C 
BRANCH   2   3
ATOM      3  C   UNL     1     177.107 179.153 197.000  1.00  0.00     0.000 C 
BRANCH   3   4
ATOM      4  C   UNL     1     176.783 179.732 195.607  1.00  0.00     0.000 C 
BRANCH   4   5
ATOM      5  C   UNL     1     177.215 178.853 194.418  1.00  0.00     0.000 C 
BRANCH   5   6
ATOM      6  C   UNL     1     176.714 177.396 194.470  1.00  0.00     0.000 C 
BRANCH   6   7
ATOM      7  C   UNL     1     176.070 176.885 193.169  1.00  0.00     0.000 C 
BRANCH   7   8
ATOM      8  C   UNL     1     176.068 177.937 192.050  1.00  0.00     0.000 C 
BRANCH   8   9
ATOM      9  C   UNL     1     174.635 178.381 191.716  1.00  0.00     0.000 C 
BRANCH   9  10
ATOM     10  C   UNL     1     173.710 177.199 191.373  1.00  0.00     0.006 C 
BRANCH  10  11
ATOM     11  C   UNL     1     172.244 177.402 191.789  1.00  0.00     0.053 C 
BRANCH  11  12
ATOM     12  C   UNL     1     171.660 178.648 191.198  1.00  0.00     0.041 C 
ATOM     13  O   UNL     1     171.631 178.803 189.948  1.00  0.00    -0.550 OA
ATOM     14  O   UNL     1     171.114 179.620 192.025  1.00  0.00    -0.550 OA
ENDBRANCH  11  12
ENDBRANCH  10  11
ENDBRANCH   9  10
ENDBRANCH   8   9
ENDBRANCH   7   8
ENDBRANCH   6   7
ENDBRANCH   5   6
ENDBRANCH   4   5
ENDBRANCH   3   4
ENDBRANCH   2   3
ENDBRANCH   1   2
BRANCH   1  15
ATOM     15  C   UNL     1     174.486 181.153 198.951  1.00  0.00     0.000 C 
BRANCH  15  16
ATOM     16  C   UNL     1     173.052 181.404 198.460  1.00  0.00     0.000 C 
BRANCH  16  17
ATOM     17  C   UNL     1     172.014 181.314 199.593  1.00  0.00     0.000 C 
BRANCH  17  18
ATOM     18  C   UNL     1     171.379 179.919 199.701  1.00  0.00    -0.000 C 
BRANCH  18  19
ATOM     19  C   UNL     1     171.766 179.194 200.999  1.00  0.00    -0.000 C 
BRANCH  19  20
ATOM     20  C   UNL     1     172.409 177.835 200.700  1.00  0.00    -0.000 C 
BRANCH  20  21
ATOM     21  C   UNL     1     172.521 177.600 199.186  1.00  0.00    -0.000 C 
BRANCH  21  22
ATOM     22  C   UNL     1     173.976 177.459 198.705  1.00  0.00    -0.000 C 
BRANCH  22  23
ATOM     23  C   UNL     1     174.135 176.998 197.244  1.00  0.00    -0.000 C 
BRANCH  23  24
ATOM     24  C   UNL     1     172.865 177.210 196.407  1.00  0.00    -0.000 C 
BRANCH  24  25
ATOM     25  C   UNL     1     173.174 178.002 195.131  1.00  0.00    -0.003 C 
ATOM     26  C   UNL     1     173.112 179.505 195.387  1.00  0.00     0.004 C 
ENDBRANCH  24  25
ENDBRANCH  23  24
ENDBRANCH  22  23
ENDBRANCH  21  22
ENDBRANCH  20  21
ENDBRANCH  19  20
ENDBRANCH  18  19
ENDBRANCH  17  18
ENDBRANCH  16  17
ENDBRANCH  15  16
ENDBRANCH   1  15
TORSDOF 22
ENDMDL
MODEL 9
REMARK VINA RESULT:    -1.219      2.834      4.817
REMARK INTER + INTRA:          -7.234
REMARK INTER:                  -3.060
REMARK INTRA:                  -4.174
REMARK UNBOUND:                -4.446
REMARK SMILES CCCCCCCCCCCCCCCCCCCCCCCC(=O)[O-]
REMARK SMILES IDX 13 1 14 2 15 3 16 4 17 5 18 6 19 7 20 8 21 9 22 10 23 11
REMARK SMILES IDX 24 12 25 13 26 14 12 15 11 16 10 17 9 18 8 19 7 20 6 21 5 22
REMARK SMILES IDX 4 23 3 24 2 25 1 26
REMARK H PARENT
REMARK Flexibility Score: inf
ROOT
ATOM      1  C   UNL     1     174.571 178.847 195.127  1.00  0.00     0.000 C 
ENDROOT
BRANCH   1   2
ATOM      2  C   UNL     1     174.830 178.429 193.672  1.00  0.00     0.000 C 
BRANCH   2   3
ATOM      3  C   UNL     1     173.869 177.329 193.185  1.00  0.00     0.000 C 
BRANCH   3   4
ATOM      4  C   UNL     1     173.079 177.675 191.906  1.00  0.00     0.000 C 
BRANCH   4   5
ATOM      5  C   UNL     1     171.632 178.149 192.143  1.00  0.00     0.000 C 
BRANCH   5   6
ATOM      6  C   UNL     1     171.354 179.613 191.748  1.00  0.00     0.000 C 
BRANCH   6   7
ATOM      7  C   UNL     1     171.782 180.659 192.794  1.00  0.00     0.000 C 
BRANCH   7   8
ATOM      8  C   UNL     1     173.117 181.337 192.451  1.00  0.00     0.000 C 
BRANCH   8   9
ATOM      9  C   UNL     1     173.179 181.702 190.960  1.00  0.00     0.000 C 
BRANCH   9  10
ATOM     10  C   UNL     1     174.282 180.937 190.205  1.00  0.00     0.006 C 
BRANCH  10  11
ATOM     11  C   UNL     1     173.912 180.552 188.764  1.00  0.00     0.053 C 
BRANCH  11  12
ATOM     12  C   UNL     1     173.662 179.082 188.623  1.00  0.00     0.041 C 
ATOM     13  O   UNL     1     174.617 178.266 188.705  1.00  0.00    -0.550 OA
ATOM     14  O   UNL     1     172.368 178.613 188.436  1.00  0.00    -0.550 OA
ENDBRANCH  11  12
ENDBRANCH  10  11
ENDBRANCH   9  10
ENDBRANCH   8   9
ENDBRANCH   7   8
ENDBRANCH   6   7
ENDBRANCH   5   6
ENDBRANCH   4   5
ENDBRANCH   3   4
ENDBRANCH   2   3
ENDBRANCH   1   2
BRANCH   1  15
ATOM     15  C   UNL     1     173.125 178.532 195.540  1.00  0.00     0.000 C 
BRANCH  15  16
ATOM     16  C   UNL     1     173.048 177.536 196.708  1.00  0.00     0.000 C 
BRANCH  16  17
ATOM     17  C   UNL     1     174.312 177.555 197.586  1.00  0.00     0.000 C 
BRANCH  17  18
ATOM     18  C   UNL     1     173.987 177.558 199.087  1.00  0.00    -0.000 C 
BRANCH  18  19
ATOM     19  C   UNL     1     172.476 177.606 199.363  1.00  0.00    -0.000 C 
BRANCH  19  20
ATOM     20  C   UNL     1     172.144 178.663 200.423  1.00  0.00    -0.000 C 
BRANCH  20  21
ATOM     21  C   UNL     1     171.344 179.822 199.813  1.00  0.00    -0.000 C 
BRANCH  21  22
ATOM     22  C   UNL     1     172.199 181.078 199.563  1.00  0.00    -0.000 C 
BRANCH  22  23
ATOM     23  C   UNL     1     172.818 181.173 198.157  1.00  0.00    -0.000 C 
BRANCH  23  24
ATOM     24  C   UNL     1     174.353 181.218 198.179  1.00  0.00    -0.000 C 
BRANCH  24  25
ATOM     25  C   UNL     1     174.896 182.021 196.991  1.00  0.00    -0.003 C 
ATOM     26  C   UNL     1     173.779 182.391 196.019  1.00  0.00     0.004 C 
ENDBRANCH  24  25
ENDBRANCH  23  24
ENDBRANCH  22  23
ENDBRANCH  21  22
ENDBRANCH  20  21
ENDBRANCH  19  20
ENDBRANCH  18  19
ENDBRANCH  17  18
ENDBRANCH  16  17
ENDBRANCH  15  16
ENDBRANCH   1  15
TORSDOF 22
ENDMDL
