MODEL 1
REMARK VINA RESULT:    -5.049      0.000      0.000
REMARK INTER + INTRA:          -8.538
REMARK INTER:                  -8.001
REMARK INTRA:                  -0.537
REMARK UNBOUND:                -0.537
REMARK SMILES CCCCCCCCCCCC(=O)[O-]
REMARK SMILES IDX 7 1 8 2 9 3 10 4 11 5 12 6 13 7 14 8 6 9 5 10 4 11 3 12 2 13
REMARK SMILES IDX 1 14
REMARK H PARENT
REMARK Flexibility Score: inf
ROOT
ATOM      1  C   UNL     1       3.845 -36.812  19.809  1.00  0.00     0.000 C 
ENDROOT
BRANCH   1   2
ATOM      2  C   UNL     1       5.292 -36.301  19.921  1.00  0.00     0.000 C 
BRANCH   2   3
ATOM      3  C   UNL     1       5.805 -36.315  21.378  1.00  0.00     0.000 C 
BRANCH   3   4
ATOM      4  C   UNL     1       5.295 -37.517  22.195  1.00  0.00     0.006 C 
BRANCH   4   5
ATOM      5  C   UNL     1       4.976 -37.184  23.661  1.00  0.00     0.053 C 
BRANCH   5   6
ATOM      6  C   UNL     1       4.883 -38.419  24.503  1.00  0.00     0.041 C 
ATOM      7  O   UNL     1       4.872 -39.558  23.966  1.00  0.00    -0.550 OA
ATOM      8  O   UNL     1       4.791 -38.312  25.885  1.00  0.00    -0.550 OA
ENDBRANCH   5   6
ENDBRANCH   4   5
ENDBRANCH   3   4
ENDBRANCH   2   3
ENDBRANCH   1   2
BRANCH   1   9
ATOM      9  C   UNL     1       3.684 -37.874  18.710  1.00  0.00     0.000 C 
BRANCH   9  10
ATOM     10  C   UNL     1       2.207 -38.177  18.402  1.00  0.00    -0.000 C 
BRANCH  10  11
ATOM     11  C   UNL     1       1.781 -37.642  17.019  1.00  0.00    -0.000 C 
BRANCH  11  12
ATOM     12  C   UNL     1       2.935 -37.004  16.225  1.00  0.00    -0.000 C 
BRANCH  12  13
ATOM     13  C   UNL     1       2.772 -37.156  14.708  1.00  0.00    -0.003 C 
ATOM     14  C   UNL     1       3.755 -38.182  14.148  1.00  0.00     0.004 C 
ENDBRANCH  12  13
ENDBRANCH  11  12
ENDBRANCH  10  11
ENDBRANCH   9  10
ENDBRANCH   1   9
TORSDOF 10
ENDMDL
MODEL 2
REMARK VINA RESULT:    -4.903      0.879      1.269
REMARK INTER + INTRA:          -8.306
REMARK INTER:                  -7.809
REMARK INTRA:                  -0.497
REMARK UNBOUND:                -0.537
REMARK SMILES CCCCCCCCCCCC(=O)[O-]
REMARK SMILES IDX 7 1 8 2 9 3 10 4 11 5 12 6 13 7 14 8 6 9 5 10 4 11 3 12 2 13
REMARK SMILES IDX 1 14
REMARK H PARENT
REMARK Flexibility Score: inf
ROOT
ATOM      1  C   UNL     1       4.905 -37.855  20.170  1.00  0.00     0.000 C 
ENDROOT
BRANCH   1   2
ATOM      2  C   UNL     1       5.388 -36.398  20.271  1.00  0.00     0.000 C 
BRANCH   2   3
ATOM      3  C   UNL     1       6.021 -36.086  21.645  1.00  0.00     0.000 C 
BRANCH   3   4
ATOM      4  C   UNL     1       5.058 -36.307  22.827  1.00  0.00     0.006 C 
BRANCH   4   5
ATOM      5  C   UNL     1       5.734 -36.868  24.087  1.00  0.00     0.053 C 
BRANCH   5   6
ATOM      6  C   UNL     1       5.064 -38.118  24.568  1.00  0.00     0.041 C 
ATOM      7  O   UNL     1       4.685 -38.217  25.764  1.00  0.00    -0.550 OA
ATOM      8  O   UNL     1       4.872 -39.183  23.697  1.00  0.00    -0.550 OA
ENDBRANCH   5   6
ENDBRANCH   4   5
ENDBRANCH   3   4
ENDBRANCH   2   3
ENDBRANCH   1   2
BRANCH   1   9
ATOM      9  C   UNL     1       3.549 -37.973  19.457  1.00  0.00     0.000 C 
BRANCH   9  10
ATOM     10  C   UNL     1       3.492 -37.136  18.167  1.00  0.00    -0.000 C 
BRANCH  10  11
ATOM     11  C   UNL     1       2.905 -37.932  16.983  1.00  0.00    -0.000 C 
BRANCH  11  12
ATOM     12  C   UNL     1       1.885 -37.134  16.152  1.00  0.00    -0.000 C 
BRANCH  12  13
ATOM     13  C   UNL     1       2.226 -37.104  14.656  1.00  0.00    -0.003 C 
ATOM     14  C   UNL     1       3.501 -37.890  14.366  1.00  0.00     0.004 C 
ENDBRANCH  12  13
ENDBRANCH  11  12
ENDBRANCH  10  11
ENDBRANCH   9  10
ENDBRANCH   1   9
TORSDOF 10
ENDMDL
MODEL 3
REMARK VINA RESULT:    -4.769      0.979      1.167
REMARK INTER + INTRA:          -8.093
REMARK INTER:                  -7.484
REMARK INTRA:                  -0.610
REMARK UNBOUND:                -0.537
REMARK SMILES CCCCCCCCCCCC(=O)[O-]
REMARK SMILES IDX 7 1 8 2 9 3 10 4 11 5 12 6 13 7 14 8 6 9 5 10 4 11 3 12 2 13
REMARK SMILES IDX 1 14
REMARK H PARENT
REMARK Flexibility Score: inf
ROOT
ATOM      1  C   UNL     1       4.764 -37.436  19.143  1.00  0.00     0.000 C 
ENDROOT
BRANCH   1   2
ATOM      2  C   UNL     1       5.191 -36.241  20.012  1.00  0.00     0.000 C 
BRANCH   2   3
ATOM      3  C   UNL     1       4.640 -36.340  21.452  1.00  0.00     0.000 C 
BRANCH   3   4
ATOM      4  C   UNL     1       5.612 -37.018  22.435  1.00  0.00     0.006 C 
BRANCH   4   5
ATOM      5  C   UNL     1       4.936 -37.995  23.409  1.00  0.00     0.053 C 
BRANCH   5   6
ATOM      6  C   UNL     1       5.160 -37.601  24.836  1.00  0.00     0.041 C 
ATOM      7  O   UNL     1       4.646 -38.271  25.770  1.00  0.00    -0.550 OA
ATOM      8  O   UNL     1       5.927 -36.482  25.136  1.00  0.00    -0.550 OA
ENDBRANCH   5   6
ENDBRANCH   4   5
ENDBRANCH   3   4
ENDBRANCH   2   3
ENDBRANCH   1   2
BRANCH   1   9
ATOM      9  C   UNL     1       3.331 -37.900  19.450  1.00  0.00     0.000 C 
BRANCH   9  10
ATOM     10  C   UNL     1       2.485 -38.069  18.176  1.00  0.00    -0.000 C 
BRANCH  10  11
ATOM     11  C   UNL     1       3.024 -37.222  17.005  1.00  0.00    -0.000 C 
BRANCH  11  12
ATOM     12  C   UNL     1       1.972 -36.937  15.918  1.00  0.00    -0.000 C 
BRANCH  12  13
ATOM     13  C   UNL     1       2.485 -37.223  14.501  1.00  0.00    -0.003 C 
ATOM     14  C   UNL     1       3.640 -38.222  14.524  1.00  0.00     0.004 C 
ENDBRANCH  12  13
ENDBRANCH  11  12
ENDBRANCH  10  11
ENDBRANCH   9  10
ENDBRANCH   1   9
TORSDOF 10
ENDMDL
MODEL 4
REMARK VINA RESULT:    -4.766      3.764      7.207
REMARK INTER + INTRA:          -8.089
REMARK INTER:                  -7.326
REMARK INTRA:                  -0.763
REMARK UNBOUND:                -0.537
REMARK SMILES CCCCCCCCCCCC(=O)[O-]
REMARK SMILES IDX 7 1 8 2 9 3 10 4 11 5 12 6 13 7 14 8 6 9 5 10 4 11 3 12 2 13
REMARK SMILES IDX 1 14
REMARK H PARENT
REMARK Flexibility Score: inf
ROOT
ATOM      1  C   UNL     1       5.815 -36.351  21.281  1.00  0.00     0.000 C 
ENDROOT
BRANCH   1   2
ATOM      2  C   UNL     1       4.913 -36.482  20.041  1.00  0.00     0.000 C 
BRANCH   2   3
ATOM      3  C   UNL     1       4.314 -37.899  19.902  1.00  0.00     0.000 C 
BRANCH   3   4
ATOM      4  C   UNL     1       3.250 -38.008  18.794  1.00  0.00     0.006 C 
BRANCH   4   5
ATOM      5  C   UNL     1       3.393 -36.955  17.685  1.00  0.00     0.053 C 
BRANCH   5   6
ATOM      6  C   UNL     1       2.663 -37.356  16.440  1.00  0.00     0.041 C 
ATOM      7  O   UNL     1       3.110 -38.278  15.708  1.00  0.00    -0.550 OA
ATOM      8  O   UNL     1       1.494 -36.699  16.078  1.00  0.00    -0.550 OA
ENDBRANCH   5   6
ENDBRANCH   4   5
ENDBRANCH   3   4
ENDBRANCH   2   3
ENDBRANCH   1   2
BRANCH   1   9
ATOM      9  C   UNL     1       5.020 -35.987  22.545  1.00  0.00     0.000 C 
BRANCH   9  10
ATOM     10  C   UNL     1       5.930 -35.790  23.771  1.00  0.00    -0.000 C 
BRANCH  10  11
ATOM     11  C   UNL     1       6.125 -37.098  24.565  1.00  0.00    -0.000 C 
BRANCH  11  12
ATOM     12  C   UNL     1       4.836 -37.926  24.711  1.00  0.00    -0.000 C 
BRANCH  12  13
ATOM     13  C   UNL     1       5.040 -39.411  24.387  1.00  0.00    -0.003 C 
ATOM     14  C   UNL     1       4.571 -39.736  22.971  1.00  0.00     0.004 C 
ENDBRANCH  12  13
ENDBRANCH  11  12
ENDBRANCH  10  11
ENDBRANCH   9  10
ENDBRANCH   1   9
TORSDOF 10
ENDMDL
MODEL 5
REMARK VINA RESULT:    -4.525      3.268      6.540
REMARK INTER + INTRA:          -7.707
REMARK INTER:                  -6.829
REMARK INTRA:                  -0.878
REMARK UNBOUND:                -0.537
REMARK SMILES CCCCCCCCCCCC(=O)[O-]
REMARK SMILES IDX 7 1 8 2 9 3 10 4 11 5 12 6 13 7 14 8 6 9 5 10 4 11 3 12 2 13
REMARK SMILES IDX 1 14
REMARK H PARENT
REMARK Flexibility Score: inf
ROOT
ATOM      1  C   UNL     1       5.501 -35.645  23.331  1.00  0.00     0.000 C 
ENDROOT
BRANCH   1   2
ATOM      2  C   UNL     1       5.880 -35.993  21.881  1.00  0.00     0.000 C 
BRANCH   2   3
ATOM      3  C   UNL     1       4.639 -36.272  21.005  1.00  0.00     0.000 C 
BRANCH   3   4
ATOM      4  C   UNL     1       4.985 -36.845  19.617  1.00  0.00     0.006 C 
BRANCH   4   5
ATOM      5  C   UNL     1       4.240 -38.143  19.274  1.00  0.00     0.053 C 
BRANCH   5   6
ATOM      6  C   UNL     1       3.051 -37.888  18.400  1.00  0.00     0.041 C 
ATOM      7  O   UNL     1       3.135 -37.094  17.427  1.00  0.00    -0.550 OA
ATOM      8  O   UNL     1       1.843 -38.518  18.669  1.00  0.00    -0.550 OA
ENDBRANCH   5   6
ENDBRANCH   4   5
ENDBRANCH   3   4
ENDBRANCH   2   3
ENDBRANCH   1   2
BRANCH   1   9
ATOM      9  C   UNL     1       6.057 -36.662  24.340  1.00  0.00     0.000 C 
BRANCH   9  10
ATOM     10  C   UNL     1       4.951 -37.528  24.968  1.00  0.00    -0.000 C 
BRANCH  10  11
ATOM     11  C   UNL     1       5.044 -39.002  24.522  1.00  0.00    -0.000 C 
BRANCH  11  12
ATOM     12  C   UNL     1       4.655 -39.225  23.051  1.00  0.00    -0.000 C 
BRANCH  12  13
ATOM     13  C   UNL     1       5.161 -40.561  22.494  1.00  0.00    -0.003 C 
ATOM     14  C   UNL     1       5.617 -41.489  23.617  1.00  0.00     0.004 C 
ENDBRANCH  12  13
ENDBRANCH  11  12
ENDBRANCH  10  11
ENDBRANCH   9  10
ENDBRANCH   1   9
TORSDOF 10
ENDMDL
MODEL 6
REMARK VINA RESULT:    -4.520      1.029      2.134
REMARK INTER + INTRA:          -7.700
REMARK INTER:                  -7.314
REMARK INTRA:                  -0.386
REMARK UNBOUND:                -0.537
REMARK SMILES CCCCCCCCCCCC(=O)[O-]
REMARK SMILES IDX 7 1 8 2 9 3 10 4 11 5 12 6 13 7 14 8 6 9 5 10 4 11 3 12 2 13
REMARK SMILES IDX 1 14
REMARK H PARENT
REMARK Flexibility Score: inf
ROOT
ATOM      1  C   UNL     1       4.815 -36.251  21.431  1.00  0.00     0.000 C 
ENDROOT
BRANCH   1   2
ATOM      2  C   UNL     1       6.027 -35.716  22.213  1.00  0.00     0.000 C 
BRANCH   2   3
ATOM      3  C   UNL     1       5.630 -35.176  23.605  1.00  0.00     0.000 C 
BRANCH   3   4
ATOM      4  C   UNL     1       5.946 -36.151  24.754  1.00  0.00     0.006 C 
BRANCH   4   5
ATOM      5  C   UNL     1       6.125 -37.609  24.304  1.00  0.00     0.053 C 
BRANCH   5   6
ATOM      6  C   UNL     1       5.006 -38.480  24.785  1.00  0.00     0.041 C 
ATOM      7  O   UNL     1       4.377 -38.188  25.836  1.00  0.00    -0.550 OA
ATOM      8  O   UNL     1       4.666 -39.628  24.079  1.00  0.00    -0.550 OA
ENDBRANCH   5   6
ENDBRANCH   4   5
ENDBRANCH   3   4
ENDBRANCH   2   3
ENDBRANCH   1   2
BRANCH   1   9
ATOM      9  C   UNL     1       5.228 -36.977  20.141  1.00  0.00     0.000 C 
BRANCH   9  10
ATOM     10  C   UNL     1       4.219 -36.759  18.999  1.00  0.00    -0.000 C 
BRANCH  10  11
ATOM     11  C   UNL     1       3.186 -37.901  18.910  1.00  0.00    -0.000 C 
BRANCH  11  12
ATOM     12  C   UNL     1       2.404 -37.920  17.585  1.00  0.00    -0.000 C 
BRANCH  12  13
ATOM     13  C   UNL     1       2.950 -36.923  16.555  1.00  0.00    -0.003 C 
ATOM     14  C   UNL     1       2.879 -37.497  15.142  1.00  0.00     0.004 C 
ENDBRANCH  12  13
ENDBRANCH  11  12
ENDBRANCH  10  11
ENDBRANCH   9  10
ENDBRANCH   1   9
TORSDOF 10
ENDMDL
MODEL 7
REMARK VINA RESULT:    -4.469      4.040      7.663
REMARK INTER + INTRA:          -7.619
REMARK INTER:                  -7.101
REMARK INTRA:                  -0.517
REMARK UNBOUND:                -0.537
REMARK SMILES CCCCCCCCCCCC(=O)[O-]
REMARK SMILES IDX 7 1 8 2 9 3 10 4 11 5 12 6 13 7 14 8 6 9 5 10 4 11 3 12 2 13
REMARK SMILES IDX 1 14
REMARK H PARENT
REMARK Flexibility Score: inf
ROOT
ATOM      1  C   UNL     1       4.984 -37.692  20.148  1.00  0.00     0.000 C 
ENDROOT
BRANCH   1   2
ATOM      2  C   UNL     1       3.992 -37.096  19.134  1.00  0.00     0.000 C 
BRANCH   2   3
ATOM      3  C   UNL     1       2.816 -38.051  18.838  1.00  0.00     0.000 C 
BRANCH   3   4
ATOM      4  C   UNL     1       2.181 -37.831  17.452  1.00  0.00     0.006 C 
BRANCH   4   5
ATOM      5  C   UNL     1       3.064 -37.031  16.481  1.00  0.00     0.053 C 
BRANCH   5   6
ATOM      6  C   UNL     1       2.931 -37.525  15.073  1.00  0.00     0.041 C 
ATOM      7  O   UNL     1       2.065 -37.030  14.304  1.00  0.00    -0.550 OA
ATOM      8  O   UNL     1       3.754 -38.545  14.613  1.00  0.00    -0.550 OA
ENDBRANCH   5   6
ENDBRANCH   4   5
ENDBRANCH   3   4
ENDBRANCH   2   3
ENDBRANCH   1   2
BRANCH   1   9
ATOM      9  C   UNL     1       5.663 -36.612  21.005  1.00  0.00     0.000 C 
BRANCH   9  10
ATOM     10  C   UNL     1       4.752 -36.107  22.139  1.00  0.00    -0.000 C 
BRANCH  10  11
ATOM     11  C   UNL     1       5.562 -35.564  23.335  1.00  0.00    -0.000 C 
BRANCH  11  12
ATOM     12  C   UNL     1       6.125 -36.667  24.247  1.00  0.00    -0.000 C 
BRANCH  12  13
ATOM     13  C   UNL     1       5.031 -37.539  24.876  1.00  0.00    -0.003 C 
ATOM     14  C   UNL     1       5.017 -38.935  24.259  1.00  0.00     0.004 C 
ENDBRANCH  12  13
ENDBRANCH  11  12
ENDBRANCH  10  11
ENDBRANCH   9  10
ENDBRANCH   1   9
TORSDOF 10
ENDMDL
MODEL 8
REMARK VINA RESULT:    -4.194      2.576      4.320
REMARK INTER + INTRA:          -7.183
REMARK INTER:                  -6.324
REMARK INTRA:                  -0.860
REMARK UNBOUND:                -0.537
REMARK SMILES CCCCCCCCCCCC(=O)[O-]
REMARK SMILES IDX 7 1 8 2 9 3 10 4 11 5 12 6 13 7 14 8 6 9 5 10 4 11 3 12 2 13
REMARK SMILES IDX 1 14
REMARK H PARENT
REMARK Flexibility Score: inf
ROOT
ATOM      1  C   UNL     1       6.121 -36.473  24.080  1.00  0.00     0.000 C 
ENDROOT
BRANCH   1   2
ATOM      2  C   UNL     1       4.851 -37.322  24.258  1.00  0.00     0.000 C 
BRANCH   2   3
ATOM      3  C   UNL     1       5.086 -38.538  25.180  1.00  0.00     0.000 C 
BRANCH   3   4
ATOM      4  C   UNL     1       5.005 -39.890  24.445  1.00  0.00     0.006 C 
BRANCH   4   5
ATOM      5  C   UNL     1       4.629 -39.771  22.961  1.00  0.00     0.053 C 
BRANCH   5   6
ATOM      6  C   UNL     1       5.472 -40.662  22.101  1.00  0.00     0.041 C 
ATOM      7  O   UNL     1       5.925 -40.245  21.003  1.00  0.00    -0.550 OA
ATOM      8  O   UNL     1       5.746 -41.963  22.506  1.00  0.00    -0.550 OA
ENDBRANCH   5   6
ENDBRANCH   4   5
ENDBRANCH   3   4
ENDBRANCH   2   3
ENDBRANCH   1   2
BRANCH   1   9
ATOM      9  C   UNL     1       6.123 -35.697  22.754  1.00  0.00     0.000 C 
BRANCH   9  10
ATOM     10  C   UNL     1       4.909 -36.040  21.873  1.00  0.00    -0.000 C 
BRANCH  10  11
ATOM     11  C   UNL     1       5.324 -36.703  20.543  1.00  0.00    -0.000 C 
BRANCH  11  12
ATOM     12  C   UNL     1       4.238 -36.632  19.456  1.00  0.00    -0.000 C 
BRANCH  12  13
ATOM     13  C   UNL     1       3.848 -38.012  18.911  1.00  0.00    -0.003 C 
ATOM     14  C   UNL     1       2.331 -38.159  18.818  1.00  0.00     0.004 C 
ENDBRANCH  12  13
ENDBRANCH  11  12
ENDBRANCH  10  11
ENDBRANCH   9  10
ENDBRANCH   1   9
TORSDOF 10
ENDMDL
MODEL 9
REMARK VINA RESULT:    -4.194      4.049      7.408
REMARK INTER + INTRA:          -7.183
REMARK INTER:                  -6.761
REMARK INTRA:                  -0.422
REMARK UNBOUND:                -0.537
REMARK SMILES CCCCCCCCCCCC(=O)[O-]
REMARK SMILES IDX 7 1 8 2 9 3 10 4 11 5 12 6 13 7 14 8 6 9 5 10 4 11 3 12 2 13
REMARK SMILES IDX 1 14
REMARK H PARENT
REMARK Flexibility Score: inf
ROOT
ATOM      1  C   UNL     1       5.366 -38.700  21.025  1.00  0.00     0.000 C 
ENDROOT
BRANCH   1   2
ATOM      2  C   UNL     1       5.080 -37.484  20.127  1.00  0.00     0.000 C 
BRANCH   2   3
ATOM      3  C   UNL     1       3.657 -37.524  19.527  1.00  0.00     0.000 C 
BRANCH   3   4
ATOM      4  C   UNL     1       3.616 -37.187  18.024  1.00  0.00     0.006 C 
BRANCH   4   5
ATOM      5  C   UNL     1       2.564 -37.981  17.235  1.00  0.00     0.053 C 
BRANCH   5   6
ATOM      6  C   UNL     1       2.395 -37.450  15.845  1.00  0.00     0.041 C 
ATOM      7  O   UNL     1       1.347 -36.829  15.523  1.00  0.00    -0.550 OA
ATOM      8  O   UNL     1       3.389 -37.655  14.897  1.00  0.00    -0.550 OA
ENDBRANCH   5   6
ENDBRANCH   4   5
ENDBRANCH   3   4
ENDBRANCH   2   3
ENDBRANCH   1   2
BRANCH   1   9
ATOM      9  C   UNL     1       4.334 -38.847  22.155  1.00  0.00     0.000 C 
BRANCH   9  10
ATOM     10  C   UNL     1       4.930 -39.514  23.407  1.00  0.00    -0.000 C 
BRANCH  10  11
ATOM     11  C   UNL     1       5.028 -38.534  24.595  1.00  0.00    -0.000 C 
BRANCH  11  12
ATOM     12  C   UNL     1       5.946 -37.330  24.324  1.00  0.00    -0.000 C 
BRANCH  12  13
ATOM     13  C   UNL     1       5.190 -36.114  23.773  1.00  0.00    -0.003 C 
ATOM     14  C   UNL     1       6.125 -34.922  23.588  1.00  0.00     0.004 C 
ENDBRANCH  12  13
ENDBRANCH  11  12
ENDBRANCH  10  11
ENDBRANCH   9  10
ENDBRANCH   1   9
TORSDOF 10
ENDMDL
