MODEL 1
REMARK VINA RESULT:    -5.243      0.000      0.000
REMARK INTER + INTRA:          -5.702
REMARK INTER:                  -5.702
REMARK INTRA:                   0.000
REMARK UNBOUND:                 0.000
REMARK SMILES Oc1cccc(O)c1O
REMARK SMILES IDX 4 1 5 2 6 3 8 4 2 5 3 6 7 7 1 9 9 11
REMARK H PARENT 7 8 1 10 9 12
REMARK Flexibility Score: inf
ROOT
ATOM      1  C   UNL     1     -21.862  19.702  19.986  1.00  0.00     0.008 A 
ATOM      2  C   UNL     1     -22.549  18.926  19.053  1.00  0.00     0.050 A 
ATOM      3  C   UNL     1     -23.685  18.198  19.428  1.00  0.00     0.161 A 
ATOM      4  C   UNL     1     -24.139  18.254  20.770  1.00  0.00     0.200 A 
ATOM      5  C   UNL     1     -23.437  19.041  21.704  1.00  0.00     0.161 A 
ATOM      6  C   UNL     1     -22.305  19.759  21.307  1.00  0.00     0.050 A 
ENDROOT
BRANCH   3   7
ATOM      7  O   UNL     1     -24.326  17.443  18.444  1.00  0.00    -0.504 OA
ATOM      8  H   UNL     1     -24.115  17.500  17.459  1.00  0.00     0.293 HD
ENDBRANCH   3   7
BRANCH   5   9
ATOM      9  O   UNL     1     -23.850  19.122  23.034  1.00  0.00    -0.504 OA
ATOM     10  H   UNL     1     -23.373  18.628  23.780  1.00  0.00     0.293 HD
ENDBRANCH   5   9
BRANCH   4  11
ATOM     11  O   UNL     1     -25.265  17.551  21.205  1.00  0.00    -0.502 OA
ATOM     12  H   UNL     1     -25.456  17.328  22.171  1.00  0.00     0.293 HD
ENDBRANCH   4  11
TORSDOF 3
ENDMDL
MODEL 2
REMARK VINA RESULT:    -5.160      0.168      2.829
REMARK INTER + INTRA:          -5.613
REMARK INTER:                  -5.613
REMARK INTRA:                   0.000
REMARK UNBOUND:                 0.000
REMARK SMILES Oc1cccc(O)c1O
REMARK SMILES IDX 4 1 5 2 6 3 8 4 2 5 3 6 7 7 1 9 9 11
REMARK H PARENT 7 8 1 10 9 12
REMARK Flexibility Score: inf
ROOT
ATOM      1  C   UNL     1     -21.996  19.837  19.924  1.00  0.00     0.008 A 
ATOM      2  C   UNL     1     -22.434  19.829  21.248  1.00  0.00     0.050 A 
ATOM      3  C   UNL     1     -23.483  18.993  21.648  1.00  0.00     0.161 A 
ATOM      4  C   UNL     1     -24.105  18.146  20.695  1.00  0.00     0.200 A 
ATOM      5  C   UNL     1     -23.655  18.162  19.360  1.00  0.00     0.161 A 
ATOM      6  C   UNL     1     -22.605  19.006  18.983  1.00  0.00     0.050 A 
ENDROOT
BRANCH   3   7
ATOM      7  O   UNL     1     -23.871  19.034  22.989  1.00  0.00    -0.504 OA
ATOM      8  H   UNL     1     -23.297  18.714  23.755  1.00  0.00     0.293 HD
ENDBRANCH   3   7
BRANCH   5   9
ATOM      9  O   UNL     1     -24.239  17.346  18.392  1.00  0.00    -0.504 OA
ATOM     10  H   UNL     1     -24.245  16.335  18.469  1.00  0.00     0.293 HD
ENDBRANCH   5   9
BRANCH   4  11
ATOM     11  O   UNL     1     -25.155  17.289  21.033  1.00  0.00    -0.502 OA
ATOM     12  H   UNL     1     -25.245  16.825  21.925  1.00  0.00     0.293 HD
ENDBRANCH   4  11
TORSDOF 3
ENDMDL
MODEL 3
REMARK VINA RESULT:    -4.850      1.627      2.572
REMARK INTER + INTRA:          -5.275
REMARK INTER:                  -5.275
REMARK INTRA:                   0.000
REMARK UNBOUND:                 0.000
REMARK SMILES Oc1cccc(O)c1O
REMARK SMILES IDX 4 1 5 2 6 3 8 4 2 5 3 6 7 7 1 9 9 11
REMARK H PARENT 7 8 1 10 9 12
REMARK Flexibility Score: inf
ROOT
ATOM      1  C   UNL     1     -24.484  17.054  19.100  1.00  0.00     0.008 A 
ATOM      2  C   UNL     1     -23.667  17.951  18.411  1.00  0.00     0.050 A 
ATOM      3  C   UNL     1     -23.042  19.007  19.083  1.00  0.00     0.161 A 
ATOM      4  C   UNL     1     -23.243  19.165  20.478  1.00  0.00     0.200 A 
ATOM      5  C   UNL     1     -24.071  18.254  21.164  1.00  0.00     0.161 A 
ATOM      6  C   UNL     1     -24.685  17.206  20.471  1.00  0.00     0.050 A 
ENDROOT
BRANCH   3   7
ATOM      7  O   UNL     1     -22.236  19.868  18.335  1.00  0.00    -0.504 OA
ATOM      8  H   UNL     1     -21.232  19.792  18.271  1.00  0.00     0.293 HD
ENDBRANCH   3   7
BRANCH   5   9
ATOM      9  O   UNL     1     -24.295  18.374  22.535  1.00  0.00    -0.504 OA
ATOM     10  H   UNL     1     -24.897  17.736  23.043  1.00  0.00     0.293 HD
ENDBRANCH   5   9
BRANCH   4  11
ATOM     11  O   UNL     1     -22.647  20.199  21.205  1.00  0.00    -0.502 OA
ATOM     12  H   UNL     1     -22.588  21.155  20.888  1.00  0.00     0.293 HD
ENDBRANCH   4  11
TORSDOF 3
ENDMDL
MODEL 4
REMARK VINA RESULT:    -4.838      1.622      3.466
REMARK INTER + INTRA:          -5.262
REMARK INTER:                  -5.262
REMARK INTRA:                   0.000
REMARK UNBOUND:                 0.000
REMARK SMILES Oc1cccc(O)c1O
REMARK SMILES IDX 4 1 5 2 6 3 8 4 2 5 3 6 7 7 1 9 9 11
REMARK H PARENT 7 8 1 10 9 12
REMARK Flexibility Score: inf
ROOT
ATOM      1  C   UNL     1     -24.375  17.121  19.452  1.00  0.00     0.008 A 
ATOM      2  C   UNL     1     -24.631  17.437  20.787  1.00  0.00     0.050 A 
ATOM      3  C   UNL     1     -23.886  18.426  21.441  1.00  0.00     0.161 A 
ATOM      4  C   UNL     1     -22.865  19.112  20.737  1.00  0.00     0.200 A 
ATOM      5  C   UNL     1     -22.615  18.785  19.390  1.00  0.00     0.161 A 
ATOM      6  C   UNL     1     -23.371  17.793  18.756  1.00  0.00     0.050 A 
ENDROOT
BRANCH   3   7
ATOM      7  O   UNL     1     -24.194  18.692  22.777  1.00  0.00    -0.504 OA
ATOM      8  H   UNL     1     -23.505  18.798  23.507  1.00  0.00     0.293 HD
ENDBRANCH   3   7
BRANCH   5   9
ATOM      9  O   UNL     1     -21.619  19.435  18.662  1.00  0.00    -0.504 OA
ATOM     10  H   UNL     1     -20.709  19.645  19.057  1.00  0.00     0.293 HD
ENDBRANCH   5   9
BRANCH   4  11
ATOM     11  O   UNL     1     -22.088  20.108  21.334  1.00  0.00    -0.502 OA
ATOM     12  H   UNL     1     -21.207  20.437  20.967  1.00  0.00     0.293 HD
ENDBRANCH   4  11
TORSDOF 3
ENDMDL
MODEL 5
REMARK VINA RESULT:    -4.561      1.447      2.522
REMARK INTER + INTRA:          -4.961
REMARK INTER:                  -4.961
REMARK INTRA:                   0.000
REMARK UNBOUND:                 0.000
REMARK SMILES Oc1cccc(O)c1O
REMARK SMILES IDX 4 1 5 2 6 3 8 4 2 5 3 6 7 7 1 9 9 11
REMARK H PARENT 7 8 1 10 9 12
REMARK Flexibility Score: inf
ROOT
ATOM      1  C   UNL     1     -23.062  19.600  21.579  1.00  0.00     0.008 A 
ATOM      2  C   UNL     1     -22.572  20.106  20.375  1.00  0.00     0.050 A 
ATOM      3  C   UNL     1     -22.854  19.462  19.164  1.00  0.00     0.161 A 
ATOM      4  C   UNL     1     -23.646  18.286  19.165  1.00  0.00     0.200 A 
ATOM      5  C   UNL     1     -24.135  17.784  20.387  1.00  0.00     0.161 A 
ATOM      6  C   UNL     1     -23.841  18.444  21.585  1.00  0.00     0.050 A 
ENDROOT
BRANCH   3   7
ATOM      7  O   UNL     1     -22.334  20.021  17.995  1.00  0.00    -0.504 OA
ATOM      8  H   UNL     1     -22.008  20.974  17.918  1.00  0.00     0.293 HD
ENDBRANCH   3   7
BRANCH   5   9
ATOM      9  O   UNL     1     -24.917  16.630  20.432  1.00  0.00    -0.504 OA
ATOM     10  H   UNL     1     -24.881  15.982  21.211  1.00  0.00     0.293 HD
ENDBRANCH   5   9
BRANCH   4  11
ATOM     11  O   UNL     1     -23.962  17.599  17.990  1.00  0.00    -0.502 OA
ATOM     12  H   UNL     1     -24.345  18.035  17.163  1.00  0.00     0.293 HD
ENDBRANCH   4  11
TORSDOF 3
ENDMDL
MODEL 6
REMARK VINA RESULT:    -4.549      1.199      2.129
REMARK INTER + INTRA:          -4.948
REMARK INTER:                  -4.948
REMARK INTRA:                   0.000
REMARK UNBOUND:                 0.000
REMARK SMILES Oc1cccc(O)c1O
REMARK SMILES IDX 4 1 5 2 6 3 8 4 2 5 3 6 7 7 1 9 9 11
REMARK H PARENT 7 8 1 10 9 12
REMARK Flexibility Score: inf
ROOT
ATOM      1  C   UNL     1     -22.864  18.079  19.006  1.00  0.00     0.008 A 
ATOM      2  C   UNL     1     -24.109  17.660  19.479  1.00  0.00     0.050 A 
ATOM      3  C   UNL     1     -24.512  17.958  20.786  1.00  0.00     0.161 A 
ATOM      4  C   UNL     1     -23.646  18.692  21.635  1.00  0.00     0.200 A 
ATOM      5  C   UNL     1     -22.392  19.110  21.147  1.00  0.00     0.161 A 
ATOM      6  C   UNL     1     -22.009  18.801  19.838  1.00  0.00     0.050 A 
ENDROOT
BRANCH   3   7
ATOM      7  O   UNL     1     -25.770  17.510  21.195  1.00  0.00    -0.504 OA
ATOM      8  H   UNL     1     -26.629  18.018  21.044  1.00  0.00     0.293 HD
ENDBRANCH   3   7
BRANCH   5   9
ATOM      9  O   UNL     1     -21.510  19.834  21.950  1.00  0.00    -0.504 OA
ATOM     10  H   UNL     1     -21.706  20.782  22.250  1.00  0.00     0.293 HD
ENDBRANCH   5   9
BRANCH   4  11
ATOM     11  O   UNL     1     -23.992  19.021  22.948  1.00  0.00    -0.502 OA
ATOM     12  H   UNL     1     -24.877  19.426  23.217  1.00  0.00     0.293 HD
ENDBRANCH   4  11
TORSDOF 3
ENDMDL
MODEL 7
REMARK VINA RESULT:    -4.527      2.090      2.984
REMARK INTER + INTRA:          -4.924
REMARK INTER:                  -4.924
REMARK INTRA:                   0.000
REMARK UNBOUND:                 0.000
REMARK SMILES Oc1cccc(O)c1O
REMARK SMILES IDX 4 1 5 2 6 3 8 4 2 5 3 6 7 7 1 9 9 11
REMARK H PARENT 7 8 1 10 9 12
REMARK Flexibility Score: inf
ROOT
ATOM      1  C   UNL     1     -24.835  16.349  20.232  1.00  0.00     0.008 A 
ATOM      2  C   UNL     1     -23.716  15.941  19.505  1.00  0.00     0.050 A 
ATOM      3  C   UNL     1     -22.630  16.805  19.325  1.00  0.00     0.161 A 
ATOM      4  C   UNL     1     -22.669  18.105  19.888  1.00  0.00     0.200 A 
ATOM      5  C   UNL     1     -23.804  18.507  20.620  1.00  0.00     0.161 A 
ATOM      6  C   UNL     1     -24.879  17.627  20.787  1.00  0.00     0.050 A 
ENDROOT
BRANCH   3   7
ATOM      7  O   UNL     1     -21.541  16.334  18.588  1.00  0.00    -0.504 OA
ATOM      8  H   UNL     1     -21.177  15.394  18.653  1.00  0.00     0.293 HD
ENDBRANCH   3   7
BRANCH   5   9
ATOM      9  O   UNL     1     -23.883  19.777  21.189  1.00  0.00    -0.504 OA
ATOM     10  H   UNL     1     -24.576  20.458  20.899  1.00  0.00     0.293 HD
ENDBRANCH   5   9
BRANCH   4  11
ATOM     11  O   UNL     1     -21.616  19.013  19.744  1.00  0.00    -0.502 OA
ATOM     12  H   UNL     1     -20.654  18.805  19.969  1.00  0.00     0.293 HD
ENDBRANCH   4  11
TORSDOF 3
ENDMDL
MODEL 8
REMARK VINA RESULT:    -4.516      2.103      3.793
REMARK INTER + INTRA:          -4.912
REMARK INTER:                  -4.912
REMARK INTRA:                   0.000
REMARK UNBOUND:                 0.000
REMARK SMILES Oc1cccc(O)c1O
REMARK SMILES IDX 4 1 5 2 6 3 8 4 2 5 3 6 7 7 1 9 9 11
REMARK H PARENT 7 8 1 10 9 12
REMARK Flexibility Score: inf
ROOT
ATOM      1  C   UNL     1     -24.812  16.327  20.271  1.00  0.00     0.008 A 
ATOM      2  C   UNL     1     -24.871  17.630  20.767  1.00  0.00     0.050 A 
ATOM      3  C   UNL     1     -23.811  18.521  20.558  1.00  0.00     0.161 A 
ATOM      4  C   UNL     1     -22.670  18.092  19.836  1.00  0.00     0.200 A 
ATOM      5  C   UNL     1     -22.621  16.774  19.340  1.00  0.00     0.161 A 
ATOM      6  C   UNL     1     -23.691  15.901  19.560  1.00  0.00     0.050 A 
ENDROOT
BRANCH   3   7
ATOM      7  O   UNL     1     -23.935  19.810  21.081  1.00  0.00    -0.504 OA
ATOM      8  H   UNL     1     -24.764  20.379  20.995  1.00  0.00     0.293 HD
ENDBRANCH   3   7
BRANCH   5   9
ATOM      9  O   UNL     1     -21.516  16.313  18.625  1.00  0.00    -0.504 OA
ATOM     10  H   UNL     1     -20.781  15.766  19.058  1.00  0.00     0.293 HD
ENDBRANCH   5   9
BRANCH   4  11
ATOM     11  O   UNL     1     -21.581  18.934  19.594  1.00  0.00    -0.502 OA
ATOM     12  H   UNL     1     -21.039  18.931  18.742  1.00  0.00     0.293 HD
ENDBRANCH   4  11
TORSDOF 3
ENDMDL
MODEL 9
REMARK VINA RESULT:    -4.373      1.353      2.899
REMARK INTER + INTRA:          -4.757
REMARK INTER:                  -4.757
REMARK INTRA:                   0.000
REMARK UNBOUND:                 0.000
REMARK SMILES Oc1cccc(O)c1O
REMARK SMILES IDX 4 1 5 2 6 3 8 4 2 5 3 6 7 7 1 9 9 11
REMARK H PARENT 7 8 1 10 9 12
REMARK Flexibility Score: inf
ROOT
ATOM      1  C   UNL     1     -22.438  19.947  19.986  1.00  0.00     0.008 A 
ATOM      2  C   UNL     1     -23.347  19.630  20.995  1.00  0.00     0.050 A 
ATOM      3  C   UNL     1     -23.867  18.335  21.106  1.00  0.00     0.161 A 
ATOM      4  C   UNL     1     -23.463  17.338  20.183  1.00  0.00     0.200 A 
ATOM      5  C   UNL     1     -22.543  17.669  19.168  1.00  0.00     0.161 A 
ATOM      6  C   UNL     1     -22.037  18.969  19.076  1.00  0.00     0.050 A 
ENDROOT
BRANCH   3   7
ATOM      7  O   UNL     1     -24.773  18.086  22.139  1.00  0.00    -0.504 OA
ATOM      8  H   UNL     1     -24.624  18.356  23.101  1.00  0.00     0.293 HD
ENDBRANCH   3   7
BRANCH   5   9
ATOM      9  O   UNL     1     -22.121  16.717  18.240  1.00  0.00    -0.504 OA
ATOM     10  H   UNL     1     -21.256  16.815  17.721  1.00  0.00     0.293 HD
ENDBRANCH   5   9
BRANCH   4  11
ATOM     11  O   UNL     1     -23.945  16.028  20.242  1.00  0.00    -0.502 OA
ATOM     12  H   UNL     1     -23.357  15.208  20.268  1.00  0.00     0.293 HD
ENDBRANCH   4  11
TORSDOF 3
ENDMDL
