MODEL 1
REMARK VINA RESULT:    -4.650      0.000      0.000
REMARK INTER + INTRA:          -4.786
REMARK INTER:                  -4.786
REMARK INTRA:                   0.000
REMARK UNBOUND:                 0.000
REMARK SMILES Nc1ncnc2nc[nH]c12
REMARK SMILES IDX 8 1 7 2 6 3 5 4 4 5 3 6 2 7 10 8 9 9 1 11
REMARK H PARENT 9 10 1 12 1 13
REMARK Flexibility Score: inf
ROOT
ATOM      1  C   UNL     1      -4.519   7.616 -23.909  1.00  0.00     0.199 A 
ATOM      2  N   UNL     1      -4.994   6.345 -23.798  1.00  0.00    -0.217 NA
ATOM      3  C   UNL     1      -4.141   5.798 -22.916  1.00  0.00     0.182 A 
ATOM      4  N   UNL     1      -4.165   4.527 -22.450  1.00  0.00    -0.215 NA
ATOM      5  C   UNL     1      -3.207   4.151 -21.550  1.00  0.00     0.226 A 
ATOM      6  N   UNL     1      -2.252   5.044 -21.136  1.00  0.00    -0.217 NA
ATOM      7  C   UNL     1      -2.225   6.327 -21.606  1.00  0.00     0.152 A 
ATOM      8  C   UNL     1      -3.207   6.695 -22.521  1.00  0.00     0.127 A 
ATOM      9  N   UNL     1      -3.427   7.861 -23.141  1.00  0.00    -0.340 N 
ATOM     10  H   UNL     1      -2.894   8.753 -23.060  1.00  0.00     0.168 HD
ENDROOT
BRANCH   7  11
ATOM     11  N   UNL     1      -1.221   7.239 -21.161  1.00  0.00    -0.382 N 
ATOM     12  H   UNL     1      -1.159   7.497 -20.151  1.00  0.00     0.158 HD
ATOM     13  H   UNL     1      -0.535   7.661 -21.826  1.00  0.00     0.158 HD
ENDBRANCH   7  11
TORSDOF 1
ENDMDL
MODEL 2
REMARK VINA RESULT:    -4.551      2.647      4.291
REMARK INTER + INTRA:          -4.684
REMARK INTER:                  -4.684
REMARK INTRA:                   0.000
REMARK UNBOUND:                 0.000
REMARK SMILES Nc1ncnc2nc[nH]c12
REMARK SMILES IDX 8 1 7 2 6 3 5 4 4 5 3 6 2 7 10 8 9 9 1 11
REMARK H PARENT 9 10 1 12 1 13
REMARK Flexibility Score: inf
ROOT
ATOM      1  C   UNL     1      -4.148   9.065 -20.563  1.00  0.00     0.199 A 
ATOM      2  N   UNL     1      -3.323   8.600 -21.541  1.00  0.00    -0.217 NA
ATOM      3  C   UNL     1      -4.195   8.180 -22.473  1.00  0.00     0.182 A 
ATOM      4  N   UNL     1      -3.893   7.621 -23.669  1.00  0.00    -0.215 NA
ATOM      5  C   UNL     1      -4.924   7.255 -24.489  1.00  0.00     0.226 A 
ATOM      6  N   UNL     1      -6.225   7.454 -24.103  1.00  0.00    -0.217 NA
ATOM      7  C   UNL     1      -6.532   8.018 -22.897  1.00  0.00     0.152 A 
ATOM      8  C   UNL     1      -5.471   8.385 -22.073  1.00  0.00     0.127 A 
ATOM      9  N   UNL     1      -5.467   8.948 -20.858  1.00  0.00    -0.340 N 
ATOM     10  H   UNL     1      -6.278   9.234 -20.269  1.00  0.00     0.168 HD
ENDROOT
BRANCH   7  11
ATOM     11  N   UNL     1      -7.894   8.215 -22.516  1.00  0.00    -0.382 N 
ATOM     12  H   UNL     1      -8.227   7.892 -21.581  1.00  0.00     0.158 HD
ATOM     13  H   UNL     1      -8.576   8.680 -23.155  1.00  0.00     0.158 HD
ENDBRANCH   7  11
TORSDOF 1
ENDMDL
MODEL 3
REMARK VINA RESULT:    -4.513      3.055      5.124
REMARK INTER + INTRA:          -4.645
REMARK INTER:                  -4.645
REMARK INTRA:                   0.000
REMARK UNBOUND:                 0.000
REMARK SMILES Nc1ncnc2nc[nH]c12
REMARK SMILES IDX 8 1 7 2 6 3 5 4 4 5 3 6 2 7 10 8 9 9 1 11
REMARK H PARENT 9 10 1 12 1 13
REMARK Flexibility Score: inf
ROOT
ATOM      1  C   UNL     1      -2.694   4.066 -18.143  1.00  0.00     0.199 A 
ATOM      2  N   UNL     1      -2.499   4.719 -19.322  1.00  0.00    -0.217 NA
ATOM      3  C   UNL     1      -3.246   3.996 -20.174  1.00  0.00     0.182 A 
ATOM      4  N   UNL     1      -3.406   4.222 -21.499  1.00  0.00    -0.215 NA
ATOM      5  C   UNL     1      -4.211   3.373 -22.207  1.00  0.00     0.226 A 
ATOM      6  N   UNL     1      -4.838   2.325 -21.581  1.00  0.00    -0.217 NA
ATOM      7  C   UNL     1      -4.678   2.096 -20.243  1.00  0.00     0.152 A 
ATOM      8  C   UNL     1      -3.855   2.969 -19.537  1.00  0.00     0.127 A 
ATOM      9  N   UNL     1      -3.517   2.992 -18.242  1.00  0.00    -0.340 N 
ATOM     10  H   UNL     1      -3.812   2.345 -17.479  1.00  0.00     0.168 HD
ENDROOT
BRANCH   7  11
ATOM     11  N   UNL     1      -5.340   0.999 -19.613  1.00  0.00    -0.382 N 
ATOM     12  H   UNL     1      -4.860   0.075 -19.532  1.00  0.00     0.158 HD
ATOM     13  H   UNL     1      -6.304   1.095 -19.225  1.00  0.00     0.158 HD
ENDBRANCH   7  11
TORSDOF 1
ENDMDL
MODEL 4
REMARK VINA RESULT:    -4.464      1.972      2.526
REMARK INTER + INTRA:          -4.595
REMARK INTER:                  -4.595
REMARK INTRA:                   0.000
REMARK UNBOUND:                 0.000
REMARK SMILES Nc1ncnc2nc[nH]c12
REMARK SMILES IDX 8 1 7 2 6 3 5 4 4 5 3 6 2 7 10 8 9 9 1 11
REMARK H PARENT 9 10 1 12 1 13
REMARK Flexibility Score: inf
ROOT
ATOM      1  C   UNL     1      -4.591   7.819 -24.391  1.00  0.00     0.199 A 
ATOM      2  N   UNL     1      -5.548   8.232 -23.515  1.00  0.00    -0.217 NA
ATOM      3  C   UNL     1      -4.916   8.128 -22.333  1.00  0.00     0.182 A 
ATOM      4  N   UNL     1      -5.427   8.422 -21.115  1.00  0.00    -0.215 NA
ATOM      5  C   UNL     1      -4.626   8.252 -20.020  1.00  0.00     0.226 A 
ATOM      6  N   UNL     1      -3.340   7.797 -20.163  1.00  0.00    -0.217 NA
ATOM      7  C   UNL     1      -2.821   7.500 -21.392  1.00  0.00     0.152 A 
ATOM      8  C   UNL     1      -3.650   7.679 -22.496  1.00  0.00     0.127 A 
ATOM      9  N   UNL     1      -3.420   7.473 -23.799  1.00  0.00    -0.340 N 
ATOM     10  H   UNL     1      -2.551   7.131 -24.262  1.00  0.00     0.168 HD
ENDROOT
BRANCH   7  11
ATOM     11  N   UNL     1      -1.480   7.028 -21.516  1.00  0.00    -0.382 N 
ATOM     12  H   UNL     1      -1.097   6.352 -20.818  1.00  0.00     0.158 HD
ATOM     13  H   UNL     1      -0.862   7.343 -22.296  1.00  0.00     0.158 HD
ENDBRANCH   7  11
TORSDOF 1
ENDMDL
MODEL 5
REMARK VINA RESULT:    -4.425      2.618      3.879
REMARK INTER + INTRA:          -4.555
REMARK INTER:                  -4.555
REMARK INTRA:                   0.000
REMARK UNBOUND:                 0.000
REMARK SMILES Nc1ncnc2nc[nH]c12
REMARK SMILES IDX 8 1 7 2 6 3 5 4 4 5 3 6 2 7 10 8 9 9 1 11
REMARK H PARENT 9 10 1 12 1 13
REMARK Flexibility Score: inf
ROOT
ATOM      1  C   UNL     1      -3.271   8.963 -20.547  1.00  0.00     0.199 A 
ATOM      2  N   UNL     1      -4.613   8.976 -20.320  1.00  0.00    -0.217 NA
ATOM      3  C   UNL     1      -5.104   8.502 -21.478  1.00  0.00     0.182 A 
ATOM      4  N   UNL     1      -6.408   8.311 -21.784  1.00  0.00    -0.215 NA
ATOM      5  C   UNL     1      -6.714   7.816 -23.022  1.00  0.00     0.226 A 
ATOM      6  N   UNL     1      -5.720   7.524 -23.920  1.00  0.00    -0.217 NA
ATOM      7  C   UNL     1      -4.402   7.717 -23.612  1.00  0.00     0.152 A 
ATOM      8  C   UNL     1      -4.107   8.221 -22.349  1.00  0.00     0.127 A 
ATOM      9  N   UNL     1      -2.930   8.507 -21.779  1.00  0.00    -0.340 N 
ATOM     10  H   UNL     1      -1.971   8.407 -22.176  1.00  0.00     0.168 HD
ENDROOT
BRANCH   7  11
ATOM     11  N   UNL     1      -3.384   7.406 -24.564  1.00  0.00    -0.382 N 
ATOM     12  H   UNL     1      -3.580   6.732 -25.337  1.00  0.00     0.158 HD
ATOM     13  H   UNL     1      -2.437   7.839 -24.509  1.00  0.00     0.158 HD
ENDBRANCH   7  11
TORSDOF 1
ENDMDL
MODEL 6
REMARK VINA RESULT:    -4.416      1.290      3.752
REMARK INTER + INTRA:          -4.546
REMARK INTER:                  -4.546
REMARK INTRA:                   0.000
REMARK UNBOUND:                 0.000
REMARK SMILES Nc1ncnc2nc[nH]c12
REMARK SMILES IDX 8 1 7 2 6 3 5 4 4 5 3 6 2 7 10 8 9 9 1 11
REMARK H PARENT 9 10 1 12 1 13
REMARK Flexibility Score: inf
ROOT
ATOM      1  C   UNL     1      -3.743   4.151 -22.237  1.00  0.00     0.199 A 
ATOM      2  N   UNL     1      -2.998   5.042 -21.527  1.00  0.00    -0.217 NA
ATOM      3  C   UNL     1      -3.550   6.217 -21.875  1.00  0.00     0.182 A 
ATOM      4  N   UNL     1      -3.176   7.444 -21.443  1.00  0.00    -0.215 NA
ATOM      5  C   UNL     1      -3.862   8.530 -21.912  1.00  0.00     0.226 A 
ATOM      6  N   UNL     1      -4.900   8.370 -22.794  1.00  0.00    -0.217 NA
ATOM      7  C   UNL     1      -5.279   7.131 -23.232  1.00  0.00     0.152 A 
ATOM      8  C   UNL     1      -4.570   6.036 -22.745  1.00  0.00     0.127 A 
ATOM      9  N   UNL     1      -4.712   4.728 -22.992  1.00  0.00    -0.340 N 
ATOM     10  H   UNL     1      -5.401   4.253 -23.614  1.00  0.00     0.168 HD
ENDROOT
BRANCH   7  11
ATOM     11  N   UNL     1      -6.361   6.989 -24.151  1.00  0.00    -0.382 N 
ATOM     12  H   UNL     1      -7.319   7.306 -23.884  1.00  0.00     0.158 HD
ATOM     13  H   UNL     1      -6.221   6.572 -25.097  1.00  0.00     0.158 HD
ENDBRANCH   7  11
TORSDOF 1
ENDMDL
MODEL 7
REMARK VINA RESULT:    -4.395      0.963      3.058
REMARK INTER + INTRA:          -4.524
REMARK INTER:                  -4.524
REMARK INTRA:                   0.000
REMARK UNBOUND:                 0.000
REMARK SMILES Nc1ncnc2nc[nH]c12
REMARK SMILES IDX 8 1 7 2 6 3 5 4 4 5 3 6 2 7 10 8 9 9 1 11
REMARK H PARENT 9 10 1 12 1 13
REMARK Flexibility Score: inf
ROOT
ATOM      1  C   UNL     1      -2.614   3.174 -20.823  1.00  0.00     0.199 A 
ATOM      2  N   UNL     1      -3.688   3.207 -21.658  1.00  0.00    -0.217 NA
ATOM      3  C   UNL     1      -3.674   4.478 -22.092  1.00  0.00     0.182 A 
ATOM      4  N   UNL     1      -4.545   5.046 -22.959  1.00  0.00    -0.215 NA
ATOM      5  C   UNL     1      -4.367   6.362 -23.284  1.00  0.00     0.226 A 
ATOM      6  N   UNL     1      -3.331   7.079 -22.743  1.00  0.00    -0.217 NA
ATOM      7  C   UNL     1      -2.450   6.508 -21.867  1.00  0.00     0.152 A 
ATOM      8  C   UNL     1      -2.645   5.167 -21.547  1.00  0.00     0.127 A 
ATOM      9  N   UNL     1      -1.955   4.357 -20.733  1.00  0.00    -0.340 N 
ATOM     10  H   UNL     1      -1.110   4.573 -20.162  1.00  0.00     0.168 HD
ENDROOT
BRANCH   7  11
ATOM     11  N   UNL     1      -1.379   7.273 -21.316  1.00  0.00    -0.382 N 
ATOM     12  H   UNL     1      -0.868   7.962 -21.911  1.00  0.00     0.158 HD
ATOM     13  H   UNL     1      -1.088   7.164 -20.319  1.00  0.00     0.158 HD
ENDBRANCH   7  11
TORSDOF 1
ENDMDL
MODEL 8
REMARK VINA RESULT:    -4.395      1.851      3.186
REMARK INTER + INTRA:          -4.523
REMARK INTER:                  -4.523
REMARK INTRA:                   0.000
REMARK UNBOUND:                 0.000
REMARK SMILES Nc1ncnc2nc[nH]c12
REMARK SMILES IDX 8 1 7 2 6 3 5 4 4 5 3 6 2 7 10 8 9 9 1 11
REMARK H PARENT 9 10 1 12 1 13
REMARK Flexibility Score: inf
ROOT
ATOM      1  C   UNL     1      -4.140   9.246 -20.890  1.00  0.00     0.199 A 
ATOM      2  N   UNL     1      -3.321   8.242 -20.474  1.00  0.00    -0.217 NA
ATOM      3  C   UNL     1      -3.673   7.232 -21.288  1.00  0.00     0.182 A 
ATOM      4  N   UNL     1      -3.153   5.982 -21.295  1.00  0.00    -0.215 NA
ATOM      5  C   UNL     1      -3.642   5.085 -22.204  1.00  0.00     0.226 A 
ATOM      6  N   UNL     1      -4.631   5.451 -23.081  1.00  0.00    -0.217 NA
ATOM      7  C   UNL     1      -5.157   6.713 -23.075  1.00  0.00     0.152 A 
ATOM      8  C   UNL     1      -4.648   7.614 -22.144  1.00  0.00     0.127 A 
ATOM      9  N   UNL     1      -4.964   8.894 -21.909  1.00  0.00    -0.340 N 
ATOM     10  H   UNL     1      -5.672   9.490 -22.390  1.00  0.00     0.168 HD
ENDROOT
BRANCH   7  11
ATOM     11  N   UNL     1      -6.186   7.072 -23.997  1.00  0.00    -0.382 N 
ATOM     12  H   UNL     1      -6.322   8.071 -24.266  1.00  0.00     0.158 HD
ATOM     13  H   UNL     1      -6.815   6.353 -24.417  1.00  0.00     0.158 HD
ENDBRANCH   7  11
TORSDOF 1
ENDMDL
MODEL 9
REMARK VINA RESULT:    -4.337      1.904      2.312
REMARK INTER + INTRA:          -4.464
REMARK INTER:                  -4.464
REMARK INTRA:                   0.000
REMARK UNBOUND:                 0.000
REMARK SMILES Nc1ncnc2nc[nH]c12
REMARK SMILES IDX 8 1 7 2 6 3 5 4 4 5 3 6 2 7 10 8 9 9 1 11
REMARK H PARENT 9 10 1 12 1 13
REMARK Flexibility Score: inf
ROOT
ATOM      1  C   UNL     1      -5.900   7.969 -22.823  1.00  0.00     0.199 A 
ATOM      2  N   UNL     1      -5.199   6.820 -23.029  1.00  0.00    -0.217 NA
ATOM      3  C   UNL     1      -4.061   7.055 -22.353  1.00  0.00     0.182 A 
ATOM      4  N   UNL     1      -3.005   6.217 -22.234  1.00  0.00    -0.215 NA
ATOM      5  C   UNL     1      -1.929   6.635 -21.501  1.00  0.00     0.226 A 
ATOM      6  N   UNL     1      -1.930   7.871 -20.906  1.00  0.00    -0.217 NA
ATOM      7  C   UNL     1      -2.995   8.719 -21.026  1.00  0.00     0.152 A 
ATOM      8  C   UNL     1      -4.083   8.278 -21.775  1.00  0.00     0.127 A 
ATOM      9  N   UNL     1      -5.244   8.880 -22.061  1.00  0.00    -0.340 N 
ATOM     10  H   UNL     1      -5.578   9.825 -21.771  1.00  0.00     0.168 HD
ENDROOT
BRANCH   7  11
ATOM     11  N   UNL     1      -2.973  10.001 -20.398  1.00  0.00    -0.382 N 
ATOM     12  H   UNL     1      -2.267  10.713 -20.687  1.00  0.00     0.158 HD
ATOM     13  H   UNL     1      -3.654  10.251 -19.647  1.00  0.00     0.158 HD
ENDBRANCH   7  11
TORSDOF 1
ENDMDL
