MODEL 1
REMARK VINA RESULT:    -3.041      0.000      0.000
REMARK INTER + INTRA:          -6.313
REMARK INTER:                  -4.907
REMARK INTRA:                  -1.406
REMARK UNBOUND:                -1.406
REMARK SMILES CCCCCCCCCCCCO
REMARK SMILES IDX 7 1 6 2 5 3 4 4 3 5 2 6 1 7 8 8 9 9 10 10 11 11 12 12 13 13
REMARK H PARENT 13 14
REMARK Flexibility Score: inf
ROOT
ATOM      1  C   UNL     1      26.704 -21.379  22.066  1.00  0.00     0.000 C 
ENDROOT
BRANCH   1   2
ATOM      2  C   UNL     1      27.237 -22.776  21.729  1.00  0.00    -0.000 C 
BRANCH   2   3
ATOM      3  C   UNL     1      27.949 -22.782  20.370  1.00  0.00    -0.000 C 
BRANCH   3   4
ATOM      4  C   UNL     1      29.243 -21.961  20.422  1.00  0.00    -0.000 C 
BRANCH   4   5
ATOM      5  C   UNL     1      30.118 -22.390  21.608  1.00  0.00    -0.000 C 
BRANCH   5   6
ATOM      6  C   UNL     1      30.936 -21.225  22.189  1.00  0.00    -0.003 C 
ATOM      7  C   UNL     1      30.265 -19.869  21.980  1.00  0.00     0.004 C 
ENDBRANCH   5   6
ENDBRANCH   4   5
ENDBRANCH   3   4
ENDBRANCH   2   3
ENDBRANCH   1   2
BRANCH   1   8
ATOM      8  C   UNL     1      27.007 -21.011  23.523  1.00  0.00     0.000 C 
BRANCH   8   9
ATOM      9  C   UNL     1      27.524 -22.226  24.302  1.00  0.00     0.000 C 
BRANCH   9  10
ATOM     10  C   UNL     1      28.186 -21.794  25.619  1.00  0.00     0.002 C 
BRANCH  10  11
ATOM     11  C   UNL     1      29.111 -20.577  25.447  1.00  0.00     0.028 C 
BRANCH  11  12
ATOM     12  C   UNL     1      29.642 -20.015  26.773  1.00  0.00     0.156 C 
BRANCH  12  13
ATOM     13  O   UNL     1      30.738 -20.759  27.233  1.00  0.00    -0.396 OA
ATOM     14  H   UNL     1      31.434 -20.104  27.502  1.00  0.00     0.210 HD
ENDBRANCH  12  13
ENDBRANCH  11  12
ENDBRANCH  10  11
ENDBRANCH   9  10
ENDBRANCH   8   9
ENDBRANCH   1   8
TORSDOF 11
ENDMDL
MODEL 2
REMARK VINA RESULT:    -2.807      1.701      2.737
REMARK INTER + INTRA:          -5.935
REMARK INTER:                  -4.756
REMARK INTRA:                  -1.180
REMARK UNBOUND:                -1.406
REMARK SMILES CCCCCCCCCCCCO
REMARK SMILES IDX 7 1 6 2 5 3 4 4 3 5 2 6 1 7 8 8 9 9 10 10 11 11 12 12 13 13
REMARK H PARENT 13 14
REMARK Flexibility Score: inf
ROOT
ATOM      1  C   UNL     1      27.488 -20.283  24.714  1.00  0.00     0.000 C 
ENDROOT
BRANCH   1   2
ATOM      2  C   UNL     1      27.341 -21.776  25.032  1.00  0.00    -0.000 C 
BRANCH   2   3
ATOM      3  C   UNL     1      28.254 -22.623  24.136  1.00  0.00    -0.000 C 
BRANCH   3   4
ATOM      4  C   UNL     1      28.691 -21.837  22.894  1.00  0.00    -0.000 C 
BRANCH   4   5
ATOM      5  C   UNL     1      30.078 -22.289  22.417  1.00  0.00    -0.000 C 
BRANCH   5   6
ATOM      6  C   UNL     1      30.964 -21.113  21.976  1.00  0.00    -0.003 C 
ATOM      7  C   UNL     1      30.272 -19.759  22.136  1.00  0.00     0.004 C 
ENDBRANCH   5   6
ENDBRANCH   4   5
ENDBRANCH   3   4
ENDBRANCH   2   3
ENDBRANCH   1   2
BRANCH   1   8
ATOM      8  C   UNL     1      28.099 -19.526  25.899  1.00  0.00     0.000 C 
BRANCH   8   9
ATOM      9  C   UNL     1      29.631 -19.564  25.846  1.00  0.00     0.000 C 
BRANCH   9  10
ATOM     10  C   UNL     1      30.202 -20.359  27.030  1.00  0.00     0.002 C 
BRANCH  10  11
ATOM     11  C   UNL     1      29.136 -20.705  28.083  1.00  0.00     0.028 C 
BRANCH  11  12
ATOM     12  C   UNL     1      29.653 -20.643  29.527  1.00  0.00     0.156 C 
BRANCH  12  13
ATOM     13  O   UNL     1      30.095 -21.902  29.959  1.00  0.00    -0.396 OA
ATOM     14  H   UNL     1      30.798 -21.738  30.641  1.00  0.00     0.210 HD
ENDBRANCH  12  13
ENDBRANCH  11  12
ENDBRANCH  10  11
ENDBRANCH   9  10
ENDBRANCH   8   9
ENDBRANCH   1   8
TORSDOF 11
ENDMDL
MODEL 3
REMARK VINA RESULT:    -2.793     10.674     13.197
REMARK INTER + INTRA:          -5.914
REMARK INTER:                  -4.566
REMARK INTRA:                  -1.349
REMARK UNBOUND:                -1.406
REMARK SMILES CCCCCCCCCCCCO
REMARK SMILES IDX 7 1 6 2 5 3 4 4 3 5 2 6 1 7 8 8 9 9 10 10 11 11 12 12 13 13
REMARK H PARENT 13 14
REMARK Flexibility Score: inf
ROOT
ATOM      1  C   UNL     1      27.811 -18.952  33.660  1.00  0.00     0.000 C 
ENDROOT
BRANCH   1   2
ATOM      2  C   UNL     1      28.631 -18.389  34.827  1.00  0.00    -0.000 C 
BRANCH   2   3
ATOM      3  C   UNL     1      28.053 -18.836  36.175  1.00  0.00    -0.000 C 
BRANCH   3   4
ATOM      4  C   UNL     1      27.079 -17.790  36.732  1.00  0.00    -0.000 C 
BRANCH   4   5
ATOM      5  C   UNL     1      25.720 -18.425  37.060  1.00  0.00    -0.000 C 
BRANCH   5   6
ATOM      6  C   UNL     1      25.799 -19.954  37.196  1.00  0.00    -0.003 C 
ATOM      7  C   UNL     1      24.732 -20.676  36.375  1.00  0.00     0.004 C 
ENDBRANCH   5   6
ENDBRANCH   4   5
ENDBRANCH   3   4
ENDBRANCH   2   3
ENDBRANCH   1   2
BRANCH   1   8
ATOM      8  C   UNL     1      27.512 -20.441  33.866  1.00  0.00     0.000 C 
BRANCH   8   9
ATOM      9  C   UNL     1      28.642 -21.313  33.306  1.00  0.00     0.000 C 
BRANCH   9  10
ATOM     10  C   UNL     1      29.184 -22.268  34.380  1.00  0.00     0.002 C 
BRANCH  10  11
ATOM     11  C   UNL     1      28.212 -22.449  35.558  1.00  0.00     0.028 C 
BRANCH  11  12
ATOM     12  C   UNL     1      28.907 -22.789  36.883  1.00  0.00     0.156 C 
BRANCH  12  13
ATOM     13  O   UNL     1      28.122 -22.403  37.979  1.00  0.00    -0.396 OA
ATOM     14  H   UNL     1      27.220 -22.793  37.833  1.00  0.00     0.210 HD
ENDBRANCH  12  13
ENDBRANCH  11  12
ENDBRANCH  10  11
ENDBRANCH   9  10
ENDBRANCH   8   9
ENDBRANCH   1   8
TORSDOF 11
ENDMDL
MODEL 4
REMARK VINA RESULT:    -2.790      1.387      2.643
REMARK INTER + INTRA:          -5.909
REMARK INTER:                  -4.252
REMARK INTRA:                  -1.656
REMARK UNBOUND:                -1.406
REMARK SMILES CCCCCCCCCCCCO
REMARK SMILES IDX 7 1 6 2 5 3 4 4 3 5 2 6 1 7 8 8 9 9 10 10 11 11 12 12 13 13
REMARK H PARENT 13 14
REMARK Flexibility Score: inf
ROOT
ATOM      1  C   UNL     1      26.822 -20.574  21.167  1.00  0.00     0.000 C 
ENDROOT
BRANCH   1   2
ATOM      2  C   UNL     1      27.634 -19.828  20.101  1.00  0.00    -0.000 C 
BRANCH   2   3
ATOM      3  C   UNL     1      28.722 -18.960  20.744  1.00  0.00    -0.000 C 
BRANCH   3   4
ATOM      4  C   UNL     1      29.171 -19.544  22.089  1.00  0.00    -0.000 C 
BRANCH   4   5
ATOM      5  C   UNL     1      30.598 -20.102  21.996  1.00  0.00    -0.000 C 
BRANCH   5   6
ATOM      6  C   UNL     1      30.631 -21.638  21.954  1.00  0.00    -0.003 C 
ATOM      7  C   UNL     1      30.494 -22.194  20.537  1.00  0.00     0.004 C 
ENDBRANCH   5   6
ENDBRANCH   4   5
ENDBRANCH   3   4
ENDBRANCH   2   3
ENDBRANCH   1   2
BRANCH   1   8
ATOM      8  C   UNL     1      26.651 -22.051  20.794  1.00  0.00     0.000 C 
BRANCH   8   9
ATOM      9  C   UNL     1      27.164 -22.965  21.914  1.00  0.00     0.000 C 
BRANCH   9  10
ATOM     10  C   UNL     1      26.935 -22.328  23.292  1.00  0.00     0.002 C 
BRANCH  10  11
ATOM     11  C   UNL     1      28.050 -22.668  24.296  1.00  0.00     0.028 C 
BRANCH  11  12
ATOM     12  C   UNL     1      28.218 -21.623  25.408  1.00  0.00     0.156 C 
BRANCH  12  13
ATOM     13  O   UNL     1      29.531 -21.131  25.443  1.00  0.00    -0.396 OA
ATOM     14  H   UNL     1      30.125 -21.915  25.579  1.00  0.00     0.210 HD
ENDBRANCH  12  13
ENDBRANCH  11  12
ENDBRANCH  10  11
ENDBRANCH   9  10
ENDBRANCH   8   9
ENDBRANCH   1   8
TORSDOF 11
ENDMDL
MODEL 5
REMARK VINA RESULT:    -2.774      2.334      4.977
REMARK INTER + INTRA:          -5.884
REMARK INTER:                  -4.734
REMARK INTRA:                  -1.150
REMARK UNBOUND:                -1.406
REMARK SMILES CCCCCCCCCCCCO
REMARK SMILES IDX 7 1 6 2 5 3 4 4 3 5 2 6 1 7 8 8 9 9 10 10 11 11 12 12 13 13
REMARK H PARENT 13 14
REMARK Flexibility Score: inf
ROOT
ATOM      1  C   UNL     1      27.582 -21.606  25.282  1.00  0.00     0.000 C 
ENDROOT
BRANCH   1   2
ATOM      2  C   UNL     1      27.420 -22.147  26.707  1.00  0.00    -0.000 C 
BRANCH   2   3
ATOM      3  C   UNL     1      28.123 -21.241  27.725  1.00  0.00    -0.000 C 
BRANCH   3   4
ATOM      4  C   UNL     1      29.486 -20.774  27.199  1.00  0.00    -0.000 C 
BRANCH   4   5
ATOM      5  C   UNL     1      29.659 -19.261  27.389  1.00  0.00    -0.000 C 
BRANCH   5   6
ATOM      6  C   UNL     1      29.804 -18.511  26.055  1.00  0.00    -0.003 C 
ATOM      7  C   UNL     1      28.477 -17.947  25.547  1.00  0.00     0.004 C 
ENDBRANCH   5   6
ENDBRANCH   4   5
ENDBRANCH   3   4
ENDBRANCH   2   3
ENDBRANCH   1   2
BRANCH   1   8
ATOM      8  C   UNL     1      27.800 -22.746  24.281  1.00  0.00     0.000 C 
BRANCH   8   9
ATOM      9  C   UNL     1      28.710 -22.303  23.130  1.00  0.00     0.000 C 
BRANCH   9  10
ATOM     10  C   UNL     1      29.408 -20.975  23.460  1.00  0.00     0.002 C 
BRANCH  10  11
ATOM     11  C   UNL     1      30.296 -20.470  22.311  1.00  0.00     0.028 C 
BRANCH  11  12
ATOM     12  C   UNL     1      30.831 -21.590  21.407  1.00  0.00     0.156 C 
BRANCH  12  13
ATOM     13  O   UNL     1      32.233 -21.581  21.368  1.00  0.00    -0.396 OA
ATOM     14  H   UNL     1      32.537 -21.138  22.203  1.00  0.00     0.210 HD
ENDBRANCH  12  13
ENDBRANCH  11  12
ENDBRANCH  10  11
ENDBRANCH   9  10
ENDBRANCH   8   9
ENDBRANCH   1   8
TORSDOF 11
ENDMDL
MODEL 6
REMARK VINA RESULT:    -2.761      1.406      3.299
REMARK INTER + INTRA:          -5.861
REMARK INTER:                  -4.522
REMARK INTRA:                  -1.340
REMARK UNBOUND:                -1.406
REMARK SMILES CCCCCCCCCCCCO
REMARK SMILES IDX 7 1 6 2 5 3 4 4 3 5 2 6 1 7 8 8 9 9 10 10 11 11 12 12 13 13
REMARK H PARENT 13 14
REMARK Flexibility Score: inf
ROOT
ATOM      1  C   UNL     1      30.325 -19.823  22.092  1.00  0.00     0.000 C 
ENDROOT
BRANCH   1   2
ATOM      2  C   UNL     1      30.081 -21.133  21.333  1.00  0.00    -0.000 C 
BRANCH   2   3
ATOM      3  C   UNL     1      29.932 -22.313  22.302  1.00  0.00    -0.000 C 
BRANCH   3   4
ATOM      4  C   UNL     1      28.491 -22.428  22.814  1.00  0.00    -0.000 C 
BRANCH   4   5
ATOM      5  C   UNL     1      28.453 -22.454  24.348  1.00  0.00    -0.000 C 
BRANCH   5   6
ATOM      6  C   UNL     1      27.023 -22.557  24.902  1.00  0.00    -0.003 C 
ATOM      7  C   UNL     1      26.153 -21.362  24.518  1.00  0.00     0.004 C 
ENDBRANCH   5   6
ENDBRANCH   4   5
ENDBRANCH   3   4
ENDBRANCH   2   3
ENDBRANCH   1   2
BRANCH   1   8
ATOM      8  C   UNL     1      29.100 -18.905  22.014  1.00  0.00     0.000 C 
BRANCH   8   9
ATOM      9  C   UNL     1      28.488 -18.682  23.402  1.00  0.00     0.000 C 
BRANCH   9  10
ATOM     10  C   UNL     1      29.561 -18.775  24.497  1.00  0.00     0.002 C 
BRANCH  10  11
ATOM     11  C   UNL     1      28.990 -19.232  25.850  1.00  0.00     0.028 C 
BRANCH  11  12
ATOM     12  C   UNL     1      30.065 -19.505  26.912  1.00  0.00     0.156 C 
BRANCH  12  13
ATOM     13  O   UNL     1      30.401 -20.866  26.951  1.00  0.00    -0.396 OA
ATOM     14  H   UNL     1      29.730 -21.340  26.394  1.00  0.00     0.210 HD
ENDBRANCH  12  13
ENDBRANCH  11  12
ENDBRANCH  10  11
ENDBRANCH   9  10
ENDBRANCH   8   9
ENDBRANCH   1   8
TORSDOF 11
ENDMDL
MODEL 7
REMARK VINA RESULT:    -2.751      2.332      5.089
REMARK INTER + INTRA:          -5.846
REMARK INTER:                  -4.592
REMARK INTRA:                  -1.255
REMARK UNBOUND:                -1.406
REMARK SMILES CCCCCCCCCCCCO
REMARK SMILES IDX 7 1 6 2 5 3 4 4 3 5 2 6 1 7 8 8 9 9 10 10 11 11 12 12 13 13
REMARK H PARENT 13 14
REMARK Flexibility Score: inf
ROOT
ATOM      1  C   UNL     1      30.678 -20.311  22.160  1.00  0.00     0.000 C 
ENDROOT
BRANCH   1   2
ATOM      2  C   UNL     1      29.316 -19.695  21.819  1.00  0.00    -0.000 C 
BRANCH   2   3
ATOM      3  C   UNL     1      28.415 -19.628  23.058  1.00  0.00    -0.000 C 
BRANCH   3   4
ATOM      4  C   UNL     1      29.248 -19.618  24.345  1.00  0.00    -0.000 C 
BRANCH   4   5
ATOM      5  C   UNL     1      28.748 -20.684  25.331  1.00  0.00    -0.000 C 
BRANCH   5   6
ATOM      6  C   UNL     1      28.388 -22.007  24.637  1.00  0.00    -0.003 C 
ATOM      7  C   UNL     1      27.070 -22.598  25.135  1.00  0.00     0.004 C 
ENDBRANCH   5   6
ENDBRANCH   4   5
ENDBRANCH   3   4
ENDBRANCH   2   3
ENDBRANCH   1   2
BRANCH   1   8
ATOM      8  C   UNL     1      30.995 -21.493  21.237  1.00  0.00     0.000 C 
BRANCH   8   9
ATOM      9  C   UNL     1      29.973 -22.623  21.417  1.00  0.00     0.000 C 
BRANCH   9  10
ATOM     10  C   UNL     1      29.462 -23.124  20.059  1.00  0.00     0.002 C 
BRANCH  10  11
ATOM     11  C   UNL     1      27.951 -22.905  19.875  1.00  0.00     0.028 C 
BRANCH  11  12
ATOM     12  C   UNL     1      27.151 -23.006  21.182  1.00  0.00     0.156 C 
BRANCH  12  13
ATOM     13  O   UNL     1      26.402 -21.843  21.406  1.00  0.00    -0.396 OA
ATOM     14  H   UNL     1      26.735 -21.162  20.765  1.00  0.00     0.210 HD
ENDBRANCH  12  13
ENDBRANCH  11  12
ENDBRANCH  10  11
ENDBRANCH   9  10
ENDBRANCH   8   9
ENDBRANCH   1   8
TORSDOF 11
ENDMDL
MODEL 8
REMARK VINA RESULT:    -2.712      2.557      5.281
REMARK INTER + INTRA:          -5.783
REMARK INTER:                  -4.351
REMARK INTRA:                  -1.432
REMARK UNBOUND:                -1.406
REMARK SMILES CCCCCCCCCCCCO
REMARK SMILES IDX 7 1 6 2 5 3 4 4 3 5 2 6 1 7 8 8 9 9 10 10 11 11 12 12 13 13
REMARK H PARENT 13 14
REMARK Flexibility Score: inf
ROOT
ATOM      1  C   UNL     1      29.637 -18.113  24.814  1.00  0.00     0.000 C 
ENDROOT
BRANCH   1   2
ATOM      2  C   UNL     1      29.299 -18.596  26.230  1.00  0.00    -0.000 C 
BRANCH   2   3
ATOM      3  C   UNL     1      29.979 -19.937  26.533  1.00  0.00    -0.000 C 
BRANCH   3   4
ATOM      4  C   UNL     1      28.944 -21.013  26.883  1.00  0.00    -0.000 C 
BRANCH   4   5
ATOM      5  C   UNL     1      28.416 -21.701  25.616  1.00  0.00    -0.000 C 
BRANCH   5   6
ATOM      6  C   UNL     1      26.898 -21.937  25.662  1.00  0.00    -0.003 C 
ATOM      7  C   UNL     1      26.094 -20.646  25.517  1.00  0.00     0.004 C 
ENDBRANCH   5   6
ENDBRANCH   4   5
ENDBRANCH   3   4
ENDBRANCH   2   3
ENDBRANCH   1   2
BRANCH   1   8
ATOM      8  C   UNL     1      28.399 -18.147  23.911  1.00  0.00     0.000 C 
BRANCH   8   9
ATOM      9  C   UNL     1      28.488 -19.294  22.896  1.00  0.00     0.000 C 
BRANCH   9  10
ATOM     10  C   UNL     1      29.950 -19.599  22.538  1.00  0.00     0.002 C 
BRANCH  10  11
ATOM     11  C   UNL     1      30.258 -21.106  22.533  1.00  0.00     0.028 C 
BRANCH  11  12
ATOM     12  C   UNL     1      30.910 -21.597  21.233  1.00  0.00     0.156 C 
BRANCH  12  13
ATOM     13  O   UNL     1      32.308 -21.586  21.334  1.00  0.00    -0.396 OA
ATOM     14  H   UNL     1      32.581 -20.634  21.401  1.00  0.00     0.210 HD
ENDBRANCH  12  13
ENDBRANCH  11  12
ENDBRANCH  10  11
ENDBRANCH   9  10
ENDBRANCH   8   9
ENDBRANCH   1   8
TORSDOF 11
ENDMDL
MODEL 9
REMARK VINA RESULT:    -2.666      2.019      4.199
REMARK INTER + INTRA:          -5.709
REMARK INTER:                  -4.513
REMARK INTRA:                  -1.196
REMARK UNBOUND:                -1.406
REMARK SMILES CCCCCCCCCCCCO
REMARK SMILES IDX 7 1 6 2 5 3 4 4 3 5 2 6 1 7 8 8 9 9 10 10 11 11 12 12 13 13
REMARK H PARENT 13 14
REMARK Flexibility Score: inf
ROOT
ATOM      1  C   UNL     1      26.543 -21.612  23.013  1.00  0.00     0.000 C 
ENDROOT
BRANCH   1   2
ATOM      2  C   UNL     1      27.236 -22.812  23.670  1.00  0.00    -0.000 C 
BRANCH   2   3
ATOM      3  C   UNL     1      28.506 -22.377  24.410  1.00  0.00    -0.000 C 
BRANCH   3   4
ATOM      4  C   UNL     1      28.245 -21.135  25.271  1.00  0.00    -0.000 C 
BRANCH   4   5
ATOM      5  C   UNL     1      29.379 -20.112  25.118  1.00  0.00    -0.000 C 
BRANCH   5   6
ATOM      6  C   UNL     1      28.895 -18.778  24.526  1.00  0.00    -0.003 C 
ATOM      7  C   UNL     1      29.161 -18.666  23.025  1.00  0.00     0.004 C 
ENDBRANCH   5   6
ENDBRANCH   4   5
ENDBRANCH   3   4
ENDBRANCH   2   3
ENDBRANCH   1   2
BRANCH   1   8
ATOM      8  C   UNL     1      27.039 -21.408  21.577  1.00  0.00     0.000 C 
BRANCH   8   9
ATOM      9  C   UNL     1      27.359 -22.751  20.908  1.00  0.00     0.000 C 
BRANCH   9  10
ATOM     10  C   UNL     1      28.667 -22.669  20.108  1.00  0.00     0.002 C 
BRANCH  10  11
ATOM     11  C   UNL     1      29.916 -22.796  20.996  1.00  0.00     0.028 C 
BRANCH  11  12
ATOM     12  C   UNL     1      30.674 -21.475  21.188  1.00  0.00     0.156 C 
BRANCH  12  13
ATOM     13  O   UNL     1      32.056 -21.693  21.270  1.00  0.00    -0.396 OA
ATOM     14  H   UNL     1      32.191 -22.676  21.236  1.00  0.00     0.210 HD
ENDBRANCH  12  13
ENDBRANCH  11  12
ENDBRANCH  10  11
ENDBRANCH   9  10
ENDBRANCH   8   9
ENDBRANCH   1   8
TORSDOF 11
ENDMDL
