MODEL 1
REMARK VINA RESULT:    -5.411      0.000      0.000
REMARK INTER + INTRA:          -6.098
REMARK INTER:                  -6.044
REMARK INTRA:                  -0.054
REMARK UNBOUND:                -0.054
REMARK SMILES COc1cc2ccc(=O)oc2c(O)c1O
REMARK SMILES IDX 3 1 14 2 12 3 11 4 5 5 4 6 6 7 7 8 8 9 9 10 10 11 2 12 1 13
REMARK SMILES IDX 15 14 13 16
REMARK H PARENT 15 15 13 17
REMARK Flexibility Score: inf
ROOT
ATOM      1  C   UNL     1       9.345  35.611  22.410  1.00  0.00     0.165 A 
ATOM      2  C   UNL     1       8.385  34.598  22.211  1.00  0.00     0.204 A 
ATOM      3  C   UNL     1       7.209  34.575  22.981  1.00  0.00     0.205 A 
ATOM      4  C   UNL     1       6.987  35.560  23.950  1.00  0.00     0.184 A 
ATOM      5  C   UNL     1       7.944  36.576  24.152  1.00  0.00     0.025 A 
ATOM      6  C   UNL     1       9.115  36.599  23.386  1.00  0.00     0.062 A 
ATOM      7  C   UNL     1       7.691  37.546  25.129  1.00  0.00     0.020 A 
ATOM      8  C   UNL     1       6.511  37.484  25.868  1.00  0.00     0.094 A 
ATOM      9  C   UNL     1       5.607  36.448  25.613  1.00  0.00     0.336 A 
ATOM     10  O   UNL     1       4.535  36.374  26.269  1.00  0.00    -0.246 OA
ATOM     11  O   UNL     1       5.872  35.538  24.679  1.00  0.00    -0.419 OA
ENDROOT
BRANCH   1  12
ATOM     12  O   UNL     1      10.508  35.603  21.624  1.00  0.00    -0.493 OA
ATOM     13  C   UNL     1      11.125  36.765  21.078  1.00  0.00     0.278 C 
ENDBRANCH   1  12
BRANCH   2  14
ATOM     14  O   UNL     1       8.591  33.607  21.249  1.00  0.00    -0.502 OA
ATOM     15  H   UNL     1       7.832  33.206  20.712  1.00  0.00     0.293 HD
ENDBRANCH   2  14
BRANCH   3  16
ATOM     16  O   UNL     1       6.250  33.578  22.795  1.00  0.00    -0.502 OA
ATOM     17  H   UNL     1       6.031  32.897  23.512  1.00  0.00     0.293 HD
ENDBRANCH   3  16
TORSDOF 3
ENDMDL
MODEL 2
REMARK VINA RESULT:    -5.257      1.639      4.938
REMARK INTER + INTRA:          -5.926
REMARK INTER:                  -5.868
REMARK INTRA:                  -0.058
REMARK UNBOUND:                -0.054
REMARK SMILES COc1cc2ccc(=O)oc2c(O)c1O
REMARK SMILES IDX 3 1 14 2 12 3 11 4 5 5 4 6 6 7 7 8 8 9 9 10 10 11 2 12 1 13
REMARK SMILES IDX 15 14 13 16
REMARK H PARENT 15 15 13 17
REMARK Flexibility Score: inf
ROOT
ATOM      1  C   UNL     1       5.543  37.918  25.155  1.00  0.00     0.165 A 
ATOM      2  C   UNL     1       5.427  36.541  25.431  1.00  0.00     0.204 A 
ATOM      3  C   UNL     1       6.338  35.627  24.873  1.00  0.00     0.205 A 
ATOM      4  C   UNL     1       7.367  36.084  24.041  1.00  0.00     0.184 A 
ATOM      5  C   UNL     1       7.487  37.462  23.762  1.00  0.00     0.025 A 
ATOM      6  C   UNL     1       6.580  38.371  24.317  1.00  0.00     0.062 A 
ATOM      7  C   UNL     1       8.526  37.885  22.926  1.00  0.00     0.020 A 
ATOM      8  C   UNL     1       9.407  36.943  22.396  1.00  0.00     0.094 A 
ATOM      9  C   UNL     1       9.227  35.594  22.715  1.00  0.00     0.336 A 
ATOM     10  O   UNL     1      10.012  34.727  22.247  1.00  0.00    -0.246 OA
ATOM     11  O   UNL     1       8.230  35.218  23.513  1.00  0.00    -0.419 OA
ENDROOT
BRANCH   1  12
ATOM     12  O   UNL     1       4.614  38.802  25.729  1.00  0.00    -0.493 OA
ATOM     13  C   UNL     1       3.876  39.782  25.006  1.00  0.00     0.278 C 
ENDBRANCH   1  12
BRANCH   2  14
ATOM     14  O   UNL     1       4.406  36.068  26.259  1.00  0.00    -0.502 OA
ATOM     15  H   UNL     1       3.598  36.629  26.498  1.00  0.00     0.293 HD
ENDBRANCH   2  14
BRANCH   3  16
ATOM     16  O   UNL     1       6.236  34.260  25.137  1.00  0.00    -0.502 OA
ATOM     17  H   UNL     1       7.032  33.638  25.081  1.00  0.00     0.293 HD
ENDBRANCH   3  16
TORSDOF 3
ENDMDL
MODEL 3
REMARK VINA RESULT:    -5.142      1.883      4.924
REMARK INTER + INTRA:          -5.797
REMARK INTER:                  -5.740
REMARK INTRA:                  -0.056
REMARK UNBOUND:                -0.054
REMARK SMILES COc1cc2ccc(=O)oc2c(O)c1O
REMARK SMILES IDX 3 1 14 2 12 3 11 4 5 5 4 6 6 7 7 8 8 9 9 10 10 11 2 12 1 13
REMARK SMILES IDX 15 14 13 16
REMARK H PARENT 15 15 13 17
REMARK Flexibility Score: inf
ROOT
ATOM      1  C   UNL     1       6.941  38.728  26.195  1.00  0.00     0.165 A 
ATOM      2  C   UNL     1       5.675  38.138  26.384  1.00  0.00     0.204 A 
ATOM      3  C   UNL     1       5.331  36.961  25.695  1.00  0.00     0.205 A 
ATOM      4  C   UNL     1       6.248  36.370  24.818  1.00  0.00     0.184 A 
ATOM      5  C   UNL     1       7.516  36.957  24.626  1.00  0.00     0.025 A 
ATOM      6  C   UNL     1       7.858  38.128  25.311  1.00  0.00     0.062 A 
ATOM      7  C   UNL     1       8.409  36.341  23.742  1.00  0.00     0.020 A 
ATOM      8  C   UNL     1       8.025  35.175  23.081  1.00  0.00     0.094 A 
ATOM      9  C   UNL     1       6.752  34.649  23.320  1.00  0.00     0.336 A 
ATOM     10  O   UNL     1       6.385  33.597  22.734  1.00  0.00    -0.246 OA
ATOM     11  O   UNL     1       5.922  35.255  24.166  1.00  0.00    -0.419 OA
ENDROOT
BRANCH   1  12
ATOM     12  O   UNL     1       7.251  39.903  26.898  1.00  0.00    -0.493 OA
ATOM     13  C   UNL     1       8.464  40.125  27.610  1.00  0.00     0.278 C 
ENDBRANCH   1  12
BRANCH   2  14
ATOM     14  O   UNL     1       4.749  38.714  27.255  1.00  0.00    -0.502 OA
ATOM     15  H   UNL     1       3.920  39.194  26.926  1.00  0.00     0.293 HD
ENDBRANCH   2  14
BRANCH   3  16
ATOM     16  O   UNL     1       4.081  36.366  25.873  1.00  0.00    -0.502 OA
ATOM     17  H   UNL     1       3.471  36.147  25.095  1.00  0.00     0.293 HD
ENDBRANCH   3  16
TORSDOF 3
ENDMDL
MODEL 4
REMARK VINA RESULT:    -4.931      2.020      3.441
REMARK INTER + INTRA:          -5.561
REMARK INTER:                  -5.494
REMARK INTRA:                  -0.067
REMARK UNBOUND:                -0.054
REMARK SMILES COc1cc2ccc(=O)oc2c(O)c1O
REMARK SMILES IDX 3 1 14 2 12 3 11 4 5 5 4 6 6 7 7 8 8 9 9 10 10 11 2 12 1 13
REMARK SMILES IDX 15 14 13 16
REMARK H PARENT 15 15 13 17
REMARK Flexibility Score: inf
ROOT
ATOM      1  C   UNL     1       6.850  34.946  23.431  1.00  0.00     0.165 A 
ATOM      2  C   UNL     1       8.012  35.674  23.104  1.00  0.00     0.204 A 
ATOM      3  C   UNL     1       8.299  36.883  23.762  1.00  0.00     0.205 A 
ATOM      4  C   UNL     1       7.430  37.367  24.747  1.00  0.00     0.184 A 
ATOM      5  C   UNL     1       6.267  36.642  25.077  1.00  0.00     0.025 A 
ATOM      6  C   UNL     1       5.981  35.439  24.422  1.00  0.00     0.062 A 
ATOM      7  C   UNL     1       5.420  37.154  26.066  1.00  0.00     0.020 A 
ATOM      8  C   UNL     1       5.745  38.356  26.693  1.00  0.00     0.094 A 
ATOM      9  C   UNL     1       6.915  39.021  26.314  1.00  0.00     0.336 A 
ATOM     10  O   UNL     1       7.227  40.108  26.868  1.00  0.00    -0.246 OA
ATOM     11  O   UNL     1       7.703  38.512  25.371  1.00  0.00    -0.419 OA
ENDROOT
BRANCH   1  12
ATOM     12  O   UNL     1       6.595  33.743  22.753  1.00  0.00    -0.493 OA
ATOM     13  C   UNL     1       5.754  33.620  21.611  1.00  0.00     0.278 C 
ENDBRANCH   1  12
BRANCH   2  14
ATOM     14  O   UNL     1       8.889  35.206  22.124  1.00  0.00    -0.502 OA
ATOM     15  H   UNL     1       9.185  34.238  22.078  1.00  0.00     0.293 HD
ENDBRANCH   2  14
BRANCH   3  16
ATOM     16  O   UNL     1       9.446  37.615  23.449  1.00  0.00    -0.502 OA
ATOM     17  H   UNL     1      10.366  37.193  23.424  1.00  0.00     0.293 HD
ENDBRANCH   3  16
TORSDOF 3
ENDMDL
MODEL 5
REMARK VINA RESULT:    -4.901      1.855      4.786
REMARK INTER + INTRA:          -5.528
REMARK INTER:                  -5.464
REMARK INTRA:                  -0.064
REMARK UNBOUND:                -0.054
REMARK SMILES COc1cc2ccc(=O)oc2c(O)c1O
REMARK SMILES IDX 3 1 14 2 12 3 11 4 5 5 4 6 6 7 7 8 8 9 9 10 10 11 2 12 1 13
REMARK SMILES IDX 15 14 13 16
REMARK H PARENT 15 15 13 17
REMARK Flexibility Score: inf
ROOT
ATOM      1  C   UNL     1       5.832  36.508  25.108  1.00  0.00     0.165 A 
ATOM      2  C   UNL     1       6.566  35.413  24.606  1.00  0.00     0.204 A 
ATOM      3  C   UNL     1       7.614  35.623  23.693  1.00  0.00     0.205 A 
ATOM      4  C   UNL     1       7.935  36.921  23.280  1.00  0.00     0.184 A 
ATOM      5  C   UNL     1       7.204  38.019  23.781  1.00  0.00     0.025 A 
ATOM      6  C   UNL     1       6.160  37.811  24.689  1.00  0.00     0.062 A 
ATOM      7  C   UNL     1       7.550  39.303  23.348  1.00  0.00     0.020 A 
ATOM      8  C   UNL     1       8.598  39.463  22.442  1.00  0.00     0.094 A 
ATOM      9  C   UNL     1       9.278  38.329  21.988  1.00  0.00     0.336 A 
ATOM     10  O   UNL     1      10.228  38.451  21.170  1.00  0.00    -0.246 OA
ATOM     11  O   UNL     1       8.929  37.119  22.416  1.00  0.00    -0.419 OA
ENDROOT
BRANCH   1  12
ATOM     12  O   UNL     1       4.791  36.262  26.018  1.00  0.00    -0.493 OA
ATOM     13  C   UNL     1       4.755  36.745  27.357  1.00  0.00     0.278 C 
ENDBRANCH   1  12
BRANCH   2  14
ATOM     14  O   UNL     1       6.259  34.112  25.007  1.00  0.00    -0.502 OA
ATOM     15  H   UNL     1       5.670  33.915  25.807  1.00  0.00     0.293 HD
ENDBRANCH   2  14
BRANCH   3  16
ATOM     16  O   UNL     1       8.349  34.549  23.187  1.00  0.00    -0.502 OA
ATOM     17  H   UNL     1       9.307  34.372  23.463  1.00  0.00     0.293 HD
ENDBRANCH   3  16
TORSDOF 3
ENDMDL
MODEL 6
REMARK VINA RESULT:    -4.638      1.809      5.468
REMARK INTER + INTRA:          -5.234
REMARK INTER:                  -5.165
REMARK INTRA:                  -0.069
REMARK UNBOUND:                -0.054
REMARK SMILES COc1cc2ccc(=O)oc2c(O)c1O
REMARK SMILES IDX 3 1 14 2 12 3 11 4 5 5 4 6 6 7 7 8 8 9 9 10 10 11 2 12 1 13
REMARK SMILES IDX 15 14 13 16
REMARK H PARENT 15 15 13 17
REMARK Flexibility Score: inf
ROOT
ATOM      1  C   UNL     1       5.869  36.991  25.735  1.00  0.00     0.165 A 
ATOM      2  C   UNL     1       7.097  37.682  25.770  1.00  0.00     0.204 A 
ATOM      3  C   UNL     1       8.155  37.289  24.932  1.00  0.00     0.205 A 
ATOM      4  C   UNL     1       7.992  36.208  24.058  1.00  0.00     0.184 A 
ATOM      5  C   UNL     1       6.765  35.514  24.019  1.00  0.00     0.025 A 
ATOM      6  C   UNL     1       5.711  35.905  24.853  1.00  0.00     0.062 A 
ATOM      7  C   UNL     1       6.634  34.438  23.134  1.00  0.00     0.020 A 
ATOM      8  C   UNL     1       7.711  34.084  22.322  1.00  0.00     0.094 A 
ATOM      9  C   UNL     1       8.898  34.818  22.414  1.00  0.00     0.336 A 
ATOM     10  O   UNL     1       9.881  34.515  21.689  1.00  0.00    -0.246 OA
ATOM     11  O   UNL     1       8.995  35.836  23.264  1.00  0.00    -0.419 OA
ENDROOT
BRANCH   1  12
ATOM     12  O   UNL     1       4.833  37.411  26.586  1.00  0.00    -0.493 OA
ATOM     13  C   UNL     1       4.521  36.810  27.838  1.00  0.00     0.278 C 
ENDBRANCH   1  12
BRANCH   2  14
ATOM     14  O   UNL     1       7.277  38.762  26.637  1.00  0.00    -0.502 OA
ATOM     15  H   UNL     1       8.037  38.801  27.305  1.00  0.00     0.293 HD
ENDBRANCH   2  14
BRANCH   3  16
ATOM     16  O   UNL     1       9.377  37.964  24.957  1.00  0.00    -0.502 OA
ATOM     17  H   UNL     1       9.573  38.747  24.346  1.00  0.00     0.293 HD
ENDBRANCH   3  16
TORSDOF 3
ENDMDL
MODEL 7
REMARK VINA RESULT:    -4.542     17.402     19.042
REMARK INTER + INTRA:          -5.127
REMARK INTER:                  -5.059
REMARK INTRA:                  -0.068
REMARK UNBOUND:                -0.054
REMARK SMILES COc1cc2ccc(=O)oc2c(O)c1O
REMARK SMILES IDX 3 1 14 2 12 3 11 4 5 5 4 6 6 7 7 8 8 9 9 10 10 11 2 12 1 13
REMARK SMILES IDX 15 14 13 16
REMARK H PARENT 15 15 13 17
REMARK Flexibility Score: inf
ROOT
ATOM      1  C   UNL     1      -8.650  36.533  32.732  1.00  0.00     0.165 A 
ATOM      2  C   UNL     1      -7.710  35.731  32.054  1.00  0.00     0.204 A 
ATOM      3  C   UNL     1      -7.250  34.535  32.633  1.00  0.00     0.205 A 
ATOM      4  C   UNL     1      -7.727  34.135  33.887  1.00  0.00     0.184 A 
ATOM      5  C   UNL     1      -8.668  34.935  34.569  1.00  0.00     0.025 A 
ATOM      6  C   UNL     1      -9.125  36.125  33.994  1.00  0.00     0.062 A 
ATOM      7  C   UNL     1      -9.123  34.507  35.821  1.00  0.00     0.020 A 
ATOM      8  C   UNL     1      -8.640  33.313  36.356  1.00  0.00     0.094 A 
ATOM      9  C   UNL     1      -7.708  32.572  35.623  1.00  0.00     0.336 A 
ATOM     10  O   UNL     1      -7.259  31.492  36.088  1.00  0.00    -0.246 OA
ATOM     11  O   UNL     1      -7.291  33.002  34.435  1.00  0.00    -0.419 OA
ENDROOT
BRANCH   1  12
ATOM     12  O   UNL     1      -9.087  37.721  32.125  1.00  0.00    -0.493 OA
ATOM     13  C   UNL     1      -8.548  39.012  32.390  1.00  0.00     0.278 C 
ENDBRANCH   1  12
BRANCH   2  14
ATOM     14  O   UNL     1      -7.225  36.114  30.802  1.00  0.00    -0.502 OA
ATOM     15  H   UNL     1      -6.706  35.483  30.205  1.00  0.00     0.293 HD
ENDBRANCH   2  14
BRANCH   3  16
ATOM     16  O   UNL     1      -6.320  33.731  31.973  1.00  0.00    -0.502 OA
ATOM     17  H   UNL     1      -6.365  32.719  31.999  1.00  0.00     0.293 HD
ENDBRANCH   3  16
TORSDOF 3
ENDMDL
MODEL 8
REMARK VINA RESULT:    -4.327      1.711      2.639
REMARK INTER + INTRA:          -4.887
REMARK INTER:                  -4.831
REMARK INTRA:                  -0.055
REMARK UNBOUND:                -0.054
REMARK SMILES COc1cc2ccc(=O)oc2c(O)c1O
REMARK SMILES IDX 3 1 14 2 12 3 11 4 5 5 4 6 6 7 7 8 8 9 9 10 10 11 2 12 1 13
REMARK SMILES IDX 15 14 13 16
REMARK H PARENT 15 15 13 17
REMARK Flexibility Score: inf
ROOT
ATOM      1  C   UNL     1       8.160  35.097  22.824  1.00  0.00     0.165 A 
ATOM      2  C   UNL     1       7.040  34.800  23.628  1.00  0.00     0.204 A 
ATOM      3  C   UNL     1       6.637  35.692  24.638  1.00  0.00     0.205 A 
ATOM      4  C   UNL     1       7.347  36.879  24.848  1.00  0.00     0.184 A 
ATOM      5  C   UNL     1       8.468  37.180  24.046  1.00  0.00     0.025 A 
ATOM      6  C   UNL     1       8.870  36.293  23.042  1.00  0.00     0.062 A 
ATOM      7  C   UNL     1       9.156  38.375  24.283  1.00  0.00     0.020 A 
ATOM      8  C   UNL     1       8.719  39.229  25.295  1.00  0.00     0.094 A 
ATOM      9  C   UNL     1       7.600  38.866  26.050  1.00  0.00     0.336 A 
ATOM     10  O   UNL     1       7.189  39.623  26.968  1.00  0.00    -0.246 OA
ATOM     11  O   UNL     1       6.964  37.724  25.804  1.00  0.00    -0.419 OA
ENDROOT
BRANCH   1  12
ATOM     12  O   UNL     1       8.535  34.183  21.825  1.00  0.00    -0.493 OA
ATOM     13  C   UNL     1       9.458  33.116  22.010  1.00  0.00     0.278 C 
ENDBRANCH   1  12
BRANCH   2  14
ATOM     14  O   UNL     1       6.320  33.620  23.431  1.00  0.00    -0.502 OA
ATOM     15  H   UNL     1       5.924  33.092  24.199  1.00  0.00     0.293 HD
ENDBRANCH   2  14
BRANCH   3  16
ATOM     16  O   UNL     1       5.530  35.411  25.441  1.00  0.00    -0.502 OA
ATOM     17  H   UNL     1       5.286  35.980  26.243  1.00  0.00     0.293 HD
ENDBRANCH   3  16
TORSDOF 3
ENDMDL
MODEL 9
REMARK VINA RESULT:    -4.118      2.339      5.533
REMARK INTER + INTRA:          -4.653
REMARK INTER:                  -4.590
REMARK INTRA:                  -0.063
REMARK UNBOUND:                -0.054
REMARK SMILES COc1cc2ccc(=O)oc2c(O)c1O
REMARK SMILES IDX 3 1 14 2 12 3 11 4 5 5 4 6 6 7 7 8 8 9 9 10 10 11 2 12 1 13
REMARK SMILES IDX 15 14 13 16
REMARK H PARENT 15 15 13 17
REMARK Flexibility Score: inf
ROOT
ATOM      1  C   UNL     1       5.524  36.912  25.361  1.00  0.00     0.165 A 
ATOM      2  C   UNL     1       5.247  38.126  24.700  1.00  0.00     0.204 A 
ATOM      3  C   UNL     1       6.143  38.629  23.740  1.00  0.00     0.205 A 
ATOM      4  C   UNL     1       7.313  37.924  23.436  1.00  0.00     0.184 A 
ATOM      5  C   UNL     1       7.593  36.709  24.096  1.00  0.00     0.025 A 
ATOM      6  C   UNL     1       6.703  36.209  25.052  1.00  0.00     0.062 A 
ATOM      7  C   UNL     1       8.772  36.030  23.769  1.00  0.00     0.020 A 
ATOM      8  C   UNL     1       9.630  36.566  22.810  1.00  0.00     0.094 A 
ATOM      9  C   UNL     1       9.288  37.775  22.197  1.00  0.00     0.336 A 
ATOM     10  O   UNL     1      10.049  38.277  21.328  1.00  0.00    -0.246 OA
ATOM     11  O   UNL     1       8.161  38.401  22.526  1.00  0.00    -0.419 OA
ENDROOT
BRANCH   1  12
ATOM     12  O   UNL     1       4.608  36.440  26.315  1.00  0.00    -0.493 OA
ATOM     13  C   UNL     1       4.691  36.695  27.713  1.00  0.00     0.278 C 
ENDBRANCH   1  12
BRANCH   2  14
ATOM     14  O   UNL     1       4.085  38.842  24.991  1.00  0.00    -0.502 OA
ATOM     15  H   UNL     1       3.167  38.416  24.976  1.00  0.00     0.293 HD
ENDBRANCH   2  14
BRANCH   3  16
ATOM     16  O   UNL     1       5.882  39.830  23.076  1.00  0.00    -0.502 OA
ATOM     17  H   UNL     1       5.537  39.857  22.125  1.00  0.00     0.293 HD
ENDBRANCH   3  16
TORSDOF 3
ENDMDL
