MODEL 1
REMARK VINA RESULT:    -6.155      0.000      0.000
REMARK INTER + INTRA:         -20.118
REMARK INTER:                 -15.511
REMARK INTRA:                  -4.607
REMARK UNBOUND:                -4.607
REMARK SMILES CCCCCCCCCCCCCCCCCCCCCCCCCCCC(=O)[O-]
REMARK SMILES IDX 15 1 16 2 17 3 18 4 19 5 20 6 21 7 22 8 23 9 24 10 25 11
REMARK SMILES IDX 26 12 27 13 28 14 29 15 30 16 14 17 13 18 12 19 11 20 10 21
REMARK SMILES IDX 9 22 8 23 7 24 6 25 5 26 4 27 3 28 2 29 1 30
REMARK H PARENT
REMARK Flexibility Score: inf
ROOT
ATOM      1  C   UNL     1     -14.019   1.256 -21.497  1.00  0.00     0.000 C 
ENDROOT
BRANCH   1   2
ATOM      2  C   UNL     1     -14.593   0.823 -22.860  1.00  0.00     0.000 C 
BRANCH   2   3
ATOM      3  C   UNL     1     -14.478   1.873 -23.982  1.00  0.00     0.000 C 
BRANCH   3   4
ATOM      4  C   UNL     1     -14.950   3.288 -23.607  1.00  0.00     0.000 C 
BRANCH   4   5
ATOM      5  C   UNL     1     -13.790   4.224 -23.224  1.00  0.00     0.000 C 
BRANCH   5   6
ATOM      6  C   UNL     1     -14.257   5.494 -22.489  1.00  0.00     0.000 C 
BRANCH   6   7
ATOM      7  C   UNL     1     -13.608   5.741 -21.114  1.00  0.00     0.000 C 
BRANCH   7   8
ATOM      8  C   UNL     1     -14.022   7.082 -20.485  1.00  0.00     0.000 C 
BRANCH   8   9
ATOM      9  C   UNL     1     -12.884   8.120 -20.476  1.00  0.00     0.000 C 
BRANCH   9  10
ATOM     10  C   UNL     1     -13.241   9.480 -19.846  1.00  0.00     0.000 C 
BRANCH  10  11
ATOM     11  C   UNL     1     -14.730   9.608 -19.490  1.00  0.00     0.000 C 
BRANCH  11  12
ATOM     12  C   UNL     1     -15.115  11.073 -19.248  1.00  0.00     0.006 C 
BRANCH  12  13
ATOM     13  C   UNL     1     -14.095  11.766 -18.338  1.00  0.00     0.053 C 
BRANCH  13  14
ATOM     14  C   UNL     1     -14.789  12.608 -17.314  1.00  0.00     0.041 C 
ATOM     15  O   UNL     1     -15.233  13.745 -17.626  1.00  0.00    -0.550 OA
ATOM     16  O   UNL     1     -14.913  12.154 -16.007  1.00  0.00    -0.550 OA
ENDBRANCH  13  14
ENDBRANCH  12  13
ENDBRANCH  11  12
ENDBRANCH  10  11
ENDBRANCH   9  10
ENDBRANCH   8   9
ENDBRANCH   7   8
ENDBRANCH   6   7
ENDBRANCH   5   6
ENDBRANCH   4   5
ENDBRANCH   3   4
ENDBRANCH   2   3
ENDBRANCH   1   2
BRANCH   1  17
ATOM     17  C   UNL     1     -14.738   0.665 -20.267  1.00  0.00     0.000 C 
BRANCH  17  18
ATOM     18  C   UNL     1     -15.295   1.703 -19.274  1.00  0.00     0.000 C 
BRANCH  18  19
ATOM     19  C   UNL     1     -15.499   3.117 -19.853  1.00  0.00     0.000 C 
BRANCH  19  20
ATOM     20  C   UNL     1     -16.888   3.378 -20.462  1.00  0.00     0.000 C 
BRANCH  20  21
ATOM     21  C   UNL     1     -17.325   4.856 -20.489  1.00  0.00     0.000 C 
BRANCH  21  22
ATOM     22  C   UNL     1     -17.596   5.433 -21.892  1.00  0.00    -0.000 C 
BRANCH  22  23
ATOM     23  C   UNL     1     -18.305   6.801 -21.909  1.00  0.00    -0.000 C 
BRANCH  23  24
ATOM     24  C   UNL     1     -17.462   7.951 -21.320  1.00  0.00    -0.000 C 
BRANCH  24  25
ATOM     25  C   UNL     1     -17.134   9.036 -22.360  1.00  0.00    -0.000 C 
BRANCH  25  26
ATOM     26  C   UNL     1     -16.020   8.614 -23.335  1.00  0.00    -0.000 C 
BRANCH  26  27
ATOM     27  C   UNL     1     -16.509   8.166 -24.724  1.00  0.00    -0.000 C 
BRANCH  27  28
ATOM     28  C   UNL     1     -15.674   7.016 -25.310  1.00  0.00    -0.000 C 
BRANCH  28  29
ATOM     29  C   UNL     1     -16.577   5.902 -25.851  1.00  0.00    -0.003 C 
ATOM     30  C   UNL     1     -18.049   6.215 -25.598  1.00  0.00     0.004 C 
ENDBRANCH  28  29
ENDBRANCH  27  28
ENDBRANCH  26  27
ENDBRANCH  25  26
ENDBRANCH  24  25
ENDBRANCH  23  24
ENDBRANCH  22  23
ENDBRANCH  21  22
ENDBRANCH  20  21
ENDBRANCH  19  20
ENDBRANCH  18  19
ENDBRANCH  17  18
ENDBRANCH   1  17
TORSDOF 26
ENDMDL
MODEL 2
REMARK VINA RESULT:    -5.992      3.639      6.587
REMARK INTER + INTRA:         -19.708
REMARK INTER:                 -14.689
REMARK INTRA:                  -5.019
REMARK UNBOUND:                -4.607
REMARK SMILES CCCCCCCCCCCCCCCCCCCCCCCCCCCC(=O)[O-]
REMARK SMILES IDX 15 1 16 2 17 3 18 4 19 5 20 6 21 7 22 8 23 9 24 10 25 11
REMARK SMILES IDX 26 12 27 13 28 14 29 15 30 16 14 17 13 18 12 19 11 20 10 21
REMARK SMILES IDX 9 22 8 23 7 24 6 25 5 26 4 27 3 28 2 29 1 30
REMARK H PARENT
REMARK Flexibility Score: inf
ROOT
ATOM      1  C   UNL     1     -15.815   2.729 -20.418  1.00  0.00     0.000 C 
ENDROOT
BRANCH   1   2
ATOM      2  C   UNL     1     -17.093   3.585 -20.322  1.00  0.00     0.000 C 
BRANCH   2   3
ATOM      3  C   UNL     1     -17.876   3.740 -21.640  1.00  0.00     0.000 C 
BRANCH   3   4
ATOM      4  C   UNL     1     -17.831   5.143 -22.269  1.00  0.00     0.000 C 
BRANCH   4   5
ATOM      5  C   UNL     1     -17.539   6.250 -21.241  1.00  0.00     0.000 C 
BRANCH   5   6
ATOM      6  C   UNL     1     -18.535   7.423 -21.318  1.00  0.00     0.000 C 
BRANCH   6   7
ATOM      7  C   UNL     1     -17.910   8.830 -21.257  1.00  0.00     0.000 C 
BRANCH   7   8
ATOM      8  C   UNL     1     -17.472   9.354 -22.635  1.00  0.00     0.000 C 
BRANCH   8   9
ATOM      9  C   UNL     1     -16.093   8.825 -23.071  1.00  0.00     0.000 C 
BRANCH   9  10
ATOM     10  C   UNL     1     -15.934   8.574 -24.582  1.00  0.00     0.000 C 
BRANCH  10  11
ATOM     11  C   UNL     1     -16.041   7.089 -24.962  1.00  0.00     0.000 C 
BRANCH  11  12
ATOM     12  C   UNL     1     -17.440   6.756 -25.493  1.00  0.00     0.006 C 
BRANCH  12  13
ATOM     13  C   UNL     1     -17.430   5.440 -26.280  1.00  0.00     0.053 C 
BRANCH  13  14
ATOM     14  C   UNL     1     -18.604   4.592 -25.902  1.00  0.00     0.041 C 
ATOM     15  O   UNL     1     -18.523   3.337 -25.962  1.00  0.00    -0.550 OA
ATOM     16  O   UNL     1     -19.799   5.188 -25.521  1.00  0.00    -0.550 OA
ENDBRANCH  13  14
ENDBRANCH  12  13
ENDBRANCH  11  12
ENDBRANCH  10  11
ENDBRANCH   9  10
ENDBRANCH   8   9
ENDBRANCH   7   8
ENDBRANCH   6   7
ENDBRANCH   5   6
ENDBRANCH   4   5
ENDBRANCH   3   4
ENDBRANCH   2   3
ENDBRANCH   1   2
BRANCH   1  17
ATOM     17  C   UNL     1     -15.442   1.964 -19.133  1.00  0.00     0.000 C 
BRANCH  17  18
ATOM     18  C   UNL     1     -14.882   0.546 -19.355  1.00  0.00     0.000 C 
BRANCH  18  19
ATOM     19  C   UNL     1     -14.602   0.177 -20.825  1.00  0.00     0.000 C 
BRANCH  19  20
ATOM     20  C   UNL     1     -15.579  -0.843 -21.438  1.00  0.00     0.000 C 
BRANCH  20  21
ATOM     21  C   UNL     1     -15.887  -0.638 -22.935  1.00  0.00     0.000 C 
BRANCH  21  22
ATOM     22  C   UNL     1     -16.798   0.561 -23.258  1.00  0.00    -0.000 C 
BRANCH  22  23
ATOM     23  C   UNL     1     -16.238   1.543 -24.304  1.00  0.00    -0.000 C 
BRANCH  23  24
ATOM     24  C   UNL     1     -14.881   2.167 -23.913  1.00  0.00    -0.000 C 
BRANCH  24  25
ATOM     25  C   UNL     1     -14.912   3.705 -23.929  1.00  0.00    -0.000 C 
BRANCH  25  26
ATOM     26  C   UNL     1     -13.873   4.336 -22.983  1.00  0.00    -0.000 C 
BRANCH  26  27
ATOM     27  C   UNL     1     -14.327   5.635 -22.295  1.00  0.00    -0.000 C 
BRANCH  27  28
ATOM     28  C   UNL     1     -13.781   5.778 -20.865  1.00  0.00    -0.000 C 
BRANCH  28  29
ATOM     29  C   UNL     1     -12.898   7.025 -20.737  1.00  0.00    -0.003 C 
ATOM     30  C   UNL     1     -13.709   8.229 -20.269  1.00  0.00     0.004 C 
ENDBRANCH  28  29
ENDBRANCH  27  28
ENDBRANCH  26  27
ENDBRANCH  25  26
ENDBRANCH  24  25
ENDBRANCH  23  24
ENDBRANCH  22  23
ENDBRANCH  21  22
ENDBRANCH  20  21
ENDBRANCH  19  20
ENDBRANCH  18  19
ENDBRANCH  17  18
ENDBRANCH   1  17
TORSDOF 26
ENDMDL
MODEL 3
REMARK VINA RESULT:    -5.819      2.778      6.741
REMARK INTER + INTRA:         -19.270
REMARK INTER:                 -14.443
REMARK INTRA:                  -4.827
REMARK UNBOUND:                -4.607
REMARK SMILES CCCCCCCCCCCCCCCCCCCCCCCCCCCC(=O)[O-]
REMARK SMILES IDX 15 1 16 2 17 3 18 4 19 5 20 6 21 7 22 8 23 9 24 10 25 11
REMARK SMILES IDX 26 12 27 13 28 14 29 15 30 16 14 17 13 18 12 19 11 20 10 21
REMARK SMILES IDX 9 22 8 23 7 24 6 25 5 26 4 27 3 28 2 29 1 30
REMARK H PARENT
REMARK Flexibility Score: inf
ROOT
ATOM      1  C   UNL     1     -16.979   7.852 -21.730  1.00  0.00     0.000 C 
ENDROOT
BRANCH   1   2
ATOM      2  C   UNL     1     -16.177   8.575 -20.630  1.00  0.00     0.000 C 
BRANCH   2   3
ATOM      3  C   UNL     1     -15.154   7.697 -19.882  1.00  0.00     0.000 C 
BRANCH   3   4
ATOM      4  C   UNL     1     -13.684   7.934 -20.263  1.00  0.00     0.000 C 
BRANCH   4   5
ATOM      5  C   UNL     1     -13.015   6.689 -20.871  1.00  0.00     0.000 C 
BRANCH   5   6
ATOM      6  C   UNL     1     -14.024   5.700 -21.485  1.00  0.00     0.000 C 
BRANCH   6   7
ATOM      7  C   UNL     1     -13.614   5.085 -22.837  1.00  0.00     0.000 C 
BRANCH   7   8
ATOM      8  C   UNL     1     -14.803   4.504 -23.619  1.00  0.00     0.000 C 
BRANCH   8   9
ATOM      9  C   UNL     1     -15.565   5.567 -24.434  1.00  0.00     0.000 C 
BRANCH   9  10
ATOM     10  C   UNL     1     -16.598   5.012 -25.433  1.00  0.00     0.000 C 
BRANCH  10  11
ATOM     11  C   UNL     1     -17.675   6.037 -25.819  1.00  0.00     0.000 C 
BRANCH  11  12
ATOM     12  C   UNL     1     -17.355   7.419 -25.236  1.00  0.00     0.006 C 
BRANCH  12  13
ATOM     13  C   UNL     1     -18.633   8.239 -25.031  1.00  0.00     0.053 C 
BRANCH  13  14
ATOM     14  C   UNL     1     -18.302   9.626 -24.578  1.00  0.00     0.041 C 
ATOM     15  O   UNL     1     -17.384  10.275 -25.144  1.00  0.00    -0.550 OA
ATOM     16  O   UNL     1     -18.984  10.189 -23.506  1.00  0.00    -0.550 OA
ENDBRANCH  13  14
ENDBRANCH  12  13
ENDBRANCH  11  12
ENDBRANCH  10  11
ENDBRANCH   9  10
ENDBRANCH   8   9
ENDBRANCH   7   8
ENDBRANCH   6   7
ENDBRANCH   5   6
ENDBRANCH   4   5
ENDBRANCH   3   4
ENDBRANCH   2   3
ENDBRANCH   1   2
BRANCH   1  17
ATOM     17  C   UNL     1     -17.959   6.775 -21.223  1.00  0.00     0.000 C 
BRANCH  17  18
ATOM     18  C   UNL     1     -17.554   5.322 -21.538  1.00  0.00     0.000 C 
BRANCH  18  19
ATOM     19  C   UNL     1     -17.798   4.314 -20.398  1.00  0.00     0.000 C 
BRANCH  19  20
ATOM     20  C   UNL     1     -16.533   3.622 -19.858  1.00  0.00     0.000 C 
BRANCH  20  21
ATOM     21  C   UNL     1     -15.925   2.551 -20.786  1.00  0.00     0.000 C 
BRANCH  21  22
ATOM     22  C   UNL     1     -14.497   2.104 -20.423  1.00  0.00    -0.000 C 
BRANCH  22  23
ATOM     23  C   UNL     1     -13.900   1.019 -21.339  1.00  0.00    -0.000 C 
BRANCH  23  24
ATOM     24  C   UNL     1     -13.988  -0.408 -20.758  1.00  0.00    -0.000 C 
BRANCH  24  25
ATOM     25  C   UNL     1     -15.316  -1.104 -21.100  1.00  0.00    -0.000 C 
BRANCH  25  26
ATOM     26  C   UNL     1     -15.768  -0.854 -22.551  1.00  0.00    -0.000 C 
BRANCH  26  27
ATOM     27  C   UNL     1     -17.197  -0.301 -22.699  1.00  0.00    -0.000 C 
BRANCH  27  28
ATOM     28  C   UNL     1     -17.273   0.920 -23.631  1.00  0.00    -0.000 C 
BRANCH  28  29
ATOM     29  C   UNL     1     -15.931   1.160 -24.332  1.00  0.00    -0.003 C 
ATOM     30  C   UNL     1     -16.120   1.350 -25.833  1.00  0.00     0.004 C 
ENDBRANCH  28  29
ENDBRANCH  27  28
ENDBRANCH  26  27
ENDBRANCH  25  26
ENDBRANCH  24  25
ENDBRANCH  23  24
ENDBRANCH  22  23
ENDBRANCH  21  22
ENDBRANCH  20  21
ENDBRANCH  19  20
ENDBRANCH  18  19
ENDBRANCH  17  18
ENDBRANCH   1  17
TORSDOF 26
ENDMDL
MODEL 4
REMARK VINA RESULT:    -5.809      4.048      7.505
REMARK INTER + INTRA:         -19.247
REMARK INTER:                 -14.634
REMARK INTRA:                  -4.612
REMARK UNBOUND:                -4.607
REMARK SMILES CCCCCCCCCCCCCCCCCCCCCCCCCCCC(=O)[O-]
REMARK SMILES IDX 15 1 16 2 17 3 18 4 19 5 20 6 21 7 22 8 23 9 24 10 25 11
REMARK SMILES IDX 26 12 27 13 28 14 29 15 30 16 14 17 13 18 12 19 11 20 10 21
REMARK SMILES IDX 9 22 8 23 7 24 6 25 5 26 4 27 3 28 2 29 1 30
REMARK H PARENT
REMARK Flexibility Score: inf
ROOT
ATOM      1  C   UNL     1     -14.685   7.957 -19.882  1.00  0.00     0.000 C 
ENDROOT
BRANCH   1   2
ATOM      2  C   UNL     1     -15.294   9.305 -20.313  1.00  0.00     0.000 C 
BRANCH   2   3
ATOM      3  C   UNL     1     -16.427   9.208 -21.353  1.00  0.00     0.000 C 
BRANCH   3   4
ATOM      4  C   UNL     1     -17.849   9.143 -20.770  1.00  0.00     0.000 C 
BRANCH   4   5
ATOM      5  C   UNL     1     -18.675   7.975 -21.338  1.00  0.00     0.000 C 
BRANCH   5   6
ATOM      6  C   UNL     1     -17.828   6.724 -21.633  1.00  0.00     0.000 C 
BRANCH   6   7
ATOM      7  C   UNL     1     -17.487   5.849 -20.411  1.00  0.00     0.000 C 
BRANCH   7   8
ATOM      8  C   UNL     1     -17.624   4.344 -20.690  1.00  0.00     0.000 C 
BRANCH   8   9
ATOM      9  C   UNL     1     -16.605   3.491 -19.912  1.00  0.00     0.000 C 
BRANCH   9  10
ATOM     10  C   UNL     1     -15.959   2.345 -20.714  1.00  0.00     0.000 C 
BRANCH  10  11
ATOM     11  C   UNL     1     -14.494   2.090 -20.328  1.00  0.00     0.000 C 
BRANCH  11  12
ATOM     12  C   UNL     1     -13.907   0.924 -21.133  1.00  0.00     0.006 C 
BRANCH  12  13
ATOM     13  C   UNL     1     -14.824  -0.302 -21.073  1.00  0.00     0.053 C 
BRANCH  13  14
ATOM     14  C   UNL     1     -14.268  -1.330 -20.137  1.00  0.00     0.041 C 
ATOM     15  O   UNL     1     -14.291  -1.132 -18.894  1.00  0.00    -0.550 OA
ATOM     16  O   UNL     1     -13.691  -2.489 -20.640  1.00  0.00    -0.550 OA
ENDBRANCH  13  14
ENDBRANCH  12  13
ENDBRANCH  11  12
ENDBRANCH  10  11
ENDBRANCH   9  10
ENDBRANCH   8   9
ENDBRANCH   7   8
ENDBRANCH   6   7
ENDBRANCH   5   6
ENDBRANCH   4   5
ENDBRANCH   3   4
ENDBRANCH   2   3
ENDBRANCH   1   2
BRANCH   1  17
ATOM     17  C   UNL     1     -13.395   7.554 -20.624  1.00  0.00     0.000 C 
BRANCH  17  18
ATOM     18  C   UNL     1     -13.278   6.056 -20.966  1.00  0.00     0.000 C 
BRANCH  18  19
ATOM     19  C   UNL     1     -14.328   5.530 -21.964  1.00  0.00     0.000 C 
BRANCH  19  20
ATOM     20  C   UNL     1     -13.783   4.574 -23.040  1.00  0.00     0.000 C 
BRANCH  20  21
ATOM     21  C   UNL     1     -14.854   3.783 -23.818  1.00  0.00     0.000 C 
BRANCH  21  22
ATOM     22  C   UNL     1     -16.189   4.522 -24.028  1.00  0.00    -0.000 C 
BRANCH  22  23
ATOM     23  C   UNL     1     -16.366   5.168 -25.415  1.00  0.00    -0.000 C 
BRANCH  23  24
ATOM     24  C   UNL     1     -15.686   6.547 -25.555  1.00  0.00    -0.000 C 
BRANCH  24  25
ATOM     25  C   UNL     1     -15.974   7.471 -24.360  1.00  0.00    -0.000 C 
BRANCH  25  26
ATOM     26  C   UNL     1     -16.363   8.899 -24.787  1.00  0.00    -0.000 C 
BRANCH  26  27
ATOM     27  C   UNL     1     -17.877   9.148 -24.917  1.00  0.00    -0.000 C 
BRANCH  27  28
ATOM     28  C   UNL     1     -18.256  10.628 -24.751  1.00  0.00    -0.000 C 
BRANCH  28  29
ATOM     29  C   UNL     1     -19.304  10.805 -23.645  1.00  0.00    -0.003 C 
ATOM     30  C   UNL     1     -20.559  11.486 -24.180  1.00  0.00     0.004 C 
ENDBRANCH  28  29
ENDBRANCH  27  28
ENDBRANCH  26  27
ENDBRANCH  25  26
ENDBRANCH  24  25
ENDBRANCH  23  24
ENDBRANCH  22  23
ENDBRANCH  21  22
ENDBRANCH  20  21
ENDBRANCH  19  20
ENDBRANCH  18  19
ENDBRANCH  17  18
ENDBRANCH   1  17
TORSDOF 26
ENDMDL
MODEL 5
REMARK VINA RESULT:    -5.732      4.180      7.245
REMARK INTER + INTRA:         -19.053
REMARK INTER:                 -13.918
REMARK INTRA:                  -5.134
REMARK UNBOUND:                -4.607
REMARK SMILES CCCCCCCCCCCCCCCCCCCCCCCCCCCC(=O)[O-]
REMARK SMILES IDX 15 1 16 2 17 3 18 4 19 5 20 6 21 7 22 8 23 9 24 10 25 11
REMARK SMILES IDX 26 12 27 13 28 14 29 15 30 16 14 17 13 18 12 19 11 20 10 21
REMARK SMILES IDX 9 22 8 23 7 24 6 25 5 26 4 27 3 28 2 29 1 30
REMARK H PARENT
REMARK Flexibility Score: inf
ROOT
ATOM      1  C   UNL     1     -13.719   5.555 -21.090  1.00  0.00     0.000 C 
ENDROOT
BRANCH   1   2
ATOM      2  C   UNL     1     -13.197   6.989 -20.876  1.00  0.00     0.000 C 
BRANCH   2   3
ATOM      3  C   UNL     1     -14.269   8.023 -20.482  1.00  0.00     0.000 C 
BRANCH   3   4
ATOM      4  C   UNL     1     -15.619   7.433 -20.041  1.00  0.00     0.000 C 
BRANCH   4   5
ATOM      5  C   UNL     1     -16.777   7.827 -20.975  1.00  0.00     0.000 C 
BRANCH   5   6
ATOM      6  C   UNL     1     -17.820   6.706 -21.149  1.00  0.00     0.000 C 
BRANCH   6   7
ATOM      7  C   UNL     1     -17.474   5.366 -20.471  1.00  0.00     0.000 C 
BRANCH   7   8
ATOM      8  C   UNL     1     -17.681   4.154 -21.395  1.00  0.00     0.000 C 
BRANCH   8   9
ATOM      9  C   UNL     1     -16.960   2.888 -20.897  1.00  0.00     0.000 C 
BRANCH   9  10
ATOM     10  C   UNL     1     -15.897   3.123 -19.806  1.00  0.00     0.000 C 
BRANCH  10  11
ATOM     11  C   UNL     1     -15.401   1.822 -19.157  1.00  0.00     0.000 C 
BRANCH  11  12
ATOM     12  C   UNL     1     -14.542   1.010 -20.135  1.00  0.00     0.006 C 
BRANCH  12  13
ATOM     13  C   UNL     1     -14.759  -0.494 -19.937  1.00  0.00     0.053 C 
BRANCH  13  14
ATOM     14  C   UNL     1     -15.241  -1.128 -21.205  1.00  0.00     0.041 C 
ATOM     15  O   UNL     1     -14.501  -1.929 -21.833  1.00  0.00    -0.550 OA
ATOM     16  O   UNL     1     -16.494  -0.805 -21.710  1.00  0.00    -0.550 OA
ENDBRANCH  13  14
ENDBRANCH  12  13
ENDBRANCH  11  12
ENDBRANCH  10  11
ENDBRANCH   9  10
ENDBRANCH   8   9
ENDBRANCH   7   8
ENDBRANCH   6   7
ENDBRANCH   5   6
ENDBRANCH   4   5
ENDBRANCH   3   4
ENDBRANCH   2   3
ENDBRANCH   1   2
BRANCH   1  17
ATOM     17  C   UNL     1     -13.462   4.969 -22.493  1.00  0.00     0.000 C 
BRANCH  17  18
ATOM     18  C   UNL     1     -14.576   4.050 -23.032  1.00  0.00     0.000 C 
BRANCH  18  19
ATOM     19  C   UNL     1     -14.085   2.845 -23.859  1.00  0.00     0.000 C 
BRANCH  19  20
ATOM     20  C   UNL     1     -14.938   1.571 -23.722  1.00  0.00     0.000 C 
BRANCH  20  21
ATOM     21  C   UNL     1     -16.383   1.689 -24.246  1.00  0.00     0.000 C 
BRANCH  21  22
ATOM     22  C   UNL     1     -16.518   1.785 -25.778  1.00  0.00    -0.000 C 
BRANCH  22  23
ATOM     23  C   UNL     1     -17.585   2.777 -26.277  1.00  0.00    -0.000 C 
BRANCH  23  24
ATOM     24  C   UNL     1     -17.794   3.993 -25.349  1.00  0.00    -0.000 C 
BRANCH  24  25
ATOM     25  C   UNL     1     -16.730   5.084 -25.557  1.00  0.00    -0.000 C 
BRANCH  25  26
ATOM     26  C   UNL     1     -16.947   6.312 -24.655  1.00  0.00    -0.000 C 
BRANCH  26  27
ATOM     27  C   UNL     1     -15.729   7.245 -24.526  1.00  0.00    -0.000 C 
BRANCH  27  28
ATOM     28  C   UNL     1     -16.112   8.734 -24.534  1.00  0.00    -0.000 C 
BRANCH  28  29
ATOM     29  C   UNL     1     -17.634   8.909 -24.585  1.00  0.00    -0.003 C 
ATOM     30  C   UNL     1     -18.013  10.281 -25.133  1.00  0.00     0.004 C 
ENDBRANCH  28  29
ENDBRANCH  27  28
ENDBRANCH  26  27
ENDBRANCH  25  26
ENDBRANCH  24  25
ENDBRANCH  23  24
ENDBRANCH  22  23
ENDBRANCH  21  22
ENDBRANCH  20  21
ENDBRANCH  19  20
ENDBRANCH  18  19
ENDBRANCH  17  18
ENDBRANCH   1  17
TORSDOF 26
ENDMDL
MODEL 6
REMARK VINA RESULT:    -5.717      4.901      7.747
REMARK INTER + INTRA:         -19.013
REMARK INTER:                 -14.372
REMARK INTRA:                  -4.641
REMARK UNBOUND:                -4.607
REMARK SMILES CCCCCCCCCCCCCCCCCCCCCCCCCCCC(=O)[O-]
REMARK SMILES IDX 15 1 16 2 17 3 18 4 19 5 20 6 21 7 22 8 23 9 24 10 25 11
REMARK SMILES IDX 26 12 27 13 28 14 29 15 30 16 14 17 13 18 12 19 11 20 10 21
REMARK SMILES IDX 9 22 8 23 7 24 6 25 5 26 4 27 3 28 2 29 1 30
REMARK H PARENT
REMARK Flexibility Score: inf
ROOT
ATOM      1  C   UNL     1     -14.342   1.950 -23.807  1.00  0.00     0.000 C 
ENDROOT
BRANCH   1   2
ATOM      2  C   UNL     1     -15.728   2.231 -24.420  1.00  0.00     0.000 C 
BRANCH   2   3
ATOM      3  C   UNL     1     -16.920   2.018 -23.466  1.00  0.00     0.000 C 
BRANCH   3   4
ATOM      4  C   UNL     1     -17.458   3.293 -22.794  1.00  0.00     0.000 C 
BRANCH   4   5
ATOM      5  C   UNL     1     -17.729   3.107 -21.291  1.00  0.00     0.000 C 
BRANCH   5   6
ATOM      6  C   UNL     1     -16.983   4.129 -20.413  1.00  0.00     0.000 C 
BRANCH   6   7
ATOM      7  C   UNL     1     -15.648   3.643 -19.817  1.00  0.00     0.000 C 
BRANCH   7   8
ATOM      8  C   UNL     1     -15.678   2.165 -19.396  1.00  0.00     0.000 C 
BRANCH   8   9
ATOM      9  C   UNL     1     -14.660   1.300 -20.161  1.00  0.00     0.000 C 
BRANCH   9  10
ATOM     10  C   UNL     1     -14.807  -0.221 -19.960  1.00  0.00     0.000 C 
BRANCH  10  11
ATOM     11  C   UNL     1     -15.140  -0.972 -21.258  1.00  0.00     0.000 C 
BRANCH  11  12
ATOM     12  C   UNL     1     -14.397  -2.313 -21.324  1.00  0.00     0.006 C 
BRANCH  12  13
ATOM     13  C   UNL     1     -13.302  -2.388 -20.254  1.00  0.00     0.053 C 
BRANCH  13  14
ATOM     14  C   UNL     1     -12.636  -3.728 -20.276  1.00  0.00     0.041 C 
ATOM     15  O   UNL     1     -11.426  -3.839 -19.944  1.00  0.00    -0.550 OA
ATOM     16  O   UNL     1     -13.340  -4.848 -20.698  1.00  0.00    -0.550 OA
ENDBRANCH  13  14
ENDBRANCH  12  13
ENDBRANCH  11  12
ENDBRANCH  10  11
ENDBRANCH   9  10
ENDBRANCH   8   9
ENDBRANCH   7   8
ENDBRANCH   6   7
ENDBRANCH   5   6
ENDBRANCH   4   5
ENDBRANCH   3   4
ENDBRANCH   2   3
ENDBRANCH   1   2
BRANCH   1  17
ATOM     17  C   UNL     1     -13.755   3.099 -22.962  1.00  0.00     0.000 C 
BRANCH  17  18
ATOM     18  C   UNL     1     -13.979   4.512 -23.534  1.00  0.00     0.000 C 
BRANCH  18  19
ATOM     19  C   UNL     1     -14.474   5.557 -22.515  1.00  0.00     0.000 C 
BRANCH  19  20
ATOM     20  C   UNL     1     -13.474   5.902 -21.397  1.00  0.00     0.000 C 
BRANCH  20  21
ATOM     21  C   UNL     1     -13.772   7.206 -20.630  1.00  0.00     0.000 C 
BRANCH  21  22
ATOM     22  C   UNL     1     -15.260   7.457 -20.319  1.00  0.00    -0.000 C 
BRANCH  22  23
ATOM     23  C   UNL     1     -15.984   8.393 -21.306  1.00  0.00    -0.000 C 
BRANCH  23  24
ATOM     24  C   UNL     1     -17.462   8.658 -20.948  1.00  0.00    -0.000 C 
BRANCH  24  25
ATOM     25  C   UNL     1     -18.437   7.944 -21.900  1.00  0.00    -0.000 C 
BRANCH  25  26
ATOM     26  C   UNL     1     -17.746   6.893 -22.788  1.00  0.00    -0.000 C 
BRANCH  26  27
ATOM     27  C   UNL     1     -17.843   7.158 -24.301  1.00  0.00    -0.000 C 
BRANCH  27  28
ATOM     28  C   UNL     1     -16.486   7.504 -24.937  1.00  0.00    -0.000 C 
BRANCH  28  29
ATOM     29  C   UNL     1     -15.985   6.355 -25.819  1.00  0.00    -0.003 C 
ATOM     30  C   UNL     1     -17.097   5.348 -26.096  1.00  0.00     0.004 C 
ENDBRANCH  28  29
ENDBRANCH  27  28
ENDBRANCH  26  27
ENDBRANCH  25  26
ENDBRANCH  24  25
ENDBRANCH  23  24
ENDBRANCH  22  23
ENDBRANCH  21  22
ENDBRANCH  20  21
ENDBRANCH  19  20
ENDBRANCH  18  19
ENDBRANCH  17  18
ENDBRANCH   1  17
TORSDOF 26
ENDMDL
MODEL 7
REMARK VINA RESULT:    -5.688      1.953      5.576
REMARK INTER + INTRA:         -18.941
REMARK INTER:                 -14.018
REMARK INTRA:                  -4.923
REMARK UNBOUND:                -4.607
REMARK SMILES CCCCCCCCCCCCCCCCCCCCCCCCCCCC(=O)[O-]
REMARK SMILES IDX 15 1 16 2 17 3 18 4 19 5 20 6 21 7 22 8 23 9 24 10 25 11
REMARK SMILES IDX 26 12 27 13 28 14 29 15 30 16 14 17 13 18 12 19 11 20 10 21
REMARK SMILES IDX 9 22 8 23 7 24 6 25 5 26 4 27 3 28 2 29 1 30
REMARK H PARENT
REMARK Flexibility Score: inf
ROOT
ATOM      1  C   UNL     1     -17.526   4.139 -22.050  1.00  0.00     0.000 C 
ENDROOT
BRANCH   1   2
ATOM      2  C   UNL     1     -18.161   4.748 -23.315  1.00  0.00     0.000 C 
BRANCH   2   3
ATOM      3  C   UNL     1     -17.710   4.112 -24.644  1.00  0.00     0.000 C 
BRANCH   3   4
ATOM      4  C   UNL     1     -16.964   5.055 -25.603  1.00  0.00     0.000 C 
BRANCH   4   5
ATOM      5  C   UNL     1     -16.000   6.008 -24.874  1.00  0.00     0.000 C 
BRANCH   5   6
ATOM      6  C   UNL     1     -16.115   7.467 -25.355  1.00  0.00     0.000 C 
BRANCH   6   7
ATOM      7  C   UNL     1     -15.984   8.540 -24.257  1.00  0.00     0.000 C 
BRANCH   7   8
ATOM      8  C   UNL     1     -17.343   9.024 -23.724  1.00  0.00     0.000 C 
BRANCH   8   9
ATOM      9  C   UNL     1     -17.842   8.209 -22.517  1.00  0.00     0.000 C 
BRANCH   9  10
ATOM     10  C   UNL     1     -18.339   9.045 -21.321  1.00  0.00     0.000 C 
BRANCH  10  11
ATOM     11  C   UNL     1     -17.252   9.951 -20.724  1.00  0.00     0.000 C 
BRANCH  11  12
ATOM     12  C   UNL     1     -16.045   9.128 -20.257  1.00  0.00     0.006 C 
BRANCH  12  13
ATOM     13  C   UNL     1     -14.761   9.592 -20.954  1.00  0.00     0.053 C 
BRANCH  13  14
ATOM     14  C   UNL     1     -13.576   9.400 -20.059  1.00  0.00     0.041 C 
ATOM     15  O   UNL     1     -12.794   8.432 -20.245  1.00  0.00    -0.550 OA
ATOM     16  O   UNL     1     -13.359  10.269 -18.998  1.00  0.00    -0.550 OA
ENDBRANCH  13  14
ENDBRANCH  12  13
ENDBRANCH  11  12
ENDBRANCH  10  11
ENDBRANCH   9  10
ENDBRANCH   8   9
ENDBRANCH   7   8
ENDBRANCH   6   7
ENDBRANCH   5   6
ENDBRANCH   4   5
ENDBRANCH   3   4
ENDBRANCH   2   3
ENDBRANCH   1   2
BRANCH   1  17
ATOM     17  C   UNL     1     -17.489   5.072 -20.822  1.00  0.00     0.000 C 
BRANCH  17  18
ATOM     18  C   UNL     1     -16.079   5.474 -20.349  1.00  0.00     0.000 C 
BRANCH  18  19
ATOM     19  C   UNL     1     -15.156   6.033 -21.450  1.00  0.00     0.000 C 
BRANCH  19  20
ATOM     20  C   UNL     1     -13.819   5.289 -21.618  1.00  0.00     0.000 C 
BRANCH  20  21
ATOM     21  C   UNL     1     -13.673   4.490 -22.928  1.00  0.00     0.000 C 
BRANCH  21  22
ATOM     22  C   UNL     1     -14.394   3.128 -22.948  1.00  0.00    -0.000 C 
BRANCH  22  23
ATOM     23  C   UNL     1     -13.941   2.135 -21.861  1.00  0.00    -0.000 C 
BRANCH  23  24
ATOM     24  C   UNL     1     -14.821   2.150 -20.593  1.00  0.00    -0.000 C 
BRANCH  24  25
ATOM     25  C   UNL     1     -14.837   0.793 -19.869  1.00  0.00    -0.000 C 
BRANCH  25  26
ATOM     26  C   UNL     1     -14.088  -0.308 -20.642  1.00  0.00    -0.000 C 
BRANCH  26  27
ATOM     27  C   UNL     1     -14.991  -1.374 -21.290  1.00  0.00    -0.000 C 
BRANCH  27  28
ATOM     28  C   UNL     1     -15.612  -0.907 -22.616  1.00  0.00    -0.000 C 
BRANCH  28  29
ATOM     29  C   UNL     1     -17.108  -0.617 -22.448  1.00  0.00    -0.003 C 
ATOM     30  C   UNL     1     -17.460   0.776 -22.960  1.00  0.00     0.004 C 
ENDBRANCH  28  29
ENDBRANCH  27  28
ENDBRANCH  26  27
ENDBRANCH  25  26
ENDBRANCH  24  25
ENDBRANCH  23  24
ENDBRANCH  22  23
ENDBRANCH  21  22
ENDBRANCH  20  21
ENDBRANCH  19  20
ENDBRANCH  18  19
ENDBRANCH  17  18
ENDBRANCH   1  17
TORSDOF 26
ENDMDL
MODEL 8
REMARK VINA RESULT:    -5.618      5.184      8.539
REMARK INTER + INTRA:         -18.765
REMARK INTER:                 -14.263
REMARK INTRA:                  -4.501
REMARK UNBOUND:                -4.607
REMARK SMILES CCCCCCCCCCCCCCCCCCCCCCCCCCCC(=O)[O-]
REMARK SMILES IDX 15 1 16 2 17 3 18 4 19 5 20 6 21 7 22 8 23 9 24 10 25 11
REMARK SMILES IDX 26 12 27 13 28 14 29 15 30 16 14 17 13 18 12 19 11 20 10 21
REMARK SMILES IDX 9 22 8 23 7 24 6 25 5 26 4 27 3 28 2 29 1 30
REMARK H PARENT
REMARK Flexibility Score: inf
ROOT
ATOM      1  C   UNL     1     -17.969   3.687 -21.412  1.00  0.00     0.000 C 
ENDROOT
BRANCH   1   2
ATOM      2  C   UNL     1     -17.552   2.440 -22.216  1.00  0.00     0.000 C 
BRANCH   2   3
ATOM      3  C   UNL     1     -17.120   2.713 -23.670  1.00  0.00     0.000 C 
BRANCH   3   4
ATOM      4  C   UNL     1     -17.084   1.480 -24.587  1.00  0.00     0.000 C 
BRANCH   4   5
ATOM      5  C   UNL     1     -15.665   0.912 -24.770  1.00  0.00     0.000 C 
BRANCH   5   6
ATOM      6  C   UNL     1     -14.634   1.547 -23.819  1.00  0.00     0.000 C 
BRANCH   6   7
ATOM      7  C   UNL     1     -14.240   0.692 -22.599  1.00  0.00     0.000 C 
BRANCH   7   8
ATOM      8  C   UNL     1     -15.041  -0.617 -22.498  1.00  0.00     0.000 C 
BRANCH   8   9
ATOM      9  C   UNL     1     -15.578  -0.886 -21.080  1.00  0.00     0.000 C 
BRANCH   9  10
ATOM     10  C   UNL     1     -14.656  -0.433 -19.931  1.00  0.00     0.000 C 
BRANCH  10  11
ATOM     11  C   UNL     1     -14.074  -1.605 -19.126  1.00  0.00     0.000 C 
BRANCH  11  12
ATOM     12  C   UNL     1     -13.176  -2.485 -20.003  1.00  0.00     0.006 C 
BRANCH  12  13
ATOM     13  C   UNL     1     -13.001  -3.878 -19.388  1.00  0.00     0.053 C 
BRANCH  13  14
ATOM     14  C   UNL     1     -13.013  -4.929 -20.453  1.00  0.00     0.041 C 
ATOM     15  O   UNL     1     -13.976  -5.002 -21.260  1.00  0.00    -0.550 OA
ATOM     16  O   UNL     1     -11.978  -5.852 -20.531  1.00  0.00    -0.550 OA
ENDBRANCH  13  14
ENDBRANCH  12  13
ENDBRANCH  11  12
ENDBRANCH  10  11
ENDBRANCH   9  10
ENDBRANCH   8   9
ENDBRANCH   7   8
ENDBRANCH   6   7
ENDBRANCH   5   6
ENDBRANCH   4   5
ENDBRANCH   3   4
ENDBRANCH   2   3
ENDBRANCH   1   2
BRANCH   1  17
ATOM     17  C   UNL     1     -17.123   3.967 -20.154  1.00  0.00     0.000 C 
BRANCH  17  18
ATOM     18  C   UNL     1     -15.960   2.984 -19.916  1.00  0.00     0.000 C 
BRANCH  18  19
ATOM     19  C   UNL     1     -14.581   3.474 -20.402  1.00  0.00     0.000 C 
BRANCH  19  20
ATOM     20  C   UNL     1     -14.512   4.969 -20.764  1.00  0.00     0.000 C 
BRANCH  20  21
ATOM     21  C   UNL     1     -13.888   5.282 -22.139  1.00  0.00     0.000 C 
BRANCH  21  22
ATOM     22  C   UNL     1     -14.873   5.265 -23.323  1.00  0.00    -0.000 C 
BRANCH  22  23
ATOM     23  C   UNL     1     -15.639   6.582 -23.554  1.00  0.00    -0.000 C 
BRANCH  23  24
ATOM     24  C   UNL     1     -17.172   6.411 -23.621  1.00  0.00    -0.000 C 
BRANCH  24  25
ATOM     25  C   UNL     1     -17.925   7.560 -22.929  1.00  0.00    -0.000 C 
BRANCH  25  26
ATOM     26  C   UNL     1     -18.055   7.362 -21.408  1.00  0.00    -0.000 C 
BRANCH  26  27
ATOM     27  C   UNL     1     -16.771   7.640 -20.605  1.00  0.00    -0.000 C 
BRANCH  27  28
ATOM     28  C   UNL     1     -16.290   9.095 -20.729  1.00  0.00    -0.000 C 
BRANCH  28  29
ATOM     29  C   UNL     1     -14.814   9.151 -21.136  1.00  0.00    -0.003 C 
ATOM     30  C   UNL     1     -13.904   9.145 -19.912  1.00  0.00     0.004 C 
ENDBRANCH  28  29
ENDBRANCH  27  28
ENDBRANCH  26  27
ENDBRANCH  25  26
ENDBRANCH  24  25
ENDBRANCH  23  24
ENDBRANCH  22  23
ENDBRANCH  21  22
ENDBRANCH  20  21
ENDBRANCH  19  20
ENDBRANCH  18  19
ENDBRANCH  17  18
ENDBRANCH   1  17
TORSDOF 26
ENDMDL
MODEL 9
REMARK VINA RESULT:    -5.616      4.864      8.142
REMARK INTER + INTRA:         -18.759
REMARK INTER:                 -14.496
REMARK INTRA:                  -4.263
REMARK UNBOUND:                -4.607
REMARK SMILES CCCCCCCCCCCCCCCCCCCCCCCCCCCC(=O)[O-]
REMARK SMILES IDX 15 1 16 2 17 3 18 4 19 5 20 6 21 7 22 8 23 9 24 10 25 11
REMARK SMILES IDX 26 12 27 13 28 14 29 15 30 16 14 17 13 18 12 19 11 20 10 21
REMARK SMILES IDX 9 22 8 23 7 24 6 25 5 26 4 27 3 28 2 29 1 30
REMARK H PARENT
REMARK Flexibility Score: inf
ROOT
ATOM      1  C   UNL     1     -14.975   2.614 -23.881  1.00  0.00     0.000 C 
ENDROOT
BRANCH   1   2
ATOM      2  C   UNL     1     -16.498   2.440 -24.039  1.00  0.00     0.000 C 
BRANCH   2   3
ATOM      3  C   UNL     1     -17.228   1.904 -22.792  1.00  0.00     0.000 C 
BRANCH   3   4
ATOM      4  C   UNL     1     -18.195   2.894 -22.121  1.00  0.00     0.000 C 
BRANCH   4   5
ATOM      5  C   UNL     1     -17.472   4.071 -21.443  1.00  0.00     0.000 C 
BRANCH   5   6
ATOM      6  C   UNL     1     -16.843   3.693 -20.089  1.00  0.00     0.000 C 
BRANCH   6   7
ATOM      7  C   UNL     1     -15.316   3.492 -20.099  1.00  0.00     0.000 C 
BRANCH   7   8
ATOM      8  C   UNL     1     -14.893   2.072 -19.688  1.00  0.00     0.000 C 
BRANCH   8   9
ATOM      9  C   UNL     1     -14.139   1.322 -20.802  1.00  0.00     0.000 C 
BRANCH   9  10
ATOM     10  C   UNL     1     -14.413  -0.192 -20.877  1.00  0.00     0.000 C 
BRANCH  10  11
ATOM     11  C   UNL     1     -14.781  -0.806 -19.517  1.00  0.00     0.000 C 
BRANCH  11  12
ATOM     12  C   UNL     1     -13.796  -1.916 -19.129  1.00  0.00     0.006 C 
BRANCH  12  13
ATOM     13  C   UNL     1     -13.200  -2.582 -20.375  1.00  0.00     0.053 C 
BRANCH  13  14
ATOM     14  C   UNL     1     -12.385  -3.778 -19.994  1.00  0.00     0.041 C 
ATOM     15  O   UNL     1     -12.584  -4.354 -18.892  1.00  0.00    -0.550 OA
ATOM     16  O   UNL     1     -11.381  -4.233 -20.839  1.00  0.00    -0.550 OA
ENDBRANCH  13  14
ENDBRANCH  12  13
ENDBRANCH  11  12
ENDBRANCH  10  11
ENDBRANCH   9  10
ENDBRANCH   8   9
ENDBRANCH   7   8
ENDBRANCH   6   7
ENDBRANCH   5   6
ENDBRANCH   4   5
ENDBRANCH   3   4
ENDBRANCH   2   3
ENDBRANCH   1   2
BRANCH   1  17
ATOM     17  C   UNL     1     -14.506   4.059 -23.617  1.00  0.00     0.000 C 
BRANCH  17  18
ATOM     18  C   UNL     1     -15.241   5.143 -24.428  1.00  0.00     0.000 C 
BRANCH  18  19
ATOM     19  C   UNL     1     -15.808   6.310 -23.595  1.00  0.00     0.000 C 
BRANCH  19  20
ATOM     20  C   UNL     1     -15.914   7.652 -24.341  1.00  0.00     0.000 C 
BRANCH  20  21
ATOM     21  C   UNL     1     -17.325   8.008 -24.851  1.00  0.00     0.000 C 
BRANCH  21  22
ATOM     22  C   UNL     1     -17.747   9.475 -24.639  1.00  0.00    -0.000 C 
BRANCH  22  23
ATOM     23  C   UNL     1     -18.535   9.746 -23.343  1.00  0.00    -0.000 C 
BRANCH  23  24
ATOM     24  C   UNL     1     -19.031   8.468 -22.633  1.00  0.00    -0.000 C 
BRANCH  24  25
ATOM     25  C   UNL     1     -18.183   8.110 -21.401  1.00  0.00    -0.000 C 
BRANCH  25  26
ATOM     26  C   UNL     1     -17.557   9.343 -20.726  1.00  0.00    -0.000 C 
BRANCH  26  27
ATOM     27  C   UNL     1     -16.026   9.289 -20.568  1.00  0.00    -0.000 C 
BRANCH  27  28
ATOM     28  C   UNL     1     -15.479   7.853 -20.517  1.00  0.00    -0.000 C 
BRANCH  28  29
ATOM     29  C   UNL     1     -13.953   7.842 -20.661  1.00  0.00    -0.003 C 
ATOM     30  C   UNL     1     -13.405   6.420 -20.607  1.00  0.00     0.004 C 
ENDBRANCH  28  29
ENDBRANCH  27  28
ENDBRANCH  26  27
ENDBRANCH  25  26
ENDBRANCH  24  25
ENDBRANCH  23  24
ENDBRANCH  22  23
ENDBRANCH  21  22
ENDBRANCH  20  21
ENDBRANCH  19  20
ENDBRANCH  18  19
ENDBRANCH  17  18
ENDBRANCH   1  17
TORSDOF 26
ENDMDL
