MODEL 1
REMARK VINA RESULT:    -5.584      0.000      0.000
REMARK INTER + INTRA:         -10.880
REMARK INTER:                  -9.175
REMARK INTRA:                  -1.705
REMARK UNBOUND:                -1.705
REMARK SMILES COc1ccc([C@@H]2CC(=O)c3c(O)cc(O[C@@H]4O[C@@H](CO[C@@H]5O[C@H](C)[C@H](O)[C@@H](O)[C@@H]5O)[C@H](O)[C@@H](O)[C@H]4O)cc3O2)cc1O
REMARK SMILES IDX 19 1 32 2 34 3 36 4 17 5 18 6 20 7 21 8 22 9 25 10 24 11
REMARK SMILES IDX 26 12 23 13 28 14 30 15 27 16 29 18 31 20 33 22 35 24 16 26
REMARK SMILES IDX 15 27 14 28 38 29 12 30 39 31 11 32 40 33 9 34 7 35 10 36
REMARK SMILES IDX 8 37 13 38 6 40 41 41 5 42 42 43 4 44 3 45 43 46 2 48 1 49
REMARK SMILES IDX 37 50
REMARK H PARENT 27 17 29 19 31 21 33 23 35 25 13 39 43 47 37 51
REMARK Flexibility Score: inf
ROOT
ATOM      1  C   UNL     1      43.533  19.770  -2.803  1.00  0.00     0.180 C 
ATOM      2  C   UNL     1      42.781  20.441  -1.616  1.00  0.00     0.177 C 
ATOM      3  C   UNL     1      41.754  19.474  -0.952  1.00  0.00     0.180 C 
ATOM      4  C   UNL     1      41.138  18.531  -1.996  1.00  0.00     0.214 C 
ATOM      5  C   UNL     1      42.266  17.749  -2.757  1.00  0.00     0.339 C 
ATOM      6  O   UNL     1      43.561  18.346  -2.656  1.00  0.00    -0.332 OA
ENDROOT
BRANCH   1   7
ATOM      7  C   UNL     1      43.033  20.223  -4.201  1.00  0.00     0.198 C 
BRANCH   7   8
ATOM      8  O   UNL     1      42.478  19.117  -4.907  1.00  0.00    -0.347 OA
BRANCH   8   9
ATOM      9  C   UNL     1      42.962  19.039  -6.249  1.00  0.00     0.281 C 
ATOM     10  C   UNL     1      40.500  17.193  -5.762  1.00  0.00     0.041 C 
ATOM     11  C   UNL     1      41.400  17.364  -6.994  1.00  0.00     0.150 C 
ATOM     12  C   UNL     1      42.520  16.303  -7.124  1.00  0.00     0.174 C 
ATOM     13  O   UNL     1      41.885  18.703  -7.125  1.00  0.00    -0.344 OA
ATOM     14  C   UNL     1      43.691  16.608  -6.176  1.00  0.00     0.179 C 
ATOM     15  C   UNL     1      44.158  18.048  -6.399  1.00  0.00     0.202 C 
BRANCH  12  16
ATOM     16  O   UNL     1      42.025  14.995  -6.954  1.00  0.00    -0.388 OA
ATOM     17  H   UNL     1      41.144  15.059  -6.500  1.00  0.00     0.211 HD
ENDBRANCH  12  16
BRANCH  14  18
ATOM     18  O   UNL     1      44.744  15.706  -6.447  1.00  0.00    -0.387 OA
ATOM     19  H   UNL     1      45.585  16.228  -6.417  1.00  0.00     0.211 HD
ENDBRANCH  14  18
BRANCH  15  20
ATOM     20  O   UNL     1      45.177  18.372  -5.497  1.00  0.00    -0.385 OA
ATOM     21  H   UNL     1      45.792  18.984  -5.980  1.00  0.00     0.211 HD
ENDBRANCH  15  20
ENDBRANCH   8   9
ENDBRANCH   7   8
ENDBRANCH   1   7
BRANCH   2  22
ATOM     22  O   UNL     1      43.716  20.859  -0.655  1.00  0.00    -0.387 OA
ATOM     23  H   UNL     1      44.135  20.041  -0.297  1.00  0.00     0.211 HD
ENDBRANCH   2  22
BRANCH   3  24
ATOM     24  O   UNL     1      40.741  20.193  -0.297  1.00  0.00    -0.387 OA
ATOM     25  H   UNL     1      39.950  20.195  -0.892  1.00  0.00     0.211 HD
ENDBRANCH   3  24
BRANCH   5  26
ATOM     26  O   UNL     1      42.367  16.396  -2.287  1.00  0.00    -0.462 OA
BRANCH  26  27
ATOM     27  C   UNL     1      43.190  15.424  -2.855  1.00  0.00     0.130 A 
ATOM     28  C   UNL     1      42.606  14.449  -3.665  1.00  0.00     0.093 A 
ATOM     29  C   UNL     1      44.585  15.416  -2.636  1.00  0.00     0.094 A 
ATOM     30  C   UNL     1      43.374  13.392  -4.176  1.00  0.00     0.133 A 
ATOM     31  C   UNL     1      45.359  14.375  -3.156  1.00  0.00     0.138 A 
ATOM     32  C   UNL     1      44.752  13.309  -3.838  1.00  0.00     0.102 A 
ATOM     33  O   UNL     1      46.737  14.410  -2.966  1.00  0.00    -0.484 OA
ATOM     34  C   UNL     1      45.590  12.130  -4.134  1.00  0.00     0.174 C 
ATOM     35  C   UNL     1      47.681  13.403  -3.387  1.00  0.00     0.211 C 
ATOM     36  O   UNL     1      45.054  10.994  -4.278  1.00  0.00    -0.294 OA
ATOM     37  C   UNL     1      47.077  12.252  -4.237  1.00  0.00     0.131 C 
BRANCH  30  38
ATOM     38  O   UNL     1      42.753  12.487  -5.034  1.00  0.00    -0.507 OA
ATOM     39  H   UNL     1      41.754  12.466  -5.203  1.00  0.00     0.293 HD
ENDBRANCH  30  38
BRANCH  35  40
ATOM     40  C   UNL     1      48.795  14.081  -4.148  1.00  0.00    -0.003 A 
ATOM     41  C   UNL     1      48.648  15.424  -4.540  1.00  0.00     0.057 A 
ATOM     42  C   UNL     1      49.962  13.392  -4.516  1.00  0.00     0.011 A 
ATOM     43  C   UNL     1      49.616  16.048  -5.317  1.00  0.00     0.158 A 
ATOM     44  C   UNL     1      50.945  14.015  -5.278  1.00  0.00     0.051 A 
ATOM     45  C   UNL     1      50.780  15.356  -5.700  1.00  0.00     0.160 A 
BRANCH  43  46
ATOM     46  O   UNL     1      49.412  17.379  -5.684  1.00  0.00    -0.504 OA
ATOM     47  H   UNL     1      49.565  17.703  -6.629  1.00  0.00     0.293 HD
ENDBRANCH  43  46
BRANCH  45  48
ATOM     48  O   UNL     1      51.737  16.016  -6.495  1.00  0.00    -0.493 OA
ATOM     49  C   UNL     1      53.019  15.481  -6.841  1.00  0.00     0.278 C 
ENDBRANCH  45  48
ENDBRANCH  35  40
ENDBRANCH  26  27
ENDBRANCH   5  26
BRANCH   4  50
ATOM     50  O   UNL     1      40.355  19.281  -2.890  1.00  0.00    -0.384 OA
ATOM     51  H   UNL     1      40.706  19.110  -3.803  1.00  0.00     0.211 HD
ENDBRANCH   4  50
TORSDOF 15
ENDMDL
MODEL 2
REMARK VINA RESULT:    -4.431      2.448      8.320
REMARK INTER + INTRA:          -8.985
REMARK INTER:                  -7.887
REMARK INTRA:                  -1.098
REMARK UNBOUND:                -1.705
REMARK SMILES COc1ccc([C@@H]2CC(=O)c3c(O)cc(O[C@@H]4O[C@@H](CO[C@@H]5O[C@H](C)[C@H](O)[C@@H](O)[C@@H]5O)[C@H](O)[C@@H](O)[C@H]4O)cc3O2)cc1O
REMARK SMILES IDX 19 1 32 2 34 3 36 4 17 5 18 6 20 7 21 8 22 9 25 10 24 11
REMARK SMILES IDX 26 12 23 13 28 14 30 15 27 16 29 18 31 20 33 22 35 24 16 26
REMARK SMILES IDX 15 27 14 28 38 29 12 30 39 31 11 32 40 33 9 34 7 35 10 36
REMARK SMILES IDX 8 37 13 38 6 40 41 41 5 42 42 43 4 44 3 45 43 46 2 48 1 49
REMARK SMILES IDX 37 50
REMARK H PARENT 27 17 29 19 31 21 33 23 35 25 13 39 43 47 37 51
REMARK Flexibility Score: inf
ROOT
ATOM      1  C   UNL     1      49.727  14.092  -4.976  1.00  0.00     0.180 C 
ATOM      2  C   UNL     1      50.450  15.260  -5.710  1.00  0.00     0.177 C 
ATOM      3  C   UNL     1      49.573  16.548  -5.765  1.00  0.00     0.180 C 
ATOM      4  C   UNL     1      48.083  16.191  -5.880  1.00  0.00     0.214 C 
ATOM      5  C   UNL     1      47.658  15.246  -4.701  1.00  0.00     0.339 C 
ATOM      6  O   UNL     1      48.750  14.589  -4.055  1.00  0.00    -0.332 OA
ENDROOT
BRANCH   1   7
ATOM      7  C   UNL     1      49.162  13.005  -5.928  1.00  0.00     0.198 C 
BRANCH   7   8
ATOM      8  O   UNL     1      47.801  12.730  -5.609  1.00  0.00    -0.347 OA
BRANCH   8   9
ATOM      9  C   UNL     1      47.597  11.359  -5.266  1.00  0.00     0.281 C 
ATOM     10  C   UNL     1      44.918  12.903  -5.648  1.00  0.00     0.041 C 
ATOM     11  C   UNL     1      45.191  11.464  -5.188  1.00  0.00     0.150 C 
ATOM     12  C   UNL     1      45.181  11.267  -3.653  1.00  0.00     0.174 C 
ATOM     13  O   UNL     1      46.354  10.912  -5.812  1.00  0.00    -0.344 OA
ATOM     14  C   UNL     1      46.490  11.762  -3.017  1.00  0.00     0.179 C 
ATOM     15  C   UNL     1      47.675  11.106  -3.728  1.00  0.00     0.202 C 
BRANCH  12  16
ATOM     16  O   UNL     1      44.045  11.853  -3.057  1.00  0.00    -0.388 OA
ATOM     17  H   UNL     1      44.357  12.433  -2.313  1.00  0.00     0.211 HD
ENDBRANCH  12  16
BRANCH  14  18
ATOM     18  O   UNL     1      46.491  11.416  -1.647  1.00  0.00    -0.387 OA
ATOM     19  H   UNL     1      45.570  11.561  -1.313  1.00  0.00     0.211 HD
ENDBRANCH  14  18
BRANCH  15  20
ATOM     20  O   UNL     1      48.880  11.596  -3.214  1.00  0.00    -0.385 OA
ATOM     21  H   UNL     1      48.663  12.455  -2.766  1.00  0.00     0.211 HD
ENDBRANCH  15  20
ENDBRANCH   8   9
ENDBRANCH   7   8
ENDBRANCH   1   7
BRANCH   2  22
ATOM     22  O   UNL     1      51.655  15.545  -5.049  1.00  0.00    -0.387 OA
ATOM     23  H   UNL     1      51.460  16.272  -4.411  1.00  0.00     0.211 HD
ENDBRANCH   2  22
BRANCH   3  24
ATOM     24  O   UNL     1      49.954  17.368  -6.840  1.00  0.00    -0.387 OA
ATOM     25  H   UNL     1      49.696  18.295  -6.609  1.00  0.00     0.211 HD
ENDBRANCH   3  24
BRANCH   5  26
ATOM     26  O   UNL     1      46.922  15.966  -3.699  1.00  0.00    -0.462 OA
BRANCH  26  27
ATOM     27  C   UNL     1      45.612  16.419  -3.858  1.00  0.00     0.130 A 
ATOM     28  C   UNL     1      44.676  16.102  -2.872  1.00  0.00     0.093 A 
ATOM     29  C   UNL     1      45.225  17.187  -4.978  1.00  0.00     0.094 A 
ATOM     30  C   UNL     1      43.326  16.446  -3.034  1.00  0.00     0.133 A 
ATOM     31  C   UNL     1      43.884  17.547  -5.137  1.00  0.00     0.138 A 
ATOM     32  C   UNL     1      42.914  17.097  -4.228  1.00  0.00     0.102 A 
ATOM     33  O   UNL     1      43.533  18.342  -6.223  1.00  0.00    -0.484 OA
ATOM     34  C   UNL     1      41.498  17.300  -4.595  1.00  0.00     0.174 C 
ATOM     35  C   UNL     1      42.199  18.768  -6.572  1.00  0.00     0.211 C 
ATOM     36  O   UNL     1      40.609  16.534  -4.127  1.00  0.00    -0.294 OA
ATOM     37  C   UNL     1      41.099  18.385  -5.544  1.00  0.00     0.131 C 
BRANCH  30  38
ATOM     38  O   UNL     1      42.449  16.166  -1.989  1.00  0.00    -0.507 OA
ATOM     39  H   UNL     1      41.475  16.444  -1.981  1.00  0.00     0.293 HD
ENDBRANCH  30  38
BRANCH  35  40
ATOM     40  C   UNL     1      42.214  20.262  -6.784  1.00  0.00    -0.003 A 
ATOM     41  C   UNL     1      43.443  20.945  -6.817  1.00  0.00     0.057 A 
ATOM     42  C   UNL     1      41.025  21.002  -6.905  1.00  0.00     0.011 A 
ATOM     43  C   UNL     1      43.486  22.329  -6.922  1.00  0.00     0.158 A 
ATOM     44  C   UNL     1      41.059  22.387  -7.029  1.00  0.00     0.051 A 
ATOM     45  C   UNL     1      42.296  23.074  -7.029  1.00  0.00     0.160 A 
BRANCH  43  46
ATOM     46  O   UNL     1      44.734  22.953  -6.941  1.00  0.00    -0.504 OA
ATOM     47  H   UNL     1      45.465  22.669  -7.579  1.00  0.00     0.293 HD
ENDBRANCH  43  46
BRANCH  45  48
ATOM     48  O   UNL     1      42.375  24.478  -7.124  1.00  0.00    -0.493 OA
ATOM     49  C   UNL     1      41.549  25.393  -6.396  1.00  0.00     0.278 C 
ENDBRANCH  45  48
ENDBRANCH  35  40
ENDBRANCH  26  27
ENDBRANCH   5  26
BRANCH   4  50
ATOM     50  O   UNL     1      47.851  15.579  -7.123  1.00  0.00    -0.384 OA
ATOM     51  H   UNL     1      48.712  15.580  -7.617  1.00  0.00     0.211 HD
ENDBRANCH   4  50
TORSDOF 15
ENDMDL
MODEL 3
REMARK VINA RESULT:    -4.247      2.450      8.768
REMARK INTER + INTRA:          -8.683
REMARK INTER:                  -8.069
REMARK INTRA:                  -0.614
REMARK UNBOUND:                -1.705
REMARK SMILES COc1ccc([C@@H]2CC(=O)c3c(O)cc(O[C@@H]4O[C@@H](CO[C@@H]5O[C@H](C)[C@H](O)[C@@H](O)[C@@H]5O)[C@H](O)[C@@H](O)[C@H]4O)cc3O2)cc1O
REMARK SMILES IDX 19 1 32 2 34 3 36 4 17 5 18 6 20 7 21 8 22 9 25 10 24 11
REMARK SMILES IDX 26 12 23 13 28 14 30 15 27 16 29 18 31 20 33 22 35 24 16 26
REMARK SMILES IDX 15 27 14 28 38 29 12 30 39 31 11 32 40 33 9 34 7 35 10 36
REMARK SMILES IDX 8 37 13 38 6 40 41 41 5 42 42 43 4 44 3 45 43 46 2 48 1 49
REMARK SMILES IDX 37 50
REMARK H PARENT 27 17 29 19 31 21 33 23 35 25 13 39 43 47 37 51
REMARK Flexibility Score: inf
ROOT
ATOM      1  C   UNL     1      47.129  12.985  -6.785  1.00  0.00     0.180 C 
ATOM      2  C   UNL     1      46.188  11.914  -6.156  1.00  0.00     0.177 C 
ATOM      3  C   UNL     1      45.821  12.252  -4.679  1.00  0.00     0.180 C 
ATOM      4  C   UNL     1      46.990  12.956  -3.973  1.00  0.00     0.214 C 
ATOM      5  C   UNL     1      47.418  14.236  -4.774  1.00  0.00     0.339 C 
ATOM      6  O   UNL     1      46.976  14.250  -6.133  1.00  0.00    -0.332 OA
ENDROOT
BRANCH   1   7
ATOM      7  C   UNL     1      48.611  12.535  -6.890  1.00  0.00     0.198 C 
BRANCH   7   8
ATOM      8  O   UNL     1      49.477  13.655  -6.731  1.00  0.00    -0.347 OA
BRANCH   8   9
ATOM      9  C   UNL     1      50.395  13.474  -5.652  1.00  0.00     0.281 C 
ATOM     10  C   UNL     1      49.905  16.480  -6.308  1.00  0.00     0.041 C 
ATOM     11  C   UNL     1      50.867  15.812  -5.315  1.00  0.00     0.150 C 
ATOM     12  C   UNL     1      52.315  15.648  -5.835  1.00  0.00     0.174 C 
ATOM     13  O   UNL     1      50.329  14.602  -4.777  1.00  0.00    -0.344 OA
ATOM     14  C   UNL     1      52.430  14.461  -6.806  1.00  0.00     0.179 C 
ATOM     15  C   UNL     1      51.853  13.210  -6.142  1.00  0.00     0.202 C 
BRANCH  12  16
ATOM     16  O   UNL     1      52.810  16.843  -6.395  1.00  0.00    -0.388 OA
ATOM     17  H   UNL     1      53.612  17.114  -5.876  1.00  0.00     0.211 HD
ENDBRANCH  12  16
BRANCH  14  18
ATOM     18  O   UNL     1      53.792  14.262  -7.124  1.00  0.00    -0.387 OA
ATOM     19  H   UNL     1      53.818  13.769  -7.982  1.00  0.00     0.211 HD
ENDBRANCH  14  18
BRANCH  15  20
ATOM     20  O   UNL     1      51.880  12.132  -7.033  1.00  0.00    -0.385 OA
ATOM     21  H   UNL     1      51.395  11.389  -6.587  1.00  0.00     0.211 HD
ENDBRANCH  15  20
ENDBRANCH   8   9
ENDBRANCH   7   8
ENDBRANCH   1   7
BRANCH   2  22
ATOM     22  O   UNL     1      45.013  11.827  -6.920  1.00  0.00    -0.387 OA
ATOM     23  H   UNL     1      44.532  12.679  -6.793  1.00  0.00     0.211 HD
ENDBRANCH   2  22
BRANCH   3  24
ATOM     24  O   UNL     1      45.464  11.091  -3.974  1.00  0.00    -0.387 OA
ATOM     25  H   UNL     1      46.299  10.687  -3.631  1.00  0.00     0.211 HD
ENDBRANCH   3  24
BRANCH   5  26
ATOM     26  O   UNL     1      46.935  15.431  -4.141  1.00  0.00    -0.462 OA
BRANCH  26  27
ATOM     27  C   UNL     1      45.631  15.910  -4.255  1.00  0.00     0.130 A 
ATOM     28  C   UNL     1      44.700  15.544  -3.280  1.00  0.00     0.093 A 
ATOM     29  C   UNL     1      45.243  16.754  -5.319  1.00  0.00     0.094 A 
ATOM     30  C   UNL     1      43.354  15.916  -3.405  1.00  0.00     0.133 A 
ATOM     31  C   UNL     1      43.905  17.141  -5.440  1.00  0.00     0.138 A 
ATOM     32  C   UNL     1      42.938  16.647  -4.550  1.00  0.00     0.102 A 
ATOM     33  O   UNL     1      43.554  18.008  -6.469  1.00  0.00    -0.484 OA
ATOM     34  C   UNL     1      41.522  16.892  -4.888  1.00  0.00     0.174 C 
ATOM     35  C   UNL     1      42.222  18.473  -6.776  1.00  0.00     0.211 C 
ATOM     36  O   UNL     1      40.627  16.110  -4.458  1.00  0.00    -0.294 OA
ATOM     37  C   UNL     1      41.128  18.041  -5.761  1.00  0.00     0.131 C 
BRANCH  30  38
ATOM     38  O   UNL     1      42.485  15.582  -2.369  1.00  0.00    -0.507 OA
ATOM     39  H   UNL     1      42.779  15.135  -1.509  1.00  0.00     0.293 HD
ENDBRANCH  30  38
BRANCH  35  40
ATOM     40  C   UNL     1      42.256  19.978  -6.892  1.00  0.00    -0.003 A 
ATOM     41  C   UNL     1      43.495  20.642  -6.925  1.00  0.00     0.057 A 
ATOM     42  C   UNL     1      41.077  20.741  -6.926  1.00  0.00     0.011 A 
ATOM     43  C   UNL     1      43.558  22.029  -6.943  1.00  0.00     0.158 A 
ATOM     44  C   UNL     1      41.131  22.131  -6.963  1.00  0.00     0.051 A 
ATOM     45  C   UNL     1      42.379  22.798  -6.962  1.00  0.00     0.160 A 
BRANCH  43  46
ATOM     46  O   UNL     1      44.816  22.634  -6.966  1.00  0.00    -0.504 OA
ATOM     47  H   UNL     1      45.067  23.372  -6.322  1.00  0.00     0.293 HD
ENDBRANCH  43  46
BRANCH  45  48
ATOM     48  O   UNL     1      42.479  24.203  -6.970  1.00  0.00    -0.493 OA
ATOM     49  C   UNL     1      41.530  25.092  -6.372  1.00  0.00     0.278 C 
ENDBRANCH  45  48
ENDBRANCH  35  40
ENDBRANCH  26  27
ENDBRANCH   5  26
BRANCH   4  50
ATOM     50  O   UNL     1      48.063  12.057  -3.850  1.00  0.00    -0.384 OA
ATOM     51  H   UNL     1      48.058  11.720  -2.916  1.00  0.00     0.211 HD
ENDBRANCH   4  50
TORSDOF 15
ENDMDL
MODEL 4
REMARK VINA RESULT:    -3.735      1.714      4.071
REMARK INTER + INTRA:          -7.842
REMARK INTER:                  -7.269
REMARK INTRA:                  -0.573
REMARK UNBOUND:                -1.705
REMARK SMILES COc1ccc([C@@H]2CC(=O)c3c(O)cc(O[C@@H]4O[C@@H](CO[C@@H]5O[C@H](C)[C@H](O)[C@@H](O)[C@@H]5O)[C@H](O)[C@@H](O)[C@H]4O)cc3O2)cc1O
REMARK SMILES IDX 19 1 32 2 34 3 36 4 17 5 18 6 20 7 21 8 22 9 25 10 24 11
REMARK SMILES IDX 26 12 23 13 28 14 30 15 27 16 29 18 31 20 33 22 35 24 16 26
REMARK SMILES IDX 15 27 14 28 38 29 12 30 39 31 11 32 40 33 9 34 7 35 10 36
REMARK SMILES IDX 8 37 13 38 6 40 41 41 5 42 42 43 4 44 3 45 43 46 2 48 1 49
REMARK SMILES IDX 37 50
REMARK H PARENT 27 17 29 19 31 21 33 23 35 25 13 39 43 47 37 51
REMARK Flexibility Score: inf
ROOT
ATOM      1  C   UNL     1      40.945  19.507  -6.430  1.00  0.00     0.180 C 
ATOM      2  C   UNL     1      42.004  20.604  -6.113  1.00  0.00     0.177 C 
ATOM      3  C   UNL     1      43.443  20.014  -6.000  1.00  0.00     0.180 C 
ATOM      4  C   UNL     1      43.407  18.594  -5.414  1.00  0.00     0.214 C 
ATOM      5  C   UNL     1      42.466  17.675  -6.271  1.00  0.00     0.339 C 
ATOM      6  O   UNL     1      41.545  18.391  -7.097  1.00  0.00    -0.332 OA
ENDROOT
BRANCH   1   7
ATOM      7  C   UNL     1      40.087  19.089  -5.207  1.00  0.00     0.198 C 
BRANCH   7   8
ATOM      8  O   UNL     1      40.513  19.792  -4.043  1.00  0.00    -0.347 OA
BRANCH   8   9
ATOM      9  C   UNL     1      39.875  19.309  -2.860  1.00  0.00     0.281 C 
ATOM     10  C   UNL     1      42.025  21.480  -2.253  1.00  0.00     0.041 C 
ATOM     11  C   UNL     1      41.172  20.620  -1.310  1.00  0.00     0.150 C 
ATOM     12  C   UNL     1      41.888  19.361  -0.764  1.00  0.00     0.174 C 
ATOM     13  O   UNL     1      39.884  20.332  -1.863  1.00  0.00    -0.344 OA
ATOM     14  C   UNL     1      41.928  18.241  -1.816  1.00  0.00     0.179 C 
ATOM     15  C   UNL     1      40.512  17.985  -2.334  1.00  0.00     0.202 C 
BRANCH  12  16
ATOM     16  O   UNL     1      43.169  19.664  -0.260  1.00  0.00    -0.388 OA
ATOM     17  H   UNL     1      43.271  19.198   0.611  1.00  0.00     0.211 HD
ENDBRANCH  12  16
BRANCH  14  18
ATOM     18  O   UNL     1      42.447  17.071  -1.217  1.00  0.00    -0.387 OA
ATOM     19  H   UNL     1      42.875  17.348  -0.368  1.00  0.00     0.211 HD
ENDBRANCH  14  18
BRANCH  15  20
ATOM     20  O   UNL     1      40.533  17.018  -3.345  1.00  0.00    -0.385 OA
ATOM     21  H   UNL     1      40.343  17.498  -4.193  1.00  0.00     0.211 HD
ENDBRANCH  15  20
ENDBRANCH   8   9
ENDBRANCH   7   8
ENDBRANCH   1   7
BRANCH   2  22
ATOM     22  O   UNL     1      41.978  21.577  -7.124  1.00  0.00    -0.387 OA
ATOM     23  H   UNL     1      42.913  21.851  -7.275  1.00  0.00     0.211 HD
ENDBRANCH   2  22
BRANCH   3  24
ATOM     24  O   UNL     1      44.262  20.838  -5.211  1.00  0.00    -0.387 OA
ATOM     25  H   UNL     1      43.801  21.709  -5.119  1.00  0.00     0.211 HD
ENDBRANCH   3  24
BRANCH   5  26
ATOM     26  O   UNL     1      43.226  16.798  -7.115  1.00  0.00    -0.462 OA
BRANCH  26  27
ATOM     27  C   UNL     1      44.013  15.744  -6.651  1.00  0.00     0.130 A 
ATOM     28  C   UNL     1      43.524  14.442  -6.781  1.00  0.00     0.093 A 
ATOM     29  C   UNL     1      45.279  15.967  -6.067  1.00  0.00     0.094 A 
ATOM     30  C   UNL     1      44.230  13.358  -6.239  1.00  0.00     0.133 A 
ATOM     31  C   UNL     1      45.995  14.888  -5.539  1.00  0.00     0.138 A 
ATOM     32  C   UNL     1      45.437  13.600  -5.529  1.00  0.00     0.102 A 
ATOM     33  O   UNL     1      47.259  15.124  -5.010  1.00  0.00    -0.484 OA
ATOM     34  C   UNL     1      46.133  12.568  -4.735  1.00  0.00     0.174 C 
ATOM     35  C   UNL     1      48.116  14.147  -4.381  1.00  0.00     0.211 C 
ATOM     36  O   UNL     1      45.487  11.584  -4.276  1.00  0.00    -0.294 OA
ATOM     37  C   UNL     1      47.593  12.686  -4.435  1.00  0.00     0.131 C 
BRANCH  30  38
ATOM     38  O   UNL     1      43.730  12.077  -6.459  1.00  0.00    -0.507 OA
ATOM     39  H   UNL     1      43.937  11.526  -7.284  1.00  0.00     0.293 HD
ENDBRANCH  30  38
BRANCH  35  40
ATOM     40  C   UNL     1      49.484  14.233  -5.016  1.00  0.00    -0.003 A 
ATOM     41  C   UNL     1      50.059  15.493  -5.255  1.00  0.00     0.057 A 
ATOM     42  C   UNL     1      50.183  13.082  -5.418  1.00  0.00     0.011 A 
ATOM     43  C   UNL     1      51.275  15.607  -5.916  1.00  0.00     0.158 A 
ATOM     44  C   UNL     1      51.410  13.186  -6.064  1.00  0.00     0.051 A 
ATOM     45  C   UNL     1      51.971  14.457  -6.333  1.00  0.00     0.160 A 
BRANCH  43  46
ATOM     46  O   UNL     1      51.794  16.884  -6.133  1.00  0.00    -0.504 OA
ATOM     47  H   UNL     1      51.355  17.712  -5.753  1.00  0.00     0.293 HD
ENDBRANCH  43  46
BRANCH  45  48
ATOM     48  O   UNL     1      53.198  14.608  -7.010  1.00  0.00    -0.493 OA
ATOM     49  C   UNL     1      54.307  13.709  -6.899  1.00  0.00     0.278 C 
ENDBRANCH  45  48
ENDBRANCH  35  40
ENDBRANCH  26  27
ENDBRANCH   5  26
BRANCH   4  50
ATOM     50  O   UNL     1      42.971  18.657  -4.080  1.00  0.00    -0.384 OA
ATOM     51  H   UNL     1      43.367  17.881  -3.604  1.00  0.00     0.211 HD
ENDBRANCH   4  50
TORSDOF 15
ENDMDL
MODEL 5
REMARK VINA RESULT:    -3.728      2.007      8.333
REMARK INTER + INTRA:          -7.830
REMARK INTER:                  -6.539
REMARK INTRA:                  -1.291
REMARK UNBOUND:                -1.705
REMARK SMILES COc1ccc([C@@H]2CC(=O)c3c(O)cc(O[C@@H]4O[C@@H](CO[C@@H]5O[C@H](C)[C@H](O)[C@@H](O)[C@@H]5O)[C@H](O)[C@@H](O)[C@H]4O)cc3O2)cc1O
REMARK SMILES IDX 19 1 32 2 34 3 36 4 17 5 18 6 20 7 21 8 22 9 25 10 24 11
REMARK SMILES IDX 26 12 23 13 28 14 30 15 27 16 29 18 31 20 33 22 35 24 16 26
REMARK SMILES IDX 15 27 14 28 38 29 12 30 39 31 11 32 40 33 9 34 7 35 10 36
REMARK SMILES IDX 8 37 13 38 6 40 41 41 5 42 42 43 4 44 3 45 43 46 2 48 1 49
REMARK SMILES IDX 37 50
REMARK H PARENT 27 17 29 19 31 21 33 23 35 25 13 39 43 47 37 51
REMARK Flexibility Score: inf
ROOT
ATOM      1  C   UNL     1      49.312  15.202  -5.016  1.00  0.00     0.180 C 
ATOM      2  C   UNL     1      50.596  14.811  -5.806  1.00  0.00     0.177 C 
ATOM      3  C   UNL     1      50.326  13.668  -6.833  1.00  0.00     0.180 C 
ATOM      4  C   UNL     1      49.260  12.698  -6.302  1.00  0.00     0.214 C 
ATOM      5  C   UNL     1      47.947  13.478  -5.940  1.00  0.00     0.339 C 
ATOM      6  O   UNL     1      48.132  14.884  -5.761  1.00  0.00    -0.332 OA
ENDROOT
BRANCH   1   7
ATOM      7  C   UNL     1      49.277  14.653  -3.565  1.00  0.00     0.198 C 
BRANCH   7   8
ATOM      8  O   UNL     1      48.317  13.606  -3.458  1.00  0.00    -0.347 OA
BRANCH   8   9
ATOM      9  C   UNL     1      47.569  13.684  -2.244  1.00  0.00     0.281 C 
ATOM     10  C   UNL     1      47.381  10.875  -3.579  1.00  0.00     0.041 C 
ATOM     11  C   UNL     1      46.679  11.448  -2.339  1.00  0.00     0.150 C 
ATOM     12  C   UNL     1      45.246  11.974  -2.599  1.00  0.00     0.174 C 
ATOM     13  O   UNL     1      47.499  12.390  -1.643  1.00  0.00    -0.344 OA
ATOM     14  C   UNL     1      45.271  13.355  -3.272  1.00  0.00     0.179 C 
ATOM     15  C   UNL     1      46.151  14.300  -2.452  1.00  0.00     0.202 C 
BRANCH  12  16
ATOM     16  O   UNL     1      44.469  11.044  -3.319  1.00  0.00    -0.388 OA
ATOM     17  H   UNL     1      45.084  10.365  -3.702  1.00  0.00     0.211 HD
ENDBRANCH  12  16
BRANCH  14  18
ATOM     18  O   UNL     1      43.951  13.853  -3.342  1.00  0.00    -0.387 OA
ATOM     19  H   UNL     1      43.513  13.629  -2.482  1.00  0.00     0.211 HD
ENDBRANCH  14  18
BRANCH  15  20
ATOM     20  O   UNL     1      46.247  15.545  -3.084  1.00  0.00    -0.385 OA
ATOM     21  H   UNL     1      46.058  15.384  -4.046  1.00  0.00     0.211 HD
ENDBRANCH  15  20
ENDBRANCH   8   9
ENDBRANCH   7   8
ENDBRANCH   1   7
BRANCH   2  22
ATOM     22  O   UNL     1      51.082  15.941  -6.485  1.00  0.00    -0.387 OA
ATOM     23  H   UNL     1      51.042  15.729  -7.447  1.00  0.00     0.211 HD
ENDBRANCH   2  22
BRANCH   3  24
ATOM     24  O   UNL     1      51.509  12.969  -7.125  1.00  0.00    -0.387 OA
ATOM     25  H   UNL     1      51.682  12.355  -6.369  1.00  0.00     0.211 HD
ENDBRANCH   3  24
BRANCH   5  26
ATOM     26  O   UNL     1      46.939  13.291  -6.945  1.00  0.00    -0.462 OA
BRANCH  26  27
ATOM     27  C   UNL     1      45.568  13.401  -6.715  1.00  0.00     0.130 A 
ATOM     28  C   UNL     1      44.821  12.230  -6.574  1.00  0.00     0.093 A 
ATOM     29  C   UNL     1      44.933  14.659  -6.617  1.00  0.00     0.094 A 
ATOM     30  C   UNL     1      43.426  12.285  -6.443  1.00  0.00     0.133 A 
ATOM     31  C   UNL     1      43.544  14.721  -6.470  1.00  0.00     0.138 A 
ATOM     32  C   UNL     1      42.774  13.547  -6.484  1.00  0.00     0.102 A 
ATOM     33  O   UNL     1      42.944  15.968  -6.330  1.00  0.00    -0.484 OA
ATOM     34  C   UNL     1      41.309  13.702  -6.581  1.00  0.00     0.174 C 
ATOM     35  C   UNL     1      41.529  16.226  -6.218  1.00  0.00     0.211 C 
ATOM     36  O   UNL     1      40.608  12.775  -7.079  1.00  0.00    -0.294 OA
ATOM     37  C   UNL     1      40.638  14.958  -6.124  1.00  0.00     0.131 C 
BRANCH  30  38
ATOM     38  O   UNL     1      42.740  11.091  -6.236  1.00  0.00    -0.507 OA
ATOM     39  H   UNL     1      43.196  10.200  -6.076  1.00  0.00     0.293 HD
ENDBRANCH  30  38
BRANCH  35  40
ATOM     40  C   UNL     1      41.298  17.113  -5.018  1.00  0.00    -0.003 A 
ATOM     41  C   UNL     1      41.793  16.721  -3.762  1.00  0.00     0.057 A 
ATOM     42  C   UNL     1      40.560  18.305  -5.114  1.00  0.00     0.011 A 
ATOM     43  C   UNL     1      41.521  17.471  -2.625  1.00  0.00     0.158 A 
ATOM     44  C   UNL     1      40.299  19.072  -3.983  1.00  0.00     0.051 A 
ATOM     45  C   UNL     1      40.770  18.658  -2.714  1.00  0.00     0.160 A 
BRANCH  43  46
ATOM     46  O   UNL     1      42.032  17.028  -1.403  1.00  0.00    -0.504 OA
ATOM     47  H   UNL     1      41.435  16.655  -0.678  1.00  0.00     0.293 HD
ENDBRANCH  43  46
BRANCH  45  48
ATOM     48  O   UNL     1      40.505  19.389  -1.540  1.00  0.00    -0.493 OA
ATOM     49  C   UNL     1      41.313  20.464  -1.048  1.00  0.00     0.278 C 
ENDBRANCH  45  48
ENDBRANCH  35  40
ENDBRANCH  26  27
ENDBRANCH   5  26
BRANCH   4  50
ATOM     50  O   UNL     1      49.769  12.022  -5.181  1.00  0.00    -0.384 OA
ATOM     51  H   UNL     1      50.537  11.475  -5.491  1.00  0.00     0.211 HD
ENDBRANCH   4  50
TORSDOF 15
ENDMDL
MODEL 6
REMARK VINA RESULT:    -3.581      2.066      3.921
REMARK INTER + INTRA:          -7.588
REMARK INTER:                  -6.815
REMARK INTRA:                  -0.773
REMARK UNBOUND:                -1.705
REMARK SMILES COc1ccc([C@@H]2CC(=O)c3c(O)cc(O[C@@H]4O[C@@H](CO[C@@H]5O[C@H](C)[C@H](O)[C@@H](O)[C@@H]5O)[C@H](O)[C@@H](O)[C@H]4O)cc3O2)cc1O
REMARK SMILES IDX 19 1 32 2 34 3 36 4 17 5 18 6 20 7 21 8 22 9 25 10 24 11
REMARK SMILES IDX 26 12 23 13 28 14 30 15 27 16 29 18 31 20 33 22 35 24 16 26
REMARK SMILES IDX 15 27 14 28 38 29 12 30 39 31 11 32 40 33 9 34 7 35 10 36
REMARK SMILES IDX 8 37 13 38 6 40 41 41 5 42 42 43 4 44 3 45 43 46 2 48 1 49
REMARK SMILES IDX 37 50
REMARK H PARENT 27 17 29 19 31 21 33 23 35 25 13 39 43 47 37 51
REMARK Flexibility Score: inf
ROOT
ATOM      1  C   UNL     1      41.336  20.608  -5.922  1.00  0.00     0.180 C 
ATOM      2  C   UNL     1      42.330  21.793  -6.104  1.00  0.00     0.177 C 
ATOM      3  C   UNL     1      43.767  21.303  -6.459  1.00  0.00     0.180 C 
ATOM      4  C   UNL     1      44.073  19.964  -5.772  1.00  0.00     0.214 C 
ATOM      5  C   UNL     1      42.984  18.897  -6.148  1.00  0.00     0.339 C 
ATOM      6  O   UNL     1      41.769  19.456  -6.653  1.00  0.00    -0.332 OA
ENDROOT
BRANCH   1   7
ATOM      7  C   UNL     1      41.001  20.291  -4.440  1.00  0.00     0.198 C 
BRANCH   7   8
ATOM      8  O   UNL     1      41.269  18.921  -4.156  1.00  0.00    -0.347 OA
BRANCH   8   9
ATOM      9  C   UNL     1      40.072  18.178  -3.921  1.00  0.00     0.281 C 
ATOM     10  C   UNL     1      42.438  17.223  -2.134  1.00  0.00     0.041 C 
ATOM     11  C   UNL     1      41.016  16.669  -2.298  1.00  0.00     0.150 C 
ATOM     12  C   UNL     1      40.902  15.470  -3.271  1.00  0.00     0.174 C 
ATOM     13  O   UNL     1      40.065  17.700  -2.574  1.00  0.00    -0.344 OA
ATOM     14  C   UNL     1      40.934  15.933  -4.736  1.00  0.00     0.179 C 
ATOM     15  C   UNL     1      39.875  17.017  -4.945  1.00  0.00     0.202 C 
BRANCH  12  16
ATOM     16  O   UNL     1      41.873  14.484  -3.004  1.00  0.00    -0.388 OA
ATOM     17  H   UNL     1      41.619  14.027  -2.159  1.00  0.00     0.211 HD
ENDBRANCH  12  16
BRANCH  14  18
ATOM     18  O   UNL     1      40.671  14.825  -5.572  1.00  0.00    -0.387 OA
ATOM     19  H   UNL     1      41.116  14.042  -5.161  1.00  0.00     0.211 HD
ENDBRANCH  14  18
BRANCH  15  20
ATOM     20  O   UNL     1      39.934  17.507  -6.255  1.00  0.00    -0.385 OA
ATOM     21  H   UNL     1      40.050  16.715  -6.843  1.00  0.00     0.211 HD
ENDBRANCH  15  20
ENDBRANCH   8   9
ENDBRANCH   7   8
ENDBRANCH   1   7
BRANCH   2  22
ATOM     22  O   UNL     1      41.860  22.636  -7.125  1.00  0.00    -0.387 OA
ATOM     23  H   UNL     1      42.456  22.498  -7.899  1.00  0.00     0.211 HD
ENDBRANCH   2  22
BRANCH   3  24
ATOM     24  O   UNL     1      44.727  22.260  -6.093  1.00  0.00    -0.387 OA
ATOM     25  H   UNL     1      44.931  22.121  -5.135  1.00  0.00     0.211 HD
ENDBRANCH   3  24
BRANCH   5  26
ATOM     26  O   UNL     1      43.482  17.969  -7.124  1.00  0.00    -0.462 OA
BRANCH  26  27
ATOM     27  C   UNL     1      44.227  16.830  -6.820  1.00  0.00     0.130 A 
ATOM     28  C   UNL     1      43.677  15.580  -7.108  1.00  0.00     0.093 A 
ATOM     29  C   UNL     1      45.512  16.919  -6.241  1.00  0.00     0.094 A 
ATOM     30  C   UNL     1      44.341  14.404  -6.728  1.00  0.00     0.133 A 
ATOM     31  C   UNL     1      46.186  15.751  -5.875  1.00  0.00     0.138 A 
ATOM     32  C   UNL     1      45.569  14.498  -6.021  1.00  0.00     0.102 A 
ATOM     33  O   UNL     1      47.469  15.859  -5.349  1.00  0.00    -0.484 OA
ATOM     34  C   UNL     1      46.231  13.342  -5.385  1.00  0.00     0.174 C 
ATOM     35  C   UNL     1      48.291  14.772  -4.873  1.00  0.00     0.211 C 
ATOM     36  O   UNL     1      45.548  12.334  -5.044  1.00  0.00    -0.294 OA
ATOM     37  C   UNL     1      47.700  13.355  -5.106  1.00  0.00     0.131 C 
BRANCH  30  38
ATOM     38  O   UNL     1      43.779  13.186  -7.102  1.00  0.00    -0.507 OA
ATOM     39  H   UNL     1      43.085  12.693  -6.552  1.00  0.00     0.293 HD
ENDBRANCH  30  38
BRANCH  35  40
ATOM     40  C   UNL     1      49.649  14.881  -5.523  1.00  0.00    -0.003 A 
ATOM     41  C   UNL     1      50.373  13.711  -5.815  1.00  0.00     0.057 A 
ATOM     42  C   UNL     1      50.234  16.127  -5.804  1.00  0.00     0.011 A 
ATOM     43  C   UNL     1      51.660  13.781  -6.331  1.00  0.00     0.158 A 
ATOM     44  C   UNL     1      51.516  16.206  -6.339  1.00  0.00     0.051 A 
ATOM     45  C   UNL     1      52.255  15.028  -6.601  1.00  0.00     0.160 A 
BRANCH  43  46
ATOM     46  O   UNL     1      52.334  12.587  -6.594  1.00  0.00    -0.504 OA
ATOM     47  H   UNL     1      53.098  12.538  -7.254  1.00  0.00     0.293 HD
ENDBRANCH  43  46
BRANCH  45  48
ATOM     48  O   UNL     1      53.566  15.064  -7.115  1.00  0.00    -0.493 OA
ATOM     49  C   UNL     1      54.541  14.032  -6.935  1.00  0.00     0.278 C 
ENDBRANCH  45  48
ENDBRANCH  35  40
ENDBRANCH  26  27
ENDBRANCH   5  26
BRANCH   4  50
ATOM     50  O   UNL     1      44.125  20.161  -4.381  1.00  0.00    -0.384 OA
ATOM     51  H   UNL     1      43.518  19.493  -3.967  1.00  0.00     0.211 HD
ENDBRANCH   4  50
TORSDOF 15
ENDMDL
MODEL 7
REMARK VINA RESULT:    -2.834      2.516      8.515
REMARK INTER + INTRA:          -6.361
REMARK INTER:                  -5.223
REMARK INTRA:                  -1.138
REMARK UNBOUND:                -1.705
REMARK SMILES COc1ccc([C@@H]2CC(=O)c3c(O)cc(O[C@@H]4O[C@@H](CO[C@@H]5O[C@H](C)[C@H](O)[C@@H](O)[C@@H]5O)[C@H](O)[C@@H](O)[C@H]4O)cc3O2)cc1O
REMARK SMILES IDX 19 1 32 2 34 3 36 4 17 5 18 6 20 7 21 8 22 9 25 10 24 11
REMARK SMILES IDX 26 12 23 13 28 14 30 15 27 16 29 18 31 20 33 22 35 24 16 26
REMARK SMILES IDX 15 27 14 28 38 29 12 30 39 31 11 32 40 33 9 34 7 35 10 36
REMARK SMILES IDX 8 37 13 38 6 40 41 41 5 42 42 43 4 44 3 45 43 46 2 48 1 49
REMARK SMILES IDX 37 50
REMARK H PARENT 27 17 29 19 31 21 33 23 35 25 13 39 43 47 37 51
REMARK Flexibility Score: inf
ROOT
ATOM      1  C   UNL     1      47.037  15.004  -4.394  1.00  0.00     0.180 C 
ATOM      2  C   UNL     1      47.001  16.288  -5.275  1.00  0.00     0.177 C 
ATOM      3  C   UNL     1      45.565  16.599  -5.797  1.00  0.00     0.180 C 
ATOM      4  C   UNL     1      44.785  15.301  -6.057  1.00  0.00     0.214 C 
ATOM      5  C   UNL     1      44.754  14.416  -4.761  1.00  0.00     0.339 C 
ATOM      6  O   UNL     1      45.760  14.751  -3.801  1.00  0.00    -0.332 OA
ENDROOT
BRANCH   1   7
ATOM      7  C   UNL     1      47.625  13.763  -5.117  1.00  0.00     0.198 C 
BRANCH   7   8
ATOM      8  O   UNL     1      49.038  13.891  -5.245  1.00  0.00    -0.347 OA
BRANCH   8   9
ATOM      9  C   UNL     1      49.440  14.063  -6.604  1.00  0.00     0.281 C 
ATOM     10  C   UNL     1      51.094  11.865  -5.141  1.00  0.00     0.041 C 
ATOM     11  C   UNL     1      51.233  12.455  -6.552  1.00  0.00     0.150 C 
ATOM     12  C   UNL     1      52.303  13.566  -6.681  1.00  0.00     0.174 C 
ATOM     13  O   UNL     1      49.969  12.833  -7.104  1.00  0.00    -0.344 OA
ATOM     14  C   UNL     1      51.788  14.904  -6.129  1.00  0.00     0.179 C 
ATOM     15  C   UNL     1      50.449  15.239  -6.787  1.00  0.00     0.202 C 
BRANCH  12  16
ATOM     16  O   UNL     1      53.528  13.185  -6.097  1.00  0.00    -0.388 OA
ATOM     17  H   UNL     1      53.868  13.956  -5.573  1.00  0.00     0.211 HD
ENDBRANCH  12  16
BRANCH  14  18
ATOM     18  O   UNL     1      52.737  15.911  -6.413  1.00  0.00    -0.387 OA
ATOM     19  H   UNL     1      52.273  16.780  -6.317  1.00  0.00     0.211 HD
ENDBRANCH  14  18
BRANCH  15  20
ATOM     20  O   UNL     1      49.925  16.419  -6.247  1.00  0.00    -0.385 OA
ATOM     21  H   UNL     1      49.825  16.259  -5.272  1.00  0.00     0.211 HD
ENDBRANCH  15  20
ENDBRANCH   8   9
ENDBRANCH   7   8
ENDBRANCH   1   7
BRANCH   2  22
ATOM     22  O   UNL     1      47.468  17.377  -4.522  1.00  0.00    -0.387 OA
ATOM     23  H   UNL     1      47.477  17.085  -3.581  1.00  0.00     0.211 HD
ENDBRANCH   2  22
BRANCH   3  24
ATOM     24  O   UNL     1      45.615  17.371  -6.969  1.00  0.00    -0.387 OA
ATOM     25  H   UNL     1      45.835  16.760  -7.715  1.00  0.00     0.211 HD
ENDBRANCH   3  24
BRANCH   5  26
ATOM     26  O   UNL     1      43.478  14.495  -4.108  1.00  0.00    -0.462 OA
BRANCH  26  27
ATOM     27  C   UNL     1      42.878  15.684  -3.692  1.00  0.00     0.130 A 
ATOM     28  C   UNL     1      42.785  15.937  -2.322  1.00  0.00     0.093 A 
ATOM     29  C   UNL     1      42.379  16.625  -4.619  1.00  0.00     0.094 A 
ATOM     30  C   UNL     1      42.101  17.067  -1.851  1.00  0.00     0.133 A 
ATOM     31  C   UNL     1      41.711  17.762  -4.156  1.00  0.00     0.138 A 
ATOM     32  C   UNL     1      41.478  17.941  -2.783  1.00  0.00     0.102 A 
ATOM     33  O   UNL     1      41.267  18.698  -5.084  1.00  0.00    -0.484 OA
ATOM     34  C   UNL     1      40.554  19.023  -2.389  1.00  0.00     0.174 C 
ATOM     35  C   UNL     1      40.520  19.898  -4.794  1.00  0.00     0.211 C 
ATOM     36  O   UNL     1      39.924  18.948  -1.296  1.00  0.00    -0.294 OA
ATOM     37  C   UNL     1      40.325  20.199  -3.284  1.00  0.00     0.131 C 
BRANCH  30  38
ATOM     38  O   UNL     1      42.099  17.306  -0.479  1.00  0.00    -0.507 OA
ATOM     39  H   UNL     1      41.855  16.607   0.214  1.00  0.00     0.293 HD
ENDBRANCH  30  38
BRANCH  35  40
ATOM     40  C   UNL     1      41.205  21.062  -5.471  1.00  0.00    -0.003 A 
ATOM     41  C   UNL     1      42.609  21.094  -5.539  1.00  0.00     0.057 A 
ATOM     42  C   UNL     1      40.475  22.140  -5.999  1.00  0.00     0.011 A 
ATOM     43  C   UNL     1      43.269  22.192  -6.076  1.00  0.00     0.158 A 
ATOM     44  C   UNL     1      41.129  23.235  -6.556  1.00  0.00     0.051 A 
ATOM     45  C   UNL     1      42.542  23.281  -6.593  1.00  0.00     0.160 A 
BRANCH  43  46
ATOM     46  O   UNL     1      44.665  22.173  -6.110  1.00  0.00    -0.504 OA
ATOM     47  H   UNL     1      45.178  21.502  -6.666  1.00  0.00     0.293 HD
ENDBRANCH  43  46
BRANCH  45  48
ATOM     48  O   UNL     1      43.244  24.382  -7.122  1.00  0.00    -0.493 OA
ATOM     49  C   UNL     1      43.010  25.748  -6.763  1.00  0.00     0.278 C 
ENDBRANCH  45  48
ENDBRANCH  35  40
ENDBRANCH  26  27
ENDBRANCH   5  26
BRANCH   4  50
ATOM     50  O   UNL     1      45.382  14.610  -7.124  1.00  0.00    -0.384 OA
ATOM     51  H   UNL     1      44.992  14.970  -7.963  1.00  0.00     0.211 HD
ENDBRANCH   4  50
TORSDOF 15
ENDMDL
MODEL 8
REMARK VINA RESULT:    -2.688      2.137      8.393
REMARK INTER + INTRA:          -6.121
REMARK INTER:                  -8.723
REMARK INTRA:                   2.601
REMARK UNBOUND:                -1.705
REMARK SMILES COc1ccc([C@@H]2CC(=O)c3c(O)cc(O[C@@H]4O[C@@H](CO[C@@H]5O[C@H](C)[C@H](O)[C@@H](O)[C@@H]5O)[C@H](O)[C@@H](O)[C@H]4O)cc3O2)cc1O
REMARK SMILES IDX 19 1 32 2 34 3 36 4 17 5 18 6 20 7 21 8 22 9 25 10 24 11
REMARK SMILES IDX 26 12 23 13 28 14 30 15 27 16 29 18 31 20 33 22 35 24 16 26
REMARK SMILES IDX 15 27 14 28 38 29 12 30 39 31 11 32 40 33 9 34 7 35 10 36
REMARK SMILES IDX 8 37 13 38 6 40 41 41 5 42 42 43 4 44 3 45 43 46 2 48 1 49
REMARK SMILES IDX 37 50
REMARK H PARENT 27 17 29 19 31 21 33 23 35 25 13 39 43 47 37 51
REMARK Flexibility Score: inf
ROOT
ATOM      1  C   UNL     1      48.398  14.712  -4.126  1.00  0.00     0.180 C 
ATOM      2  C   UNL     1      47.590  15.749  -4.962  1.00  0.00     0.177 C 
ATOM      3  C   UNL     1      46.401  15.088  -5.724  1.00  0.00     0.180 C 
ATOM      4  C   UNL     1      46.757  13.658  -6.157  1.00  0.00     0.214 C 
ATOM      5  C   UNL     1      47.197  12.807  -4.914  1.00  0.00     0.339 C 
ATOM      6  O   UNL     1      47.585  13.585  -3.780  1.00  0.00    -0.332 OA
ENDROOT
BRANCH   1   7
ATOM      7  C   UNL     1      49.751  14.306  -4.768  1.00  0.00     0.198 C 
BRANCH   7   8
ATOM      8  O   UNL     1      50.394  15.449  -5.325  1.00  0.00    -0.347 OA
BRANCH   8   9
ATOM      9  C   UNL     1      50.660  15.288  -6.719  1.00  0.00     0.281 C 
ATOM     10  C   UNL     1      51.240  12.697  -5.089  1.00  0.00     0.041 C 
ATOM     11  C   UNL     1      51.468  13.023  -6.572  1.00  0.00     0.150 C 
ATOM     12  C   UNL     1      52.912  13.461  -6.919  1.00  0.00     0.174 C 
ATOM     13  O   UNL     1      50.478  13.918  -7.084  1.00  0.00    -0.344 OA
ATOM     14  C   UNL     1      53.165  14.923  -6.517  1.00  0.00     0.179 C 
ATOM     15  C   UNL     1      52.075  15.808  -7.124  1.00  0.00     0.202 C 
BRANCH  12  16
ATOM     16  O   UNL     1      53.871  12.585  -6.371  1.00  0.00    -0.388 OA
ATOM     17  H   UNL     1      54.753  13.042  -6.402  1.00  0.00     0.211 HD
ENDBRANCH  12  16
BRANCH  14  18
ATOM     18  O   UNL     1      54.435  15.315  -6.995  1.00  0.00    -0.387 OA
ATOM     19  H   UNL     1      54.353  16.256  -7.291  1.00  0.00     0.211 HD
ENDBRANCH  14  18
BRANCH  15  20
ATOM     20  O   UNL     1      52.243  17.135  -6.712  1.00  0.00    -0.385 OA
ATOM     21  H   UNL     1      52.476  17.652  -7.527  1.00  0.00     0.211 HD
ENDBRANCH  15  20
ENDBRANCH   8   9
ENDBRANCH   7   8
ENDBRANCH   1   7
BRANCH   2  22
ATOM     22  O   UNL     1      47.097  16.747  -4.106  1.00  0.00    -0.387 OA
ATOM     23  H   UNL     1      47.691  17.527  -4.212  1.00  0.00     0.211 HD
ENDBRANCH   2  22
BRANCH   3  24
ATOM     24  O   UNL     1      46.038  15.853  -6.844  1.00  0.00    -0.387 OA
ATOM     25  H   UNL     1      46.821  15.878  -7.449  1.00  0.00     0.211 HD
ENDBRANCH   3  24
BRANCH   5  26
ATOM     26  O   UNL     1      46.151  11.915  -4.499  1.00  0.00    -0.462 OA
BRANCH  26  27
ATOM     27  C   UNL     1      44.856  12.317  -4.174  1.00  0.00     0.130 A 
ATOM     28  C   UNL     1      44.052  11.441  -3.442  1.00  0.00     0.093 A 
ATOM     29  C   UNL     1      44.354  13.579  -4.560  1.00  0.00     0.094 A 
ATOM     30  C   UNL     1      42.711  11.755  -3.178  1.00  0.00     0.133 A 
ATOM     31  C   UNL     1      43.023  13.905  -4.285  1.00  0.00     0.138 A 
ATOM     32  C   UNL     1      42.168  12.966  -3.689  1.00  0.00     0.102 A 
ATOM     33  O   UNL     1      42.562  15.171  -4.634  1.00  0.00    -0.484 OA
ATOM     34  C   UNL     1      40.727  13.284  -3.662  1.00  0.00     0.174 C 
ATOM     35  C   UNL     1      41.214  15.662  -4.473  1.00  0.00     0.211 C 
ATOM     36  O   UNL     1      39.875  12.351  -3.613  1.00  0.00    -0.294 OA
ATOM     37  C   UNL     1      40.252  14.701  -3.724  1.00  0.00     0.131 C 
BRANCH  30  38
ATOM     38  O   UNL     1      41.976  10.876  -2.386  1.00  0.00    -0.507 OA
ATOM     39  H   UNL     1      41.812   9.906  -2.625  1.00  0.00     0.293 HD
ENDBRANCH  30  38
BRANCH  35  40
ATOM     40  C   UNL     1      41.273  16.995  -3.766  1.00  0.00    -0.003 A 
ATOM     41  C   UNL     1      41.640  17.043  -2.409  1.00  0.00     0.057 A 
ATOM     42  C   UNL     1      40.926  18.190  -4.417  1.00  0.00     0.011 A 
ATOM     43  C   UNL     1      41.617  18.242  -1.708  1.00  0.00     0.158 A 
ATOM     44  C   UNL     1      40.919  19.399  -3.727  1.00  0.00     0.051 A 
ATOM     45  C   UNL     1      41.257  19.440  -2.353  1.00  0.00     0.160 A 
BRANCH  43  46
ATOM     46  O   UNL     1      41.983  18.228  -0.361  1.00  0.00    -0.504 OA
ATOM     47  H   UNL     1      41.421  18.673   0.351  1.00  0.00     0.293 HD
ENDBRANCH  43  46
BRANCH  45  48
ATOM     48  O   UNL     1      41.235  20.637  -1.611  1.00  0.00    -0.493 OA
ATOM     49  C   UNL     1      40.362  20.896  -0.506  1.00  0.00     0.278 C 
ENDBRANCH  45  48
ENDBRANCH  35  40
ENDBRANCH  26  27
ENDBRANCH   5  26
BRANCH   4  50
ATOM     50  O   UNL     1      47.779  13.709  -7.120  1.00  0.00    -0.384 OA
ATOM     51  H   UNL     1      48.407  14.427  -6.844  1.00  0.00     0.211 HD
ENDBRANCH   4  50
TORSDOF 15
ENDMDL
