MODEL 1
REMARK VINA RESULT:    -7.034      0.000      0.000
REMARK INTER + INTRA:          -8.759
REMARK INTER:                  -8.473
REMARK INTRA:                  -0.286
REMARK UNBOUND:                -0.286
REMARK SMILES O=c1c(O)c(-c2ccc(O)c(O)c2)oc2cc(O)cc(O)c12
REMARK SMILES IDX 5 1 3 2 2 3 1 4 22 5 20 6 19 7 17 8 16 9 15 10 14 11 6 12
REMARK SMILES IDX 7 13 8 14 9 15 13 16 11 17 10 18 12 20 4 22 21 24 18 26
REMARK H PARENT 10 19 12 21 4 23 21 25 18 27
REMARK Flexibility Score: inf
ROOT
ATOM      1  C   UNL     1      -5.702 -32.741 -49.753  1.00  0.00     0.180 A 
ATOM      2  C   UNL     1      -4.576 -31.909 -49.623  1.00  0.00     0.208 A 
ATOM      3  C   UNL     1      -3.311 -32.420 -49.954  1.00  0.00     0.238 A 
ATOM      4  O   UNL     1      -2.314 -31.655 -49.888  1.00  0.00    -0.285 OA
ATOM      5  C   UNL     1      -3.186 -33.760 -50.396  1.00  0.00     0.111 A 
ATOM      6  C   UNL     1      -1.949 -34.394 -50.720  1.00  0.00     0.134 A 
ATOM      7  C   UNL     1      -1.956 -35.682 -51.271  1.00  0.00     0.093 A 
ATOM      8  C   UNL     1      -3.152 -36.382 -51.448  1.00  0.00     0.123 A 
ATOM      9  C   UNL     1      -4.359 -35.794 -51.079  1.00  0.00     0.094 A 
ATOM     10  C   UNL     1      -4.387 -34.497 -50.560  1.00  0.00     0.146 A 
ATOM     11  O   UNL     1      -5.561 -33.971 -50.232  1.00  0.00    -0.452 OA
ENDROOT
BRANCH   1  12
ATOM     12  C   UNL     1      -7.065 -32.282 -49.399  1.00  0.00     0.025 A 
ATOM     13  C   UNL     1      -7.807 -31.457 -50.262  1.00  0.00     0.016 A 
ATOM     14  C   UNL     1      -9.082 -31.017 -49.897  1.00  0.00     0.051 A 
ATOM     15  C   UNL     1      -9.629 -31.381 -48.659  1.00  0.00     0.157 A 
ATOM     16  C   UNL     1      -7.609 -32.628 -48.151  1.00  0.00     0.062 A 
ATOM     17  C   UNL     1      -8.886 -32.188 -47.781  1.00  0.00     0.158 A 
BRANCH  15  18
ATOM     18  O   UNL     1     -10.901 -30.942 -48.299  1.00  0.00    -0.504 OA
ATOM     19  H   UNL     1     -11.081 -29.975 -48.056  1.00  0.00     0.293 HD
ENDBRANCH  15  18
BRANCH  17  20
ATOM     20  O   UNL     1      -9.398 -32.564 -46.540  1.00  0.00    -0.504 OA
ATOM     21  H   UNL     1     -10.204 -33.171 -46.452  1.00  0.00     0.293 HD
ENDBRANCH  17  20
ENDBRANCH   1  12
BRANCH   2  22
ATOM     22  O   UNL     1      -4.725 -30.584 -49.207  1.00  0.00    -0.502 OA
ATOM     23  H   UNL     1      -5.557 -30.252 -48.733  1.00  0.00     0.293 HD
ENDBRANCH   2  22
BRANCH   6  24
ATOM     24  O   UNL     1      -0.695 -33.818 -50.496  1.00  0.00    -0.507 OA
ATOM     25  H   UNL     1      -0.260 -33.721 -49.591  1.00  0.00     0.293 HD
ENDBRANCH   6  24
BRANCH   8  26
ATOM     26  O   UNL     1      -3.148 -37.669 -51.982  1.00  0.00    -0.508 OA
ATOM     27  H   UNL     1      -3.337 -38.482 -51.408  1.00  0.00     0.293 HD
ENDBRANCH   8  26
TORSDOF 6
ENDMDL
MODEL 2
REMARK VINA RESULT:    -6.912      1.854      7.248
REMARK INTER + INTRA:          -8.613
REMARK INTER:                  -8.416
REMARK INTRA:                  -0.197
REMARK UNBOUND:                -0.286
REMARK SMILES O=c1c(O)c(-c2ccc(O)c(O)c2)oc2cc(O)cc(O)c12
REMARK SMILES IDX 5 1 3 2 2 3 1 4 22 5 20 6 19 7 17 8 16 9 15 10 14 11 6 12
REMARK SMILES IDX 7 13 8 14 9 15 13 16 11 17 10 18 12 20 4 22 21 24 18 26
REMARK H PARENT 10 19 12 21 4 23 21 25 18 27
REMARK Flexibility Score: inf
ROOT
ATOM      1  C   UNL     1      -5.589 -34.163 -50.076  1.00  0.00     0.180 A 
ATOM      2  C   UNL     1      -6.618 -34.582 -50.938  1.00  0.00     0.208 A 
ATOM      3  C   UNL     1      -7.856 -33.923 -50.891  1.00  0.00     0.238 A 
ATOM      4  O   UNL     1      -8.755 -34.266 -51.703  1.00  0.00    -0.285 OA
ATOM      5  C   UNL     1      -8.056 -32.864 -49.972  1.00  0.00     0.111 A 
ATOM      6  C   UNL     1      -9.283 -32.153 -49.810  1.00  0.00     0.134 A 
ATOM      7  C   UNL     1      -9.328 -31.038 -48.963  1.00  0.00     0.093 A 
ATOM      8  C   UNL     1      -8.209 -30.650 -48.223  1.00  0.00     0.123 A 
ATOM      9  C   UNL     1      -7.024 -31.374 -48.329  1.00  0.00     0.094 A 
ATOM     10  C   UNL     1      -6.937 -32.469 -49.193  1.00  0.00     0.146 A 
ATOM     11  O   UNL     1      -5.786 -33.125 -49.272  1.00  0.00    -0.452 OA
ENDROOT
BRANCH   1  12
ATOM     12  C   UNL     1      -4.265 -34.825 -50.050  1.00  0.00     0.025 A 
ATOM     13  C   UNL     1      -4.122 -36.160 -49.636  1.00  0.00     0.016 A 
ATOM     14  C   UNL     1      -2.859 -36.757 -49.596  1.00  0.00     0.051 A 
ATOM     15  C   UNL     1      -1.719 -36.026 -49.956  1.00  0.00     0.157 A 
ATOM     16  C   UNL     1      -3.117 -34.090 -50.391  1.00  0.00     0.062 A 
ATOM     17  C   UNL     1      -1.850 -34.684 -50.353  1.00  0.00     0.158 A 
BRANCH  15  18
ATOM     18  O   UNL     1      -0.461 -36.625 -49.919  1.00  0.00    -0.504 OA
ATOM     19  H   UNL     1       0.005 -36.825 -49.042  1.00  0.00     0.293 HD
ENDBRANCH  15  18
BRANCH  17  20
ATOM     20  O   UNL     1      -0.736 -33.926 -50.711  1.00  0.00    -0.504 OA
ATOM     21  H   UNL     1      -0.820 -33.054 -51.220  1.00  0.00     0.293 HD
ENDBRANCH  17  20
ENDBRANCH   1  12
BRANCH   2  22
ATOM     22  O   UNL     1      -6.392 -35.614 -51.853  1.00  0.00    -0.502 OA
ATOM     23  H   UNL     1      -7.141 -36.055 -52.372  1.00  0.00     0.293 HD
ENDBRANCH   2  22
BRANCH   6  24
ATOM     24  O   UNL     1     -10.482 -32.513 -50.432  1.00  0.00    -0.507 OA
ATOM     25  H   UNL     1     -10.556 -32.881 -51.369  1.00  0.00     0.293 HD
ENDBRANCH   6  24
BRANCH   8  26
ATOM     26  O   UNL     1      -8.268 -29.549 -47.371  1.00  0.00    -0.508 OA
ATOM     27  H   UNL     1      -9.151 -29.131 -47.105  1.00  0.00     0.293 HD
ENDBRANCH   8  26
TORSDOF 6
ENDMDL
MODEL 3
REMARK VINA RESULT:    -6.907      1.477      1.661
REMARK INTER + INTRA:          -8.606
REMARK INTER:                  -8.416
REMARK INTRA:                  -0.190
REMARK UNBOUND:                -0.286
REMARK SMILES O=c1c(O)c(-c2ccc(O)c(O)c2)oc2cc(O)cc(O)c12
REMARK SMILES IDX 5 1 3 2 2 3 1 4 22 5 20 6 19 7 17 8 16 9 15 10 14 11 6 12
REMARK SMILES IDX 7 13 8 14 9 15 13 16 11 17 10 18 12 20 4 22 21 24 18 26
REMARK H PARENT 10 19 12 21 4 23 21 25 18 27
REMARK Flexibility Score: inf
ROOT
ATOM      1  C   UNL     1      -5.996 -32.366 -49.688  1.00  0.00     0.180 A 
ATOM      2  C   UNL     1      -4.961 -31.628 -50.288  1.00  0.00     0.208 A 
ATOM      3  C   UNL     1      -3.723 -32.251 -50.513  1.00  0.00     0.238 A 
ATOM      4  O   UNL     1      -2.818 -31.603 -51.100  1.00  0.00    -0.285 OA
ATOM      5  C   UNL     1      -3.531 -33.599 -50.120  1.00  0.00     0.111 A 
ATOM      6  C   UNL     1      -2.306 -34.316 -50.262  1.00  0.00     0.134 A 
ATOM      7  C   UNL     1      -2.268 -35.684 -49.959  1.00  0.00     0.093 A 
ATOM      8  C   UNL     1      -3.393 -36.342 -49.457  1.00  0.00     0.123 A 
ATOM      9  C   UNL     1      -4.577 -35.635 -49.259  1.00  0.00     0.094 A 
ATOM     10  C   UNL     1      -4.656 -34.279 -49.586  1.00  0.00     0.146 A 
ATOM     11  O   UNL     1      -5.806 -33.646 -49.391  1.00  0.00    -0.452 OA
ENDROOT
BRANCH   1  12
ATOM     12  C   UNL     1      -7.321 -31.770 -49.396  1.00  0.00     0.025 A 
ATOM     13  C   UNL     1      -7.464 -30.722 -48.471  1.00  0.00     0.016 A 
ATOM     14  C   UNL     1      -8.727 -30.192 -48.194  1.00  0.00     0.051 A 
ATOM     15  C   UNL     1      -9.866 -30.709 -48.825  1.00  0.00     0.157 A 
ATOM     16  C   UNL     1      -8.467 -32.299 -50.011  1.00  0.00     0.062 A 
ATOM     17  C   UNL     1      -9.734 -31.771 -49.736  1.00  0.00     0.158 A 
BRANCH  15  18
ATOM     18  O   UNL     1     -11.124 -30.177 -48.549  1.00  0.00    -0.504 OA
ATOM     19  H   UNL     1     -11.764 -30.632 -47.910  1.00  0.00     0.293 HD
ENDBRANCH  15  18
BRANCH  17  20
ATOM     20  O   UNL     1     -10.848 -32.313 -50.377  1.00  0.00    -0.504 OA
ATOM     21  H   UNL     1     -10.926 -33.304 -50.571  1.00  0.00     0.293 HD
ENDBRANCH  17  20
ENDBRANCH   1  12
BRANCH   2  22
ATOM     22  O   UNL     1      -5.179 -30.308 -50.689  1.00  0.00    -0.502 OA
ATOM     23  H   UNL     1      -6.082 -29.978 -51.008  1.00  0.00     0.293 HD
ENDBRANCH   2  22
BRANCH   6  24
ATOM     24  O   UNL     1      -1.102 -33.734 -50.668  1.00  0.00    -0.507 OA
ATOM     25  H   UNL     1      -0.965 -33.244 -51.540  1.00  0.00     0.293 HD
ENDBRANCH   6  24
BRANCH   8  26
ATOM     26  O   UNL     1      -3.341 -37.698 -49.144  1.00  0.00    -0.508 OA
ATOM     27  H   UNL     1      -2.749 -38.049 -48.401  1.00  0.00     0.293 HD
ENDBRANCH   8  26
TORSDOF 6
ENDMDL
MODEL 4
REMARK VINA RESULT:    -6.877      2.933      4.750
REMARK INTER + INTRA:          -8.570
REMARK INTER:                  -8.246
REMARK INTRA:                  -0.324
REMARK UNBOUND:                -0.286
REMARK SMILES O=c1c(O)c(-c2ccc(O)c(O)c2)oc2cc(O)cc(O)c12
REMARK SMILES IDX 5 1 3 2 2 3 1 4 22 5 20 6 19 7 17 8 16 9 15 10 14 11 6 12
REMARK SMILES IDX 7 13 8 14 9 15 13 16 11 17 10 18 12 20 4 22 21 24 18 26
REMARK H PARENT 10 19 12 21 4 23 21 25 18 27
REMARK Flexibility Score: inf
ROOT
ATOM      1  C   UNL     1      -5.227 -31.510 -49.927  1.00  0.00     0.180 A 
ATOM      2  C   UNL     1      -3.977 -31.462 -49.287  1.00  0.00     0.208 A 
ATOM      3  C   UNL     1      -3.032 -30.514 -49.711  1.00  0.00     0.238 A 
ATOM      4  O   UNL     1      -1.934 -30.439 -49.098  1.00  0.00    -0.285 OA
ATOM      5  C   UNL     1      -3.343 -29.637 -50.778  1.00  0.00     0.111 A 
ATOM      6  C   UNL     1      -2.446 -28.665 -51.315  1.00  0.00     0.134 A 
ATOM      7  C   UNL     1      -2.905 -27.763 -52.284  1.00  0.00     0.093 A 
ATOM      8  C   UNL     1      -4.208 -27.841 -52.781  1.00  0.00     0.123 A 
ATOM      9  C   UNL     1      -5.072 -28.825 -52.305  1.00  0.00     0.094 A 
ATOM     10  C   UNL     1      -4.655 -29.716 -51.313  1.00  0.00     0.146 A 
ATOM     11  O   UNL     1      -5.513 -30.631 -50.881  1.00  0.00    -0.452 OA
ENDROOT
BRANCH   1  12
ATOM     12  C   UNL     1      -6.266 -32.498 -49.554  1.00  0.00     0.025 A 
ATOM     13  C   UNL     1      -6.387 -33.723 -50.232  1.00  0.00     0.016 A 
ATOM     14  C   UNL     1      -7.390 -34.630 -49.878  1.00  0.00     0.051 A 
ATOM     15  C   UNL     1      -8.294 -34.321 -48.853  1.00  0.00     0.157 A 
ATOM     16  C   UNL     1      -7.186 -32.184 -48.541  1.00  0.00     0.062 A 
ATOM     17  C   UNL     1      -8.192 -33.090 -48.183  1.00  0.00     0.158 A 
BRANCH  15  18
ATOM     18  O   UNL     1      -9.291 -35.229 -48.500  1.00  0.00    -0.504 OA
ATOM     19  H   UNL     1      -9.069 -36.163 -48.177  1.00  0.00     0.293 HD
ENDBRANCH  15  18
BRANCH  17  20
ATOM     20  O   UNL     1      -9.079 -32.749 -47.162  1.00  0.00    -0.504 OA
ATOM     21  H   UNL     1      -8.772 -32.285 -46.316  1.00  0.00     0.293 HD
ENDBRANCH  17  20
ENDBRANCH   1  12
BRANCH   2  22
ATOM     22  O   UNL     1      -3.699 -32.321 -48.221  1.00  0.00    -0.502 OA
ATOM     23  H   UNL     1      -3.419 -31.983 -47.308  1.00  0.00     0.293 HD
ENDBRANCH   2  22
BRANCH   6  24
ATOM     24  O   UNL     1      -1.100 -28.562 -50.955  1.00  0.00    -0.507 OA
ATOM     25  H   UNL     1      -0.729 -28.791 -50.045  1.00  0.00     0.293 HD
ENDBRANCH   6  24
BRANCH   8  26
ATOM     26  O   UNL     1      -4.651 -26.950 -53.756  1.00  0.00    -0.508 OA
ATOM     27  H   UNL     1      -4.682 -25.952 -53.587  1.00  0.00     0.293 HD
ENDBRANCH   8  26
TORSDOF 6
ENDMDL
MODEL 5
REMARK VINA RESULT:    -6.766      3.739      6.049
REMARK INTER + INTRA:          -8.436
REMARK INTER:                  -8.105
REMARK INTRA:                  -0.331
REMARK UNBOUND:                -0.286
REMARK SMILES O=c1c(O)c(-c2ccc(O)c(O)c2)oc2cc(O)cc(O)c12
REMARK SMILES IDX 5 1 3 2 2 3 1 4 22 5 20 6 19 7 17 8 16 9 15 10 14 11 6 12
REMARK SMILES IDX 7 13 8 14 9 15 13 16 11 17 10 18 12 20 4 22 21 24 18 26
REMARK H PARENT 10 19 12 21 4 23 21 25 18 27
REMARK Flexibility Score: inf
ROOT
ATOM      1  C   UNL     1      -6.680 -34.780 -50.586  1.00  0.00     0.180 A 
ATOM      2  C   UNL     1      -7.925 -35.042 -49.987  1.00  0.00     0.208 A 
ATOM      3  C   UNL     1      -8.898 -35.741 -50.719  1.00  0.00     0.238 A 
ATOM      4  O   UNL     1      -9.990 -36.021 -50.159  1.00  0.00    -0.285 OA
ATOM      5  C   UNL     1      -8.620 -36.156 -52.044  1.00  0.00     0.111 A 
ATOM      6  C   UNL     1      -9.546 -36.836 -52.891  1.00  0.00     0.134 A 
ATOM      7  C   UNL     1      -9.119 -37.314 -54.137  1.00  0.00     0.093 A 
ATOM      8  C   UNL     1      -7.820 -37.079 -54.592  1.00  0.00     0.123 A 
ATOM      9  C   UNL     1      -6.927 -36.365 -53.797  1.00  0.00     0.094 A 
ATOM     10  C   UNL     1      -7.312 -35.906 -52.535  1.00  0.00     0.146 A 
ATOM     11  O   UNL     1      -6.426 -35.239 -51.805  1.00  0.00    -0.452 OA
ENDROOT
BRANCH   1  12
ATOM     12  C   UNL     1      -5.613 -34.026 -49.887  1.00  0.00     0.025 A 
ATOM     13  C   UNL     1      -5.523 -32.627 -49.984  1.00  0.00     0.016 A 
ATOM     14  C   UNL     1      -4.494 -31.939 -49.335  1.00  0.00     0.051 A 
ATOM     15  C   UNL     1      -3.533 -32.638 -48.593  1.00  0.00     0.157 A 
ATOM     16  C   UNL     1      -4.636 -34.724 -49.158  1.00  0.00     0.062 A 
ATOM     17  C   UNL     1      -3.604 -34.039 -48.507  1.00  0.00     0.158 A 
BRANCH  15  18
ATOM     18  O   UNL     1      -2.509 -31.949 -47.945  1.00  0.00    -0.504 OA
ATOM     19  H   UNL     1      -2.704 -31.197 -47.295  1.00  0.00     0.293 HD
ENDBRANCH  15  18
BRANCH  17  20
ATOM     20  O   UNL     1      -2.661 -34.766 -47.782  1.00  0.00    -0.504 OA
ATOM     21  H   UNL     1      -1.896 -34.317 -47.293  1.00  0.00     0.293 HD
ENDBRANCH  17  20
ENDBRANCH   1  12
BRANCH   2  22
ATOM     22  O   UNL     1      -8.170 -34.643 -48.671  1.00  0.00    -0.502 OA
ATOM     23  H   UNL     1      -7.817 -35.157 -47.872  1.00  0.00     0.293 HD
ENDBRANCH   2  22
BRANCH   6  24
ATOM     24  O   UNL     1     -10.891 -37.042 -52.571  1.00  0.00    -0.507 OA
ATOM     25  H   UNL     1     -11.596 -37.352 -53.223  1.00  0.00     0.293 HD
ENDBRANCH   6  24
BRANCH   8  26
ATOM     26  O   UNL     1      -7.409 -37.544 -55.840  1.00  0.00    -0.508 OA
ATOM     27  H   UNL     1      -7.989 -37.436 -56.663  1.00  0.00     0.293 HD
ENDBRANCH   8  26
TORSDOF 6
ENDMDL
MODEL 6
REMARK VINA RESULT:    -6.658      2.513      6.030
REMARK INTER + INTRA:          -8.306
REMARK INTER:                  -7.988
REMARK INTRA:                  -0.318
REMARK UNBOUND:                -0.286
REMARK SMILES O=c1c(O)c(-c2ccc(O)c(O)c2)oc2cc(O)cc(O)c12
REMARK SMILES IDX 5 1 3 2 2 3 1 4 22 5 20 6 19 7 17 8 16 9 15 10 14 11 6 12
REMARK SMILES IDX 7 13 8 14 9 15 13 16 11 17 10 18 12 20 4 22 21 24 18 26
REMARK H PARENT 10 19 12 21 4 23 21 25 18 27
REMARK Flexibility Score: inf
ROOT
ATOM      1  C   UNL     1      -5.391 -34.689 -49.872  1.00  0.00     0.180 A 
ATOM      2  C   UNL     1      -6.372 -34.068 -49.080  1.00  0.00     0.208 A 
ATOM      3  C   UNL     1      -6.353 -32.671 -48.944  1.00  0.00     0.238 A 
ATOM      4  O   UNL     1      -7.266 -32.116 -48.279  1.00  0.00    -0.285 OA
ATOM      5  C   UNL     1      -5.343 -31.914 -49.588  1.00  0.00     0.111 A 
ATOM      6  C   UNL     1      -5.204 -30.498 -49.485  1.00  0.00     0.134 A 
ATOM      7  C   UNL     1      -4.248 -29.840 -50.270  1.00  0.00     0.093 A 
ATOM      8  C   UNL     1      -3.383 -30.555 -51.102  1.00  0.00     0.123 A 
ATOM      9  C   UNL     1      -3.473 -31.944 -51.163  1.00  0.00     0.094 A 
ATOM     10  C   UNL     1      -4.440 -32.625 -50.420  1.00  0.00     0.146 A 
ATOM     11  O   UNL     1      -4.498 -33.947 -50.516  1.00  0.00    -0.452 OA
ENDROOT
BRANCH   1  12
ATOM     12  C   UNL     1      -5.331 -36.159 -50.043  1.00  0.00     0.025 A 
ATOM     13  C   UNL     1      -6.092 -36.813 -51.027  1.00  0.00     0.016 A 
ATOM     14  C   UNL     1      -6.037 -38.204 -51.154  1.00  0.00     0.051 A 
ATOM     15  C   UNL     1      -5.235 -38.963 -50.292  1.00  0.00     0.157 A 
ATOM     16  C   UNL     1      -4.544 -36.926 -49.168  1.00  0.00     0.062 A 
ATOM     17  C   UNL     1      -4.487 -38.319 -49.292  1.00  0.00     0.158 A 
BRANCH  15  18
ATOM     18  O   UNL     1      -5.181 -40.349 -50.423  1.00  0.00    -0.504 OA
ATOM     19  H   UNL     1      -4.308 -40.832 -50.603  1.00  0.00     0.293 HD
ENDBRANCH  15  18
BRANCH  17  20
ATOM     20  O   UNL     1      -3.683 -39.045 -48.414  1.00  0.00    -0.504 OA
ATOM     21  H   UNL     1      -2.941 -39.651 -48.741  1.00  0.00     0.293 HD
ENDBRANCH  17  20
ENDBRANCH   1  12
BRANCH   2  22
ATOM     22  O   UNL     1      -7.372 -34.832 -48.472  1.00  0.00    -0.502 OA
ATOM     23  H   UNL     1      -8.001 -35.425 -49.001  1.00  0.00     0.293 HD
ENDBRANCH   2  22
BRANCH   6  24
ATOM     24  O   UNL     1      -5.955 -29.700 -48.617  1.00  0.00    -0.507 OA
ATOM     25  H   UNL     1      -5.564 -29.087 -47.917  1.00  0.00     0.293 HD
ENDBRANCH   6  24
BRANCH   8  26
ATOM     26  O   UNL     1      -2.424 -29.893 -51.866  1.00  0.00    -0.508 OA
ATOM     27  H   UNL     1      -1.434 -29.996 -51.680  1.00  0.00     0.293 HD
ENDBRANCH   8  26
TORSDOF 6
ENDMDL
MODEL 7
REMARK VINA RESULT:    -6.579      3.057      4.060
REMARK INTER + INTRA:          -8.211
REMARK INTER:                  -7.892
REMARK INTRA:                  -0.319
REMARK UNBOUND:                -0.286
REMARK SMILES O=c1c(O)c(-c2ccc(O)c(O)c2)oc2cc(O)cc(O)c12
REMARK SMILES IDX 5 1 3 2 2 3 1 4 22 5 20 6 19 7 17 8 16 9 15 10 14 11 6 12
REMARK SMILES IDX 7 13 8 14 9 15 13 16 11 17 10 18 12 20 4 22 21 24 18 26
REMARK H PARENT 10 19 12 21 4 23 21 25 18 27
REMARK Flexibility Score: inf
ROOT
ATOM      1  C   UNL     1      -6.316 -31.928 -49.300  1.00  0.00     0.180 A 
ATOM      2  C   UNL     1      -5.277 -32.753 -48.834  1.00  0.00     0.208 A 
ATOM      3  C   UNL     1      -5.266 -34.107 -49.204  1.00  0.00     0.238 A 
ATOM      4  O   UNL     1      -4.305 -34.828 -48.829  1.00  0.00    -0.285 OA
ATOM      5  C   UNL     1      -6.302 -34.623 -50.021  1.00  0.00     0.111 A 
ATOM      6  C   UNL     1      -6.412 -35.988 -50.423  1.00  0.00     0.134 A 
ATOM      7  C   UNL     1      -7.406 -36.360 -51.338  1.00  0.00     0.093 A 
ATOM      8  C   UNL     1      -8.332 -35.428 -51.814  1.00  0.00     0.123 A 
ATOM      9  C   UNL     1      -8.268 -34.106 -51.381  1.00  0.00     0.094 A 
ATOM     10  C   UNL     1      -7.267 -33.697 -50.496  1.00  0.00     0.146 A 
ATOM     11  O   UNL     1      -7.236 -32.426 -50.117  1.00  0.00    -0.452 OA
ENDROOT
BRANCH   1  12
ATOM     12  C   UNL     1      -6.409 -30.496 -48.932  1.00  0.00     0.025 A 
ATOM     13  C   UNL     1      -5.726 -29.507 -49.661  1.00  0.00     0.016 A 
ATOM     14  C   UNL     1      -5.810 -28.165 -49.281  1.00  0.00     0.051 A 
ATOM     15  C   UNL     1      -6.565 -27.792 -48.161  1.00  0.00     0.157 A 
ATOM     16  C   UNL     1      -7.148 -30.120 -47.798  1.00  0.00     0.062 A 
ATOM     17  C   UNL     1      -7.235 -28.776 -47.415  1.00  0.00     0.158 A 
BRANCH  15  18
ATOM     18  O   UNL     1      -6.649 -26.452 -47.787  1.00  0.00    -0.504 OA
ATOM     19  H   UNL     1      -7.017 -26.175 -46.884  1.00  0.00     0.293 HD
ENDBRANCH  15  18
BRANCH  17  20
ATOM     20  O   UNL     1      -7.989 -28.440 -46.291  1.00  0.00    -0.504 OA
ATOM     21  H   UNL     1      -7.814 -28.852 -45.383  1.00  0.00     0.293 HD
ENDBRANCH  17  20
ENDBRANCH   1  12
BRANCH   2  22
ATOM     22  O   UNL     1      -4.253 -32.218 -48.048  1.00  0.00    -0.502 OA
ATOM     23  H   UNL     1      -4.272 -32.249 -47.036  1.00  0.00     0.293 HD
ENDBRANCH   2  22
BRANCH   6  24
ATOM     24  O   UNL     1      -5.597 -37.013 -49.936  1.00  0.00    -0.507 OA
ATOM     25  H   UNL     1      -5.095 -37.672 -50.514  1.00  0.00     0.293 HD
ENDBRANCH   6  24
BRANCH   8  26
ATOM     26  O   UNL     1      -9.326 -35.811 -52.712  1.00  0.00    -0.508 OA
ATOM     27  H   UNL     1      -9.147 -35.867 -53.708  1.00  0.00     0.293 HD
ENDBRANCH   8  26
TORSDOF 6
ENDMDL
MODEL 8
REMARK VINA RESULT:    -6.545      4.008      5.438
REMARK INTER + INTRA:          -8.170
REMARK INTER:                  -7.841
REMARK INTRA:                  -0.329
REMARK UNBOUND:                -0.286
REMARK SMILES O=c1c(O)c(-c2ccc(O)c(O)c2)oc2cc(O)cc(O)c12
REMARK SMILES IDX 5 1 3 2 2 3 1 4 22 5 20 6 19 7 17 8 16 9 15 10 14 11 6 12
REMARK SMILES IDX 7 13 8 14 9 15 13 16 11 17 10 18 12 20 4 22 21 24 18 26
REMARK H PARENT 10 19 12 21 4 23 21 25 18 27
REMARK Flexibility Score: inf
ROOT
ATOM      1  C   UNL     1      -7.452 -35.258 -51.246  1.00  0.00     0.180 A 
ATOM      2  C   UNL     1      -7.900 -34.518 -50.137  1.00  0.00     0.208 A 
ATOM      3  C   UNL     1      -6.967 -33.789 -49.384  1.00  0.00     0.238 A 
ATOM      4  O   UNL     1      -7.381 -33.085 -48.426  1.00  0.00    -0.285 OA
ATOM      5  C   UNL     1      -5.596 -33.821 -49.738  1.00  0.00     0.111 A 
ATOM      6  C   UNL     1      -4.559 -33.153 -49.021  1.00  0.00     0.134 A 
ATOM      7  C   UNL     1      -3.256 -33.147 -49.537  1.00  0.00     0.093 A 
ATOM      8  C   UNL     1      -2.942 -33.841 -50.708  1.00  0.00     0.123 A 
ATOM      9  C   UNL     1      -3.937 -34.545 -51.383  1.00  0.00     0.094 A 
ATOM     10  C   UNL     1      -5.252 -34.540 -50.912  1.00  0.00     0.146 A 
ATOM     11  O   UNL     1      -6.171 -35.215 -51.592  1.00  0.00    -0.452 OA
ENDROOT
BRANCH   1  12
ATOM     12  C   UNL     1      -8.372 -36.071 -52.073  1.00  0.00     0.025 A 
ATOM     13  C   UNL     1      -8.602 -37.429 -51.793  1.00  0.00     0.016 A 
ATOM     14  C   UNL     1      -9.456 -38.183 -52.602  1.00  0.00     0.051 A 
ATOM     15  C   UNL     1     -10.082 -37.597 -53.710  1.00  0.00     0.157 A 
ATOM     16  C   UNL     1      -8.986 -35.494 -53.197  1.00  0.00     0.062 A 
ATOM     17  C   UNL     1      -9.842 -36.246 -54.010  1.00  0.00     0.158 A 
BRANCH  15  18
ATOM     18  O   UNL     1     -10.935 -38.351 -54.514  1.00  0.00    -0.504 OA
ATOM     19  H   UNL     1     -10.943 -38.249 -55.522  1.00  0.00     0.293 HD
ENDBRANCH  15  18
BRANCH  17  20
ATOM     20  O   UNL     1     -10.444 -35.633 -55.109  1.00  0.00    -0.504 OA
ATOM     21  H   UNL     1      -9.923 -35.395 -55.944  1.00  0.00     0.293 HD
ENDBRANCH  17  20
ENDBRANCH   1  12
BRANCH   2  22
ATOM     22  O   UNL     1      -9.260 -34.482 -49.819  1.00  0.00    -0.502 OA
ATOM     23  H   UNL     1      -9.789 -35.317 -49.594  1.00  0.00     0.293 HD
ENDBRANCH   2  22
BRANCH   6  24
ATOM     24  O   UNL     1      -4.747 -32.509 -47.795  1.00  0.00    -0.507 OA
ATOM     25  H   UNL     1      -4.518 -32.907 -46.895  1.00  0.00     0.293 HD
ENDBRANCH   6  24
BRANCH   8  26
ATOM     26  O   UNL     1      -1.641 -33.842 -51.205  1.00  0.00    -0.508 OA
ATOM     27  H   UNL     1      -1.190 -32.989 -51.514  1.00  0.00     0.293 HD
ENDBRANCH   8  26
TORSDOF 6
ENDMDL
MODEL 9
REMARK VINA RESULT:    -6.498      3.106      6.853
REMARK INTER + INTRA:          -8.114
REMARK INTER:                  -7.881
REMARK INTRA:                  -0.233
REMARK UNBOUND:                -0.286
REMARK SMILES O=c1c(O)c(-c2ccc(O)c(O)c2)oc2cc(O)cc(O)c12
REMARK SMILES IDX 5 1 3 2 2 3 1 4 22 5 20 6 19 7 17 8 16 9 15 10 14 11 6 12
REMARK SMILES IDX 7 13 8 14 9 15 13 16 11 17 10 18 12 20 4 22 21 24 18 26
REMARK H PARENT 10 19 12 21 4 23 21 25 18 27
REMARK Flexibility Score: inf
ROOT
ATOM      1  C   UNL     1      -4.170 -30.491 -50.330  1.00  0.00     0.180 A 
ATOM      2  C   UNL     1      -3.787 -31.839 -50.226  1.00  0.00     0.208 A 
ATOM      3  C   UNL     1      -4.679 -32.758 -49.652  1.00  0.00     0.238 A 
ATOM      4  O   UNL     1      -4.353 -33.973 -49.612  1.00  0.00    -0.285 OA
ATOM      5  C   UNL     1      -5.937 -32.315 -49.175  1.00  0.00     0.111 A 
ATOM      6  C   UNL     1      -6.902 -33.152 -48.539  1.00  0.00     0.134 A 
ATOM      7  C   UNL     1      -8.165 -32.634 -48.224  1.00  0.00     0.093 A 
ATOM      8  C   UNL     1      -8.473 -31.292 -48.463  1.00  0.00     0.123 A 
ATOM      9  C   UNL     1      -7.516 -30.453 -49.029  1.00  0.00     0.094 A 
ATOM     10  C   UNL     1      -6.260 -30.950 -49.387  1.00  0.00     0.146 A 
ATOM     11  O   UNL     1      -5.382 -30.118 -49.933  1.00  0.00    -0.452 OA
ENDROOT
BRANCH   1  12
ATOM     12  C   UNL     1      -3.274 -29.459 -50.900  1.00  0.00     0.025 A 
ATOM     13  C   UNL     1      -2.682 -28.475 -50.089  1.00  0.00     0.016 A 
ATOM     14  C   UNL     1      -1.859 -27.496 -50.653  1.00  0.00     0.051 A 
ATOM     15  C   UNL     1      -1.626 -27.477 -52.035  1.00  0.00     0.157 A 
ATOM     16  C   UNL     1      -3.054 -29.423 -52.287  1.00  0.00     0.062 A 
ATOM     17  C   UNL     1      -2.229 -28.445 -52.855  1.00  0.00     0.158 A 
BRANCH  15  18
ATOM     18  O   UNL     1      -0.802 -26.502 -52.593  1.00  0.00    -0.504 OA
ATOM     19  H   UNL     1      -0.044 -26.082 -52.068  1.00  0.00     0.293 HD
ENDBRANCH  15  18
BRANCH  17  20
ATOM     20  O   UNL     1      -2.024 -28.451 -54.235  1.00  0.00    -0.504 OA
ATOM     21  H   UNL     1      -1.942 -29.312 -54.762  1.00  0.00     0.293 HD
ENDBRANCH  17  20
ENDBRANCH   1  12
BRANCH   2  22
ATOM     22  O   UNL     1      -2.551 -32.259 -50.725  1.00  0.00    -0.502 OA
ATOM     23  H   UNL     1      -2.339 -32.271 -51.715  1.00  0.00     0.293 HD
ENDBRANCH   2  22
BRANCH   6  24
ATOM     24  O   UNL     1      -6.664 -34.480 -48.173  1.00  0.00    -0.507 OA
ATOM     25  H   UNL     1      -6.715 -34.834 -47.229  1.00  0.00     0.293 HD
ENDBRANCH   6  24
BRANCH   8  26
ATOM     26  O   UNL     1      -9.726 -30.781 -48.133  1.00  0.00    -0.508 OA
ATOM     27  H   UNL     1      -9.887 -29.785 -48.048  1.00  0.00     0.293 HD
ENDBRANCH   8  26
TORSDOF 6
ENDMDL
