MODEL 1
REMARK VINA RESULT:    -3.730      0.000      0.000
REMARK INTER + INTRA:          -8.212
REMARK INTER:                  -6.347
REMARK INTRA:                  -1.864
REMARK UNBOUND:                -1.864
REMARK SMILES CC(=O)CCC[C@@H](C)CCC[C@H](C)CCCC(C)C
REMARK SMILES IDX 10 1 11 2 12 3 13 4 14 5 15 6 16 7 17 8 18 9 19 10 9 11 7 12
REMARK SMILES IDX 8 13 6 14 5 15 4 16 2 17 3 18 1 19
REMARK H PARENT
REMARK Flexibility Score: inf
ROOT
ATOM      1  C   UNL     1     164.989 163.618 169.302  1.00  0.00     0.001 C 
ENDROOT
BRANCH   1   2
ATOM      2  C   UNL     1     165.346 163.635 167.805  1.00  0.00     0.003 C 
BRANCH   2   3
ATOM      3  C   UNL     1     164.710 164.825 167.045  1.00  0.00    -0.014 C 
ATOM      4  C   UNL     1     163.712 164.335 165.981  1.00  0.00     0.007 C 
BRANCH   3   5
ATOM      5  C   UNL     1     165.789 165.704 166.366  1.00  0.00     0.003 C 
BRANCH   5   6
ATOM      6  C   UNL     1     166.648 166.494 167.373  1.00  0.00     0.001 C 
BRANCH   6   7
ATOM      7  C   UNL     1     165.796 167.425 168.265  1.00  0.00     0.003 C 
BRANCH   7   8
ATOM      8  C   UNL     1     166.369 167.616 169.688  1.00  0.00    -0.017 C 
ATOM      9  C   UNL     1     165.227 167.829 170.691  1.00  0.00     0.007 C 
ATOM     10  C   UNL     1     167.236 166.427 170.129  1.00  0.00     0.007 C 
ENDBRANCH   7   8
ENDBRANCH   6   7
ENDBRANCH   5   6
ENDBRANCH   3   5
ENDBRANCH   2   3
ENDBRANCH   1   2
BRANCH   1  11
ATOM     11  C   UNL     1     163.864 164.603 169.687  1.00  0.00     0.003 C 
BRANCH  11  12
ATOM     12  C   UNL     1     162.932 164.194 170.861  1.00  0.00    -0.014 C 
ATOM     13  C   UNL     1     163.105 162.717 171.264  1.00  0.00     0.007 C 
BRANCH  12  14
ATOM     14  C   UNL     1     161.453 164.563 170.598  1.00  0.00     0.004 C 
BRANCH  14  15
ATOM     15  C   UNL     1     160.506 163.361 170.762  1.00  0.00     0.008 C 
BRANCH  15  16
ATOM     16  C   UNL     1     159.875 162.938 169.427  1.00  0.00     0.075 C 
BRANCH  16  17
ATOM     17  C   UNL     1     158.437 163.368 169.318  1.00  0.00     0.129 C 
ATOM     18  O   UNL     1     157.764 163.505 170.329  1.00  0.00    -0.300 OA
ATOM     19  C   UNL     1     157.816 163.608 167.974  1.00  0.00     0.087 C 
ENDBRANCH  16  17
ENDBRANCH  15  16
ENDBRANCH  14  15
ENDBRANCH  12  14
ENDBRANCH  11  12
ENDBRANCH   1  11
TORSDOF 12
ENDMDL
MODEL 2
REMARK VINA RESULT:    -3.672      4.530      8.318
REMARK INTER + INTRA:          -8.112
REMARK INTER:                  -6.298
REMARK INTRA:                  -1.814
REMARK UNBOUND:                -1.864
REMARK SMILES CC(=O)CCC[C@@H](C)CCC[C@H](C)CCCC(C)C
REMARK SMILES IDX 10 1 11 2 12 3 13 4 14 5 15 6 16 7 17 8 18 9 19 10 9 11 7 12
REMARK SMILES IDX 8 13 6 14 5 15 4 16 2 17 3 18 1 19
REMARK H PARENT
REMARK Flexibility Score: inf
ROOT
ATOM      1  C   UNL     1     166.274 167.449 169.062  1.00  0.00     0.001 C 
ENDROOT
BRANCH   1   2
ATOM      2  C   UNL     1     165.809 167.451 167.595  1.00  0.00     0.003 C 
BRANCH   2   3
ATOM      3  C   UNL     1     166.513 166.371 166.736  1.00  0.00    -0.014 C 
ATOM      4  C   UNL     1     167.439 167.012 165.687  1.00  0.00     0.007 C 
BRANCH   3   5
ATOM      5  C   UNL     1     165.486 165.459 166.023  1.00  0.00     0.003 C 
BRANCH   5   6
ATOM      6  C   UNL     1     164.624 164.637 167.000  1.00  0.00     0.001 C 
BRANCH   6   7
ATOM      7  C   UNL     1     165.467 163.651 167.838  1.00  0.00     0.003 C 
BRANCH   7   8
ATOM      8  C   UNL     1     165.306 163.838 169.365  1.00  0.00    -0.017 C 
ATOM      9  C   UNL     1     163.980 164.547 169.670  1.00  0.00     0.007 C 
ATOM     10  C   UNL     1     165.373 162.505 170.123  1.00  0.00     0.007 C 
ENDBRANCH   7   8
ENDBRANCH   6   7
ENDBRANCH   5   6
ENDBRANCH   3   5
ENDBRANCH   2   3
ENDBRANCH   1   2
BRANCH   1  11
ATOM     11  C   UNL     1     167.554 166.623 169.311  1.00  0.00     0.003 C 
BRANCH  11  12
ATOM     12  C   UNL     1     168.084 166.556 170.770  1.00  0.00    -0.014 C 
ATOM     13  C   UNL     1     166.947 166.513 171.810  1.00  0.00     0.007 C 
BRANCH  12  14
ATOM     14  C   UNL     1     169.118 167.664 171.075  1.00  0.00     0.004 C 
BRANCH  14  15
ATOM     15  C   UNL     1     170.570 167.181 170.910  1.00  0.00     0.008 C 
BRANCH  15  16
ATOM     16  C   UNL     1     171.299 167.921 169.779  1.00  0.00     0.075 C 
BRANCH  16  17
ATOM     17  C   UNL     1     172.780 168.020 170.029  1.00  0.00     0.129 C 
ATOM     18  O   UNL     1     173.400 167.038 170.411  1.00  0.00    -0.300 OA
ATOM     19  C   UNL     1     173.497 169.323 169.837  1.00  0.00     0.087 C 
ENDBRANCH  16  17
ENDBRANCH  15  16
ENDBRANCH  14  15
ENDBRANCH  12  14
ENDBRANCH  11  12
ENDBRANCH   1  11
TORSDOF 12
ENDMDL
MODEL 3
REMARK VINA RESULT:    -3.554      4.306      7.721
REMARK INTER + INTRA:          -7.911
REMARK INTER:                  -6.022
REMARK INTRA:                  -1.889
REMARK UNBOUND:                -1.864
REMARK SMILES CC(=O)CCC[C@@H](C)CCC[C@H](C)CCCC(C)C
REMARK SMILES IDX 10 1 11 2 12 3 13 4 14 5 15 6 16 7 17 8 18 9 19 10 9 11 7 12
REMARK SMILES IDX 8 13 6 14 5 15 4 16 2 17 3 18 1 19
REMARK H PARENT
REMARK Flexibility Score: inf
ROOT
ATOM      1  C   UNL     1     166.027 166.998 167.096  1.00  0.00     0.001 C 
ENDROOT
BRANCH   1   2
ATOM      2  C   UNL     1     165.725 165.921 166.038  1.00  0.00     0.003 C 
BRANCH   2   3
ATOM      3  C   UNL     1     165.254 164.582 166.657  1.00  0.00    -0.014 C 
ATOM      4  C   UNL     1     165.010 163.523 165.567  1.00  0.00     0.007 C 
BRANCH   3   5
ATOM      5  C   UNL     1     163.961 164.767 167.487  1.00  0.00     0.003 C 
BRANCH   5   6
ATOM      6  C   UNL     1     164.156 164.467 168.987  1.00  0.00     0.001 C 
BRANCH   6   7
ATOM      7  C   UNL     1     165.323 163.486 169.240  1.00  0.00     0.003 C 
BRANCH   7   8
ATOM      8  C   UNL     1     165.916 163.583 170.664  1.00  0.00    -0.017 C 
ATOM      9  C   UNL     1     164.957 164.353 171.582  1.00  0.00     0.007 C 
ATOM     10  C   UNL     1     166.215 162.201 171.264  1.00  0.00     0.007 C 
ENDBRANCH   7   8
ENDBRANCH   6   7
ENDBRANCH   5   6
ENDBRANCH   3   5
ENDBRANCH   2   3
ENDBRANCH   1   2
BRANCH   1  11
ATOM     11  C   UNL     1     167.106 166.584 168.119  1.00  0.00     0.003 C 
BRANCH  11  12
ATOM     12  C   UNL     1     166.820 166.890 169.615  1.00  0.00    -0.014 C 
ATOM     13  C   UNL     1     165.913 168.120 169.804  1.00  0.00     0.007 C 
BRANCH  12  14
ATOM     14  C   UNL     1     168.114 166.978 170.458  1.00  0.00     0.004 C 
BRANCH  14  15
ATOM     15  C   UNL     1     169.388 166.864 169.602  1.00  0.00     0.008 C 
BRANCH  15  16
ATOM     16  C   UNL     1     170.523 167.751 170.135  1.00  0.00     0.075 C 
BRANCH  16  17
ATOM     17  C   UNL     1     171.595 167.978 169.104  1.00  0.00     0.129 C 
ATOM     18  O   UNL     1     171.373 167.727 167.928  1.00  0.00    -0.300 OA
ATOM     19  C   UNL     1     172.945 168.488 169.512  1.00  0.00     0.087 C 
ENDBRANCH  16  17
ENDBRANCH  15  16
ENDBRANCH  14  15
ENDBRANCH  12  14
ENDBRANCH  11  12
ENDBRANCH   1  11
TORSDOF 12
ENDMDL
MODEL 4
REMARK VINA RESULT:    -3.549      2.788      5.663
REMARK INTER + INTRA:          -7.903
REMARK INTER:                  -6.213
REMARK INTRA:                  -1.690
REMARK UNBOUND:                -1.864
REMARK SMILES CC(=O)CCC[C@@H](C)CCC[C@H](C)CCCC(C)C
REMARK SMILES IDX 10 1 11 2 12 3 13 4 14 5 15 6 16 7 17 8 18 9 19 10 9 11 7 12
REMARK SMILES IDX 8 13 6 14 5 15 4 16 2 17 3 18 1 19
REMARK H PARENT
REMARK Flexibility Score: inf
ROOT
ATOM      1  C   UNL     1     165.701 167.696 168.079  1.00  0.00     0.001 C 
ENDROOT
BRANCH   1   2
ATOM      2  C   UNL     1     166.284 166.469 168.801  1.00  0.00     0.003 C 
BRANCH   2   3
ATOM      3  C   UNL     1     166.507 166.709 170.315  1.00  0.00    -0.014 C 
ATOM      4  C   UNL     1     167.856 166.128 170.776  1.00  0.00     0.007 C 
BRANCH   3   5
ATOM      5  C   UNL     1     165.368 166.088 171.160  1.00  0.00     0.003 C 
BRANCH   5   6
ATOM      6  C   UNL     1     164.566 165.014 170.398  1.00  0.00     0.001 C 
BRANCH   6   7
ATOM      7  C   UNL     1     164.502 163.676 171.168  1.00  0.00     0.003 C 
BRANCH   7   8
ATOM      8  C   UNL     1     165.079 162.478 170.379  1.00  0.00    -0.017 C 
ATOM      9  C   UNL     1     165.613 162.952 169.020  1.00  0.00     0.007 C 
ATOM     10  C   UNL     1     166.191 161.754 171.152  1.00  0.00     0.007 C 
ENDBRANCH   7   8
ENDBRANCH   6   7
ENDBRANCH   5   6
ENDBRANCH   3   5
ENDBRANCH   2   3
ENDBRANCH   1   2
BRANCH   1  11
ATOM     11  C   UNL     1     166.018 167.742 166.568  1.00  0.00     0.003 C 
BRANCH  11  12
ATOM     12  C   UNL     1     166.849 166.569 165.981  1.00  0.00    -0.014 C 
ATOM     13  C   UNL     1     168.201 167.034 165.406  1.00  0.00     0.007 C 
BRANCH  12  14
ATOM     14  C   UNL     1     166.043 165.719 164.972  1.00  0.00     0.004 C 
BRANCH  14  15
ATOM     15  C   UNL     1     165.250 164.588 165.650  1.00  0.00     0.008 C 
BRANCH  15  16
ATOM     16  C   UNL     1     163.865 164.393 165.015  1.00  0.00     0.075 C 
BRANCH  16  17
ATOM     17  C   UNL     1     162.757 164.492 166.029  1.00  0.00     0.129 C 
ATOM     18  O   UNL     1     163.027 164.622 167.214  1.00  0.00    -0.300 OA
ATOM     19  C   UNL     1     161.324 164.409 165.597  1.00  0.00     0.087 C 
ENDBRANCH  16  17
ENDBRANCH  15  16
ENDBRANCH  14  15
ENDBRANCH  12  14
ENDBRANCH  11  12
ENDBRANCH   1  11
TORSDOF 12
ENDMDL
MODEL 5
REMARK VINA RESULT:    -3.431      4.214      7.377
REMARK INTER + INTRA:          -7.702
REMARK INTER:                  -6.260
REMARK INTRA:                  -1.442
REMARK UNBOUND:                -1.864
REMARK SMILES CC(=O)CCC[C@@H](C)CCC[C@H](C)CCCC(C)C
REMARK SMILES IDX 10 1 11 2 12 3 13 4 14 5 15 6 16 7 17 8 18 9 19 10 9 11 7 12
REMARK SMILES IDX 8 13 6 14 5 15 4 16 2 17 3 18 1 19
REMARK H PARENT
REMARK Flexibility Score: inf
ROOT
ATOM      1  C   UNL     1     164.527 164.760 168.221  1.00  0.00     0.001 C 
ENDROOT
BRANCH   1   2
ATOM      2  C   UNL     1     165.501 163.953 169.097  1.00  0.00     0.003 C 
BRANCH   2   3
ATOM      3  C   UNL     1     165.212 164.097 170.612  1.00  0.00    -0.014 C 
ATOM      4  C   UNL     1     163.724 163.845 170.920  1.00  0.00     0.007 C 
BRANCH   3   5
ATOM      5  C   UNL     1     165.610 165.499 171.133  1.00  0.00     0.003 C 
BRANCH   5   6
ATOM      6  C   UNL     1     166.712 165.454 172.210  1.00  0.00     0.001 C 
BRANCH   6   7
ATOM      7  C   UNL     1     168.124 165.638 171.610  1.00  0.00     0.003 C 
BRANCH   7   8
ATOM      8  C   UNL     1     168.336 167.012 170.934  1.00  0.00    -0.017 C 
ATOM      9  C   UNL     1     168.440 168.112 171.999  1.00  0.00     0.007 C 
ATOM     10  C   UNL     1     169.584 167.032 170.039  1.00  0.00     0.007 C 
ENDBRANCH   7   8
ENDBRANCH   6   7
ENDBRANCH   5   6
ENDBRANCH   3   5
ENDBRANCH   2   3
ENDBRANCH   1   2
BRANCH   1  11
ATOM     11  C   UNL     1     165.131 165.225 166.878  1.00  0.00     0.003 C 
BRANCH  11  12
ATOM     12  C   UNL     1     166.225 166.326 166.934  1.00  0.00    -0.014 C 
ATOM     13  C   UNL     1     165.915 167.414 167.981  1.00  0.00     0.007 C 
BRANCH  12  14
ATOM     14  C   UNL     1     166.537 166.922 165.542  1.00  0.00     0.004 C 
BRANCH  14  15
ATOM     15  C   UNL     1     168.038 166.885 165.205  1.00  0.00     0.008 C 
BRANCH  15  16
ATOM     16  C   UNL     1     168.914 167.088 166.450  1.00  0.00     0.075 C 
BRANCH  16  17
ATOM     17  C   UNL     1     170.369 166.828 166.168  1.00  0.00     0.129 C 
ATOM     18  O   UNL     1     171.216 167.155 166.986  1.00  0.00    -0.300 OA
ATOM     19  C   UNL     1     170.790 166.193 164.876  1.00  0.00     0.087 C 
ENDBRANCH  16  17
ENDBRANCH  15  16
ENDBRANCH  14  15
ENDBRANCH  12  14
ENDBRANCH  11  12
ENDBRANCH   1  11
TORSDOF 12
ENDMDL
MODEL 6
REMARK VINA RESULT:    -3.385      3.086      5.409
REMARK INTER + INTRA:          -7.624
REMARK INTER:                  -5.417
REMARK INTRA:                  -2.207
REMARK UNBOUND:                -1.864
REMARK SMILES CC(=O)CCC[C@@H](C)CCC[C@H](C)CCCC(C)C
REMARK SMILES IDX 10 1 11 2 12 3 13 4 14 5 15 6 16 7 17 8 18 9 19 10 9 11 7 12
REMARK SMILES IDX 8 13 6 14 5 15 4 16 2 17 3 18 1 19
REMARK H PARENT
REMARK Flexibility Score: inf
ROOT
ATOM      1  C   UNL     1     165.989 167.553 168.716  1.00  0.00     0.001 C 
ENDROOT
BRANCH   1   2
ATOM      2  C   UNL     1     165.947 167.667 167.182  1.00  0.00     0.003 C 
BRANCH   2   3
ATOM      3  C   UNL     1     166.560 166.438 166.467  1.00  0.00    -0.014 C 
ATOM      4  C   UNL     1     167.544 166.870 165.365  1.00  0.00     0.007 C 
BRANCH   3   5
ATOM      5  C   UNL     1     165.463 165.538 165.849  1.00  0.00     0.003 C 
BRANCH   5   6
ATOM      6  C   UNL     1     165.135 164.304 166.711  1.00  0.00     0.001 C 
BRANCH   6   7
ATOM      7  C   UNL     1     163.936 164.551 167.654  1.00  0.00     0.003 C 
BRANCH   7   8
ATOM      8  C   UNL     1     164.306 164.497 169.155  1.00  0.00    -0.017 C 
ATOM      9  C   UNL     1     163.039 164.318 170.002  1.00  0.00     0.007 C 
ATOM     10  C   UNL     1     165.305 163.373 169.466  1.00  0.00     0.007 C 
ENDBRANCH   7   8
ENDBRANCH   6   7
ENDBRANCH   5   6
ENDBRANCH   3   5
ENDBRANCH   2   3
ENDBRANCH   1   2
BRANCH   1  11
ATOM     11  C   UNL     1     167.185 166.736 169.250  1.00  0.00     0.003 C 
BRANCH  11  12
ATOM     12  C   UNL     1     167.496 166.839 170.768  1.00  0.00    -0.014 C 
ATOM     13  C   UNL     1     168.909 166.334 171.118  1.00  0.00     0.007 C 
BRANCH  12  14
ATOM     14  C   UNL     1     166.403 166.180 171.642  1.00  0.00     0.004 C 
BRANCH  14  15
ATOM     15  C   UNL     1     165.591 167.209 172.449  1.00  0.00     0.008 C 
BRANCH  15  16
ATOM     16  C   UNL     1     164.179 167.407 171.876  1.00  0.00     0.075 C 
BRANCH  16  17
ATOM     17  C   UNL     1     163.870 168.857 171.621  1.00  0.00     0.129 C 
ATOM     18  O   UNL     1     164.758 169.613 171.254  1.00  0.00    -0.300 OA
ATOM     19  C   UNL     1     162.484 169.387 171.837  1.00  0.00     0.087 C 
ENDBRANCH  16  17
ENDBRANCH  15  16
ENDBRANCH  14  15
ENDBRANCH  12  14
ENDBRANCH  11  12
ENDBRANCH   1  11
TORSDOF 12
ENDMDL
MODEL 7
REMARK VINA RESULT:    -3.319      2.199      4.497
REMARK INTER + INTRA:          -7.511
REMARK INTER:                  -5.298
REMARK INTRA:                  -2.213
REMARK UNBOUND:                -1.864
REMARK SMILES CC(=O)CCC[C@@H](C)CCC[C@H](C)CCCC(C)C
REMARK SMILES IDX 10 1 11 2 12 3 13 4 14 5 15 6 16 7 17 8 18 9 19 10 9 11 7 12
REMARK SMILES IDX 8 13 6 14 5 15 4 16 2 17 3 18 1 19
REMARK H PARENT
REMARK Flexibility Score: inf
ROOT
ATOM      1  C   UNL     1     166.605 166.448 166.648  1.00  0.00     0.001 C 
ENDROOT
BRANCH   1   2
ATOM      2  C   UNL     1     165.984 167.656 167.371  1.00  0.00     0.003 C 
BRANCH   2   3
ATOM      3  C   UNL     1     165.853 167.444 168.899  1.00  0.00    -0.014 C 
ATOM      4  C   UNL     1     165.637 168.782 169.629  1.00  0.00     0.007 C 
BRANCH   3   5
ATOM      5  C   UNL     1     167.102 166.740 169.482  1.00  0.00     0.003 C 
BRANCH   5   6
ATOM      6  C   UNL     1     167.234 166.906 171.008  1.00  0.00     0.001 C 
BRANCH   6   7
ATOM      7  C   UNL     1     166.636 165.709 171.781  1.00  0.00     0.003 C 
BRANCH   7   8
ATOM      8  C   UNL     1     165.771 166.124 172.994  1.00  0.00    -0.017 C 
ATOM      9  C   UNL     1     164.494 166.825 172.514  1.00  0.00     0.007 C 
ATOM     10  C   UNL     1     165.407 164.927 173.884  1.00  0.00     0.007 C 
ENDBRANCH   7   8
ENDBRANCH   6   7
ENDBRANCH   5   6
ENDBRANCH   3   5
ENDBRANCH   2   3
ENDBRANCH   1   2
BRANCH   1  11
ATOM     11  C   UNL     1     165.672 165.796 165.604  1.00  0.00     0.003 C 
BRANCH  11  12
ATOM     12  C   UNL     1     165.065 164.411 165.960  1.00  0.00    -0.014 C 
ATOM     13  C   UNL     1     163.641 164.229 165.401  1.00  0.00     0.007 C 
BRANCH  12  14
ATOM     14  C   UNL     1     165.148 164.099 167.472  1.00  0.00     0.004 C 
BRANCH  14  15
ATOM     15  C   UNL     1     163.868 164.498 168.229  1.00  0.00     0.008 C 
BRANCH  15  16
ATOM     16  C   UNL     1     163.994 164.255 169.741  1.00  0.00     0.075 C 
BRANCH  16  17
ATOM     17  C   UNL     1     162.654 164.048 170.394  1.00  0.00     0.129 C 
ATOM     18  O   UNL     1     161.630 164.207 169.746  1.00  0.00    -0.300 OA
ATOM     19  C   UNL     1     162.566 163.672 171.842  1.00  0.00     0.087 C 
ENDBRANCH  16  17
ENDBRANCH  15  16
ENDBRANCH  14  15
ENDBRANCH  12  14
ENDBRANCH  11  12
ENDBRANCH   1  11
TORSDOF 12
ENDMDL
MODEL 8
REMARK VINA RESULT:    -3.311      4.008      6.933
REMARK INTER + INTRA:          -7.499
REMARK INTER:                  -5.236
REMARK INTRA:                  -2.262
REMARK UNBOUND:                -1.864
REMARK SMILES CC(=O)CCC[C@@H](C)CCC[C@H](C)CCCC(C)C
REMARK SMILES IDX 10 1 11 2 12 3 13 4 14 5 15 6 16 7 17 8 18 9 19 10 9 11 7 12
REMARK SMILES IDX 8 13 6 14 5 15 4 16 2 17 3 18 1 19
REMARK H PARENT
REMARK Flexibility Score: inf
ROOT
ATOM      1  C   UNL     1     166.399 167.350 168.994  1.00  0.00     0.001 C 
ENDROOT
BRANCH   1   2
ATOM      2  C   UNL     1     165.773 167.313 167.588  1.00  0.00     0.003 C 
BRANCH   2   3
ATOM      3  C   UNL     1     166.463 166.297 166.646  1.00  0.00    -0.014 C 
ATOM      4  C   UNL     1     167.111 167.006 165.443  1.00  0.00     0.007 C 
BRANCH   3   5
ATOM      5  C   UNL     1     165.464 165.232 166.133  1.00  0.00     0.003 C 
BRANCH   5   6
ATOM      6  C   UNL     1     164.585 164.638 167.251  1.00  0.00     0.001 C 
BRANCH   6   7
ATOM      7  C   UNL     1     165.377 163.682 168.171  1.00  0.00     0.003 C 
BRANCH   7   8
ATOM      8  C   UNL     1     164.909 163.711 169.645  1.00  0.00    -0.017 C 
ATOM      9  C   UNL     1     166.078 164.103 170.559  1.00  0.00     0.007 C 
ATOM     10  C   UNL     1     163.732 164.672 169.861  1.00  0.00     0.007 C 
ENDBRANCH   7   8
ENDBRANCH   6   7
ENDBRANCH   5   6
ENDBRANCH   3   5
ENDBRANCH   2   3
ENDBRANCH   1   2
BRANCH   1  11
ATOM     11  C   UNL     1     165.669 168.287 169.980  1.00  0.00     0.003 C 
BRANCH  11  12
ATOM     12  C   UNL     1     165.671 167.882 171.479  1.00  0.00    -0.014 C 
ATOM     13  C   UNL     1     164.249 167.689 172.041  1.00  0.00     0.007 C 
BRANCH  12  14
ATOM     14  C   UNL     1     166.521 168.836 172.349  1.00  0.00     0.004 C 
BRANCH  14  15
ATOM     15  C   UNL     1     167.935 168.290 172.619  1.00  0.00     0.008 C 
BRANCH  15  16
ATOM     16  C   UNL     1     168.953 168.784 171.580  1.00  0.00     0.075 C 
BRANCH  16  17
ATOM     17  C   UNL     1     169.621 167.646 170.857  1.00  0.00     0.129 C 
ATOM     18  O   UNL     1     170.528 167.874 170.069  1.00  0.00    -0.300 OA
ATOM     19  C   UNL     1     169.166 166.235 171.077  1.00  0.00     0.087 C 
ENDBRANCH  16  17
ENDBRANCH  15  16
ENDBRANCH  14  15
ENDBRANCH  12  14
ENDBRANCH  11  12
ENDBRANCH   1  11
TORSDOF 12
ENDMDL
MODEL 9
REMARK VINA RESULT:    -3.294      1.402      3.291
REMARK INTER + INTRA:          -7.469
REMARK INTER:                  -5.908
REMARK INTRA:                  -1.561
REMARK UNBOUND:                -1.864
REMARK SMILES CC(=O)CCC[C@@H](C)CCC[C@H](C)CCCC(C)C
REMARK SMILES IDX 10 1 11 2 12 3 13 4 14 5 15 6 16 7 17 8 18 9 19 10 9 11 7 12
REMARK SMILES IDX 8 13 6 14 5 15 4 16 2 17 3 18 1 19
REMARK H PARENT
REMARK Flexibility Score: inf
ROOT
ATOM      1  C   UNL     1     164.972 164.463 169.557  1.00  0.00     0.001 C 
ENDROOT
BRANCH   1   2
ATOM      2  C   UNL     1     165.456 165.914 169.721  1.00  0.00     0.003 C 
BRANCH   2   3
ATOM      3  C   UNL     1     166.250 166.428 168.494  1.00  0.00    -0.014 C 
ATOM      4  C   UNL     1     165.763 167.824 168.063  1.00  0.00     0.007 C 
BRANCH   3   5
ATOM      5  C   UNL     1     166.133 165.455 167.297  1.00  0.00     0.003 C 
BRANCH   5   6
ATOM      6  C   UNL     1     165.648 166.139 166.004  1.00  0.00     0.001 C 
BRANCH   6   7
ATOM      7  C   UNL     1     165.095 165.126 164.977  1.00  0.00     0.003 C 
BRANCH   7   8
ATOM      8  C   UNL     1     164.263 163.989 165.614  1.00  0.00    -0.017 C 
ATOM      9  C   UNL     1     162.768 164.232 165.371  1.00  0.00     0.007 C 
ATOM     10  C   UNL     1     164.662 162.607 165.077  1.00  0.00     0.007 C 
ENDBRANCH   7   8
ENDBRANCH   6   7
ENDBRANCH   5   6
ENDBRANCH   3   5
ENDBRANCH   2   3
ENDBRANCH   1   2
BRANCH   1  11
ATOM     11  C   UNL     1     163.480 164.259 169.898  1.00  0.00     0.003 C 
BRANCH  11  12
ATOM     12  C   UNL     1     163.140 163.755 171.328  1.00  0.00    -0.014 C 
ATOM     13  C   UNL     1     163.068 162.218 171.410  1.00  0.00     0.007 C 
BRANCH  12  14
ATOM     14  C   UNL     1     161.879 164.434 171.911  1.00  0.00     0.004 C 
BRANCH  14  15
ATOM     15  C   UNL     1     160.643 163.517 171.875  1.00  0.00     0.008 C 
BRANCH  15  16
ATOM     16  C   UNL     1     159.684 163.887 170.734  1.00  0.00     0.075 C 
BRANCH  16  17
ATOM     17  C   UNL     1     159.665 162.843 169.650  1.00  0.00     0.129 C 
ATOM     18  O   UNL     1     159.780 161.661 169.941  1.00  0.00    -0.300 OA
ATOM     19  C   UNL     1     159.532 163.245 168.212  1.00  0.00     0.087 C 
ENDBRANCH  16  17
ENDBRANCH  15  16
ENDBRANCH  14  15
ENDBRANCH  12  14
ENDBRANCH  11  12
ENDBRANCH   1  11
TORSDOF 12
ENDMDL
