MODEL 1
REMARK VINA RESULT:    -3.925      0.000      0.000
REMARK INTER + INTRA:          -5.842
REMARK INTER:                  -5.302
REMARK INTRA:                  -0.540
REMARK UNBOUND:                -0.540
REMARK SMILES CCCCCCC=CC(=O)[O-]
REMARK SMILES IDX 5 1 6 2 7 3 8 4 9 5 10 6 11 7 4 8 3 9 2 10 1 11
REMARK H PARENT
REMARK Flexibility Score: inf
ROOT
ATOM      1  C   UNL     1      42.386   3.407  -7.926  1.00  0.00     0.004 C 
ENDROOT
BRANCH   1   2
ATOM      2  C   UNL     1      40.984   2.816  -8.168  1.00  0.00     0.027 C 
BRANCH   2   3
ATOM      3  C   UNL     1      39.955   3.348  -7.205  1.00  0.00    -0.025 C 
ATOM      4  C   UNL     1      38.821   3.988  -7.532  1.00  0.00     0.020 C 
BRANCH   4   5
ATOM      5  C   UNL     1      38.317   4.246  -8.897  1.00  0.00     0.064 C 
ATOM      6  O   UNL     1      37.458   3.468  -9.385  1.00  0.00    -0.545 OA
ATOM      7  O   UNL     1      38.788   5.298  -9.673  1.00  0.00    -0.545 OA
ENDBRANCH   4   5
ENDBRANCH   2   3
ENDBRANCH   1   2
BRANCH   1   8
ATOM      8  C   UNL     1      43.396   2.412  -7.325  1.00  0.00     0.000 C 
BRANCH   8   9
ATOM      9  C   UNL     1      43.325   2.346  -5.789  1.00  0.00    -0.000 C 
BRANCH   9  10
ATOM     10  C   UNL     1      42.635   1.067  -5.287  1.00  0.00    -0.003 C 
ATOM     11  C   UNL     1      42.931  -0.150  -6.164  1.00  0.00     0.004 C 
ENDBRANCH   9  10
ENDBRANCH   8   9
ENDBRANCH   1   8
TORSDOF 6
ENDMDL
MODEL 2
REMARK VINA RESULT:    -3.920      9.442     10.472
REMARK INTER + INTRA:          -5.834
REMARK INTER:                  -5.598
REMARK INTRA:                  -0.236
REMARK UNBOUND:                -0.540
REMARK SMILES CCCCCCC=CC(=O)[O-]
REMARK SMILES IDX 5 1 6 2 7 3 8 4 9 5 10 6 11 7 4 8 3 9 2 10 1 11
REMARK H PARENT
REMARK Flexibility Score: inf
ROOT
ATOM      1  C   UNL     1      41.168   9.580  -0.860  1.00  0.00     0.004 C 
ENDROOT
BRANCH   1   2
ATOM      2  C   UNL     1      41.152   9.102   0.605  1.00  0.00     0.027 C 
BRANCH   2   3
ATOM      3  C   UNL     1      41.180   7.602   0.727  1.00  0.00    -0.025 C 
ATOM      4  C   UNL     1      40.719   6.882   1.763  1.00  0.00     0.020 C 
BRANCH   4   5
ATOM      5  C   UNL     1      40.034   7.405   2.964  1.00  0.00     0.064 C 
ATOM      6  O   UNL     1      40.666   8.168   3.739  1.00  0.00    -0.545 OA
ATOM      7  O   UNL     1      38.730   7.053   3.285  1.00  0.00    -0.545 OA
ENDBRANCH   4   5
ENDBRANCH   2   3
ENDBRANCH   1   2
BRANCH   1   8
ATOM      8  C   UNL     1      41.511   8.478  -1.880  1.00  0.00     0.000 C 
BRANCH   8   9
ATOM      9  C   UNL     1      41.238   8.906  -3.333  1.00  0.00    -0.000 C 
BRANCH   9  10
ATOM     10  C   UNL     1      39.741   9.115  -3.612  1.00  0.00    -0.003 C 
ATOM     11  C   UNL     1      39.314   8.589  -4.983  1.00  0.00     0.004 C 
ENDBRANCH   9  10
ENDBRANCH   8   9
ENDBRANCH   1   8
TORSDOF 6
ENDMDL
MODEL 3
REMARK VINA RESULT:    -3.913     14.478     15.684
REMARK INTER + INTRA:          -5.825
REMARK INTER:                  -5.275
REMARK INTRA:                  -0.549
REMARK UNBOUND:                -0.540
REMARK SMILES CCCCCCC=CC(=O)[O-]
REMARK SMILES IDX 5 1 6 2 7 3 8 4 9 5 10 6 11 7 4 8 3 9 2 10 1 11
REMARK H PARENT
REMARK Flexibility Score: inf
ROOT
ATOM      1  C   UNL     1      35.486  10.793   4.493  1.00  0.00     0.004 C 
ENDROOT
BRANCH   1   2
ATOM      2  C   UNL     1      35.162   9.435   5.145  1.00  0.00     0.027 C 
BRANCH   2   3
ATOM      3  C   UNL     1      35.262   8.286   4.177  1.00  0.00    -0.025 C 
ATOM      4  C   UNL     1      34.788   7.045   4.370  1.00  0.00     0.020 C 
BRANCH   4   5
ATOM      5  C   UNL     1      34.020   6.566   5.538  1.00  0.00     0.064 C 
ATOM      6  O   UNL     1      32.804   6.876   5.634  1.00  0.00    -0.545 OA
ATOM      7  O   UNL     1      34.603   5.817   6.552  1.00  0.00    -0.545 OA
ENDBRANCH   4   5
ENDBRANCH   2   3
ENDBRANCH   1   2
BRANCH   1   8
ATOM      8  C   UNL     1      34.375  11.848   4.645  1.00  0.00     0.000 C 
BRANCH   8   9
ATOM      9  C   UNL     1      33.631  12.125   3.327  1.00  0.00    -0.000 C 
BRANCH   9  10
ATOM     10  C   UNL     1      34.236  11.359   2.139  1.00  0.00    -0.003 C 
ATOM     11  C   UNL     1      33.322  10.250   1.620  1.00  0.00     0.004 C 
ENDBRANCH   9  10
ENDBRANCH   8   9
ENDBRANCH   1   8
TORSDOF 6
ENDMDL
MODEL 4
REMARK VINA RESULT:    -3.888      3.395      5.533
REMARK INTER + INTRA:          -5.791
REMARK INTER:                  -5.161
REMARK INTRA:                  -0.630
REMARK UNBOUND:                -0.540
REMARK SMILES CCCCCCC=CC(=O)[O-]
REMARK SMILES IDX 5 1 6 2 7 3 8 4 9 5 10 6 11 7 4 8 3 9 2 10 1 11
REMARK H PARENT
REMARK Flexibility Score: inf
ROOT
ATOM      1  C   UNL     1      40.511   2.573  -9.141  1.00  0.00     0.004 C 
ENDROOT
BRANCH   1   2
ATOM      2  C   UNL     1      41.674   2.690  -8.137  1.00  0.00     0.027 C 
BRANCH   2   3
ATOM      3  C   UNL     1      41.211   2.661  -6.705  1.00  0.00    -0.025 C 
ATOM      4  C   UNL     1      41.777   1.969  -5.703  1.00  0.00     0.020 C 
BRANCH   4   5
ATOM      5  C   UNL     1      43.003   1.147  -5.782  1.00  0.00     0.064 C 
ATOM      6  O   UNL     1      44.113   1.687  -5.539  1.00  0.00    -0.545 OA
ATOM      7  O   UNL     1      42.974  -0.191  -6.152  1.00  0.00    -0.545 OA
ENDBRANCH   4   5
ENDBRANCH   2   3
ENDBRANCH   1   2
BRANCH   1   8
ATOM      8  C   UNL     1      39.128   2.393  -8.487  1.00  0.00     0.000 C 
BRANCH   8   9
ATOM      9  C   UNL     1      38.168   3.556  -8.794  1.00  0.00    -0.000 C 
BRANCH   9  10
ATOM     10  C   UNL     1      38.894   4.908  -8.891  1.00  0.00    -0.003 C 
ATOM     11  C   UNL     1      39.036   5.604  -7.538  1.00  0.00     0.004 C 
ENDBRANCH   9  10
ENDBRANCH   8   9
ENDBRANCH   1   8
TORSDOF 6
ENDMDL
MODEL 5
REMARK VINA RESULT:    -3.884     13.685     15.113
REMARK INTER + INTRA:          -5.786
REMARK INTER:                  -5.117
REMARK INTRA:                  -0.669
REMARK UNBOUND:                -0.540
REMARK SMILES CCCCCCC=CC(=O)[O-]
REMARK SMILES IDX 5 1 6 2 7 3 8 4 9 5 10 6 11 7 4 8 3 9 2 10 1 11
REMARK H PARENT
REMARK Flexibility Score: inf
ROOT
ATOM      1  C   UNL     1      35.586  10.685   4.573  1.00  0.00     0.004 C 
ENDROOT
BRANCH   1   2
ATOM      2  C   UNL     1      35.301   9.427   5.416  1.00  0.00     0.027 C 
BRANCH   2   3
ATOM      3  C   UNL     1      34.379   8.459   4.723  1.00  0.00    -0.025 C 
ATOM      4  C   UNL     1      34.716   7.256   4.233  1.00  0.00     0.020 C 
BRANCH   4   5
ATOM      5  C   UNL     1      36.040   6.606   4.326  1.00  0.00     0.064 C 
ATOM      6  O   UNL     1      36.275   5.841   5.297  1.00  0.00    -0.545 OA
ATOM      7  O   UNL     1      37.048   6.841   3.399  1.00  0.00    -0.545 OA
ENDBRANCH   4   5
ENDBRANCH   2   3
ENDBRANCH   1   2
BRANCH   1   8
ATOM      8  C   UNL     1      34.465  11.740   4.614  1.00  0.00     0.000 C 
BRANCH   8   9
ATOM      9  C   UNL     1      33.677  11.825   3.295  1.00  0.00    -0.000 C 
BRANCH   9  10
ATOM     10  C   UNL     1      34.435  11.192   2.116  1.00  0.00    -0.003 C 
ATOM     11  C   UNL     1      33.689  10.011   1.496  1.00  0.00     0.004 C 
ENDBRANCH   9  10
ENDBRANCH   8   9
ENDBRANCH   1   8
TORSDOF 6
ENDMDL
MODEL 6
REMARK VINA RESULT:    -3.801      1.628      2.133
REMARK INTER + INTRA:          -5.674
REMARK INTER:                  -5.077
REMARK INTRA:                  -0.597
REMARK UNBOUND:                -0.540
REMARK SMILES CCCCCCC=CC(=O)[O-]
REMARK SMILES IDX 5 1 6 2 7 3 8 4 9 5 10 6 11 7 4 8 3 9 2 10 1 11
REMARK H PARENT
REMARK Flexibility Score: inf
ROOT
ATOM      1  C   UNL     1      42.887   2.728  -9.313  1.00  0.00     0.004 C 
ENDROOT
BRANCH   1   2
ATOM      2  C   UNL     1      41.422   3.120  -9.584  1.00  0.00     0.027 C 
BRANCH   2   3
ATOM      3  C   UNL     1      40.623   3.289  -8.319  1.00  0.00    -0.025 C 
ATOM      4  C   UNL     1      39.432   2.729  -8.052  1.00  0.00     0.020 C 
BRANCH   4   5
ATOM      5  C   UNL     1      38.691   1.784  -8.914  1.00  0.00     0.064 C 
ATOM      6  O   UNL     1      37.663   2.188  -9.515  1.00  0.00    -0.545 OA
ATOM      7  O   UNL     1      39.071   0.455  -9.053  1.00  0.00    -0.545 OA
ENDBRANCH   4   5
ENDBRANCH   2   3
ENDBRANCH   1   2
BRANCH   1   8
ATOM      8  C   UNL     1      43.329   2.907  -7.849  1.00  0.00     0.000 C 
BRANCH   8   9
ATOM      9  C   UNL     1      43.889   1.613  -7.233  1.00  0.00    -0.000 C 
BRANCH   9  10
ATOM     10  C   UNL     1      43.627   1.520  -5.721  1.00  0.00    -0.003 C 
ATOM     11  C   UNL     1      42.148   1.668  -5.365  1.00  0.00     0.004 C 
ENDBRANCH   9  10
ENDBRANCH   8   9
ENDBRANCH   1   8
TORSDOF 6
ENDMDL
MODEL 7
REMARK VINA RESULT:    -3.758      1.399      2.106
REMARK INTER + INTRA:          -5.616
REMARK INTER:                  -5.112
REMARK INTRA:                  -0.504
REMARK UNBOUND:                -0.540
REMARK SMILES CCCCCCC=CC(=O)[O-]
REMARK SMILES IDX 5 1 6 2 7 3 8 4 9 5 10 6 11 7 4 8 3 9 2 10 1 11
REMARK H PARENT
REMARK Flexibility Score: inf
ROOT
ATOM      1  C   UNL     1      40.418   2.425  -7.414  1.00  0.00     0.004 C 
ENDROOT
BRANCH   1   2
ATOM      2  C   UNL     1      39.225   3.180  -8.031  1.00  0.00     0.027 C 
BRANCH   2   3
ATOM      3  C   UNL     1      38.850   4.410  -7.250  1.00  0.00    -0.025 C 
ATOM      4  C   UNL     1      39.112   5.681  -7.597  1.00  0.00     0.020 C 
BRANCH   4   5
ATOM      5  C   UNL     1      39.765   6.136  -8.843  1.00  0.00     0.064 C 
ATOM      6  O   UNL     1      40.957   6.534  -8.794  1.00  0.00    -0.545 OA
ATOM      7  O   UNL     1      39.094   6.175 -10.058  1.00  0.00    -0.545 OA
ENDBRANCH   4   5
ENDBRANCH   2   3
ENDBRANCH   1   2
BRANCH   1   8
ATOM      8  C   UNL     1      41.796   2.979  -7.822  1.00  0.00     0.000 C 
BRANCH   8   9
ATOM      9  C   UNL     1      42.880   2.719  -6.762  1.00  0.00    -0.000 C 
BRANCH   9  10
ATOM     10  C   UNL     1      42.340   1.949  -5.545  1.00  0.00    -0.003 C 
ATOM     11  C   UNL     1      42.975   0.568  -5.388  1.00  0.00     0.004 C 
ENDBRANCH   9  10
ENDBRANCH   8   9
ENDBRANCH   1   8
TORSDOF 6
ENDMDL
MODEL 8
REMARK VINA RESULT:    -3.728      3.329      5.345
REMARK INTER + INTRA:          -5.575
REMARK INTER:                  -5.098
REMARK INTRA:                  -0.477
REMARK UNBOUND:                -0.540
REMARK SMILES CCCCCCC=CC(=O)[O-]
REMARK SMILES IDX 5 1 6 2 7 3 8 4 9 5 10 6 11 7 4 8 3 9 2 10 1 11
REMARK H PARENT
REMARK Flexibility Score: inf
ROOT
ATOM      1  C   UNL     1      40.491   3.419  -7.454  1.00  0.00     0.004 C 
ENDROOT
BRANCH   1   2
ATOM      2  C   UNL     1      41.703   2.666  -8.036  1.00  0.00     0.027 C 
BRANCH   2   3
ATOM      3  C   UNL     1      42.966   2.903  -7.251  1.00  0.00    -0.025 C 
ATOM      4  C   UNL     1      43.322   2.280  -6.116  1.00  0.00     0.020 C 
BRANCH   4   5
ATOM      5  C   UNL     1      42.585   1.193  -5.439  1.00  0.00     0.064 C 
ATOM      6  O   UNL     1      42.947   0.003  -5.627  1.00  0.00    -0.545 OA
ATOM      7  O   UNL     1      41.481   1.438  -4.632  1.00  0.00    -0.545 OA
ENDBRANCH   4   5
ENDBRANCH   2   3
ENDBRANCH   1   2
BRANCH   1   8
ATOM      8  C   UNL     1      39.147   3.062  -8.116  1.00  0.00     0.000 C 
BRANCH   8   9
ATOM      9  C   UNL     1      39.107   1.615  -8.638  1.00  0.00    -0.000 C 
BRANCH   9  10
ATOM     10  C   UNL     1      38.839   1.543 -10.150  1.00  0.00    -0.003 C 
ATOM     11  C   UNL     1      38.768   2.922 -10.806  1.00  0.00     0.004 C 
ENDBRANCH   9  10
ENDBRANCH   8   9
ENDBRANCH   1   8
TORSDOF 6
ENDMDL
MODEL 9
REMARK VINA RESULT:    -3.727      1.627      2.134
REMARK INTER + INTRA:          -5.573
REMARK INTER:                  -5.237
REMARK INTRA:                  -0.337
REMARK UNBOUND:                -0.540
REMARK SMILES CCCCCCC=CC(=O)[O-]
REMARK SMILES IDX 5 1 6 2 7 3 8 4 9 5 10 6 11 7 4 8 3 9 2 10 1 11
REMARK H PARENT
REMARK Flexibility Score: inf
ROOT
ATOM      1  C   UNL     1      40.502   2.722  -6.826  1.00  0.00     0.004 C 
ENDROOT
BRANCH   1   2
ATOM      2  C   UNL     1      40.026   3.909  -7.686  1.00  0.00     0.027 C 
BRANCH   2   3
ATOM      3  C   UNL     1      38.582   3.787  -8.096  1.00  0.00    -0.025 C 
ATOM      4  C   UNL     1      38.105   3.037  -9.102  1.00  0.00     0.020 C 
BRANCH   4   5
ATOM      5  C   UNL     1      38.883   2.130  -9.970  1.00  0.00     0.064 C 
ATOM      6  O   UNL     1      39.225   2.527 -11.114  1.00  0.00    -0.545 OA
ATOM      7  O   UNL     1      39.219   0.839  -9.582  1.00  0.00    -0.545 OA
ENDBRANCH   4   5
ENDBRANCH   2   3
ENDBRANCH   1   2
BRANCH   1   8
ATOM      8  C   UNL     1      41.977   2.335  -7.043  1.00  0.00     0.000 C 
BRANCH   8   9
ATOM      9  C   UNL     1      42.760   2.210  -5.725  1.00  0.00    -0.000 C 
BRANCH   9  10
ATOM     10  C   UNL     1      42.966   0.747  -5.300  1.00  0.00    -0.003 C 
ATOM     11  C   UNL     1      42.959  -0.221  -6.484  1.00  0.00     0.004 C 
ENDBRANCH   9  10
ENDBRANCH   8   9
ENDBRANCH   1   8
TORSDOF 6
ENDMDL
