MODEL 1
REMARK VINA RESULT:    -4.120      0.000      0.000
REMARK INTER + INTRA:          -4.361
REMARK INTER:                  -4.361
REMARK INTRA:                   0.000
REMARK UNBOUND:                 0.000
REMARK SMILES Cc1cc(O)c(C)c(C)c1O
REMARK SMILES IDX 1 1 2 2 3 3 4 4 6 5 8 6 10 7 9 8 7 9 11 10 5 12
REMARK H PARENT 11 11 5 13
REMARK Flexibility Score: inf
ROOT
ATOM      1  C   UNL     1     159.930 166.172 187.564  1.00  0.00     0.048 C 
ATOM      2  C   UNL     1     159.973 164.747 187.084  1.00  0.00    -0.005 A 
ATOM      3  C   UNL     1     159.888 163.699 188.004  1.00  0.00     0.053 A 
ATOM      4  C   UNL     1     159.958 162.369 187.581  1.00  0.00     0.119 A 
ATOM      5  C   UNL     1     160.110 162.066 186.212  1.00  0.00    -0.003 A 
ATOM      6  C   UNL     1     160.153 163.124 185.261  1.00  0.00    -0.002 A 
ATOM      7  C   UNL     1     160.122 164.467 185.715  1.00  0.00     0.121 A 
ATOM      8  C   UNL     1     160.258 162.849 183.776  1.00  0.00     0.049 C 
ATOM      9  C   UNL     1     160.206 160.621 185.779  1.00  0.00     0.049 C 
ENDROOT
BRANCH   7  10
ATOM     10  O   UNL     1     160.244 165.544 184.829  1.00  0.00    -0.507 OA
ATOM     11  H   UNL     1     160.238 165.449 183.822  1.00  0.00     0.293 HD
ENDBRANCH   7  10
BRANCH   4  12
ATOM     12  O   UNL     1     159.875 161.347 188.527  1.00  0.00    -0.508 OA
ATOM     13  H   UNL     1     159.610 161.529 189.488  1.00  0.00     0.293 HD
ENDBRANCH   4  12
TORSDOF 2
ENDMDL
MODEL 2
REMARK VINA RESULT:    -4.001      0.786      2.976
REMARK INTER + INTRA:          -4.235
REMARK INTER:                  -4.235
REMARK INTRA:                   0.000
REMARK UNBOUND:                 0.000
REMARK SMILES Cc1cc(O)c(C)c(C)c1O
REMARK SMILES IDX 1 1 2 2 3 3 4 4 6 5 8 6 10 7 9 8 7 9 11 10 5 12
REMARK H PARENT 11 11 5 13
REMARK Flexibility Score: inf
ROOT
ATOM      1  C   UNL     1     160.055 162.510 183.361  1.00  0.00     0.048 C 
ATOM      2  C   UNL     1     160.038 162.679 184.856  1.00  0.00    -0.005 A 
ATOM      3  C   UNL     1     160.033 161.553 185.683  1.00  0.00     0.053 A 
ATOM      4  C   UNL     1     159.986 161.687 187.073  1.00  0.00     0.119 A 
ATOM      5  C   UNL     1     159.948 162.969 187.662  1.00  0.00    -0.003 A 
ATOM      6  C   UNL     1     159.999 164.122 186.831  1.00  0.00    -0.002 A 
ATOM      7  C   UNL     1     160.005 163.964 185.422  1.00  0.00     0.121 A 
ATOM      8  C   UNL     1     160.018 165.519 187.416  1.00  0.00     0.049 C 
ATOM      9  C   UNL     1     159.875 163.091 189.167  1.00  0.00     0.049 C 
ENDROOT
BRANCH   7  10
ATOM     10  O   UNL     1     159.970 165.066 184.559  1.00  0.00    -0.507 OA
ATOM     11  H   UNL     1     160.608 165.848 184.619  1.00  0.00     0.293 HD
ENDBRANCH   7  10
BRANCH   4  12
ATOM     12  O   UNL     1     159.976 160.542 187.869  1.00  0.00    -0.508 OA
ATOM     13  H   UNL     1     159.618 159.657 187.529  1.00  0.00     0.293 HD
ENDBRANCH   4  12
TORSDOF 2
ENDMDL
MODEL 3
REMARK VINA RESULT:    -3.910      3.069      4.130
REMARK INTER + INTRA:          -4.139
REMARK INTER:                  -4.139
REMARK INTRA:                   0.000
REMARK UNBOUND:                 0.000
REMARK SMILES Cc1cc(O)c(C)c(C)c1O
REMARK SMILES IDX 1 1 2 2 3 3 4 4 6 5 8 6 10 7 9 8 7 9 11 10 5 12
REMARK H PARENT 11 11 5 13
REMARK Flexibility Score: inf
ROOT
ATOM      1  C   UNL     1     164.495 160.593 188.831  1.00  0.00     0.048 C 
ATOM      2  C   UNL     1     163.337 160.946 187.940  1.00  0.00    -0.005 A 
ATOM      3  C   UNL     1     162.147 161.421 188.500  1.00  0.00     0.053 A 
ATOM      4  C   UNL     1     161.048 161.725 187.692  1.00  0.00     0.119 A 
ATOM      5  C   UNL     1     161.128 161.561 186.293  1.00  0.00    -0.003 A 
ATOM      6  C   UNL     1     162.348 161.122 185.708  1.00  0.00    -0.002 A 
ATOM      7  C   UNL     1     163.438 160.779 186.549  1.00  0.00     0.121 A 
ATOM      8  C   UNL     1     162.502 160.984 184.208  1.00  0.00     0.049 C 
ATOM      9  C   UNL     1     159.920 161.875 185.440  1.00  0.00     0.049 C 
ENDROOT
BRANCH   7  10
ATOM     10  O   UNL     1     164.631 160.263 186.030  1.00  0.00    -0.507 OA
ATOM     11  H   UNL     1     164.839 160.208 185.042  1.00  0.00     0.293 HD
ENDBRANCH   7  10
BRANCH   4  12
ATOM     12  O   UNL     1     159.875 162.192 188.284  1.00  0.00    -0.508 OA
ATOM     13  H   UNL     1     159.832 162.432 189.268  1.00  0.00     0.293 HD
ENDBRANCH   4  12
TORSDOF 2
ENDMDL
MODEL 4
REMARK VINA RESULT:    -3.850      6.825      7.550
REMARK INTER + INTRA:          -4.075
REMARK INTER:                  -4.075
REMARK INTRA:                   0.000
REMARK UNBOUND:                 0.000
REMARK SMILES Cc1cc(O)c(C)c(C)c1O
REMARK SMILES IDX 1 1 2 2 3 3 4 4 6 5 8 6 10 7 9 8 7 9 11 10 5 12
REMARK H PARENT 11 11 5 13
REMARK Flexibility Score: inf
ROOT
ATOM      1  C   UNL     1     169.312 160.219 186.550  1.00  0.00     0.048 C 
ATOM      2  C   UNL     1     167.924 160.333 187.119  1.00  0.00    -0.005 A 
ATOM      3  C   UNL     1     167.730 160.257 188.501  1.00  0.00     0.053 A 
ATOM      4  C   UNL     1     166.446 160.329 189.047  1.00  0.00     0.119 A 
ATOM      5  C   UNL     1     165.324 160.486 188.207  1.00  0.00    -0.003 A 
ATOM      6  C   UNL     1     165.513 160.610 186.802  1.00  0.00    -0.002 A 
ATOM      7  C   UNL     1     166.821 160.493 186.264  1.00  0.00     0.121 A 
ATOM      8  C   UNL     1     164.347 160.836 185.864  1.00  0.00     0.049 C 
ATOM      9  C   UNL     1     163.942 160.539 188.818  1.00  0.00     0.049 C 
ENDROOT
BRANCH   7  10
ATOM     10  O   UNL     1     167.052 160.524 184.885  1.00  0.00    -0.507 OA
ATOM     11  H   UNL     1     166.351 160.299 184.191  1.00  0.00     0.293 HD
ENDBRANCH   7  10
BRANCH   4  12
ATOM     12  O   UNL     1     166.288 160.244 190.431  1.00  0.00    -0.508 OA
ATOM     13  H   UNL     1     166.619 159.445 190.959  1.00  0.00     0.293 HD
ENDBRANCH   4  12
TORSDOF 2
ENDMDL
MODEL 5
REMARK VINA RESULT:    -3.848     14.905     16.982
REMARK INTER + INTRA:          -4.073
REMARK INTER:                  -4.073
REMARK INTRA:                   0.000
REMARK UNBOUND:                 0.000
REMARK SMILES Cc1cc(O)c(C)c(C)c1O
REMARK SMILES IDX 1 1 2 2 3 3 4 4 6 5 8 6 10 7 9 8 7 9 11 10 5 12
REMARK H PARENT 11 11 5 13
REMARK Flexibility Score: inf
ROOT
ATOM      1  C   UNL     1     164.247 177.139 186.544  1.00  0.00     0.048 C 
ATOM      2  C   UNL     1     165.426 177.878 187.114  1.00  0.00    -0.005 A 
ATOM      3  C   UNL     1     165.537 178.052 188.496  1.00  0.00     0.053 A 
ATOM      4  C   UNL     1     166.607 178.763 189.044  1.00  0.00     0.119 A 
ATOM      5  C   UNL     1     167.598 179.314 188.205  1.00  0.00    -0.003 A 
ATOM      6  C   UNL     1     167.520 179.105 186.799  1.00  0.00    -0.002 A 
ATOM      7  C   UNL     1     166.404 178.415 186.260  1.00  0.00     0.121 A 
ATOM      8  C   UNL     1     168.588 179.626 185.861  1.00  0.00     0.049 C 
ATOM      9  C   UNL     1     168.736 180.098 188.817  1.00  0.00     0.049 C 
ENDROOT
BRANCH   7  10
ATOM     10  O   UNL     1     166.236 178.256 184.880  1.00  0.00    -0.507 OA
ATOM     11  H   UNL     1     166.086 179.023 184.238  1.00  0.00     0.293 HD
ENDBRANCH   7  10
BRANCH   4  12
ATOM     12  O   UNL     1     166.684 178.922 190.428  1.00  0.00    -0.508 OA
ATOM     13  H   UNL     1     165.912 179.297 190.967  1.00  0.00     0.293 HD
ENDBRANCH   4  12
TORSDOF 2
ENDMDL
MODEL 6
REMARK VINA RESULT:    -3.834     11.806     13.638
REMARK INTER + INTRA:          -4.059
REMARK INTER:                  -4.059
REMARK INTRA:                   0.000
REMARK UNBOUND:                 0.000
REMARK SMILES Cc1cc(O)c(C)c(C)c1O
REMARK SMILES IDX 1 1 2 2 3 3 4 4 6 5 8 6 10 7 9 8 7 9 11 10 5 12
REMARK H PARENT 11 11 5 13
REMARK Flexibility Score: inf
ROOT
ATOM      1  C   UNL     1     159.875 175.012 188.564  1.00  0.00     0.048 C 
ATOM      2  C   UNL     1     161.155 175.704 188.185  1.00  0.00    -0.005 A 
ATOM      3  C   UNL     1     161.202 177.100 188.130  1.00  0.00     0.053 A 
ATOM      4  C   UNL     1     162.373 177.761 187.749  1.00  0.00     0.119 A 
ATOM      5  C   UNL     1     163.530 177.025 187.420  1.00  0.00    -0.003 A 
ATOM      6  C   UNL     1     163.507 175.606 187.517  1.00  0.00    -0.002 A 
ATOM      7  C   UNL     1     162.298 174.952 187.865  1.00  0.00     0.121 A 
ATOM      8  C   UNL     1     164.739 174.773 187.229  1.00  0.00     0.049 C 
ATOM      9  C   UNL     1     164.779 177.760 186.990  1.00  0.00     0.049 C 
ENDROOT
BRANCH   7  10
ATOM     10  O   UNL     1     162.199 173.556 187.892  1.00  0.00    -0.507 OA
ATOM     11  H   UNL     1     161.349 173.047 187.691  1.00  0.00     0.293 HD
ENDBRANCH   7  10
BRANCH   4  12
ATOM     12  O   UNL     1     162.383 179.155 187.699  1.00  0.00    -0.508 OA
ATOM     13  H   UNL     1     163.087 179.702 188.180  1.00  0.00     0.293 HD
ENDBRANCH   4  12
TORSDOF 2
ENDMDL
MODEL 7
REMARK VINA RESULT:    -3.823     20.396     20.966
REMARK INTER + INTRA:          -4.047
REMARK INTER:                  -4.047
REMARK INTRA:                   0.000
REMARK UNBOUND:                 0.000
REMARK SMILES Cc1cc(O)c(C)c(C)c1O
REMARK SMILES IDX 1 1 2 2 3 3 4 4 6 5 8 6 10 7 9 8 7 9 11 10 5 12
REMARK H PARENT 11 11 5 13
REMARK Flexibility Score: inf
ROOT
ATOM      1  C   UNL     1     175.107 176.851 186.464  1.00  0.00     0.048 C 
ATOM      2  C   UNL     1     176.178 175.973 187.049  1.00  0.00    -0.005 A 
ATOM      3  C   UNL     1     176.381 175.950 188.431  1.00  0.00     0.053 A 
ATOM      4  C   UNL     1     177.391 175.165 188.993  1.00  0.00     0.119 A 
ATOM      5  C   UNL     1     178.220 174.377 188.167  1.00  0.00    -0.003 A 
ATOM      6  C   UNL     1     177.994 174.358 186.763  1.00  0.00    -0.002 A 
ATOM      7  C   UNL     1     176.990 175.193 186.209  1.00  0.00     0.121 A 
ATOM      8  C   UNL     1     178.819 173.486 185.840  1.00  0.00     0.049 C 
ATOM      9  C   UNL     1     179.322 173.553 188.793  1.00  0.00     0.049 C 
ENDROOT
BRANCH   7  10
ATOM     10  O   UNL     1     176.783 175.275 184.827  1.00  0.00    -0.507 OA
ATOM     11  H   UNL     1     177.440 175.694 184.183  1.00  0.00     0.293 HD
ENDBRANCH   7  10
BRANCH   4  12
ATOM     12  O   UNL     1     177.569 175.170 190.376  1.00  0.00    -0.508 OA
ATOM     13  H   UNL     1     178.457 174.929 190.802  1.00  0.00     0.293 HD
ENDBRANCH   4  12
TORSDOF 2
ENDMDL
MODEL 8
REMARK VINA RESULT:    -3.767     19.392     20.784
REMARK INTER + INTRA:          -3.987
REMARK INTER:                  -3.987
REMARK INTRA:                   0.000
REMARK UNBOUND:                 0.000
REMARK SMILES Cc1cc(O)c(C)c(C)c1O
REMARK SMILES IDX 1 1 2 2 3 3 4 4 6 5 8 6 10 7 9 8 7 9 11 10 5 12
REMARK H PARENT 11 11 5 13
REMARK Flexibility Score: inf
ROOT
ATOM      1  C   UNL     1     179.616 170.592 188.046  1.00  0.00     0.048 C 
ATOM      2  C   UNL     1     178.815 171.864 188.026  1.00  0.00    -0.005 A 
ATOM      3  C   UNL     1     179.257 172.955 187.273  1.00  0.00     0.053 A 
ATOM      4  C   UNL     1     178.544 174.156 187.266  1.00  0.00     0.119 A 
ATOM      5  C   UNL     1     177.358 174.282 188.019  1.00  0.00    -0.003 A 
ATOM      6  C   UNL     1     176.874 173.165 188.754  1.00  0.00    -0.002 A 
ATOM      7  C   UNL     1     177.634 171.968 188.781  1.00  0.00     0.121 A 
ATOM      8  C   UNL     1     175.577 173.231 189.533  1.00  0.00     0.049 C 
ATOM      9  C   UNL     1     176.614 175.598 188.015  1.00  0.00     0.049 C 
ENDROOT
BRANCH   7  10
ATOM     10  O   UNL     1     177.246 170.868 189.554  1.00  0.00    -0.507 OA
ATOM     11  H   UNL     1     176.291 170.684 189.832  1.00  0.00     0.293 HD
ENDBRANCH   7  10
BRANCH   4  12
ATOM     12  O   UNL     1     179.018 175.226 186.507  1.00  0.00    -0.508 OA
ATOM     13  H   UNL     1     179.313 176.096 186.934  1.00  0.00     0.293 HD
ENDBRANCH   4  12
TORSDOF 2
ENDMDL
MODEL 9
REMARK VINA RESULT:    -3.764     19.311     20.350
REMARK INTER + INTRA:          -3.984
REMARK INTER:                  -3.984
REMARK INTRA:                   0.000
REMARK UNBOUND:                 0.000
REMARK SMILES Cc1cc(O)c(C)c(C)c1O
REMARK SMILES IDX 1 1 2 2 3 3 4 4 6 5 8 6 10 7 9 8 7 9 11 10 5 12
REMARK H PARENT 11 11 5 13
REMARK Flexibility Score: inf
ROOT
ATOM      1  C   UNL     1     176.417 176.152 188.053  1.00  0.00     0.048 C 
ATOM      2  C   UNL     1     176.935 174.752 188.232  1.00  0.00    -0.005 A 
ATOM      3  C   UNL     1     176.307 173.886 189.132  1.00  0.00     0.053 A 
ATOM      4  C   UNL     1     176.793 172.592 189.336  1.00  0.00     0.119 A 
ATOM      5  C   UNL     1     177.926 172.138 188.629  1.00  0.00    -0.003 A 
ATOM      6  C   UNL     1     178.546 172.995 187.678  1.00  0.00    -0.002 A 
ATOM      7  C   UNL     1     178.064 174.319 187.515  1.00  0.00     0.121 A 
ATOM      8  C   UNL     1     179.730 172.535 186.853  1.00  0.00     0.049 C 
ATOM      9  C   UNL     1     178.447 170.742 188.882  1.00  0.00     0.049 C 
ENDROOT
BRANCH   7  10
ATOM     10  O   UNL     1     178.689 175.227 186.655  1.00  0.00    -0.507 OA
ATOM     11  H   UNL     1     178.190 175.856 186.039  1.00  0.00     0.293 HD
ENDBRANCH   7  10
BRANCH   4  12
ATOM     12  O   UNL     1     176.144 171.757 190.246  1.00  0.00    -0.508 OA
ATOM     13  H   UNL     1     175.401 171.130 189.960  1.00  0.00     0.293 HD
ENDBRANCH   4  12
TORSDOF 2
ENDMDL
