MODEL 1
REMARK VINA RESULT:    -2.881      0.000      0.000
REMARK INTER + INTRA:          -4.756
REMARK INTER:                  -4.228
REMARK INTRA:                  -0.528
REMARK UNBOUND:                -0.528
REMARK SMILES O=C([O-])CCCCCCCC(=O)[O-]
REMARK SMILES IDX 7 1 6 2 5 3 4 4 2 5 1 6 3 7 8 8 9 9 10 10 11 11 12 12 13 13
REMARK H PARENT
REMARK Flexibility Score: inf
ROOT
ATOM      1  C   UNL     1     -10.004 -18.090  -1.409  1.00  0.00     0.000 C 
ENDROOT
BRANCH   1   2
ATOM      2  C   UNL     1      -8.889 -17.383  -0.620  1.00  0.00     0.000 C 
BRANCH   2   3
ATOM      3  C   UNL     1      -7.875 -16.677  -1.535  1.00  0.00     0.006 C 
BRANCH   3   4
ATOM      4  C   UNL     1      -7.912 -15.149  -1.391  1.00  0.00     0.053 C 
BRANCH   4   5
ATOM      5  C   UNL     1      -7.910 -14.499  -2.738  1.00  0.00     0.041 C 
ATOM      6  O   UNL     1      -7.880 -15.204  -3.782  1.00  0.00    -0.550 OA
ATOM      7  O   UNL     1      -7.991 -13.116  -2.844  1.00  0.00    -0.550 OA
ENDBRANCH   4   5
ENDBRANCH   3   4
ENDBRANCH   2   3
ENDBRANCH   1   2
BRANCH   1   8
ATOM      8  C   UNL     1      -9.687 -18.204  -2.908  1.00  0.00     0.000 C 
BRANCH   8   9
ATOM      9  C   UNL     1      -9.693 -19.660  -3.408  1.00  0.00     0.006 C 
BRANCH   9  10
ATOM     10  C   UNL     1      -8.936 -20.600  -2.460  1.00  0.00     0.053 C 
BRANCH  10  11
ATOM     11  C   UNL     1      -9.763 -21.788  -2.076  1.00  0.00     0.041 C 
ATOM     12  O   UNL     1      -9.273 -22.690  -1.345  1.00  0.00    -0.550 OA
ATOM     13  O   UNL     1     -11.082 -21.887  -2.498  1.00  0.00    -0.550 OA
ENDBRANCH  10  11
ENDBRANCH   9  10
ENDBRANCH   8   9
ENDBRANCH   1   8
TORSDOF 8
ENDMDL
MODEL 2
REMARK VINA RESULT:    -2.843     14.311     15.778
REMARK INTER + INTRA:          -4.701
REMARK INTER:                  -4.158
REMARK INTRA:                  -0.543
REMARK UNBOUND:                -0.528
REMARK SMILES O=C([O-])CCCCCCCC(=O)[O-]
REMARK SMILES IDX 7 1 6 2 5 3 4 4 2 5 1 6 3 7 8 8 9 9 10 10 11 11 12 12 13 13
REMARK H PARENT
REMARK Flexibility Score: inf
ROOT
ATOM      1  C   UNL     1      -8.271 -18.140  13.115  1.00  0.00     0.000 C 
ENDROOT
BRANCH   1   2
ATOM      2  C   UNL     1      -8.776 -19.578  12.903  1.00  0.00     0.000 C 
BRANCH   2   3
ATOM      3  C   UNL     1      -9.426 -19.778  11.525  1.00  0.00     0.006 C 
BRANCH   3   4
ATOM      4  C   UNL     1     -10.100 -18.504  10.997  1.00  0.00     0.053 C 
BRANCH   4   5
ATOM      5  C   UNL     1      -9.475 -18.082   9.705  1.00  0.00     0.041 C 
ATOM      6  O   UNL     1      -9.465 -16.867   9.373  1.00  0.00    -0.550 OA
ATOM      7  O   UNL     1      -8.857 -19.023   8.890  1.00  0.00    -0.550 OA
ENDBRANCH   4   5
ENDBRANCH   3   4
ENDBRANCH   2   3
ENDBRANCH   1   2
BRANCH   1   8
ATOM      8  C   UNL     1      -8.312 -17.710  14.590  1.00  0.00     0.000 C 
BRANCH   8   9
ATOM      9  C   UNL     1      -9.238 -16.504  14.831  1.00  0.00     0.006 C 
BRANCH   9  10
ATOM     10  C   UNL     1     -10.649 -16.738  14.273  1.00  0.00     0.053 C 
BRANCH  10  11
ATOM     11  C   UNL     1     -11.585 -17.257  15.321  1.00  0.00     0.041 C 
ATOM     12  O   UNL     1     -11.662 -18.495  15.544  1.00  0.00    -0.550 OA
ATOM     13  O   UNL     1     -12.349 -16.375  16.073  1.00  0.00    -0.550 OA
ENDBRANCH  10  11
ENDBRANCH   9  10
ENDBRANCH   8   9
ENDBRANCH   1   8
TORSDOF 8
ENDMDL
MODEL 3
REMARK VINA RESULT:    -2.840     14.875     16.148
REMARK INTER + INTRA:          -4.696
REMARK INTER:                  -3.795
REMARK INTRA:                  -0.901
REMARK UNBOUND:                -0.528
REMARK SMILES O=C([O-])CCCCCCCC(=O)[O-]
REMARK SMILES IDX 7 1 6 2 5 3 4 4 2 5 1 6 3 7 8 8 9 9 10 10 11 11 12 12 13 13
REMARK H PARENT
REMARK Flexibility Score: inf
ROOT
ATOM      1  C   UNL     1      -9.780 -17.666  11.437  1.00  0.00     0.000 C 
ENDROOT
BRANCH   1   2
ATOM      2  C   UNL     1      -8.635 -17.582  12.460  1.00  0.00     0.000 C 
BRANCH   2   3
ATOM      3  C   UNL     1      -9.120 -17.160  13.856  1.00  0.00     0.006 C 
BRANCH   3   4
ATOM      4  C   UNL     1     -10.648 -17.040  13.941  1.00  0.00     0.053 C 
BRANCH   4   5
ATOM      5  C   UNL     1     -11.106 -17.208  15.355  1.00  0.00     0.041 C 
ATOM      6  O   UNL     1     -10.509 -18.006  16.124  1.00  0.00    -0.550 OA
ATOM      7  O   UNL     1     -12.164 -16.447  15.839  1.00  0.00    -0.550 OA
ENDBRANCH   4   5
ENDBRANCH   3   4
ENDBRANCH   2   3
ENDBRANCH   1   2
BRANCH   1   8
ATOM      8  C   UNL     1      -9.855 -19.036  10.744  1.00  0.00     0.000 C 
BRANCH   8   9
ATOM      9  C   UNL     1      -9.173 -20.150  11.559  1.00  0.00     0.006 C 
BRANCH   9  10
ATOM     10  C   UNL     1     -10.188 -21.015  12.319  1.00  0.00     0.053 C 
BRANCH  10  11
ATOM     11  C   UNL     1     -10.069 -20.841  13.802  1.00  0.00     0.041 C 
ATOM     12  O   UNL     1     -11.093 -20.918  14.532  1.00  0.00    -0.550 OA
ATOM     13  O   UNL     1      -8.826 -20.624  14.382  1.00  0.00    -0.550 OA
ENDBRANCH  10  11
ENDBRANCH   9  10
ENDBRANCH   8   9
ENDBRANCH   1   8
TORSDOF 8
ENDMDL
MODEL 4
REMARK VINA RESULT:    -2.773      1.453      6.912
REMARK INTER + INTRA:          -4.598
REMARK INTER:                  -4.453
REMARK INTRA:                  -0.145
REMARK UNBOUND:                -0.528
REMARK SMILES O=C([O-])CCCCCCCC(=O)[O-]
REMARK SMILES IDX 7 1 6 2 5 3 4 4 2 5 1 6 3 7 8 8 9 9 10 10 11 11 12 12 13 13
REMARK H PARENT
REMARK Flexibility Score: inf
ROOT
ATOM      1  C   UNL     1      -9.449 -18.369  -1.770  1.00  0.00     0.000 C 
ENDROOT
BRANCH   1   2
ATOM      2  C   UNL     1      -9.013 -19.640  -2.520  1.00  0.00     0.000 C 
BRANCH   2   3
ATOM      3  C   UNL     1      -9.324 -20.925  -1.735  1.00  0.00     0.006 C 
BRANCH   3   4
ATOM      4  C   UNL     1     -10.595 -21.628  -2.231  1.00  0.00     0.053 C 
BRANCH   4   5
ATOM      5  C   UNL     1     -10.272 -22.550  -3.364  1.00  0.00     0.041 C 
ATOM      6  O   UNL     1     -11.197 -23.125  -3.997  1.00  0.00    -0.550 OA
ATOM      7  O   UNL     1      -8.952 -22.736  -3.755  1.00  0.00    -0.550 OA
ENDBRANCH   4   5
ENDBRANCH   3   4
ENDBRANCH   2   3
ENDBRANCH   1   2
BRANCH   1   8
ATOM      8  C   UNL     1      -9.310 -17.101  -2.626  1.00  0.00     0.000 C 
BRANCH   8   9
ATOM      9  C   UNL     1      -8.132 -16.213  -2.184  1.00  0.00     0.006 C 
BRANCH   9  10
ATOM     10  C   UNL     1      -7.919 -15.023  -3.129  1.00  0.00     0.053 C 
BRANCH  10  11
ATOM     11  C   UNL     1      -8.025 -13.713  -2.409  1.00  0.00     0.041 C 
ATOM     12  O   UNL     1      -8.278 -12.658  -3.049  1.00  0.00    -0.550 OA
ATOM     13  O   UNL     1      -7.875 -13.660  -1.030  1.00  0.00    -0.550 OA
ENDBRANCH  10  11
ENDBRANCH   9  10
ENDBRANCH   8   9
ENDBRANCH   1   8
TORSDOF 8
ENDMDL
MODEL 5
REMARK VINA RESULT:    -2.726     14.765     16.497
REMARK INTER + INTRA:          -4.529
REMARK INTER:                  -3.941
REMARK INTRA:                  -0.588
REMARK UNBOUND:                -0.528
REMARK SMILES O=C([O-])CCCCCCCC(=O)[O-]
REMARK SMILES IDX 7 1 6 2 5 3 4 4 2 5 1 6 3 7 8 8 9 9 10 10 11 11 12 12 13 13
REMARK H PARENT
REMARK Flexibility Score: inf
ROOT
ATOM      1  C   UNL     1      -9.102 -16.584  14.712  1.00  0.00     0.000 C 
ENDROOT
BRANCH   1   2
ATOM      2  C   UNL     1     -10.491 -16.749  14.072  1.00  0.00     0.000 C 
BRANCH   2   3
ATOM      3  C   UNL     1     -11.578 -17.094  15.103  1.00  0.00     0.006 C 
BRANCH   3   4
ATOM      4  C   UNL     1     -11.115 -18.142  16.124  1.00  0.00     0.053 C 
BRANCH   4   5
ATOM      5  C   UNL     1     -11.400 -19.521  15.621  1.00  0.00     0.041 C 
ATOM      6  O   UNL     1     -10.520 -20.159  14.985  1.00  0.00    -0.550 OA
ATOM      7  O   UNL     1     -12.622 -20.124  15.898  1.00  0.00    -0.550 OA
ENDBRANCH   4   5
ENDBRANCH   3   4
ENDBRANCH   2   3
ENDBRANCH   1   2
BRANCH   1   8
ATOM      8  C   UNL     1      -7.972 -17.119  13.818  1.00  0.00     0.000 C 
BRANCH   8   9
ATOM      9  C   UNL     1      -8.458 -18.190  12.825  1.00  0.00     0.006 C 
BRANCH   9  10
ATOM     10  C   UNL     1      -8.164 -17.804  11.368  1.00  0.00     0.053 C 
BRANCH  10  11
ATOM     11  C   UNL     1      -9.397 -17.846  10.520  1.00  0.00     0.041 C 
ATOM     12  O   UNL     1     -10.135 -18.867  10.525  1.00  0.00    -0.550 OA
ATOM     13  O   UNL     1      -9.749 -16.748   9.746  1.00  0.00    -0.550 OA
ENDBRANCH  10  11
ENDBRANCH   9  10
ENDBRANCH   8   9
ENDBRANCH   1   8
TORSDOF 8
ENDMDL
MODEL 6
REMARK VINA RESULT:    -2.724     14.608     15.794
REMARK INTER + INTRA:          -4.527
REMARK INTER:                  -4.098
REMARK INTRA:                  -0.428
REMARK UNBOUND:                -0.528
REMARK SMILES O=C([O-])CCCCCCCC(=O)[O-]
REMARK SMILES IDX 7 1 6 2 5 3 4 4 2 5 1 6 3 7 8 8 9 9 10 10 11 11 12 12 13 13
REMARK H PARENT
REMARK Flexibility Score: inf
ROOT
ATOM      1  C   UNL     1      -9.724 -19.352  11.047  1.00  0.00     0.000 C 
ENDROOT
BRANCH   1   2
ATOM      2  C   UNL     1      -9.780 -17.843  11.339  1.00  0.00     0.000 C 
BRANCH   2   3
ATOM      3  C   UNL     1      -9.615 -17.524  12.834  1.00  0.00     0.006 C 
BRANCH   3   4
ATOM      4  C   UNL     1     -10.822 -16.776  13.417  1.00  0.00     0.053 C 
BRANCH   4   5
ATOM      5  C   UNL     1     -10.887 -16.965  14.899  1.00  0.00     0.041 C 
ATOM      6  O   UNL     1     -11.929 -16.652  15.534  1.00  0.00    -0.550 OA
ATOM      7  O   UNL     1      -9.814 -17.534  15.575  1.00  0.00    -0.550 OA
ENDBRANCH   4   5
ENDBRANCH   3   4
ENDBRANCH   2   3
ENDBRANCH   1   2
BRANCH   1   8
ATOM      8  C   UNL     1      -9.154 -20.161  12.223  1.00  0.00     0.000 C 
BRANCH   8   9
ATOM      9  C   UNL     1      -9.768 -21.569  12.328  1.00  0.00     0.006 C 
BRANCH   9  10
ATOM     10  C   UNL     1     -10.857 -21.646  13.407  1.00  0.00     0.053 C 
BRANCH  10  11
ATOM     11  C   UNL     1     -12.061 -22.400  12.932  1.00  0.00     0.041 C 
ATOM     12  O   UNL     1     -12.110 -22.836  11.751  1.00  0.00    -0.550 OA
ATOM     13  O   UNL     1     -13.116 -22.649  13.800  1.00  0.00    -0.550 OA
ENDBRANCH  10  11
ENDBRANCH   9  10
ENDBRANCH   8   9
ENDBRANCH   1   8
TORSDOF 8
ENDMDL
MODEL 7
REMARK VINA RESULT:    -2.706     14.526     15.884
REMARK INTER + INTRA:          -4.500
REMARK INTER:                  -3.841
REMARK INTRA:                  -0.659
REMARK UNBOUND:                -0.528
REMARK SMILES O=C([O-])CCCCCCCC(=O)[O-]
REMARK SMILES IDX 7 1 6 2 5 3 4 4 2 5 1 6 3 7 8 8 9 9 10 10 11 11 12 12 13 13
REMARK H PARENT
REMARK Flexibility Score: inf
ROOT
ATOM      1  C   UNL     1     -10.723 -16.755  13.701  1.00  0.00     0.000 C 
ENDROOT
BRANCH   1   2
ATOM      2  C   UNL     1      -9.234 -17.130  13.805  1.00  0.00     0.000 C 
BRANCH   2   3
ATOM      3  C   UNL     1      -8.673 -17.688  12.487  1.00  0.00     0.006 C 
BRANCH   3   4
ATOM      4  C   UNL     1      -9.757 -18.322  11.603  1.00  0.00     0.053 C 
BRANCH   4   5
ATOM      5  C   UNL     1      -9.527 -17.975  10.167  1.00  0.00     0.041 C 
ATOM      6  O   UNL     1      -9.745 -16.805   9.755  1.00  0.00    -0.550 OA
ATOM      7  O   UNL     1      -9.023 -18.930   9.292  1.00  0.00    -0.550 OA
ENDBRANCH   4   5
ENDBRANCH   3   4
ENDBRANCH   2   3
ENDBRANCH   1   2
BRANCH   1   8
ATOM      8  C   UNL     1     -11.469 -16.924  15.034  1.00  0.00     0.000 C 
BRANCH   8   9
ATOM      9  C   UNL     1     -10.816 -17.975  15.950  1.00  0.00     0.006 C 
BRANCH   9  10
ATOM     10  C   UNL     1     -11.495 -19.346  15.832  1.00  0.00     0.053 C 
BRANCH  10  11
ATOM     11  C   UNL     1     -10.642 -20.329  15.090  1.00  0.00     0.041 C 
ATOM     12  O   UNL     1      -9.389 -20.304  15.219  1.00  0.00    -0.550 OA
ATOM     13  O   UNL     1     -11.230 -21.290  14.278  1.00  0.00    -0.550 OA
ENDBRANCH  10  11
ENDBRANCH   9  10
ENDBRANCH   8   9
ENDBRANCH   1   8
TORSDOF 8
ENDMDL
MODEL 8
REMARK VINA RESULT:    -2.680      1.341      1.759
REMARK INTER + INTRA:          -4.462
REMARK INTER:                  -4.180
REMARK INTRA:                  -0.283
REMARK UNBOUND:                -0.528
REMARK SMILES O=C([O-])CCCCCCCC(=O)[O-]
REMARK SMILES IDX 7 1 6 2 5 3 4 4 2 5 1 6 3 7 8 8 9 9 10 10 11 11 12 12 13 13
REMARK H PARENT
REMARK Flexibility Score: inf
ROOT
ATOM      1  C   UNL     1      -9.918 -17.892  -1.719  1.00  0.00     0.000 C 
ENDROOT
BRANCH   1   2
ATOM      2  C   UNL     1      -9.264 -17.157  -2.902  1.00  0.00     0.000 C 
BRANCH   2   3
ATOM      3  C   UNL     1      -8.252 -16.093  -2.448  1.00  0.00     0.006 C 
BRANCH   3   4
ATOM      4  C   UNL     1      -7.981 -15.034  -3.526  1.00  0.00     0.053 C 
BRANCH   4   5
ATOM      5  C   UNL     1      -8.008 -13.663  -2.928  1.00  0.00     0.041 C 
ATOM      6  O   UNL     1      -8.196 -12.656  -3.661  1.00  0.00    -0.550 OA
ATOM      7  O   UNL     1      -7.875 -13.500  -1.555  1.00  0.00    -0.550 OA
ENDBRANCH   4   5
ENDBRANCH   3   4
ENDBRANCH   2   3
ENDBRANCH   1   2
BRANCH   1   8
ATOM      8  C   UNL     1      -8.970 -18.902  -1.053  1.00  0.00     0.000 C 
BRANCH   8   9
ATOM      9  C   UNL     1      -8.793 -20.186  -1.883  1.00  0.00     0.006 C 
BRANCH   9  10
ATOM     10  C   UNL     1     -10.126 -20.908  -2.123  1.00  0.00     0.053 C 
BRANCH  10  11
ATOM     11  C   UNL     1      -9.985 -22.395  -2.005  1.00  0.00     0.041 C 
ATOM     12  O   UNL     1     -10.091 -23.124  -3.026  1.00  0.00    -0.550 OA
ATOM     13  O   UNL     1      -9.707 -22.973  -0.773  1.00  0.00    -0.550 OA
ENDBRANCH  10  11
ENDBRANCH   9  10
ENDBRANCH   8   9
ENDBRANCH   1   8
TORSDOF 8
ENDMDL
