MODEL 1
REMARK VINA RESULT:    -0.051      0.000      0.000
REMARK INTER + INTRA:          -0.182
REMARK INTER:                  -0.056
REMARK INTRA:                  -0.126
REMARK UNBOUND:                -0.126
REMARK SMILES CC(=O)[C@H]1CC[C@H]2[C@H]3CC=C4C[C@H](O)CC[C@@]4(C)[C@H]3CC[C@]12C
REMARK SMILES IDX 4 1 5 2 6 3 7 4 22 5 21 6 20 7 19 8 8 9 9 10 10 11 11 12
REMARK SMILES IDX 17 13 16 14 15 15 13 16 12 17 18 18 23 19 2 20 1 21 3 22
REMARK SMILES IDX 14 23
REMARK H PARENT 14 24
REMARK Flexibility Score: inf
ROOT
ATOM      1  C   UNL     1      19.542  26.032   3.700  1.00  0.00     0.062 C 
ATOM      2  C   UNL     1      19.245  24.515   3.565  1.00  0.00     0.012 C 
ATOM      3  C   UNL     1      18.569  24.080   4.878  1.00  0.00     0.005 C 
ATOM      4  C   UNL     1      18.409  25.377   5.664  1.00  0.00    -0.001 C 
ATOM      5  C   UNL     1      19.573  26.277   5.230  1.00  0.00    -0.020 C 
ATOM      6  C   UNL     1      19.224  27.714   5.659  1.00  0.00     0.008 C 
ATOM      7  C   UNL     1      18.960  27.807   7.180  1.00  0.00     0.005 C 
ATOM      8  C   UNL     1      17.902  26.786   7.732  1.00  0.00     0.003 C 
ATOM      9  C   UNL     1      18.118  25.333   7.182  1.00  0.00     0.000 C 
ATOM     10  C   UNL     1      19.083  24.446   8.019  1.00  0.00     0.031 C 
ATOM     11  C   UNL     1      19.607  25.073   9.287  1.00  0.00    -0.027 C 
ATOM     12  C   UNL     1      19.020  26.115   9.910  1.00  0.00    -0.065 C 
ATOM     13  C   UNL     1      17.782  26.779   9.308  1.00  0.00    -0.008 C 
ATOM     14  C   UNL     1      17.608  28.232   9.865  1.00  0.00     0.014 C 
ATOM     15  C   UNL     1      17.822  28.342  11.379  1.00  0.00     0.033 C 
ATOM     16  C   UNL     1      19.228  27.864  11.743  1.00  0.00     0.118 C 
ATOM     17  C   UNL     1      19.418  26.395  11.349  1.00  0.00     0.063 C 
ATOM     18  C   UNL     1      16.535  25.953   9.731  1.00  0.00     0.016 C 
ATOM     19  C   UNL     1      20.964  25.871   5.804  1.00  0.00     0.012 C 
ENDROOT
BRANCH   1  20
ATOM     20  C   UNL     1      20.756  26.549   2.941  1.00  0.00     0.133 C 
ATOM     21  C   UNL     1      20.957  28.003   2.618  1.00  0.00     0.088 C 
ATOM     22  O   UNL     1      21.610  25.750   2.589  1.00  0.00    -0.300 OA
ENDBRANCH   1  20
BRANCH  16  23
ATOM     23  O   UNL     1      19.421  28.016  13.125  1.00  0.00    -0.393 OA
ATOM     24  H   UNL     1      20.394  27.918  13.292  1.00  0.00     0.210 HD
ENDBRANCH  16  23
TORSDOF 2
ENDMDL
MODEL 2
REMARK VINA RESULT:     0.120      1.334      6.726
REMARK INTER + INTRA:           0.004
REMARK INTER:                  -0.189
REMARK INTRA:                   0.193
REMARK UNBOUND:                -0.126
REMARK SMILES CC(=O)[C@H]1CC[C@H]2[C@H]3CC=C4C[C@H](O)CC[C@@]4(C)[C@H]3CC[C@]12C
REMARK SMILES IDX 4 1 5 2 6 3 7 4 22 5 21 6 20 7 19 8 8 9 9 10 10 11 11 12
REMARK SMILES IDX 17 13 16 14 15 15 13 16 12 17 18 18 23 19 2 20 1 21 3 22
REMARK SMILES IDX 14 23
REMARK H PARENT 14 24
REMARK Flexibility Score: inf
ROOT
ATOM      1  C   UNL     1      17.875  25.730   9.711  1.00  0.00     0.062 C 
ATOM      2  C   UNL     1      16.375  25.491   9.398  1.00  0.00     0.012 C 
ATOM      3  C   UNL     1      16.279  25.212   7.887  1.00  0.00     0.005 C 
ATOM      4  C   UNL     1      17.729  25.195   7.418  1.00  0.00    -0.001 C 
ATOM      5  C   UNL     1      18.484  26.152   8.350  1.00  0.00    -0.020 C 
ATOM      6  C   UNL     1      19.986  25.851   8.196  1.00  0.00     0.008 C 
ATOM      7  C   UNL     1      20.448  25.994   6.727  1.00  0.00     0.005 C 
ATOM      8  C   UNL     1      19.604  25.178   5.685  1.00  0.00     0.003 C 
ATOM      9  C   UNL     1      18.059  25.320   5.912  1.00  0.00     0.000 C 
ATOM     10  C   UNL     1      17.391  26.518   5.181  1.00  0.00     0.031 C 
ATOM     11  C   UNL     1      18.300  27.324   4.288  1.00  0.00    -0.027 C 
ATOM     12  C   UNL     1      19.469  26.867   3.794  1.00  0.00    -0.065 C 
ATOM     13  C   UNL     1      19.981  25.480   4.180  1.00  0.00    -0.008 C 
ATOM     14  C   UNL     1      21.528  25.380   3.956  1.00  0.00     0.014 C 
ATOM     15  C   UNL     1      22.000  25.981   2.627  1.00  0.00     0.033 C 
ATOM     16  C   UNL     1      21.608  27.457   2.554  1.00  0.00     0.118 C 
ATOM     17  C   UNL     1      20.085  27.616   2.625  1.00  0.00     0.063 C 
ATOM     18  C   UNL     1      19.297  24.436   3.252  1.00  0.00     0.016 C 
ATOM     19  C   UNL     1      18.213  27.665   8.094  1.00  0.00     0.012 C 
ENDROOT
BRANCH   1  20
ATOM     20  C   UNL     1      18.179  26.669  10.870  1.00  0.00     0.133 C 
ATOM     21  C   UNL     1      17.501  28.000  11.041  1.00  0.00     0.088 C 
ATOM     22  O   UNL     1      19.000  26.322  11.705  1.00  0.00    -0.300 OA
ENDBRANCH   1  20
BRANCH  16  23
ATOM     23  O   UNL     1      22.088  28.000   1.352  1.00  0.00    -0.393 OA
ATOM     24  H   UNL     1      22.584  28.826   1.588  1.00  0.00     0.210 HD
ENDBRANCH  16  23
TORSDOF 2
ENDMDL
MODEL 3
REMARK VINA RESULT:     0.163      1.453      1.829
REMARK INTER + INTRA:           0.051
REMARK INTER:                  -0.001
REMARK INTRA:                   0.053
REMARK UNBOUND:                -0.126
REMARK SMILES CC(=O)[C@H]1CC[C@H]2[C@H]3CC=C4C[C@H](O)CC[C@@]4(C)[C@H]3CC[C@]12C
REMARK SMILES IDX 4 1 5 2 6 3 7 4 22 5 21 6 20 7 19 8 8 9 9 10 10 11 11 12
REMARK SMILES IDX 17 13 16 14 15 15 13 16 12 17 18 18 23 19 2 20 1 21 3 22
REMARK SMILES IDX 14 23
REMARK H PARENT 14 24
REMARK Flexibility Score: inf
ROOT
ATOM      1  C   UNL     1      18.002  25.436   4.727  1.00  0.00     0.062 C 
ATOM      2  C   UNL     1      18.617  24.019   4.868  1.00  0.00     0.012 C 
ATOM      3  C   UNL     1      18.734  23.739   6.377  1.00  0.00     0.005 C 
ATOM      4  C   UNL     1      18.087  24.953   7.034  1.00  0.00    -0.001 C 
ATOM      5  C   UNL     1      18.325  26.126   6.076  1.00  0.00    -0.020 C 
ATOM      6  C   UNL     1      17.350  27.248   6.475  1.00  0.00     0.008 C 
ATOM      7  C   UNL     1      17.534  27.665   7.953  1.00  0.00     0.005 C 
ATOM      8  C   UNL     1      17.481  26.484   8.986  1.00  0.00     0.003 C 
ATOM      9  C   UNL     1      18.330  25.245   8.533  1.00  0.00     0.000 C 
ATOM     10  C   UNL     1      19.821  25.269   8.974  1.00  0.00     0.031 C 
ATOM     11  C   UNL     1      20.223  26.432   9.846  1.00  0.00    -0.027 C 
ATOM     12  C   UNL     1      19.351  27.176  10.557  1.00  0.00    -0.065 C 
ATOM     13  C   UNL     1      17.849  26.909  10.463  1.00  0.00    -0.008 C 
ATOM     14  C   UNL     1      17.034  28.171  10.905  1.00  0.00     0.014 C 
ATOM     15  C   UNL     1      17.571  28.838  12.177  1.00  0.00     0.033 C 
ATOM     16  C   UNL     1      19.024  29.266  11.968  1.00  0.00     0.118 C 
ATOM     17  C   UNL     1      19.907  28.049  11.669  1.00  0.00     0.063 C 
ATOM     18  C   UNL     1      17.502  25.751  11.440  1.00  0.00     0.016 C 
ATOM     19  C   UNL     1      19.786  26.670   6.057  1.00  0.00     0.012 C 
ENDROOT
BRANCH   1  20
ATOM     20  C   UNL     1      18.406  26.224   3.488  1.00  0.00     0.133 C 
ATOM     21  C   UNL     1      19.798  26.197   2.923  1.00  0.00     0.088 C 
ATOM     22  O   UNL     1      17.560  26.898   2.921  1.00  0.00    -0.300 OA
ENDBRANCH   1  20
BRANCH  16  23
ATOM     23  O   UNL     1      19.482  29.915  13.125  1.00  0.00    -0.393 OA
ATOM     24  H   UNL     1      20.042  30.677  12.824  1.00  0.00     0.210 HD
ENDBRANCH  16  23
TORSDOF 2
ENDMDL
MODEL 4
REMARK VINA RESULT:     1.042      2.852      6.631
REMARK INTER + INTRA:           1.007
REMARK INTER:                   0.921
REMARK INTRA:                   0.086
REMARK UNBOUND:                -0.126
REMARK SMILES CC(=O)[C@H]1CC[C@H]2[C@H]3CC=C4C[C@H](O)CC[C@@]4(C)[C@H]3CC[C@]12C
REMARK SMILES IDX 4 1 5 2 6 3 7 4 22 5 21 6 20 7 19 8 8 9 9 10 10 11 11 12
REMARK SMILES IDX 17 13 16 14 15 15 13 16 12 17 18 18 23 19 2 20 1 21 3 22
REMARK SMILES IDX 14 23
REMARK H PARENT 14 24
REMARK Flexibility Score: inf
ROOT
ATOM      1  C   UNL     1      16.068  25.037   7.197  1.00  0.00     0.062 C 
ATOM      2  C   UNL     1      16.765  25.073   8.582  1.00  0.00     0.012 C 
ATOM      3  C   UNL     1      18.041  25.919   8.412  1.00  0.00     0.005 C 
ATOM      4  C   UNL     1      17.967  26.419   6.973  1.00  0.00    -0.001 C 
ATOM      5  C   UNL     1      17.207  25.340   6.191  1.00  0.00    -0.020 C 
ATOM      6  C   UNL     1      16.744  25.976   4.867  1.00  0.00     0.008 C 
ATOM      7  C   UNL     1      17.935  26.541   4.059  1.00  0.00     0.005 C 
ATOM      8  C   UNL     1      18.869  27.521   4.854  1.00  0.00     0.003 C 
ATOM      9  C   UNL     1      19.229  26.989   6.285  1.00  0.00     0.000 C 
ATOM     10  C   UNL     1      20.492  26.085   6.355  1.00  0.00     0.031 C 
ATOM     11  C   UNL     1      21.244  25.915   5.058  1.00  0.00    -0.027 C 
ATOM     12  C   UNL     1      21.141  26.761   4.013  1.00  0.00    -0.065 C 
ATOM     13  C   UNL     1      20.173  27.942   4.066  1.00  0.00    -0.008 C 
ATOM     14  C   UNL     1      19.823  28.436   2.622  1.00  0.00     0.014 C 
ATOM     15  C   UNL     1      21.038  28.539   1.693  1.00  0.00     0.033 C 
ATOM     16  C   UNL     1      21.719  27.175   1.572  1.00  0.00     0.118 C 
ATOM     17  C   UNL     1      22.215  26.696   2.941  1.00  0.00     0.063 C 
ATOM     18  C   UNL     1      20.877  29.111   4.812  1.00  0.00     0.016 C 
ATOM     19  C   UNL     1      18.021  24.042   5.905  1.00  0.00     0.012 C 
ENDROOT
BRANCH   1  20
ATOM     20  C   UNL     1      15.251  23.790   6.888  1.00  0.00     0.133 C 
ATOM     21  C   UNL     1      14.875  22.781   7.936  1.00  0.00     0.088 C 
ATOM     22  O   UNL     1      14.875  23.606   5.740  1.00  0.00    -0.300 OA
ENDBRANCH   1  20
BRANCH  16  23
ATOM     23  O   UNL     1      22.799  27.279   0.683  1.00  0.00    -0.393 OA
ATOM     24  H   UNL     1      23.197  26.373   0.607  1.00  0.00     0.210 HD
ENDBRANCH  16  23
TORSDOF 2
ENDMDL
MODEL 5
REMARK VINA RESULT:     1.387      2.382      6.888
REMARK INTER + INTRA:           1.382
REMARK INTER:                   1.232
REMARK INTRA:                   0.151
REMARK UNBOUND:                -0.126
REMARK SMILES CC(=O)[C@H]1CC[C@H]2[C@H]3CC=C4C[C@H](O)CC[C@@]4(C)[C@H]3CC[C@]12C
REMARK SMILES IDX 4 1 5 2 6 3 7 4 22 5 21 6 20 7 19 8 8 9 9 10 10 11 11 12
REMARK SMILES IDX 17 13 16 14 15 15 13 16 12 17 18 18 23 19 2 20 1 21 3 22
REMARK SMILES IDX 14 23
REMARK H PARENT 14 24
REMARK Flexibility Score: inf
ROOT
ATOM      1  C   UNL     1      18.625  28.314  11.866  1.00  0.00     0.062 C 
ATOM      2  C   UNL     1      18.741  27.035  12.736  1.00  0.00     0.012 C 
ATOM      3  C   UNL     1      18.707  25.839  11.766  1.00  0.00     0.005 C 
ATOM      4  C   UNL     1      18.682  26.481  10.383  1.00  0.00    -0.001 C 
ATOM      5  C   UNL     1      17.960  27.823  10.556  1.00  0.00    -0.020 C 
ATOM      6  C   UNL     1      18.278  28.676   9.314  1.00  0.00     0.008 C 
ATOM      7  C   UNL     1      17.860  27.961   8.008  1.00  0.00     0.005 C 
ATOM      8  C   UNL     1      18.419  26.503   7.844  1.00  0.00     0.003 C 
ATOM      9  C   UNL     1      18.270  25.646   9.149  1.00  0.00     0.000 C 
ATOM     10  C   UNL     1      16.925  24.876   9.284  1.00  0.00     0.031 C 
ATOM     11  C   UNL     1      15.989  24.990   8.107  1.00  0.00    -0.027 C 
ATOM     12  C   UNL     1      16.380  25.347   6.866  1.00  0.00    -0.065 C 
ATOM     13  C   UNL     1      17.834  25.731   6.594  1.00  0.00    -0.008 C 
ATOM     14  C   UNL     1      17.943  26.599   5.295  1.00  0.00     0.014 C 
ATOM     15  C   UNL     1      17.105  26.069   4.126  1.00  0.00     0.033 C 
ATOM     16  C   UNL     1      15.631  26.006   4.528  1.00  0.00     0.118 C 
ATOM     17  C   UNL     1      15.435  25.055   5.714  1.00  0.00     0.063 C 
ATOM     18  C   UNL     1      18.644  24.425   6.364  1.00  0.00     0.016 C 
ATOM     19  C   UNL     1      16.417  27.717  10.750  1.00  0.00     0.012 C 
ENDROOT
BRANCH   1  20
ATOM     20  C   UNL     1      17.949  29.512  12.520  1.00  0.00     0.133 C 
ATOM     21  C   UNL     1      18.506  30.906  12.443  1.00  0.00     0.088 C 
ATOM     22  O   UNL     1      16.902  29.335  13.125  1.00  0.00    -0.300 OA
ENDBRANCH   1  20
BRANCH  16  23
ATOM     23  O   UNL     1      14.875  25.563   3.432  1.00  0.00    -0.393 OA
ATOM     24  H   UNL     1      14.847  26.312   2.781  1.00  0.00     0.210 HD
ENDBRANCH  16  23
TORSDOF 2
ENDMDL
MODEL 6
REMARK VINA RESULT:     1.496     16.863     20.917
REMARK INTER + INTRA:           1.501
REMARK INTER:                   1.612
REMARK INTRA:                  -0.111
REMARK UNBOUND:                -0.126
REMARK SMILES CC(=O)[C@H]1CC[C@H]2[C@H]3CC=C4C[C@H](O)CC[C@@]4(C)[C@H]3CC[C@]12C
REMARK SMILES IDX 4 1 5 2 6 3 7 4 22 5 21 6 20 7 19 8 8 9 9 10 10 11 11 12
REMARK SMILES IDX 17 13 16 14 15 15 13 16 12 17 18 18 23 19 2 20 1 21 3 22
REMARK SMILES IDX 14 23
REMARK H PARENT 14 24
REMARK Flexibility Score: inf
ROOT
ATOM      1  C   UNL     1      30.475  19.394  -2.412  1.00  0.00     0.062 C 
ATOM      2  C   UNL     1      29.958  20.380  -3.492  1.00  0.00     0.012 C 
ATOM      3  C   UNL     1      29.942  19.607  -4.823  1.00  0.00     0.005 C 
ATOM      4  C   UNL     1      30.344  18.188  -4.436  1.00  0.00    -0.001 C 
ATOM      5  C   UNL     1      31.264  18.330  -3.216  1.00  0.00    -0.020 C 
ATOM      6  C   UNL     1      31.349  16.948  -2.544  1.00  0.00     0.008 C 
ATOM      7  C   UNL     1      31.857  15.866  -3.526  1.00  0.00     0.005 C 
ATOM      8  C   UNL     1      31.072  15.782  -4.883  1.00  0.00     0.003 C 
ATOM      9  C   UNL     1      30.811  17.190  -5.521  1.00  0.00     0.000 C 
ATOM     10  C   UNL     1      31.937  17.707  -6.461  1.00  0.00     0.031 C 
ATOM     11  C   UNL     1      33.078  16.751  -6.698  1.00  0.00    -0.027 C 
ATOM     12  C   UNL     1      32.998  15.419  -6.496  1.00  0.00    -0.065 C 
ATOM     13  C   UNL     1      31.720  14.798  -5.936  1.00  0.00    -0.008 C 
ATOM     14  C   UNL     1      32.020  13.402  -5.292  1.00  0.00     0.014 C 
ATOM     15  C   UNL     1      32.943  12.517  -6.138  1.00  0.00     0.033 C 
ATOM     16  C   UNL     1      34.278  13.226  -6.367  1.00  0.00     0.118 C 
ATOM     17  C   UNL     1      34.067  14.543  -7.125  1.00  0.00     0.063 C 
ATOM     18  C   UNL     1      30.732  14.576  -7.117  1.00  0.00     0.016 C 
ATOM     19  C   UNL     1      32.695  18.859  -3.533  1.00  0.00     0.012 C 
ENDROOT
BRANCH   1  20
ATOM     20  C   UNL     1      31.233  20.011  -1.245  1.00  0.00     0.133 C 
ATOM     21  C   UNL     1      31.378  19.329   0.086  1.00  0.00     0.088 C 
ATOM     22  O   UNL     1      31.757  21.104  -1.400  1.00  0.00    -0.300 OA
ENDBRANCH   1  20
BRANCH  16  23
ATOM     23  O   UNL     1      35.125  12.383  -7.103  1.00  0.00    -0.393 OA
ATOM     24  H   UNL     1      35.405  12.890  -7.909  1.00  0.00     0.210 HD
ENDBRANCH  16  23
TORSDOF 2
ENDMDL
MODEL 7
REMARK VINA RESULT:     2.165      1.758      6.681
REMARK INTER + INTRA:           2.229
REMARK INTER:                   2.362
REMARK INTRA:                  -0.134
REMARK UNBOUND:                -0.126
REMARK SMILES CC(=O)[C@H]1CC[C@H]2[C@H]3CC=C4C[C@H](O)CC[C@@]4(C)[C@H]3CC[C@]12C
REMARK SMILES IDX 4 1 5 2 6 3 7 4 22 5 21 6 20 7 19 8 8 9 9 10 10 11 11 12
REMARK SMILES IDX 17 13 16 14 15 15 13 16 12 17 18 18 23 19 2 20 1 21 3 22
REMARK SMILES IDX 14 23
REMARK H PARENT 14 24
REMARK Flexibility Score: inf
ROOT
ATOM      1  C   UNL     1      19.302  26.784  11.705  1.00  0.00     0.062 C 
ATOM      2  C   UNL     1      18.083  26.100  12.379  1.00  0.00     0.012 C 
ATOM      3  C   UNL     1      17.368  25.292  11.280  1.00  0.00     0.005 C 
ATOM      4  C   UNL     1      18.261  25.457  10.055  1.00  0.00    -0.001 C 
ATOM      5  C   UNL     1      18.927  26.831  10.202  1.00  0.00    -0.020 C 
ATOM      6  C   UNL     1      20.129  26.862   9.240  1.00  0.00     0.008 C 
ATOM      7  C   UNL     1      19.698  26.584   7.781  1.00  0.00     0.005 C 
ATOM      8  C   UNL     1      18.852  25.277   7.578  1.00  0.00     0.003 C 
ATOM      9  C   UNL     1      17.717  25.117   8.648  1.00  0.00     0.000 C 
ATOM     10  C   UNL     1      16.362  25.785   8.279  1.00  0.00     0.031 C 
ATOM     11  C   UNL     1      16.300  26.417   6.911  1.00  0.00    -0.027 C 
ATOM     12  C   UNL     1      17.137  26.107   5.900  1.00  0.00    -0.065 C 
ATOM     13  C   UNL     1      18.275  25.110   6.116  1.00  0.00    -0.008 C 
ATOM     14  C   UNL     1      19.397  25.309   5.041  1.00  0.00     0.014 C 
ATOM     15  C   UNL     1      18.861  25.496   3.617  1.00  0.00     0.033 C 
ATOM     16  C   UNL     1      17.937  26.714   3.564  1.00  0.00     0.118 C 
ATOM     17  C   UNL     1      16.734  26.520   4.495  1.00  0.00     0.063 C 
ATOM     18  C   UNL     1      17.700  23.676   5.945  1.00  0.00     0.016 C 
ATOM     19  C   UNL     1      17.990  28.046   9.927  1.00  0.00     0.012 C 
ENDROOT
BRANCH   1  20
ATOM     20  C   UNL     1      19.740  28.115  12.301  1.00  0.00     0.133 C 
ATOM     21  C   UNL     1      18.828  28.979  13.125  1.00  0.00     0.088 C 
ATOM     22  O   UNL     1      20.886  28.492  12.111  1.00  0.00    -0.300 OA
ENDBRANCH   1  20
BRANCH  16  23
ATOM     23  O   UNL     1      17.495  26.896   2.245  1.00  0.00    -0.393 OA
ATOM     24  H   UNL     1      16.933  26.110   2.019  1.00  0.00     0.210 HD
ENDBRANCH  16  23
TORSDOF 2
ENDMDL
MODEL 8
REMARK VINA RESULT:     2.384     16.299     19.497
REMARK INTER + INTRA:           2.467
REMARK INTER:                   2.446
REMARK INTRA:                   0.021
REMARK UNBOUND:                -0.126
REMARK SMILES CC(=O)[C@H]1CC[C@H]2[C@H]3CC=C4C[C@H](O)CC[C@@]4(C)[C@H]3CC[C@]12C
REMARK SMILES IDX 4 1 5 2 6 3 7 4 22 5 21 6 20 7 19 8 8 9 9 10 10 11 11 12
REMARK SMILES IDX 17 13 16 14 15 15 13 16 12 17 18 18 23 19 2 20 1 21 3 22
REMARK SMILES IDX 14 23
REMARK H PARENT 14 24
REMARK Flexibility Score: inf
ROOT
ATOM      1  C   UNL     1      32.861  14.974  -6.757  1.00  0.00     0.062 C 
ATOM      2  C   UNL     1      31.930  13.779  -6.425  1.00  0.00     0.012 C 
ATOM      3  C   UNL     1      30.815  14.328  -5.516  1.00  0.00     0.005 C 
ATOM      4  C   UNL     1      31.089  15.826  -5.454  1.00  0.00    -0.001 C 
ATOM      5  C   UNL     1      32.607  15.983  -5.609  1.00  0.00    -0.020 C 
ATOM      6  C   UNL     1      32.880  17.454  -5.973  1.00  0.00     0.008 C 
ATOM      7  C   UNL     1      32.308  18.420  -4.910  1.00  0.00     0.005 C 
ATOM      8  C   UNL     1      30.792  18.201  -4.564  1.00  0.00     0.003 C 
ATOM      9  C   UNL     1      30.430  16.690  -4.352  1.00  0.00     0.000 C 
ATOM     10  C   UNL     1      30.608  16.165  -2.900  1.00  0.00     0.031 C 
ATOM     11  C   UNL     1      31.018  17.198  -1.880  1.00  0.00    -0.027 C 
ATOM     12  C   UNL     1      30.853  18.527  -2.047  1.00  0.00    -0.065 C 
ATOM     13  C   UNL     1      30.280  19.077  -3.352  1.00  0.00    -0.008 C 
ATOM     14  C   UNL     1      30.674  20.581  -3.538  1.00  0.00     0.014 C 
ATOM     15  C   UNL     1      30.514  21.424  -2.267  1.00  0.00     0.033 C 
ATOM     16  C   UNL     1      31.380  20.846  -1.147  1.00  0.00     0.118 C 
ATOM     17  C   UNL     1      30.948  19.412  -0.816  1.00  0.00     0.063 C 
ATOM     18  C   UNL     1      28.729  18.997  -3.271  1.00  0.00     0.016 C 
ATOM     19  C   UNL     1      33.439  15.579  -4.354  1.00  0.00     0.012 C 
ENDROOT
BRANCH   1  20
ATOM     20  C   UNL     1      34.325  14.637  -7.006  1.00  0.00     0.133 C 
ATOM     21  C   UNL     1      34.828  13.226  -7.125  1.00  0.00     0.088 C 
ATOM     22  O   UNL     1      35.124  15.553  -7.125  1.00  0.00    -0.300 OA
ENDBRANCH   1  20
BRANCH  16  23
ATOM     23  O   UNL     1      31.256  21.655  -0.008  1.00  0.00    -0.393 OA
ATOM     24  H   UNL     1      31.137  21.046   0.766  1.00  0.00     0.210 HD
ENDBRANCH  16  23
TORSDOF 2
ENDMDL
MODEL 9
REMARK VINA RESULT:     2.538     16.948     20.572
REMARK INTER + INTRA:           2.634
REMARK INTER:                   2.566
REMARK INTRA:                   0.068
REMARK UNBOUND:                -0.126
REMARK SMILES CC(=O)[C@H]1CC[C@H]2[C@H]3CC=C4C[C@H](O)CC[C@@]4(C)[C@H]3CC[C@]12C
REMARK SMILES IDX 4 1 5 2 6 3 7 4 22 5 21 6 20 7 19 8 8 9 9 10 10 11 11 12
REMARK SMILES IDX 17 13 16 14 15 15 13 16 12 17 18 18 23 19 2 20 1 21 3 22
REMARK SMILES IDX 14 23
REMARK H PARENT 14 24
REMARK Flexibility Score: inf
ROOT
ATOM      1  C   UNL     1      34.516  14.785  -5.774  1.00  0.00     0.062 C 
ATOM      2  C   UNL     1      35.111  15.504  -7.013  1.00  0.00     0.012 C 
ATOM      3  C   UNL     1      34.390  16.860  -7.125  1.00  0.00     0.005 C 
ATOM      4  C   UNL     1      33.495  16.909  -5.892  1.00  0.00    -0.001 C 
ATOM      5  C   UNL     1      33.131  15.453  -5.578  1.00  0.00    -0.020 C 
ATOM      6  C   UNL     1      32.598  15.416  -4.134  1.00  0.00     0.008 C 
ATOM      7  C   UNL     1      31.390  16.364  -3.948  1.00  0.00     0.005 C 
ATOM      8  C   UNL     1      31.631  17.843  -4.417  1.00  0.00     0.003 C 
ATOM      9  C   UNL     1      32.333  17.927  -5.817  1.00  0.00     0.000 C 
ATOM     10  C   UNL     1      31.372  17.931  -7.039  1.00  0.00     0.031 C 
ATOM     11  C   UNL     1      29.900  17.940  -6.710  1.00  0.00    -0.027 C 
ATOM     12  C   UNL     1      29.398  18.333  -5.521  1.00  0.00    -0.065 C 
ATOM     13  C   UNL     1      30.333  18.743  -4.384  1.00  0.00    -0.008 C 
ATOM     14  C   UNL     1      29.604  18.631  -3.002  1.00  0.00     0.014 C 
ATOM     15  C   UNL     1      28.180  19.197  -3.006  1.00  0.00     0.033 C 
ATOM     16  C   UNL     1      27.331  18.466  -4.046  1.00  0.00     0.118 C 
ATOM     17  C   UNL     1      27.915  18.656  -5.451  1.00  0.00     0.063 C 
ATOM     18  C   UNL     1      30.727  20.232  -4.595  1.00  0.00     0.016 C 
ATOM     19  C   UNL     1      32.092  14.813  -6.548  1.00  0.00     0.012 C 
ENDROOT
BRANCH   1  20
ATOM     20  C   UNL     1      34.495  13.264  -5.824  1.00  0.00     0.133 C 
ATOM     21  C   UNL     1      34.163  12.493  -7.071  1.00  0.00     0.088 C 
ATOM     22  O   UNL     1      34.772  12.641  -4.810  1.00  0.00    -0.300 OA
ENDBRANCH   1  20
BRANCH  16  23
ATOM     23  O   UNL     1      26.021  18.966  -4.003  1.00  0.00    -0.393 OA
ATOM     24  H   UNL     1      26.075  19.882  -3.626  1.00  0.00     0.210 HD
ENDBRANCH  16  23
TORSDOF 2
ENDMDL
