MODEL 1
REMARK VINA RESULT:    -3.631      0.000      0.000
REMARK INTER + INTRA:          -5.316
REMARK INTER:                  -4.904
REMARK INTRA:                  -0.412
REMARK UNBOUND:                -0.412
REMARK SMILES CCCCCCCC(=O)[O-]
REMARK SMILES IDX 5 1 6 2 7 3 8 4 9 5 10 6 4 7 3 8 2 9 1 10
REMARK H PARENT
REMARK Flexibility Score: inf
ROOT
ATOM      1  C   UNL     1     163.157 177.327 181.181  1.00  0.00     0.000 C 
ENDROOT
BRANCH   1   2
ATOM      2  C   UNL     1     161.705 176.829 181.130  1.00  0.00     0.006 C 
BRANCH   2   3
ATOM      3  C   UNL     1     161.407 176.036 179.850  1.00  0.00     0.053 C 
BRANCH   3   4
ATOM      4  C   UNL     1     160.639 174.782 180.139  1.00  0.00     0.041 C 
ATOM      5  O   UNL     1     159.875 174.292 179.267  1.00  0.00    -0.550 OA
ATOM      6  O   UNL     1     160.794 174.136 181.360  1.00  0.00    -0.550 OA
ENDBRANCH   3   4
ENDBRANCH   2   3
ENDBRANCH   1   2
BRANCH   1   7
ATOM      7  C   UNL     1     163.248 178.682 181.893  1.00  0.00     0.000 C 
BRANCH   7   8
ATOM      8  C   UNL     1     162.435 179.750 181.152  1.00  0.00    -0.000 C 
BRANCH   8   9
ATOM      9  C   UNL     1     162.916 179.903 179.705  1.00  0.00    -0.003 C 
ATOM     10  C   UNL     1     161.742 180.100 178.751  1.00  0.00     0.004 C 
ENDBRANCH   8   9
ENDBRANCH   7   8
ENDBRANCH   1   7
TORSDOF 6
ENDMDL
MODEL 2
REMARK VINA RESULT:    -3.568     12.928     13.881
REMARK INTER + INTRA:          -5.231
REMARK INTER:                  -4.615
REMARK INTRA:                  -0.616
REMARK UNBOUND:                -0.412
REMARK SMILES CCCCCCCC(=O)[O-]
REMARK SMILES IDX 5 1 6 2 7 3 8 4 9 5 10 6 4 7 3 8 2 9 1 10
REMARK H PARENT
REMARK Flexibility Score: inf
ROOT
ATOM      1  C   UNL     1     175.806 176.492 180.761  1.00  0.00     0.000 C 
ENDROOT
BRANCH   1   2
ATOM      2  C   UNL     1     174.570 177.062 181.470  1.00  0.00     0.006 C 
BRANCH   2   3
ATOM      3  C   UNL     1     173.504 177.548 180.478  1.00  0.00     0.053 C 
BRANCH   3   4
ATOM      4  C   UNL     1     173.510 179.041 180.342  1.00  0.00     0.041 C 
ATOM      5  O   UNL     1     173.242 179.769 181.334  1.00  0.00    -0.550 OA
ATOM      6  O   UNL     1     173.847 179.628 179.128  1.00  0.00    -0.550 OA
ENDBRANCH   3   4
ENDBRANCH   2   3
ENDBRANCH   1   2
BRANCH   1   7
ATOM      7  C   UNL     1     176.980 177.477 180.824  1.00  0.00     0.000 C 
BRANCH   7   8
ATOM      8  C   UNL     1     176.787 178.491 181.957  1.00  0.00    -0.000 C 
BRANCH   8   9
ATOM      9  C   UNL     1     177.176 179.903 181.504  1.00  0.00    -0.003 C 
ATOM     10  C   UNL     1     177.277 179.985 179.983  1.00  0.00     0.004 C 
ENDBRANCH   8   9
ENDBRANCH   7   8
ENDBRANCH   1   7
TORSDOF 6
ENDMDL
MODEL 3
REMARK VINA RESULT:    -3.540      2.104      3.410
REMARK INTER + INTRA:          -5.194
REMARK INTER:                  -4.656
REMARK INTRA:                  -0.538
REMARK UNBOUND:                -0.412
REMARK SMILES CCCCCCCC(=O)[O-]
REMARK SMILES IDX 5 1 6 2 7 3 8 4 9 5 10 6 4 7 3 8 2 9 1 10
REMARK H PARENT
REMARK Flexibility Score: inf
ROOT
ATOM      1  C   UNL     1     162.543 180.076 179.905  1.00  0.00     0.000 C 
ENDROOT
BRANCH   1   2
ATOM      2  C   UNL     1     161.535 179.676 178.818  1.00  0.00     0.006 C 
BRANCH   2   3
ATOM      3  C   UNL     1     162.094 178.604 177.872  1.00  0.00     0.053 C 
BRANCH   3   4
ATOM      4  C   UNL     1     161.391 177.292 178.042  1.00  0.00     0.041 C 
ATOM      5  O   UNL     1     161.360 176.731 179.169  1.00  0.00    -0.550 OA
ATOM      6  O   UNL     1     160.741 176.705 176.963  1.00  0.00    -0.550 OA
ENDBRANCH   3   4
ENDBRANCH   2   3
ENDBRANCH   1   2
BRANCH   1   7
ATOM      7  C   UNL     1     162.141 179.496 181.267  1.00  0.00     0.000 C 
BRANCH   7   8
ATOM      8  C   UNL     1     163.354 178.901 181.992  1.00  0.00    -0.000 C 
BRANCH   8   9
ATOM      9  C   UNL     1     164.183 178.023 181.048  1.00  0.00    -0.003 C 
ATOM     10  C   UNL     1     164.105 176.553 181.450  1.00  0.00     0.004 C 
ENDBRANCH   8   9
ENDBRANCH   7   8
ENDBRANCH   1   7
TORSDOF 6
ENDMDL
MODEL 4
REMARK VINA RESULT:    -3.530     14.474     15.501
REMARK INTER + INTRA:          -5.181
REMARK INTER:                  -4.608
REMARK INTRA:                  -0.573
REMARK UNBOUND:                -0.412
REMARK SMILES CCCCCCCC(=O)[O-]
REMARK SMILES IDX 5 1 6 2 7 3 8 4 9 5 10 6 4 7 3 8 2 9 1 10
REMARK H PARENT
REMARK Flexibility Score: inf
ROOT
ATOM      1  C   UNL     1     176.512 179.732 181.156  1.00  0.00     0.000 C 
ENDROOT
BRANCH   1   2
ATOM      2  C   UNL     1     177.224 179.958 179.815  1.00  0.00     0.006 C 
BRANCH   2   3
ATOM      3  C   UNL     1     176.236 180.090 178.647  1.00  0.00     0.053 C 
BRANCH   3   4
ATOM      4  C   UNL     1     176.456 179.032 177.610  1.00  0.00     0.041 C 
ATOM      5  O   UNL     1     177.479 178.299 177.660  1.00  0.00    -0.550 OA
ATOM      6  O   UNL     1     175.514 178.831 176.608  1.00  0.00    -0.550 OA
ENDBRANCH   3   4
ENDBRANCH   2   3
ENDBRANCH   1   2
BRANCH   1   7
ATOM      7  C   UNL     1     176.902 178.380 181.765  1.00  0.00     0.000 C 
BRANCH   7   8
ATOM      8  C   UNL     1     175.928 177.279 181.329  1.00  0.00    -0.000 C 
BRANCH   8   9
ATOM      9  C   UNL     1     176.646 176.203 180.507  1.00  0.00    -0.003 C 
ATOM     10  C   UNL     1     178.159 176.397 180.547  1.00  0.00     0.004 C 
ENDBRANCH   8   9
ENDBRANCH   7   8
ENDBRANCH   1   7
TORSDOF 6
ENDMDL
MODEL 5
REMARK VINA RESULT:    -3.509     14.607     15.272
REMARK INTER + INTRA:          -5.152
REMARK INTER:                  -4.550
REMARK INTRA:                  -0.602
REMARK UNBOUND:                -0.412
REMARK SMILES CCCCCCCC(=O)[O-]
REMARK SMILES IDX 5 1 6 2 7 3 8 4 9 5 10 6 4 7 3 8 2 9 1 10
REMARK H PARENT
REMARK Flexibility Score: inf
ROOT
ATOM      1  C   UNL     1     176.202 179.375 181.205  1.00  0.00     0.000 C 
ENDROOT
BRANCH   1   2
ATOM      2  C   UNL     1     176.752 178.124 181.904  1.00  0.00     0.006 C 
BRANCH   2   3
ATOM      3  C   UNL     1     176.408 176.835 181.145  1.00  0.00     0.053 C 
BRANCH   3   4
ATOM      4  C   UNL     1     177.523 176.408 180.240  1.00  0.00     0.041 C 
ATOM      5  O   UNL     1     177.375 176.448 178.991  1.00  0.00    -0.550 OA
ATOM      6  O   UNL     1     178.738 175.999 180.777  1.00  0.00    -0.550 OA
ENDBRANCH   3   4
ENDBRANCH   2   3
ENDBRANCH   1   2
BRANCH   1   7
ATOM      7  C   UNL     1     177.313 180.119 180.455  1.00  0.00     0.000 C 
BRANCH   7   8
ATOM      8  C   UNL     1     177.085 180.068 178.940  1.00  0.00    -0.000 C 
BRANCH   8   9
ATOM      9  C   UNL     1     175.624 179.736 178.614  1.00  0.00    -0.003 C 
ATOM     10  C   UNL     1     175.520 178.885 177.352  1.00  0.00     0.004 C 
ENDBRANCH   8   9
ENDBRANCH   7   8
ENDBRANCH   1   7
TORSDOF 6
ENDMDL
MODEL 6
REMARK VINA RESULT:    -3.486     13.105     14.147
REMARK INTER + INTRA:          -5.120
REMARK INTER:                  -4.511
REMARK INTRA:                  -0.609
REMARK UNBOUND:                -0.412
REMARK SMILES CCCCCCCC(=O)[O-]
REMARK SMILES IDX 5 1 6 2 7 3 8 4 9 5 10 6 4 7 3 8 2 9 1 10
REMARK H PARENT
REMARK Flexibility Score: inf
ROOT
ATOM      1  C   UNL     1     176.345 180.125 178.493  1.00  0.00     0.000 C 
ENDROOT
BRANCH   1   2
ATOM      2  C   UNL     1     175.280 179.228 177.845  1.00  0.00     0.006 C 
BRANCH   2   3
ATOM      3  C   UNL     1     174.551 178.354 178.875  1.00  0.00     0.053 C 
BRANCH   3   4
ATOM      4  C   UNL     1     173.473 179.115 179.586  1.00  0.00     0.041 C 
ATOM      5  O   UNL     1     173.590 179.384 180.810  1.00  0.00    -0.550 OA
ATOM      6  O   UNL     1     172.356 179.556 178.888  1.00  0.00    -0.550 OA
ENDBRANCH   3   4
ENDBRANCH   2   3
ENDBRANCH   1   2
BRANCH   1   7
ATOM      7  C   UNL     1     177.189 179.335 179.501  1.00  0.00     0.000 C 
BRANCH   7   8
ATOM      8  C   UNL     1     177.239 180.049 180.857  1.00  0.00    -0.000 C 
BRANCH   8   9
ATOM      9  C   UNL     1     176.827 179.104 181.991  1.00  0.00    -0.003 C 
ATOM     10  C   UNL     1     176.913 177.645 181.551  1.00  0.00     0.004 C 
ENDBRANCH   8   9
ENDBRANCH   7   8
ENDBRANCH   1   7
TORSDOF 6
ENDMDL
MODEL 7
REMARK VINA RESULT:    -3.468      0.997      2.000
REMARK INTER + INTRA:          -5.097
REMARK INTER:                  -4.609
REMARK INTRA:                  -0.488
REMARK UNBOUND:                -0.412
REMARK SMILES CCCCCCCC(=O)[O-]
REMARK SMILES IDX 5 1 6 2 7 3 8 4 9 5 10 6 4 7 3 8 2 9 1 10
REMARK H PARENT
REMARK Flexibility Score: inf
ROOT
ATOM      1  C   UNL     1     161.752 177.770 178.858  1.00  0.00     0.000 C 
ENDROOT
BRANCH   1   2
ATOM      2  C   UNL     1     162.139 176.381 179.385  1.00  0.00     0.006 C 
BRANCH   2   3
ATOM      3  C   UNL     1     161.380 176.012 180.667  1.00  0.00     0.053 C 
BRANCH   3   4
ATOM      4  C   UNL     1     160.648 174.712 180.525  1.00  0.00     0.041 C 
ATOM      5  O   UNL     1     159.875 174.523 179.549  1.00  0.00    -0.550 OA
ATOM      6  O   UNL     1     160.846 173.696 181.452  1.00  0.00    -0.550 OA
ENDBRANCH   3   4
ENDBRANCH   2   3
ENDBRANCH   1   2
BRANCH   1   7
ATOM      7  C   UNL     1     162.676 178.852 179.431  1.00  0.00     0.000 C 
BRANCH   7   8
ATOM      8  C   UNL     1     161.949 179.699 180.481  1.00  0.00    -0.000 C 
BRANCH   8   9
ATOM      9  C   UNL     1     162.547 179.480 181.875  1.00  0.00    -0.003 C 
ATOM     10  C   UNL     1     163.845 178.679 181.798  1.00  0.00     0.004 C 
ENDBRANCH   8   9
ENDBRANCH   7   8
ENDBRANCH   1   7
TORSDOF 6
ENDMDL
MODEL 8
REMARK VINA RESULT:    -3.404     13.930     14.888
REMARK INTER + INTRA:          -5.009
REMARK INTER:                  -4.493
REMARK INTRA:                  -0.517
REMARK UNBOUND:                -0.412
REMARK SMILES CCCCCCCC(=O)[O-]
REMARK SMILES IDX 5 1 6 2 7 3 8 4 9 5 10 6 4 7 3 8 2 9 1 10
REMARK H PARENT
REMARK Flexibility Score: inf
ROOT
ATOM      1  C   UNL     1     177.081 179.597 180.947  1.00  0.00     0.000 C 
ENDROOT
BRANCH   1   2
ATOM      2  C   UNL     1     177.473 178.961 179.606  1.00  0.00     0.006 C 
BRANCH   2   3
ATOM      3  C   UNL     1     177.045 179.820 178.408  1.00  0.00     0.053 C 
BRANCH   3   4
ATOM      4  C   UNL     1     176.796 178.987 177.188  1.00  0.00     0.041 C 
ATOM      5  O   UNL     1     175.817 178.197 177.149  1.00  0.00    -0.550 OA
ATOM      6  O   UNL     1     177.625 179.110 176.079  1.00  0.00    -0.550 OA
ENDBRANCH   3   4
ENDBRANCH   2   3
ENDBRANCH   1   2
BRANCH   1   7
ATOM      7  C   UNL     1     176.421 178.567 181.872  1.00  0.00     0.000 C 
BRANCH   7   8
ATOM      8  C   UNL     1     175.115 178.040 181.266  1.00  0.00    -0.000 C 
BRANCH   8   9
ATOM      9  C   UNL     1     174.087 179.167 181.109  1.00  0.00    -0.003 C 
ATOM     10  C   UNL     1     173.461 179.151 179.717  1.00  0.00     0.004 C 
ENDBRANCH   8   9
ENDBRANCH   7   8
ENDBRANCH   1   7
TORSDOF 6
ENDMDL
MODEL 9
REMARK VINA RESULT:    -3.402      3.473      4.296
REMARK INTER + INTRA:          -5.008
REMARK INTER:                  -4.442
REMARK INTRA:                  -0.566
REMARK UNBOUND:                -0.412
REMARK SMILES CCCCCCCC(=O)[O-]
REMARK SMILES IDX 5 1 6 2 7 3 8 4 9 5 10 6 4 7 3 8 2 9 1 10
REMARK H PARENT
REMARK Flexibility Score: inf
ROOT
ATOM      1  C   UNL     1     162.103 180.123 180.260  1.00  0.00     0.000 C 
ENDROOT
BRANCH   1   2
ATOM      2  C   UNL     1     161.455 179.798 178.906  1.00  0.00     0.006 C 
BRANCH   2   3
ATOM      3  C   UNL     1     162.015 178.510 178.287  1.00  0.00     0.053 C 
BRANCH   3   4
ATOM      4  C   UNL     1     163.004 178.801 177.200  1.00  0.00     0.041 C 
ATOM      5  O   UNL     1     162.919 178.210 176.091  1.00  0.00    -0.550 OA
ATOM      6  O   UNL     1     164.000 179.749 177.400  1.00  0.00    -0.550 OA
ENDBRANCH   3   4
ENDBRANCH   2   3
ENDBRANCH   1   2
BRANCH   1   7
ATOM      7  C   UNL     1     162.124 178.888 181.169  1.00  0.00     0.000 C 
BRANCH   7   8
ATOM      8  C   UNL     1     163.510 178.688 181.794  1.00  0.00    -0.000 C 
BRANCH   8   9
ATOM      9  C   UNL     1     164.595 179.373 180.957  1.00  0.00    -0.003 C 
ATOM     10  C   UNL     1     165.563 178.352 180.366  1.00  0.00     0.004 C 
ENDBRANCH   8   9
ENDBRANCH   7   8
ENDBRANCH   1   7
TORSDOF 6
ENDMDL
