MODEL 1
REMARK VINA RESULT:    -3.482      0.000      0.000
REMARK INTER + INTRA:          -4.916
REMARK INTER:                  -4.500
REMARK INTRA:                  -0.416
REMARK UNBOUND:                -0.416
REMARK SMILES CCO[C@@H]1O[C@H](CO)[C@H](O)[C@H](O)[C@H]1O
REMARK SMILES IDX 4 1 13 2 11 3 9 4 6 5 5 6 3 7 2 8 1 9 14 10 12 12 7 14 8 15
REMARK SMILES IDX 10 17
REMARK H PARENT 14 11 12 13 8 16 10 18
REMARK Flexibility Score: inf
ROOT
ATOM      1  C   UNL     1       6.606  -5.043  -2.855  1.00  0.00     0.281 C 
ATOM      2  C   UNL     1       5.918  -3.870  -2.125  1.00  0.00     0.202 C 
ATOM      3  C   UNL     1       6.666  -3.502  -0.842  1.00  0.00     0.179 C 
ATOM      4  C   UNL     1       8.154  -3.285  -1.153  1.00  0.00     0.177 C 
ATOM      5  C   UNL     1       8.758  -4.453  -1.978  1.00  0.00     0.178 C 
ATOM      6  O   UNL     1       7.982  -4.789  -3.125  1.00  0.00    -0.341 OA
ENDROOT
BRANCH   1   7
ATOM      7  O   UNL     1       6.432  -6.242  -2.119  1.00  0.00    -0.350 OA
BRANCH   7   8
ATOM      8  C   UNL     1       6.420  -7.356  -2.988  1.00  0.00     0.160 C 
ATOM      9  C   UNL     1       6.691  -8.618  -2.184  1.00  0.00     0.035 C 
ENDBRANCH   7   8
ENDBRANCH   1   7
BRANCH   2  10
ATOM     10  O   UNL     1       5.868  -2.746  -2.969  1.00  0.00    -0.385 OA
ATOM     11  H   UNL     1       5.637  -1.966  -2.400  1.00  0.00     0.211 HD
ENDBRANCH   2  10
BRANCH   3  12
ATOM     12  O   UNL     1       6.488  -4.513   0.119  1.00  0.00    -0.387 OA
ATOM     13  H   UNL     1       5.542  -4.808   0.059  1.00  0.00     0.211 HD
ENDBRANCH   3  12
BRANCH   5  14
ATOM     14  C   UNL     1       9.161  -5.689  -1.143  1.00  0.00     0.191 C 
BRANCH  14  15
ATOM     15  O   UNL     1      10.376  -5.463  -0.482  1.00  0.00    -0.394 OA
ATOM     16  H   UNL     1      10.723  -6.353  -0.210  1.00  0.00     0.210 HD
ENDBRANCH  14  15
ENDBRANCH   5  14
BRANCH   4  17
ATOM     17  O   UNL     1       8.869  -3.079   0.038  1.00  0.00    -0.387 OA
ATOM     18  H   UNL     1       9.109  -2.115   0.066  1.00  0.00     0.211 HD
ENDBRANCH   4  17
TORSDOF 7
ENDMDL
MODEL 2
REMARK VINA RESULT:    -3.376      1.496      1.710
REMARK INTER + INTRA:          -4.778
REMARK INTER:                  -4.483
REMARK INTRA:                  -0.295
REMARK UNBOUND:                -0.416
REMARK SMILES CCO[C@@H]1O[C@H](CO)[C@H](O)[C@H](O)[C@H]1O
REMARK SMILES IDX 4 1 13 2 11 3 9 4 6 5 5 6 3 7 2 8 1 9 14 10 12 12 7 14 8 15
REMARK SMILES IDX 10 17
REMARK H PARENT 14 11 12 13 8 16 10 18
REMARK Flexibility Score: inf
ROOT
ATOM      1  C   UNL     1       6.679  -5.357  -1.808  1.00  0.00     0.281 C 
ATOM      2  C   UNL     1       6.705  -4.058  -0.975  1.00  0.00     0.202 C 
ATOM      3  C   UNL     1       8.121  -3.483  -0.893  1.00  0.00     0.179 C 
ATOM      4  C   UNL     1       8.712  -3.355  -2.305  1.00  0.00     0.177 C 
ATOM      5  C   UNL     1       8.559  -4.664  -3.125  1.00  0.00     0.178 C 
ATOM      6  O   UNL     1       7.232  -5.184  -3.110  1.00  0.00    -0.341 OA
ENDROOT
BRANCH   1   7
ATOM      7  O   UNL     1       7.327  -6.401  -1.102  1.00  0.00    -0.350 OA
BRANCH   7   8
ATOM      8  C   UNL     1       6.747  -7.648  -1.424  1.00  0.00     0.160 C 
ATOM      9  C   UNL     1       7.718  -8.760  -1.056  1.00  0.00     0.035 C 
ENDBRANCH   7   8
ENDBRANCH   1   7
BRANCH   2  10
ATOM     10  O   UNL     1       5.850  -3.103  -1.553  1.00  0.00    -0.385 OA
ATOM     11  H   UNL     1       6.218  -2.209  -1.326  1.00  0.00     0.211 HD
ENDBRANCH   2  10
BRANCH   3  12
ATOM     12  O   UNL     1       8.922  -4.301  -0.077  1.00  0.00    -0.387 OA
ATOM     13  H   UNL     1       8.308  -4.880   0.446  1.00  0.00     0.211 HD
ENDBRANCH   3  12
BRANCH   5  14
ATOM     14  C   UNL     1       9.628  -5.739  -2.825  1.00  0.00     0.191 C 
BRANCH  14  15
ATOM     15  O   UNL     1      10.910  -5.255  -3.120  1.00  0.00    -0.394 OA
ATOM     16  H   UNL     1      10.967  -4.343  -2.730  1.00  0.00     0.210 HD
ENDBRANCH  14  15
ENDBRANCH   5  14
BRANCH   4  17
ATOM     17  O   UNL     1      10.056  -2.954  -2.229  1.00  0.00    -0.387 OA
ATOM     18  H   UNL     1      10.069  -1.970  -2.366  1.00  0.00     0.211 HD
ENDBRANCH   4  17
TORSDOF 7
ENDMDL
MODEL 3
REMARK VINA RESULT:    -3.215      1.537      3.419
REMARK INTER + INTRA:          -4.570
REMARK INTER:                  -4.210
REMARK INTRA:                  -0.360
REMARK UNBOUND:                -0.416
REMARK SMILES CCO[C@@H]1O[C@H](CO)[C@H](O)[C@H](O)[C@H]1O
REMARK SMILES IDX 4 1 13 2 11 3 9 4 6 5 5 6 3 7 2 8 1 9 14 10 12 12 7 14 8 15
REMARK SMILES IDX 10 17
REMARK H PARENT 14 11 12 13 8 16 10 18
REMARK Flexibility Score: inf
ROOT
ATOM      1  C   UNL     1       7.304  -4.781  -0.832  1.00  0.00     0.281 C 
ATOM      2  C   UNL     1       8.684  -4.092  -0.776  1.00  0.00     0.202 C 
ATOM      3  C   UNL     1       8.812  -3.022  -1.863  1.00  0.00     0.179 C 
ATOM      4  C   UNL     1       7.611  -2.067  -1.794  1.00  0.00     0.177 C 
ATOM      5  C   UNL     1       6.259  -2.828  -1.748  1.00  0.00     0.178 C 
ATOM      6  O   UNL     1       6.225  -3.853  -0.760  1.00  0.00    -0.341 OA
ENDROOT
BRANCH   1   7
ATOM      7  O   UNL     1       7.214  -5.595  -1.989  1.00  0.00    -0.350 OA
BRANCH   7   8
ATOM      8  C   UNL     1       7.005  -6.944  -1.628  1.00  0.00     0.160 C 
ATOM      9  C   UNL     1       8.349  -7.647  -1.521  1.00  0.00     0.035 C 
ENDBRANCH   7   8
ENDBRANCH   1   7
BRANCH   2  10
ATOM     10  O   UNL     1       8.869  -3.496   0.485  1.00  0.00    -0.385 OA
ATOM     11  H   UNL     1       8.951  -4.234   1.145  1.00  0.00     0.211 HD
ENDBRANCH   2  10
BRANCH   3  12
ATOM     12  O   UNL     1       8.907  -3.633  -3.125  1.00  0.00    -0.387 OA
ATOM     13  H   UNL     1       9.851  -3.548  -3.419  1.00  0.00     0.211 HD
ENDBRANCH   3  12
BRANCH   5  14
ATOM     14  C   UNL     1       5.743  -3.304  -3.125  1.00  0.00     0.191 C 
BRANCH  14  15
ATOM     15  O   UNL     1       4.577  -4.069  -2.976  1.00  0.00    -0.394 OA
ATOM     16  H   UNL     1       4.837  -5.017  -3.121  1.00  0.00     0.210 HD
ENDBRANCH  14  15
ENDBRANCH   5  14
BRANCH   4  17
ATOM     17  O   UNL     1       7.653  -1.164  -2.869  1.00  0.00    -0.387 OA
ATOM     18  H   UNL     1       7.218  -1.615  -3.640  1.00  0.00     0.211 HD
ENDBRANCH   4  17
TORSDOF 7
ENDMDL
MODEL 4
REMARK VINA RESULT:    -3.115      1.863      3.748
REMARK INTER + INTRA:          -4.442
REMARK INTER:                  -4.096
REMARK INTRA:                  -0.346
REMARK UNBOUND:                -0.416
REMARK SMILES CCO[C@@H]1O[C@H](CO)[C@H](O)[C@H](O)[C@H]1O
REMARK SMILES IDX 4 1 13 2 11 3 9 4 6 5 5 6 3 7 2 8 1 9 14 10 12 12 7 14 8 15
REMARK SMILES IDX 10 17
REMARK H PARENT 14 11 12 13 8 16 10 18
REMARK Flexibility Score: inf
ROOT
ATOM      1  C   UNL     1       8.531  -4.780  -2.284  1.00  0.00     0.281 C 
ATOM      2  C   UNL     1       7.903  -5.428  -1.032  1.00  0.00     0.202 C 
ATOM      3  C   UNL     1       7.067  -4.415  -0.246  1.00  0.00     0.179 C 
ATOM      4  C   UNL     1       6.067  -3.726  -1.186  1.00  0.00     0.177 C 
ATOM      5  C   UNL     1       6.749  -3.188  -2.474  1.00  0.00     0.178 C 
ATOM      6  O   UNL     1       7.563  -4.160  -3.125  1.00  0.00    -0.341 OA
ENDROOT
BRANCH   1   7
ATOM      7  O   UNL     1       9.547  -3.869  -1.901  1.00  0.00    -0.350 OA
BRANCH   7   8
ATOM      8  C   UNL     1      10.644  -3.952  -2.788  1.00  0.00     0.160 C 
ATOM      9  C   UNL     1      11.410  -5.237  -2.516  1.00  0.00     0.035 C 
ENDBRANCH   7   8
ENDBRANCH   1   7
BRANCH   2  10
ATOM     10  O   UNL     1       7.084  -6.507  -1.413  1.00  0.00    -0.385 OA
ATOM     11  H   UNL     1       6.880  -7.021  -0.589  1.00  0.00     0.211 HD
ENDBRANCH   2  10
BRANCH   3  12
ATOM     12  O   UNL     1       7.913  -3.480   0.375  1.00  0.00    -0.387 OA
ATOM     13  H   UNL     1       8.176  -2.820  -0.319  1.00  0.00     0.211 HD
ENDBRANCH   3  12
BRANCH   5  14
ATOM     14  C   UNL     1       7.458  -1.826  -2.305  1.00  0.00     0.191 C 
BRANCH  14  15
ATOM     15  O   UNL     1       6.652  -0.787  -2.789  1.00  0.00    -0.394 OA
ATOM     16  H   UNL     1       7.204   0.038  -2.763  1.00  0.00     0.210 HD
ENDBRANCH  14  15
ENDBRANCH   5  14
BRANCH   4  17
ATOM     17  O   UNL     1       5.390  -2.703  -0.502  1.00  0.00    -0.387 OA
ATOM     18  H   UNL     1       5.788  -2.654   0.407  1.00  0.00     0.211 HD
ENDBRANCH   4  17
TORSDOF 7
ENDMDL
MODEL 5
REMARK VINA RESULT:    -2.986      1.809      3.813
REMARK INTER + INTRA:          -4.275
REMARK INTER:                  -3.884
REMARK INTRA:                  -0.391
REMARK UNBOUND:                -0.416
REMARK SMILES CCO[C@@H]1O[C@H](CO)[C@H](O)[C@H](O)[C@H]1O
REMARK SMILES IDX 4 1 13 2 11 3 9 4 6 5 5 6 3 7 2 8 1 9 14 10 12 12 7 14 8 15
REMARK SMILES IDX 10 17
REMARK H PARENT 14 11 12 13 8 16 10 18
REMARK Flexibility Score: inf
ROOT
ATOM      1  C   UNL     1       7.742  -2.869  -1.371  1.00  0.00     0.281 C 
ATOM      2  C   UNL     1       6.500  -3.751  -1.124  1.00  0.00     0.202 C 
ATOM      3  C   UNL     1       6.687  -5.149  -1.721  1.00  0.00     0.179 C 
ATOM      4  C   UNL     1       8.013  -5.749  -1.231  1.00  0.00     0.177 C 
ATOM      5  C   UNL     1       9.203  -4.770  -1.412  1.00  0.00     0.178 C 
ATOM      6  O   UNL     1       8.943  -3.468  -0.893  1.00  0.00    -0.341 OA
ENDROOT
BRANCH   1   7
ATOM      7  O   UNL     1       7.838  -2.537  -2.745  1.00  0.00    -0.350 OA
BRANCH   7   8
ATOM      8  C   UNL     1       6.795  -1.658  -3.114  1.00  0.00     0.160 C 
ATOM      9  C   UNL     1       7.313  -0.229  -3.083  1.00  0.00     0.035 C 
ENDBRANCH   7   8
ENDBRANCH   1   7
BRANCH   2  10
ATOM     10  O   UNL     1       6.263  -3.867   0.257  1.00  0.00    -0.385 OA
ATOM     11  H   UNL     1       6.794  -3.155   0.703  1.00  0.00     0.211 HD
ENDBRANCH   2  10
BRANCH   3  12
ATOM     12  O   UNL     1       6.648  -5.076  -3.125  1.00  0.00    -0.387 OA
ATOM     13  H   UNL     1       6.574  -6.007  -3.462  1.00  0.00     0.211 HD
ENDBRANCH   3  12
BRANCH   5  14
ATOM     14  C   UNL     1       9.799  -4.739  -2.838  1.00  0.00     0.191 C 
BRANCH  14  15
ATOM     15  O   UNL     1      10.641  -3.630  -2.996  1.00  0.00    -0.394 OA
ATOM     16  H   UNL     1      10.916  -3.348  -2.085  1.00  0.00     0.210 HD
ENDBRANCH  14  15
ENDBRANCH   5  14
BRANCH   4  17
ATOM     17  O   UNL     1       8.255  -6.973  -1.877  1.00  0.00    -0.387 OA
ATOM     18  H   UNL     1       9.178  -6.927  -2.240  1.00  0.00     0.211 HD
ENDBRANCH   4  17
TORSDOF 7
ENDMDL
MODEL 6
REMARK VINA RESULT:    -2.577      1.671      3.329
REMARK INTER + INTRA:          -3.747
REMARK INTER:                  -3.319
REMARK INTRA:                  -0.428
REMARK UNBOUND:                -0.416
REMARK SMILES CCO[C@@H]1O[C@H](CO)[C@H](O)[C@H](O)[C@H]1O
REMARK SMILES IDX 4 1 13 2 11 3 9 4 6 5 5 6 3 7 2 8 1 9 14 10 12 12 7 14 8 15
REMARK SMILES IDX 10 17
REMARK H PARENT 14 11 12 13 8 16 10 18
REMARK Flexibility Score: inf
ROOT
ATOM      1  C   UNL     1       8.974  -6.117  -1.845  1.00  0.00     0.281 C 
ATOM      2  C   UNL     1       7.512  -6.123  -1.350  1.00  0.00     0.202 C 
ATOM      3  C   UNL     1       6.944  -4.703  -1.289  1.00  0.00     0.179 C 
ATOM      4  C   UNL     1       7.167  -3.996  -2.634  1.00  0.00     0.177 C 
ATOM      5  C   UNL     1       8.635  -4.119  -3.125  1.00  0.00     0.178 C 
ATOM      6  O   UNL     1       9.126  -5.456  -3.098  1.00  0.00    -0.341 OA
ENDROOT
BRANCH   1   7
ATOM      7  O   UNL     1       9.820  -5.557  -0.855  1.00  0.00    -0.350 OA
BRANCH   7   8
ATOM      8  C   UNL     1      10.836  -6.472  -0.499  1.00  0.00     0.160 C 
ATOM      9  C   UNL     1      12.176  -5.755  -0.498  1.00  0.00     0.035 C 
ENDBRANCH   7   8
ENDBRANCH   1   7
BRANCH   2  10
ATOM     10  O   UNL     1       6.719  -6.902  -2.211  1.00  0.00    -0.385 OA
ATOM     11  H   UNL     1       7.339  -7.389  -2.815  1.00  0.00     0.211 HD
ENDBRANCH   2  10
BRANCH   3  12
ATOM     12  O   UNL     1       7.546  -3.994  -0.234  1.00  0.00    -0.387 OA
ATOM     13  H   UNL     1       7.440  -3.028  -0.436  1.00  0.00     0.211 HD
ENDBRANCH   3  12
BRANCH   5  14
ATOM     14  C   UNL     1       9.612  -3.107  -2.485  1.00  0.00     0.191 C 
BRANCH  14  15
ATOM     15  O   UNL     1      10.940  -3.472  -2.747  1.00  0.00    -0.394 OA
ATOM     16  H   UNL     1      10.999  -3.652  -3.722  1.00  0.00     0.210 HD
ENDBRANCH  14  15
ENDBRANCH   5  14
BRANCH   4  17
ATOM     17  O   UNL     1       6.768  -2.653  -2.544  1.00  0.00    -0.387 OA
ATOM     18  H   UNL     1       5.944  -2.561  -3.089  1.00  0.00     0.211 HD
ENDBRANCH   4  17
TORSDOF 7
ENDMDL
MODEL 7
REMARK VINA RESULT:    -2.463      1.543      2.712
REMARK INTER + INTRA:          -3.599
REMARK INTER:                  -3.212
REMARK INTRA:                  -0.386
REMARK UNBOUND:                -0.416
REMARK SMILES CCO[C@@H]1O[C@H](CO)[C@H](O)[C@H](O)[C@H]1O
REMARK SMILES IDX 4 1 13 2 11 3 9 4 6 5 5 6 3 7 2 8 1 9 14 10 12 12 7 14 8 15
REMARK SMILES IDX 10 17
REMARK H PARENT 14 11 12 13 8 16 10 18
REMARK Flexibility Score: inf
ROOT
ATOM      1  C   UNL     1       6.992  -3.590  -2.490  1.00  0.00     0.281 C 
ATOM      2  C   UNL     1       8.016  -2.687  -1.769  1.00  0.00     0.202 C 
ATOM      3  C   UNL     1       8.853  -3.490  -0.770  1.00  0.00     0.179 C 
ATOM      4  C   UNL     1       9.455  -4.719  -1.468  1.00  0.00     0.177 C 
ATOM      5  C   UNL     1       8.391  -5.524  -2.261  1.00  0.00     0.178 C 
ATOM      6  O   UNL     1       7.602  -4.711  -3.125  1.00  0.00    -0.341 OA
ENDROOT
BRANCH   1   7
ATOM      7  O   UNL     1       5.977  -3.992  -1.587  1.00  0.00    -0.350 OA
BRANCH   7   8
ATOM      8  C   UNL     1       4.725  -3.476  -1.990  1.00  0.00     0.160 C 
ATOM      9  C   UNL     1       4.176  -4.326  -3.125  1.00  0.00     0.035 C 
ENDBRANCH   7   8
ENDBRANCH   1   7
BRANCH   2  10
ATOM     10  O   UNL     1       8.869  -2.086  -2.711  1.00  0.00    -0.385 OA
ATOM     11  H   UNL     1       8.402  -1.279  -3.052  1.00  0.00     0.211 HD
ENDBRANCH   2  10
BRANCH   3  12
ATOM     12  O   UNL     1       8.057  -3.865   0.326  1.00  0.00    -0.387 OA
ATOM     13  H   UNL     1       8.230  -3.207   1.049  1.00  0.00     0.211 HD
ENDBRANCH   3  12
BRANCH   5  14
ATOM     14  C   UNL     1       7.541  -6.486  -1.401  1.00  0.00     0.191 C 
BRANCH  14  15
ATOM     15  O   UNL     1       8.160  -7.740  -1.307  1.00  0.00    -0.394 OA
ATOM     16  H   UNL     1       8.593  -7.911  -2.185  1.00  0.00     0.210 HD
ENDBRANCH  14  15
ENDBRANCH   5  14
BRANCH   4  17
ATOM     17  O   UNL     1      10.114  -5.530  -0.529  1.00  0.00    -0.387 OA
ATOM     18  H   UNL     1      10.181  -6.436  -0.930  1.00  0.00     0.211 HD
ENDBRANCH   4  17
TORSDOF 7
ENDMDL
