MODEL 1
REMARK VINA RESULT:    -3.790      0.000      0.000
REMARK INTER + INTRA:          -9.712
REMARK INTER:                  -7.114
REMARK INTRA:                  -2.599
REMARK UNBOUND:                -2.599
REMARK SMILES O=C([O-])CCCCCCCCCCCCCCC(=O)[O-]
REMARK SMILES IDX 10 1 9 2 8 3 7 4 6 5 5 6 4 7 2 8 1 9 3 10 11 11 12 12 13 13
REMARK SMILES IDX 14 14 15 15 16 16 17 17 18 18 19 19 20 20
REMARK H PARENT
REMARK Flexibility Score: inf
ROOT
ATOM      1  C   UNL     1      -2.793  38.499  22.966  1.00  0.00     0.000 C 
ENDROOT
BRANCH   1   2
ATOM      2  C   UNL     1      -4.317  38.283  22.967  1.00  0.00     0.000 C 
BRANCH   2   3
ATOM      3  C   UNL     1      -4.734  37.017  22.197  1.00  0.00     0.000 C 
BRANCH   3   4
ATOM      4  C   UNL     1      -4.059  36.915  20.819  1.00  0.00     0.000 C 
BRANCH   4   5
ATOM      5  C   UNL     1      -4.931  37.479  19.687  1.00  0.00     0.000 C 
BRANCH   5   6
ATOM      6  C   UNL     1      -6.412  37.495  20.093  1.00  0.00     0.006 C 
BRANCH   6   7
ATOM      7  C   UNL     1      -7.071  38.857  19.837  1.00  0.00     0.053 C 
BRANCH   7   8
ATOM      8  C   UNL     1      -7.266  39.627  21.107  1.00  0.00     0.041 C 
ATOM      9  O   UNL     1      -7.049  40.867  21.135  1.00  0.00    -0.550 OA
ATOM     10  O   UNL     1      -7.722  38.982  22.250  1.00  0.00    -0.550 OA
ENDBRANCH   7   8
ENDBRANCH   6   7
ENDBRANCH   5   6
ENDBRANCH   4   5
ENDBRANCH   3   4
ENDBRANCH   2   3
ENDBRANCH   1   2
BRANCH   1  11
ATOM     11  C   UNL     1      -2.387  39.847  22.346  1.00  0.00     0.000 C 
BRANCH  11  12
ATOM     12  C   UNL     1      -3.601  40.691  21.921  1.00  0.00     0.000 C 
BRANCH  12  13
ATOM     13  C   UNL     1      -3.578  41.043  20.422  1.00  0.00     0.000 C 
BRANCH  13  14
ATOM     14  C   UNL     1      -2.576  40.186  19.630  1.00  0.00     0.000 C 
BRANCH  14  15
ATOM     15  C   UNL     1      -2.818  40.238  18.115  1.00  0.00     0.000 C 
BRANCH  15  16
ATOM     16  C   UNL     1      -2.370  38.931  17.443  1.00  0.00     0.006 C 
BRANCH  16  17
ATOM     17  C   UNL     1      -1.460  38.093  18.349  1.00  0.00     0.053 C 
BRANCH  17  18
ATOM     18  C   UNL     1      -1.238  36.717  17.796  1.00  0.00     0.041 C 
ATOM     19  O   UNL     1      -2.170  35.871  17.814  1.00  0.00    -0.550 OA
ATOM     20  O   UNL     1      -0.013  36.381  17.234  1.00  0.00    -0.550 OA
ENDBRANCH  17  18
ENDBRANCH  16  17
ENDBRANCH  15  16
ENDBRANCH  14  15
ENDBRANCH  13  14
ENDBRANCH  12  13
ENDBRANCH  11  12
ENDBRANCH   1  11
TORSDOF 15
ENDMDL
MODEL 2
REMARK VINA RESULT:    -3.754      2.127      4.832
REMARK INTER + INTRA:          -9.644
REMARK INTER:                  -7.173
REMARK INTRA:                  -2.471
REMARK UNBOUND:                -2.599
REMARK SMILES O=C([O-])CCCCCCCCCCCCCCC(=O)[O-]
REMARK SMILES IDX 10 1 9 2 8 3 7 4 6 5 5 6 4 7 2 8 1 9 3 10 11 11 12 12 13 13
REMARK SMILES IDX 14 14 15 15 16 16 17 17 18 18 19 19 20 20
REMARK H PARENT
REMARK Flexibility Score: inf
ROOT
ATOM      1  C   UNL     1      -3.652  39.141  23.752  1.00  0.00     0.000 C 
ENDROOT
BRANCH   1   2
ATOM      2  C   UNL     1      -2.389  39.159  22.874  1.00  0.00     0.000 C 
BRANCH   2   3
ATOM      3  C   UNL     1      -2.341  40.375  21.932  1.00  0.00     0.000 C 
BRANCH   3   4
ATOM      4  C   UNL     1      -1.871  40.005  20.515  1.00  0.00     0.000 C 
BRANCH   4   5
ATOM      5  C   UNL     1      -1.751  38.488  20.307  1.00  0.00     0.000 C 
BRANCH   5   6
ATOM      6  C   UNL     1      -2.151  38.098  18.876  1.00  0.00     0.006 C 
BRANCH   6   7
ATOM      7  C   UNL     1      -3.103  39.120  18.239  1.00  0.00     0.053 C 
BRANCH   7   8
ATOM      8  C   UNL     1      -2.737  39.411  16.816  1.00  0.00     0.041 C 
ATOM      9  O   UNL     1      -3.403  38.904  15.875  1.00  0.00    -0.550 OA
ATOM     10  O   UNL     1      -1.682  40.268  16.530  1.00  0.00    -0.550 OA
ENDBRANCH   7   8
ENDBRANCH   6   7
ENDBRANCH   5   6
ENDBRANCH   4   5
ENDBRANCH   3   4
ENDBRANCH   2   3
ENDBRANCH   1   2
BRANCH   1  11
ATOM     11  C   UNL     1      -4.464  40.443  23.646  1.00  0.00     0.000 C 
BRANCH  11  12
ATOM     12  C   UNL     1      -5.869  40.218  23.062  1.00  0.00     0.000 C 
BRANCH  12  13
ATOM     13  C   UNL     1      -6.063  40.919  21.706  1.00  0.00     0.000 C 
BRANCH  13  14
ATOM     14  C   UNL     1      -5.792  39.986  20.515  1.00  0.00     0.000 C 
BRANCH  14  15
ATOM     15  C   UNL     1      -6.990  39.085  20.181  1.00  0.00     0.000 C 
BRANCH  15  16
ATOM     16  C   UNL     1      -6.554  37.617  20.054  1.00  0.00     0.006 C 
BRANCH  16  17
ATOM     17  C   UNL     1      -5.198  37.353  20.720  1.00  0.00     0.053 C 
BRANCH  17  18
ATOM     18  C   UNL     1      -5.348  36.616  22.016  1.00  0.00     0.041 C 
ATOM     19  O   UNL     1      -6.425  36.690  22.665  1.00  0.00    -0.550 OA
ATOM     20  O   UNL     1      -4.311  35.823  22.492  1.00  0.00    -0.550 OA
ENDBRANCH  17  18
ENDBRANCH  16  17
ENDBRANCH  15  16
ENDBRANCH  14  15
ENDBRANCH  13  14
ENDBRANCH  12  13
ENDBRANCH  11  12
ENDBRANCH   1  11
TORSDOF 15
ENDMDL
MODEL 3
REMARK VINA RESULT:    -3.732      1.274      5.888
REMARK INTER + INTRA:          -9.604
REMARK INTER:                  -6.946
REMARK INTRA:                  -2.658
REMARK UNBOUND:                -2.599
REMARK SMILES O=C([O-])CCCCCCCCCCCCCCC(=O)[O-]
REMARK SMILES IDX 10 1 9 2 8 3 7 4 6 5 5 6 4 7 2 8 1 9 3 10 11 11 12 12 13 13
REMARK SMILES IDX 14 14 15 15 16 16 17 17 18 18 19 19 20 20
REMARK H PARENT
REMARK Flexibility Score: inf
ROOT
ATOM      1  C   UNL     1      -5.091  37.375  19.874  1.00  0.00     0.000 C 
ENDROOT
BRANCH   1   2
ATOM      2  C   UNL     1      -5.180  38.765  19.218  1.00  0.00     0.000 C 
BRANCH   2   3
ATOM      3  C   UNL     1      -4.165  39.762  19.807  1.00  0.00     0.000 C 
BRANCH   3   4
ATOM      4  C   UNL     1      -3.038  40.107  18.819  1.00  0.00     0.000 C 
BRANCH   4   5
ATOM      5  C   UNL     1      -1.663  39.610  19.291  1.00  0.00     0.000 C 
BRANCH   5   6
ATOM      6  C   UNL     1      -1.177  38.439  18.424  1.00  0.00     0.006 C 
BRANCH   6   7
ATOM      7  C   UNL     1      -2.053  38.232  17.182  1.00  0.00     0.053 C 
BRANCH   7   8
ATOM      8  C   UNL     1      -2.636  36.853  17.135  1.00  0.00     0.041 C 
ATOM      9  O   UNL     1      -3.662  36.623  16.442  1.00  0.00    -0.550 OA
ATOM     10  O   UNL     1      -2.026  35.815  17.829  1.00  0.00    -0.550 OA
ENDBRANCH   7   8
ENDBRANCH   6   7
ENDBRANCH   5   6
ENDBRANCH   4   5
ENDBRANCH   3   4
ENDBRANCH   2   3
ENDBRANCH   1   2
BRANCH   1  11
ATOM     11  C   UNL     1      -3.832  37.211  20.743  1.00  0.00     0.000 C 
BRANCH  11  12
ATOM     12  C   UNL     1      -4.123  36.499  22.075  1.00  0.00     0.000 C 
BRANCH  12  13
ATOM     13  C   UNL     1      -3.598  37.284  23.290  1.00  0.00     0.000 C 
BRANCH  13  14
ATOM     14  C   UNL     1      -2.903  38.596  22.889  1.00  0.00     0.000 C 
BRANCH  14  15
ATOM     15  C   UNL     1      -3.666  39.842  23.362  1.00  0.00     0.000 C 
BRANCH  15  16
ATOM     16  C   UNL     1      -5.067  39.469  23.869  1.00  0.00     0.006 C 
BRANCH  16  17
ATOM     17  C   UNL     1      -6.179  40.084  23.009  1.00  0.00     0.053 C 
BRANCH  17  18
ATOM     18  C   UNL     1      -7.111  39.039  22.475  1.00  0.00     0.041 C 
ATOM     19  O   UNL     1      -7.873  39.306  21.508  1.00  0.00    -0.550 OA
ATOM     20  O   UNL     1      -7.116  37.763  23.023  1.00  0.00    -0.550 OA
ENDBRANCH  17  18
ENDBRANCH  16  17
ENDBRANCH  15  16
ENDBRANCH  14  15
ENDBRANCH  13  14
ENDBRANCH  12  13
ENDBRANCH  11  12
ENDBRANCH   1  11
TORSDOF 15
ENDMDL
MODEL 4
REMARK VINA RESULT:    -3.695      1.728      2.978
REMARK INTER + INTRA:          -9.534
REMARK INTER:                  -7.397
REMARK INTRA:                  -2.136
REMARK UNBOUND:                -2.599
REMARK SMILES O=C([O-])CCCCCCCCCCCCCCC(=O)[O-]
REMARK SMILES IDX 10 1 9 2 8 3 7 4 6 5 5 6 4 7 2 8 1 9 3 10 11 11 12 12 13 13
REMARK SMILES IDX 14 14 15 15 16 16 17 17 18 18 19 19 20 20
REMARK H PARENT
REMARK Flexibility Score: inf
ROOT
ATOM      1  C   UNL     1      -3.934  37.382  21.135  1.00  0.00     0.000 C 
ENDROOT
BRANCH   1   2
ATOM      2  C   UNL     1      -5.442  37.085  21.054  1.00  0.00     0.000 C 
BRANCH   2   3
ATOM      3  C   UNL     1      -6.029  37.384  19.662  1.00  0.00     0.000 C 
BRANCH   3   4
ATOM      4  C   UNL     1      -7.109  38.478  19.702  1.00  0.00     0.000 C 
BRANCH   4   5
ATOM      5  C   UNL     1      -7.300  39.075  21.104  1.00  0.00     0.000 C 
BRANCH   5   6
ATOM      6  C   UNL     1      -6.930  40.566  21.120  1.00  0.00     0.006 C 
BRANCH   6   7
ATOM      7  C   UNL     1      -5.421  40.793  20.965  1.00  0.00     0.053 C 
BRANCH   7   8
ATOM      8  C   UNL     1      -4.724  40.823  22.291  1.00  0.00     0.041 C 
ATOM      9  O   UNL     1      -5.394  40.855  23.357  1.00  0.00    -0.550 OA
ATOM     10  O   UNL     1      -3.337  40.781  22.351  1.00  0.00    -0.550 OA
ENDBRANCH   7   8
ENDBRANCH   6   7
ENDBRANCH   5   6
ENDBRANCH   4   5
ENDBRANCH   3   4
ENDBRANCH   2   3
ENDBRANCH   1   2
BRANCH   1  11
ATOM     11  C   UNL     1      -3.231  37.250  19.773  1.00  0.00     0.000 C 
BRANCH  11  12
ATOM     12  C   UNL     1      -2.525  38.547  19.344  1.00  0.00     0.000 C 
BRANCH  12  13
ATOM     13  C   UNL     1      -3.333  39.342  18.302  1.00  0.00     0.000 C 
BRANCH  13  14
ATOM     14  C   UNL     1      -3.110  38.832  16.869  1.00  0.00     0.000 C 
BRANCH  14  15
ATOM     15  C   UNL     1      -4.109  37.738  16.464  1.00  0.00     0.000 C 
BRANCH  15  16
ATOM     16  C   UNL     1      -3.377  36.478  15.978  1.00  0.00     0.006 C 
BRANCH  16  17
ATOM     17  C   UNL     1      -1.852  36.618  16.073  1.00  0.00     0.053 C 
BRANCH  17  18
ATOM     18  C   UNL     1      -1.244  35.530  16.906  1.00  0.00     0.041 C 
ATOM     19  O   UNL     1      -1.982  34.684  17.477  1.00  0.00    -0.550 OA
ATOM     20  O   UNL     1       0.136  35.433  17.026  1.00  0.00    -0.550 OA
ENDBRANCH  17  18
ENDBRANCH  16  17
ENDBRANCH  15  16
ENDBRANCH  14  15
ENDBRANCH  13  14
ENDBRANCH  12  13
ENDBRANCH  11  12
ENDBRANCH   1  11
TORSDOF 15
ENDMDL
MODEL 5
REMARK VINA RESULT:    -3.659      3.117      7.190
REMARK INTER + INTRA:          -9.467
REMARK INTER:                  -8.295
REMARK INTRA:                  -1.172
REMARK UNBOUND:                -2.599
REMARK SMILES O=C([O-])CCCCCCCCCCCCCCC(=O)[O-]
REMARK SMILES IDX 10 1 9 2 8 3 7 4 6 5 5 6 4 7 2 8 1 9 3 10 11 11 12 12 13 13
REMARK SMILES IDX 14 14 15 15 16 16 17 17 18 18 19 19 20 20
REMARK H PARENT
REMARK Flexibility Score: inf
ROOT
ATOM      1  C   UNL     1      -3.198  37.983  18.737  1.00  0.00     0.000 C 
ENDROOT
BRANCH   1   2
ATOM      2  C   UNL     1      -3.054  37.188  17.428  1.00  0.00     0.000 C 
BRANCH   2   3
ATOM      3  C   UNL     1      -2.216  35.908  17.603  1.00  0.00     0.000 C 
BRANCH   3   4
ATOM      4  C   UNL     1      -0.773  36.075  17.098  1.00  0.00     0.000 C 
BRANCH   4   5
ATOM      5  C   UNL     1      -0.158  34.755  16.610  1.00  0.00     0.000 C 
BRANCH   5   6
ATOM      6  C   UNL     1      -0.694  33.568  17.424  1.00  0.00     0.006 C 
BRANCH   6   7
ATOM      7  C   UNL     1      -0.374  32.219  16.765  1.00  0.00     0.053 C 
BRANCH   7   8
ATOM      8  C   UNL     1      -0.654  31.071  17.685  1.00  0.00     0.041 C 
ATOM      9  O   UNL     1      -1.185  31.275  18.808  1.00  0.00    -0.550 OA
ATOM     10  O   UNL     1      -0.360  29.772  17.288  1.00  0.00    -0.550 OA
ENDBRANCH   7   8
ENDBRANCH   6   7
ENDBRANCH   5   6
ENDBRANCH   4   5
ENDBRANCH   3   4
ENDBRANCH   2   3
ENDBRANCH   1   2
BRANCH   1  11
ATOM     11  C   UNL     1      -4.543  38.724  18.834  1.00  0.00     0.000 C 
BRANCH  11  12
ATOM     12  C   UNL     1      -5.739  37.828  18.470  1.00  0.00     0.000 C 
BRANCH  12  13
ATOM     13  C   UNL     1      -6.902  37.962  19.470  1.00  0.00     0.000 C 
BRANCH  13  14
ATOM     14  C   UNL     1      -6.744  39.178  20.398  1.00  0.00     0.000 C 
BRANCH  14  15
ATOM     15  C   UNL     1      -7.468  39.000  21.740  1.00  0.00     0.000 C 
BRANCH  15  16
ATOM     16  C   UNL     1      -6.469  39.006  22.908  1.00  0.00     0.006 C 
BRANCH  16  17
ATOM     17  C   UNL     1      -5.015  39.098  22.429  1.00  0.00     0.053 C 
BRANCH  17  18
ATOM     18  C   UNL     1      -4.283  37.804  22.621  1.00  0.00     0.041 C 
ATOM     19  O   UNL     1      -3.300  37.744  23.405  1.00  0.00    -0.550 OA
ATOM     20  O   UNL     1      -4.706  36.659  21.958  1.00  0.00    -0.550 OA
ENDBRANCH  17  18
ENDBRANCH  16  17
ENDBRANCH  15  16
ENDBRANCH  14  15
ENDBRANCH  13  14
ENDBRANCH  12  13
ENDBRANCH  11  12
ENDBRANCH   1  11
TORSDOF 15
ENDMDL
MODEL 6
REMARK VINA RESULT:    -3.647      1.815      5.722
REMARK INTER + INTRA:          -9.445
REMARK INTER:                  -7.412
REMARK INTRA:                  -2.033
REMARK UNBOUND:                -2.599
REMARK SMILES O=C([O-])CCCCCCCCCCCCCCC(=O)[O-]
REMARK SMILES IDX 10 1 9 2 8 3 7 4 6 5 5 6 4 7 2 8 1 9 3 10 11 11 12 12 13 13
REMARK SMILES IDX 14 14 15 15 16 16 17 17 18 18 19 19 20 20
REMARK H PARENT
REMARK Flexibility Score: inf
ROOT
ATOM      1  C   UNL     1      -7.067  38.465  19.291  1.00  0.00     0.000 C 
ENDROOT
BRANCH   1   2
ATOM      2  C   UNL     1      -5.765  37.665  19.113  1.00  0.00     0.000 C 
BRANCH   2   3
ATOM      3  C   UNL     1      -5.243  37.701  17.665  1.00  0.00     0.000 C 
BRANCH   3   4
ATOM      4  C   UNL     1      -3.712  37.824  17.593  1.00  0.00     0.000 C 
BRANCH   4   5
ATOM      5  C   UNL     1      -3.010  37.232  18.825  1.00  0.00     0.000 C 
BRANCH   5   6
ATOM      6  C   UNL     1      -1.596  37.812  18.981  1.00  0.00     0.006 C 
BRANCH   6   7
ATOM      7  C   UNL     1      -0.893  38.002  17.630  1.00  0.00     0.053 C 
BRANCH   7   8
ATOM      8  C   UNL     1      -0.006  36.842  17.297  1.00  0.00     0.041 C 
ATOM      9  O   UNL     1      -0.494  35.798  16.789  1.00  0.00    -0.550 OA
ATOM     10  O   UNL     1       1.363  36.927  17.513  1.00  0.00    -0.550 OA
ENDBRANCH   7   8
ENDBRANCH   6   7
ENDBRANCH   5   6
ENDBRANCH   4   5
ENDBRANCH   3   4
ENDBRANCH   2   3
ENDBRANCH   1   2
BRANCH   1  11
ATOM     11  C   UNL     1      -7.308  38.885  20.751  1.00  0.00     0.000 C 
BRANCH  11  12
ATOM     12  C   UNL     1      -7.173  40.404  20.958  1.00  0.00     0.000 C 
BRANCH  12  13
ATOM     13  C   UNL     1      -5.893  40.782  21.724  1.00  0.00     0.000 C 
BRANCH  13  14
ATOM     14  C   UNL     1      -4.626  40.641  20.863  1.00  0.00     0.000 C 
BRANCH  14  15
ATOM     15  C   UNL     1      -3.581  39.707  21.491  1.00  0.00     0.000 C 
BRANCH  15  16
ATOM     16  C   UNL     1      -4.129  39.048  22.766  1.00  0.00     0.006 C 
BRANCH  16  17
ATOM     17  C   UNL     1      -3.588  37.627  22.965  1.00  0.00     0.053 C 
BRANCH  17  18
ATOM     18  C   UNL     1      -4.515  36.594  22.399  1.00  0.00     0.041 C 
ATOM     19  O   UNL     1      -5.753  36.670  22.616  1.00  0.00    -0.550 OA
ATOM     20  O   UNL     1      -4.016  35.567  21.608  1.00  0.00    -0.550 OA
ENDBRANCH  17  18
ENDBRANCH  16  17
ENDBRANCH  15  16
ENDBRANCH  14  15
ENDBRANCH  13  14
ENDBRANCH  12  13
ENDBRANCH  11  12
ENDBRANCH   1  11
TORSDOF 15
ENDMDL
MODEL 7
REMARK VINA RESULT:    -3.620      2.583      4.100
REMARK INTER + INTRA:          -9.394
REMARK INTER:                  -7.208
REMARK INTRA:                  -2.186
REMARK UNBOUND:                -2.599
REMARK SMILES O=C([O-])CCCCCCCCCCCCCCC(=O)[O-]
REMARK SMILES IDX 10 1 9 2 8 3 7 4 6 5 5 6 4 7 2 8 1 9 3 10 11 11 12 12 13 13
REMARK SMILES IDX 14 14 15 15 16 16 17 17 18 18 19 19 20 20
REMARK H PARENT
REMARK Flexibility Score: inf
ROOT
ATOM      1  C   UNL     1      -6.013  36.716  22.610  1.00  0.00     0.000 C 
ENDROOT
BRANCH   1   2
ATOM      2  C   UNL     1      -4.601  36.269  22.194  1.00  0.00     0.000 C 
BRANCH   2   3
ATOM      3  C   UNL     1      -3.613  37.446  22.096  1.00  0.00     0.000 C 
BRANCH   3   4
ATOM      4  C   UNL     1      -3.292  38.062  23.467  1.00  0.00     0.000 C 
BRANCH   4   5
ATOM      5  C   UNL     1      -2.683  39.468  23.359  1.00  0.00     0.000 C 
BRANCH   5   6
ATOM      6  C   UNL     1      -3.469  40.474  24.212  1.00  0.00     0.006 C 
BRANCH   6   7
ATOM      7  C   UNL     1      -4.434  39.782  25.185  1.00  0.00     0.053 C 
BRANCH   7   8
ATOM      8  C   UNL     1      -4.291  40.309  26.580  1.00  0.00     0.041 C 
ATOM      9  O   UNL     1      -3.164  40.308  27.143  1.00  0.00    -0.550 OA
ATOM     10  O   UNL     1      -5.393  40.832  27.244  1.00  0.00    -0.550 OA
ENDBRANCH   7   8
ENDBRANCH   6   7
ENDBRANCH   5   6
ENDBRANCH   4   5
ENDBRANCH   3   4
ENDBRANCH   2   3
ENDBRANCH   1   2
BRANCH   1  11
ATOM     11  C   UNL     1      -6.434  38.038  21.946  1.00  0.00     0.000 C 
BRANCH  11  12
ATOM     12  C   UNL     1      -6.709  37.882  20.440  1.00  0.00     0.000 C 
BRANCH  12  13
ATOM     13  C   UNL     1      -5.968  38.932  19.594  1.00  0.00     0.000 C 
BRANCH  13  14
ATOM     14  C   UNL     1      -5.478  40.126  20.431  1.00  0.00     0.000 C 
BRANCH  14  15
ATOM     15  C   UNL     1      -4.051  40.562  20.068  1.00  0.00     0.000 C 
BRANCH  15  16
ATOM     16  C   UNL     1      -3.439  39.619  19.020  1.00  0.00     0.006 C 
BRANCH  16  17
ATOM     17  C   UNL     1      -2.012  39.191  19.386  1.00  0.00     0.053 C 
BRANCH  17  18
ATOM     18  C   UNL     1      -1.655  37.869  18.778  1.00  0.00     0.041 C 
ATOM     19  O   UNL     1      -0.529  37.706  18.236  1.00  0.00    -0.550 OA
ATOM     20  O   UNL     1      -2.551  36.810  18.836  1.00  0.00    -0.550 OA
ENDBRANCH  17  18
ENDBRANCH  16  17
ENDBRANCH  15  16
ENDBRANCH  14  15
ENDBRANCH  13  14
ENDBRANCH  12  13
ENDBRANCH  11  12
ENDBRANCH   1  11
TORSDOF 15
ENDMDL
MODEL 8
REMARK VINA RESULT:    -3.597      1.760      2.510
REMARK INTER + INTRA:          -9.350
REMARK INTER:                  -7.390
REMARK INTRA:                  -1.959
REMARK UNBOUND:                -2.599
REMARK SMILES O=C([O-])CCCCCCCCCCCCCCC(=O)[O-]
REMARK SMILES IDX 10 1 9 2 8 3 7 4 6 5 5 6 4 7 2 8 1 9 3 10 11 11 12 12 13 13
REMARK SMILES IDX 14 14 15 15 16 16 17 17 18 18 19 19 20 20
REMARK H PARENT
REMARK Flexibility Score: inf
ROOT
ATOM      1  C   UNL     1      -3.459  39.310  22.324  1.00  0.00     0.000 C 
ENDROOT
BRANCH   1   2
ATOM      2  C   UNL     1      -4.259  38.933  23.583  1.00  0.00     0.000 C 
BRANCH   2   3
ATOM      3  C   UNL     1      -5.672  39.544  23.590  1.00  0.00     0.000 C 
BRANCH   3   4
ATOM      4  C   UNL     1      -6.730  38.590  23.010  1.00  0.00     0.000 C 
BRANCH   4   5
ATOM      5  C   UNL     1      -7.646  39.273  21.984  1.00  0.00     0.000 C 
BRANCH   5   6
ATOM      6  C   UNL     1      -6.892  39.547  20.674  1.00  0.00     0.006 C 
BRANCH   6   7
ATOM      7  C   UNL     1      -7.257  38.544  19.572  1.00  0.00     0.053 C 
BRANCH   7   8
ATOM      8  C   UNL     1      -6.089  37.688  19.189  1.00  0.00     0.041 C 
ATOM      9  O   UNL     1      -5.740  37.596  17.983  1.00  0.00    -0.550 OA
ATOM     10  O   UNL     1      -5.364  37.021  20.168  1.00  0.00    -0.550 OA
ENDBRANCH   7   8
ENDBRANCH   6   7
ENDBRANCH   5   6
ENDBRANCH   4   5
ENDBRANCH   3   4
ENDBRANCH   2   3
ENDBRANCH   1   2
BRANCH   1  11
ATOM     11  C   UNL     1      -3.498  40.819  22.029  1.00  0.00     0.000 C 
BRANCH  11  12
ATOM     12  C   UNL     1      -3.556  41.125  20.522  1.00  0.00     0.000 C 
BRANCH  12  13
ATOM     13  C   UNL     1      -3.327  39.872  19.658  1.00  0.00     0.000 C 
BRANCH  13  14
ATOM     14  C   UNL     1      -2.060  39.977  18.792  1.00  0.00     0.000 C 
BRANCH  14  15
ATOM     15  C   UNL     1      -1.180  38.721  18.872  1.00  0.00     0.000 C 
BRANCH  15  16
ATOM     16  C   UNL     1      -2.040  37.450  18.942  1.00  0.00     0.006 C 
BRANCH  16  17
ATOM     17  C   UNL     1      -2.284  36.836  17.558  1.00  0.00     0.053 C 
BRANCH  17  18
ATOM     18  C   UNL     1      -1.378  35.671  17.298  1.00  0.00     0.041 C 
ATOM     19  O   UNL     1      -0.166  35.864  17.015  1.00  0.00    -0.550 OA
ATOM     20  O   UNL     1      -1.863  34.374  17.399  1.00  0.00    -0.550 OA
ENDBRANCH  17  18
ENDBRANCH  16  17
ENDBRANCH  15  16
ENDBRANCH  14  15
ENDBRANCH  13  14
ENDBRANCH  12  13
ENDBRANCH  11  12
ENDBRANCH   1  11
TORSDOF 15
ENDMDL
MODEL 9
REMARK VINA RESULT:    -3.571      2.099      5.987
REMARK INTER + INTRA:          -9.301
REMARK INTER:                  -7.580
REMARK INTRA:                  -1.722
REMARK UNBOUND:                -2.599
REMARK SMILES O=C([O-])CCCCCCCCCCCCCCC(=O)[O-]
REMARK SMILES IDX 10 1 9 2 8 3 7 4 6 5 5 6 4 7 2 8 1 9 3 10 11 11 12 12 13 13
REMARK SMILES IDX 14 14 15 15 16 16 17 17 18 18 19 19 20 20
REMARK H PARENT
REMARK Flexibility Score: inf
ROOT
ATOM      1  C   UNL     1      -2.674  39.479  19.904  1.00  0.00     0.000 C 
ENDROOT
BRANCH   1   2
ATOM      2  C   UNL     1      -1.761  39.765  18.699  1.00  0.00     0.000 C 
BRANCH   2   3
ATOM      3  C   UNL     1      -2.415  40.709  17.673  1.00  0.00     0.000 C 
BRANCH   3   4
ATOM      4  C   UNL     1      -2.803  39.987  16.372  1.00  0.00     0.000 C 
BRANCH   4   5
ATOM      5  C   UNL     1      -1.851  38.832  16.026  1.00  0.00     0.000 C 
BRANCH   5   6
ATOM      6  C   UNL     1      -2.621  37.511  15.889  1.00  0.00     0.006 C 
BRANCH   6   7
ATOM      7  C   UNL     1      -1.712  36.287  16.067  1.00  0.00     0.053 C 
BRANCH   7   8
ATOM      8  C   UNL     1      -2.008  35.555  17.340  1.00  0.00     0.041 C 
ATOM      9  O   UNL     1      -1.858  34.306  17.401  1.00  0.00    -0.550 OA
ATOM     10  O   UNL     1      -2.415  36.256  18.468  1.00  0.00    -0.550 OA
ENDBRANCH   7   8
ENDBRANCH   6   7
ENDBRANCH   5   6
ENDBRANCH   4   5
ENDBRANCH   3   4
ENDBRANCH   2   3
ENDBRANCH   1   2
BRANCH   1  11
ATOM     11  C   UNL     1      -4.154  39.778  19.609  1.00  0.00     0.000 C 
BRANCH  11  12
ATOM     12  C   UNL     1      -5.017  38.505  19.570  1.00  0.00     0.000 C 
BRANCH  12  13
ATOM     13  C   UNL     1      -6.524  38.813  19.629  1.00  0.00     0.000 C 
BRANCH  13  14
ATOM     14  C   UNL     1      -6.895  39.718  20.814  1.00  0.00     0.000 C 
BRANCH  14  15
ATOM     15  C   UNL     1      -7.504  38.940  21.990  1.00  0.00     0.000 C 
BRANCH  15  16
ATOM     16  C   UNL     1      -6.417  38.181  22.767  1.00  0.00     0.006 C 
BRANCH  16  17
ATOM     17  C   UNL     1      -5.357  39.121  23.354  1.00  0.00     0.053 C 
BRANCH  17  18
ATOM     18  C   UNL     1      -3.979  38.541  23.249  1.00  0.00     0.041 C 
ATOM     19  O   UNL     1      -3.810  37.400  22.743  1.00  0.00    -0.550 OA
ATOM     20  O   UNL     1      -2.880  39.273  23.680  1.00  0.00    -0.550 OA
ENDBRANCH  17  18
ENDBRANCH  16  17
ENDBRANCH  15  16
ENDBRANCH  14  15
ENDBRANCH  13  14
ENDBRANCH  12  13
ENDBRANCH  11  12
ENDBRANCH   1  11
TORSDOF 15
ENDMDL
