MODEL 1
REMARK VINA RESULT:    -3.116      0.000      0.000
REMARK INTER + INTRA:          -5.055
REMARK INTER:                  -4.573
REMARK INTRA:                  -0.483
REMARK UNBOUND:                -0.483
REMARK SMILES O=C([O-])CCCCCCCC(=O)[O-]
REMARK SMILES IDX 7 1 6 2 5 3 4 4 2 5 1 6 3 7 8 8 9 9 10 10 11 11 12 12 13 13
REMARK H PARENT
REMARK Flexibility Score: inf
ROOT
ATOM      1  C   UNL     1      -6.888  20.890  14.948  1.00  0.00     0.000 C 
ENDROOT
BRANCH   1   2
ATOM      2  C   UNL     1      -7.500  21.685  16.115  1.00  0.00     0.000 C 
BRANCH   2   3
ATOM      3  C   UNL     1      -8.660  20.929  16.797  1.00  0.00     0.006 C 
BRANCH   3   4
ATOM      4  C   UNL     1      -8.299  20.373  18.184  1.00  0.00     0.053 C 
BRANCH   4   5
ATOM      5  C   UNL     1      -7.586  21.378  19.034  1.00  0.00     0.041 C 
ATOM      6  O   UNL     1      -8.193  22.398  19.453  1.00  0.00    -0.550 OA
ATOM      7  O   UNL     1      -6.258  21.175  19.386  1.00  0.00    -0.550 OA
ENDBRANCH   4   5
ENDBRANCH   3   4
ENDBRANCH   2   3
ENDBRANCH   1   2
BRANCH   1   8
ATOM      8  C   UNL     1      -5.352  20.947  14.936  1.00  0.00     0.000 C 
BRANCH   8   9
ATOM      9  C   UNL     1      -4.721  20.233  16.144  1.00  0.00     0.006 C 
BRANCH   9  10
ATOM     10  C   UNL     1      -3.195  20.133  16.025  1.00  0.00     0.053 C 
BRANCH  10  11
ATOM     11  C   UNL     1      -2.530  20.153  17.367  1.00  0.00     0.041 C 
ATOM     12  O   UNL     1      -3.224  20.206  18.417  1.00  0.00    -0.550 OA
ATOM     13  O   UNL     1      -1.146  20.076  17.460  1.00  0.00    -0.550 OA
ENDBRANCH  10  11
ENDBRANCH   9  10
ENDBRANCH   8   9
ENDBRANCH   1   8
TORSDOF 8
ENDMDL
MODEL 2
REMARK VINA RESULT:    -3.045      2.941      5.817
REMARK INTER + INTRA:          -4.952
REMARK INTER:                  -4.636
REMARK INTRA:                  -0.316
REMARK UNBOUND:                -0.483
REMARK SMILES O=C([O-])CCCCCCCC(=O)[O-]
REMARK SMILES IDX 7 1 6 2 5 3 4 4 2 5 1 6 3 7 8 8 9 9 10 10 11 11 12 12 13 13
REMARK H PARENT
REMARK Flexibility Score: inf
ROOT
ATOM      1  C   UNL     1      -7.951  22.127  18.879  1.00  0.00     0.000 C 
ENDROOT
BRANCH   1   2
ATOM      2  C   UNL     1      -8.455  22.335  17.439  1.00  0.00     0.000 C 
BRANCH   2   3
ATOM      3  C   UNL     1      -8.417  21.034  16.610  1.00  0.00     0.006 C 
BRANCH   3   4
ATOM      4  C   UNL     1      -7.607  21.158  15.310  1.00  0.00     0.053 C 
BRANCH   4   5
ATOM      5  C   UNL     1      -6.173  20.770  15.492  1.00  0.00     0.041 C 
ATOM      6  O   UNL     1      -5.335  20.991  14.579  1.00  0.00    -0.550 OA
ATOM      7  O   UNL     1      -5.755  20.189  16.683  1.00  0.00    -0.550 OA
ENDBRANCH   4   5
ENDBRANCH   3   4
ENDBRANCH   2   3
ENDBRANCH   1   2
BRANCH   1   8
ATOM      8  C   UNL     1      -8.385  23.258  19.825  1.00  0.00     0.000 C 
BRANCH   8   9
ATOM      9  C   UNL     1      -8.927  22.735  21.166  1.00  0.00     0.006 C 
BRANCH   9  10
ATOM     10  C   UNL     1      -8.066  21.599  21.735  1.00  0.00     0.053 C 
BRANCH  10  11
ATOM     11  C   UNL     1      -7.847  21.752  23.209  1.00  0.00     0.041 C 
ATOM     12  O   UNL     1      -8.175  22.820  23.790  1.00  0.00    -0.550 OA
ATOM     13  O   UNL     1      -7.316  20.702  23.947  1.00  0.00    -0.550 OA
ENDBRANCH  10  11
ENDBRANCH   9  10
ENDBRANCH   8   9
ENDBRANCH   1   8
TORSDOF 8
ENDMDL
MODEL 3
REMARK VINA RESULT:    -2.994      2.487      3.465
REMARK INTER + INTRA:          -4.878
REMARK INTER:                  -4.406
REMARK INTRA:                  -0.472
REMARK UNBOUND:                -0.483
REMARK SMILES O=C([O-])CCCCCCCC(=O)[O-]
REMARK SMILES IDX 7 1 6 2 5 3 4 4 2 5 1 6 3 7 8 8 9 9 10 10 11 11 12 12 13 13
REMARK H PARENT
REMARK Flexibility Score: inf
ROOT
ATOM      1  C   UNL     1      -8.159  22.228  17.035  1.00  0.00     0.000 C 
ENDROOT
BRANCH   1   2
ATOM      2  C   UNL     1      -8.701  22.656  18.410  1.00  0.00     0.000 C 
BRANCH   2   3
ATOM      3  C   UNL     1      -7.875  22.072  19.576  1.00  0.00     0.006 C 
BRANCH   3   4
ATOM      4  C   UNL     1      -8.581  22.168  20.937  1.00  0.00     0.053 C 
BRANCH   4   5
ATOM      5  C   UNL     1      -7.901  23.123  21.867  1.00  0.00     0.041 C 
ATOM      6  O   UNL     1      -7.270  24.112  21.410  1.00  0.00    -0.550 OA
ATOM      7  O   UNL     1      -7.986  22.937  23.241  1.00  0.00    -0.550 OA
ENDBRANCH   4   5
ENDBRANCH   3   4
ENDBRANCH   2   3
ENDBRANCH   1   2
BRANCH   1   8
ATOM      8  C   UNL     1      -8.715  20.871  16.577  1.00  0.00     0.000 C 
BRANCH   8   9
ATOM      9  C   UNL     1      -7.618  19.921  16.065  1.00  0.00     0.006 C 
BRANCH   9  10
ATOM     10  C   UNL     1      -6.244  20.246  16.668  1.00  0.00     0.053 C 
BRANCH  10  11
ATOM     11  C   UNL     1      -5.221  20.514  15.606  1.00  0.00     0.041 C 
ATOM     12  O   UNL     1      -4.002  20.293  15.832  1.00  0.00    -0.550 OA
ATOM     13  O   UNL     1      -5.618  20.972  14.356  1.00  0.00    -0.550 OA
ENDBRANCH  10  11
ENDBRANCH   9  10
ENDBRANCH   8   9
ENDBRANCH   1   8
TORSDOF 8
ENDMDL
MODEL 4
REMARK VINA RESULT:    -2.986      2.864      4.374
REMARK INTER + INTRA:          -4.865
REMARK INTER:                  -4.309
REMARK INTRA:                  -0.557
REMARK UNBOUND:                -0.483
REMARK SMILES O=C([O-])CCCCCCCC(=O)[O-]
REMARK SMILES IDX 7 1 6 2 5 3 4 4 2 5 1 6 3 7 8 8 9 9 10 10 11 11 12 12 13 13
REMARK H PARENT
REMARK Flexibility Score: inf
ROOT
ATOM      1  C   UNL     1      -8.231  20.993  19.504  1.00  0.00     0.000 C 
ENDROOT
BRANCH   1   2
ATOM      2  C   UNL     1      -7.257  22.141  19.823  1.00  0.00     0.000 C 
BRANCH   2   3
ATOM      3  C   UNL     1      -7.839  23.139  20.847  1.00  0.00     0.006 C 
BRANCH   3   4
ATOM      4  C   UNL     1      -8.906  22.524  21.765  1.00  0.00     0.053 C 
BRANCH   4   5
ATOM      5  C   UNL     1      -8.379  22.228  23.134  1.00  0.00     0.041 C 
ATOM      6  O   UNL     1      -8.712  22.950  24.111  1.00  0.00    -0.550 OA
ATOM      7  O   UNL     1      -7.542  21.138  23.338  1.00  0.00    -0.550 OA
ENDBRANCH   4   5
ENDBRANCH   3   4
ENDBRANCH   2   3
ENDBRANCH   1   2
BRANCH   1   8
ATOM      8  C   UNL     1      -8.917  21.162  18.140  1.00  0.00     0.000 C 
BRANCH   8   9
ATOM      9  C   UNL     1      -8.051  21.938  17.131  1.00  0.00     0.006 C 
BRANCH   9  10
ATOM     10  C   UNL     1      -7.695  21.091  15.902  1.00  0.00     0.053 C 
BRANCH  10  11
ATOM     11  C   UNL     1      -6.240  20.735  15.875  1.00  0.00     0.041 C 
ATOM     12  O   UNL     1      -5.531  21.046  14.881  1.00  0.00    -0.550 OA
ATOM     13  O   UNL     1      -5.659  20.095  16.962  1.00  0.00    -0.550 OA
ENDBRANCH  10  11
ENDBRANCH   9  10
ENDBRANCH   8   9
ENDBRANCH   1   8
TORSDOF 8
ENDMDL
MODEL 5
REMARK VINA RESULT:    -2.752      2.611      4.045
REMARK INTER + INTRA:          -4.522
REMARK INTER:                  -4.346
REMARK INTRA:                  -0.176
REMARK UNBOUND:                -0.483
REMARK SMILES O=C([O-])CCCCCCCC(=O)[O-]
REMARK SMILES IDX 7 1 6 2 5 3 4 4 2 5 1 6 3 7 8 8 9 9 10 10 11 11 12 12 13 13
REMARK H PARENT
REMARK Flexibility Score: inf
ROOT
ATOM      1  C   UNL     1      -6.399  20.859  19.573  1.00  0.00     0.000 C 
ENDROOT
BRANCH   1   2
ATOM      2  C   UNL     1      -7.330  20.195  20.603  1.00  0.00     0.000 C 
BRANCH   2   3
ATOM      3  C   UNL     1      -7.698  21.145  21.762  1.00  0.00     0.006 C 
BRANCH   3   4
ATOM      4  C   UNL     1      -8.799  22.154  21.402  1.00  0.00     0.053 C 
BRANCH   4   5
ATOM      5  C   UNL     1      -8.270  23.331  20.643  1.00  0.00     0.041 C 
ATOM      6  O   UNL     1      -8.727  23.607  19.503  1.00  0.00    -0.550 OA
ATOM      7  O   UNL     1      -7.290  24.139  21.206  1.00  0.00    -0.550 OA
ENDBRANCH   4   5
ENDBRANCH   3   4
ENDBRANCH   2   3
ENDBRANCH   1   2
BRANCH   1   8
ATOM      8  C   UNL     1      -5.378  19.876  18.979  1.00  0.00     0.000 C 
BRANCH   8   9
ATOM      9  C   UNL     1      -5.369  19.886  17.440  1.00  0.00     0.006 C 
BRANCH   9  10
ATOM     10  C   UNL     1      -6.624  20.551  16.859  1.00  0.00     0.053 C 
BRANCH  10  11
ATOM     11  C   UNL     1      -6.418  20.981  15.438  1.00  0.00     0.041 C 
ATOM     12  O   UNL     1      -7.392  21.389  14.753  1.00  0.00    -0.550 OA
ATOM     13  O   UNL     1      -5.144  20.966  14.884  1.00  0.00    -0.550 OA
ENDBRANCH  10  11
ENDBRANCH   9  10
ENDBRANCH   8   9
ENDBRANCH   1   8
TORSDOF 8
ENDMDL
MODEL 6
REMARK VINA RESULT:    -2.712      1.282      5.119
REMARK INTER + INTRA:          -4.463
REMARK INTER:                  -3.876
REMARK INTRA:                  -0.587
REMARK UNBOUND:                -0.483
REMARK SMILES O=C([O-])CCCCCCCC(=O)[O-]
REMARK SMILES IDX 7 1 6 2 5 3 4 4 2 5 1 6 3 7 8 8 9 9 10 10 11 11 12 12 13 13
REMARK H PARENT
REMARK Flexibility Score: inf
ROOT
ATOM      1  C   UNL     1      -6.473  21.699  15.154  1.00  0.00     0.000 C 
ENDROOT
BRANCH   1   2
ATOM      2  C   UNL     1      -5.004  21.246  15.080  1.00  0.00     0.000 C 
BRANCH   2   3
ATOM      3  C   UNL     1      -4.749  19.944  15.868  1.00  0.00     0.006 C 
BRANCH   3   4
ATOM      4  C   UNL     1      -4.196  20.181  17.282  1.00  0.00     0.053 C 
BRANCH   4   5
ATOM      5  C   UNL     1      -2.700  20.186  17.317  1.00  0.00     0.041 C 
ATOM      6  O   UNL     1      -2.041  20.199  16.244  1.00  0.00    -0.550 OA
ATOM      7  O   UNL     1      -2.032  20.203  18.535  1.00  0.00    -0.550 OA
ENDBRANCH   4   5
ENDBRANCH   3   4
ENDBRANCH   2   3
ENDBRANCH   1   2
BRANCH   1   8
ATOM      8  C   UNL     1      -7.458  20.520  15.098  1.00  0.00     0.000 C 
BRANCH   8   9
ATOM      9  C   UNL     1      -8.562  20.618  16.165  1.00  0.00     0.006 C 
BRANCH   9  10
ATOM     10  C   UNL     1      -7.989  20.840  17.572  1.00  0.00     0.053 C 
BRANCH  10  11
ATOM     11  C   UNL     1      -8.601  22.033  18.239  1.00  0.00     0.041 C 
ATOM     12  O   UNL     1      -8.674  23.132  17.629  1.00  0.00    -0.550 OA
ATOM     13  O   UNL     1      -9.125  21.921  19.521  1.00  0.00    -0.550 OA
ENDBRANCH  10  11
ENDBRANCH   9  10
ENDBRANCH   8   9
ENDBRANCH   1   8
TORSDOF 8
ENDMDL
MODEL 7
REMARK VINA RESULT:    -2.660      1.332      2.103
REMARK INTER + INTRA:          -4.387
REMARK INTER:                  -4.017
REMARK INTRA:                  -0.369
REMARK UNBOUND:                -0.483
REMARK SMILES O=C([O-])CCCCCCCC(=O)[O-]
REMARK SMILES IDX 7 1 6 2 5 3 4 4 2 5 1 6 3 7 8 8 9 9 10 10 11 11 12 12 13 13
REMARK H PARENT
REMARK Flexibility Score: inf
ROOT
ATOM      1  C   UNL     1      -5.048  20.787  15.163  1.00  0.00     0.000 C 
ENDROOT
BRANCH   1   2
ATOM      2  C   UNL     1      -6.382  20.998  14.425  1.00  0.00     0.000 C 
BRANCH   2   3
ATOM      3  C   UNL     1      -7.571  20.346  15.161  1.00  0.00     0.006 C 
BRANCH   3   4
ATOM      4  C   UNL     1      -8.500  21.360  15.846  1.00  0.00     0.053 C 
BRANCH   4   5
ATOM      5  C   UNL     1      -8.388  21.321  17.337  1.00  0.00     0.041 C 
ATOM      6  O   UNL     1      -8.253  20.221  17.934  1.00  0.00    -0.550 OA
ATOM      7  O   UNL     1      -8.405  22.503  18.068  1.00  0.00    -0.550 OA
ENDBRANCH   4   5
ENDBRANCH   3   4
ENDBRANCH   2   3
ENDBRANCH   1   2
BRANCH   1   8
ATOM      8  C   UNL     1      -5.199  19.916  16.420  1.00  0.00     0.000 C 
BRANCH   8   9
ATOM      9  C   UNL     1      -3.933  19.908  17.294  1.00  0.00     0.006 C 
BRANCH   9  10
ATOM     10  C   UNL     1      -2.724  20.510  16.565  1.00  0.00     0.053 C 
BRANCH  10  11
ATOM     11  C   UNL     1      -1.438  20.190  17.265  1.00  0.00     0.041 C 
ATOM     12  O   UNL     1      -0.347  20.239  16.638  1.00  0.00    -0.550 OA
ATOM     13  O   UNL     1      -1.442  19.875  18.618  1.00  0.00    -0.550 OA
ENDBRANCH  10  11
ENDBRANCH   9  10
ENDBRANCH   8   9
ENDBRANCH   1   8
TORSDOF 8
ENDMDL
MODEL 8
REMARK VINA RESULT:    -2.568     12.105     15.178
REMARK INTER + INTRA:          -4.252
REMARK INTER:                  -3.913
REMARK INTRA:                  -0.339
REMARK UNBOUND:                -0.483
REMARK SMILES O=C([O-])CCCCCCCC(=O)[O-]
REMARK SMILES IDX 7 1 6 2 5 3 4 4 2 5 1 6 3 7 8 8 9 9 10 10 11 11 12 12 13 13
REMARK H PARENT
REMARK Flexibility Score: inf
ROOT
ATOM      1  C   UNL     1       8.902  21.377  13.301  1.00  0.00     0.000 C 
ENDROOT
BRANCH   1   2
ATOM      2  C   UNL     1       9.247  20.594  14.580  1.00  0.00     0.000 C 
BRANCH   2   3
ATOM      3  C   UNL     1       8.036  20.450  15.526  1.00  0.00     0.006 C 
BRANCH   3   4
ATOM      4  C   UNL     1       6.705  20.878  14.889  1.00  0.00     0.053 C 
BRANCH   4   5
ATOM      5  C   UNL     1       5.571  20.852  15.865  1.00  0.00     0.041 C 
ATOM      6  O   UNL     1       4.665  19.984  15.761  1.00  0.00    -0.550 OA
ATOM      7  O   UNL     1       5.528  21.770  16.907  1.00  0.00    -0.550 OA
ENDBRANCH   4   5
ENDBRANCH   3   4
ENDBRANCH   2   3
ENDBRANCH   1   2
BRANCH   1   8
ATOM      8  C   UNL     1       9.783  20.976  12.107  1.00  0.00     0.000 C 
BRANCH   8   9
ATOM      9  C   UNL     1      10.891  22.003  11.815  1.00  0.00     0.006 C 
BRANCH   9  10
ATOM     10  C   UNL     1      10.614  23.358  12.481  1.00  0.00     0.053 C 
BRANCH  10  11
ATOM     11  C   UNL     1      10.737  24.490  11.507  1.00  0.00     0.041 C 
ATOM     12  O   UNL     1      10.619  25.680  11.902  1.00  0.00    -0.550 OA
ATOM     13  O   UNL     1      11.019  24.232  10.172  1.00  0.00    -0.550 OA
ENDBRANCH  10  11
ENDBRANCH   9  10
ENDBRANCH   8   9
ENDBRANCH   1   8
TORSDOF 8
ENDMDL
MODEL 9
REMARK VINA RESULT:    -2.517      3.450      6.387
REMARK INTER + INTRA:          -4.176
REMARK INTER:                  -3.674
REMARK INTRA:                  -0.502
REMARK UNBOUND:                -0.483
REMARK SMILES O=C([O-])CCCCCCCC(=O)[O-]
REMARK SMILES IDX 7 1 6 2 5 3 4 4 2 5 1 6 3 7 8 8 9 9 10 10 11 11 12 12 13 13
REMARK H PARENT
REMARK Flexibility Score: inf
ROOT
ATOM      1  C   UNL     1      -7.791  23.627  19.729  1.00  0.00     0.000 C 
ENDROOT
BRANCH   1   2
ATOM      2  C   UNL     1      -9.125  23.243  19.065  1.00  0.00     0.000 C 
BRANCH   2   3
ATOM      3  C   UNL     1      -8.930  22.326  17.839  1.00  0.00     0.006 C 
BRANCH   3   4
ATOM      4  C   UNL     1      -7.868  21.236  18.051  1.00  0.00     0.053 C 
BRANCH   4   5
ATOM      5  C   UNL     1      -7.071  20.966  16.813  1.00  0.00     0.041 C 
ATOM      6  O   UNL     1      -6.143  20.116  16.829  1.00  0.00    -0.550 OA
ATOM      7  O   UNL     1      -7.371  21.636  15.633  1.00  0.00    -0.550 OA
ENDBRANCH   4   5
ENDBRANCH   3   4
ENDBRANCH   2   3
ENDBRANCH   1   2
BRANCH   1   8
ATOM      8  C   UNL     1      -7.778  23.340  21.238  1.00  0.00     0.000 C 
BRANCH   8   9
ATOM      9  C   UNL     1      -8.800  22.265  21.647  1.00  0.00     0.006 C 
BRANCH   9  10
ATOM     10  C   UNL     1      -8.188  21.208  22.576  1.00  0.00     0.053 C 
BRANCH  10  11
ATOM     11  C   UNL     1      -8.726  21.315  23.970  1.00  0.00     0.041 C 
ATOM     12  O   UNL     1      -8.786  20.295  24.706  1.00  0.00    -0.550 OA
ATOM     13  O   UNL     1      -9.125  22.548  24.470  1.00  0.00    -0.550 OA
ENDBRANCH  10  11
ENDBRANCH   9  10
ENDBRANCH   8   9
ENDBRANCH   1   8
TORSDOF 8
ENDMDL
