MODEL 1
REMARK VINA RESULT:    -3.864      0.000      0.000
REMARK INTER + INTRA:          -4.481
REMARK INTER:                  -4.429
REMARK INTRA:                  -0.052
REMARK UNBOUND:                -0.052
REMARK SMILES CC(C)[C@@H]([NH3+])C(=O)[O-]
REMARK SMILES IDX 4 1 5 2 6 6 7 7 8 8 2 9 1 10 3 11
REMARK H PARENT 5 3 5 4 5 5
REMARK Flexibility Score: inf
ROOT
ATOM      1  C   UNL     1      -0.443  55.039   4.894  1.00  0.00     0.230 C 
ENDROOT
BRANCH   1   2
ATOM      2  N   UNL     1      -1.756  55.431   4.358  1.00  0.00    -0.350 N 
ATOM      3  H   UNL     1      -1.640  56.069   3.539  1.00  0.00     0.345 HD
ATOM      4  H   UNL     1      -2.288  55.953   5.092  1.00  0.00     0.345 HD
ATOM      5  H   UNL     1      -2.317  54.598   4.072  1.00  0.00     0.345 HD
ENDBRANCH   1   2
BRANCH   1   6
ATOM      6  C   UNL     1      -0.281  55.523   6.315  1.00  0.00     0.099 C 
ATOM      7  O   UNL     1       0.860  55.840   6.743  1.00  0.00    -0.544 OA
ATOM      8  O   UNL     1      -1.371  55.579   7.175  1.00  0.00    -0.544 OA
ENDBRANCH   1   6
BRANCH   1   9
ATOM      9  C   UNL     1      -0.176  53.507   4.796  1.00  0.00     0.047 C 
ATOM     10  C   UNL     1      -1.448  52.651   4.921  1.00  0.00     0.014 C 
ATOM     11  C   UNL     1       0.585  53.139   3.513  1.00  0.00     0.014 C 
ENDBRANCH   1   9
TORSDOF 3
ENDMDL
MODEL 2
REMARK VINA RESULT:    -3.845      1.343      1.961
REMARK INTER + INTRA:          -4.459
REMARK INTER:                  -4.385
REMARK INTRA:                  -0.074
REMARK UNBOUND:                -0.052
REMARK SMILES CC(C)[C@@H]([NH3+])C(=O)[O-]
REMARK SMILES IDX 4 1 5 2 6 6 7 7 8 8 2 9 1 10 3 11
REMARK H PARENT 5 3 5 4 5 5
REMARK Flexibility Score: inf
ROOT
ATOM      1  C   UNL     1      -0.063  54.742   5.454  1.00  0.00     0.230 C 
ENDROOT
BRANCH   1   2
ATOM      2  N   UNL     1       0.630  55.865   4.802  1.00  0.00    -0.350 N 
ATOM      3  H   UNL     1       1.467  56.149   5.359  1.00  0.00     0.345 HD
ATOM      4  H   UNL     1      -0.012  56.689   4.755  1.00  0.00     0.345 HD
ATOM      5  H   UNL     1       0.927  55.621   3.831  1.00  0.00     0.345 HD
ENDBRANCH   1   2
BRANCH   1   6
ATOM      6  C   UNL     1      -1.179  55.246   6.337  1.00  0.00     0.099 C 
ATOM      7  O   UNL     1      -2.097  55.952   5.845  1.00  0.00    -0.544 OA
ATOM      8  O   UNL     1      -1.181  54.979   7.701  1.00  0.00    -0.544 OA
ENDBRANCH   1   6
BRANCH   1   9
ATOM      9  C   UNL     1      -0.592  53.682   4.442  1.00  0.00     0.047 C 
ATOM     10  C   UNL     1       0.495  53.130   3.504  1.00  0.00     0.014 C 
ATOM     11  C   UNL     1      -1.317  52.527   5.149  1.00  0.00     0.014 C 
ENDBRANCH   1   9
TORSDOF 3
ENDMDL
MODEL 3
REMARK VINA RESULT:    -3.770      1.768      2.631
REMARK INTER + INTRA:          -4.373
REMARK INTER:                  -4.328
REMARK INTRA:                  -0.045
REMARK UNBOUND:                -0.052
REMARK SMILES CC(C)[C@@H]([NH3+])C(=O)[O-]
REMARK SMILES IDX 4 1 5 2 6 6 7 7 8 8 2 9 1 10 3 11
REMARK H PARENT 5 3 5 4 5 5
REMARK Flexibility Score: inf
ROOT
ATOM      1  C   UNL     1      -0.345  53.294   4.417  1.00  0.00     0.230 C 
ENDROOT
BRANCH   1   2
ATOM      2  N   UNL     1      -0.188  53.047   2.974  1.00  0.00    -0.350 N 
ATOM      3  H   UNL     1      -0.218  52.023   2.774  1.00  0.00     0.345 HD
ATOM      4  H   UNL     1       0.745  53.403   2.661  1.00  0.00     0.345 HD
ATOM      5  H   UNL     1      -0.929  53.531   2.420  1.00  0.00     0.345 HD
ENDBRANCH   1   2
BRANCH   1   6
ATOM      6  C   UNL     1      -0.297  54.774   4.713  1.00  0.00     0.099 C 
ATOM      7  O   UNL     1      -1.364  55.442   4.736  1.00  0.00    -0.544 OA
ATOM      8  O   UNL     1       0.917  55.420   4.913  1.00  0.00    -0.544 OA
ENDBRANCH   1   6
BRANCH   1   9
ATOM      9  C   UNL     1      -1.635  52.651   5.009  1.00  0.00     0.047 C 
ATOM     10  C   UNL     1      -2.022  51.320   4.342  1.00  0.00     0.014 C 
ATOM     11  C   UNL     1      -1.538  52.471   6.531  1.00  0.00     0.014 C 
ENDBRANCH   1   9
TORSDOF 3
ENDMDL
MODEL 4
REMARK VINA RESULT:    -3.736      1.577      2.141
REMARK INTER + INTRA:          -4.334
REMARK INTER:                  -4.286
REMARK INTRA:                  -0.048
REMARK UNBOUND:                -0.052
REMARK SMILES CC(C)[C@@H]([NH3+])C(=O)[O-]
REMARK SMILES IDX 4 1 5 2 6 6 7 7 8 8 2 9 1 10 3 11
REMARK H PARENT 5 3 5 4 5 5
REMARK Flexibility Score: inf
ROOT
ATOM      1  C   UNL     1      -0.931  55.325   5.621  1.00  0.00     0.230 C 
ENDROOT
BRANCH   1   2
ATOM      2  N   UNL     1      -1.760  55.446   4.411  1.00  0.00    -0.350 N 
ATOM      3  H   UNL     1      -2.110  56.424   4.305  1.00  0.00     0.345 HD
ATOM      4  H   UNL     1      -2.594  54.820   4.498  1.00  0.00     0.345 HD
ATOM      5  H   UNL     1      -1.230  55.172   3.554  1.00  0.00     0.345 HD
ENDBRANCH   1   2
BRANCH   1   6
ATOM      6  C   UNL     1      -1.736  54.753   6.763  1.00  0.00     0.099 C 
ATOM      7  O   UNL     1      -2.057  55.488   7.733  1.00  0.00    -0.544 OA
ATOM      8  O   UNL     1      -2.087  53.408   6.781  1.00  0.00    -0.544 OA
ENDBRANCH   1   6
BRANCH   1   9
ATOM      9  C   UNL     1       0.369  54.498   5.389  1.00  0.00     0.047 C 
ATOM     10  C   UNL     1       0.441  53.838   4.002  1.00  0.00     0.014 C 
ATOM     11  C   UNL     1       1.633  55.336   5.642  1.00  0.00     0.014 C 
ENDBRANCH   1   9
TORSDOF 3
ENDMDL
MODEL 5
REMARK VINA RESULT:    -3.681      1.985      2.814
REMARK INTER + INTRA:          -4.271
REMARK INTER:                  -4.225
REMARK INTRA:                  -0.046
REMARK UNBOUND:                -0.052
REMARK SMILES CC(C)[C@@H]([NH3+])C(=O)[O-]
REMARK SMILES IDX 4 1 5 2 6 6 7 7 8 8 2 9 1 10 3 11
REMARK H PARENT 5 3 5 4 5 5
REMARK Flexibility Score: inf
ROOT
ATOM      1  C   UNL     1      -1.074  54.248   4.812  1.00  0.00     0.230 C 
ENDROOT
BRANCH   1   2
ATOM      2  N   UNL     1      -1.757  55.453   4.316  1.00  0.00    -0.350 N 
ATOM      3  H   UNL     1      -1.971  55.358   3.298  1.00  0.00     0.345 HD
ATOM      4  H   UNL     1      -1.127  56.281   4.430  1.00  0.00     0.345 HD
ATOM      5  H   UNL     1      -2.641  55.636   4.841  1.00  0.00     0.345 HD
ENDBRANCH   1   2
BRANCH   1   6
ATOM      6  C   UNL     1       0.406  54.316   4.519  1.00  0.00     0.099 C 
ATOM      7  O   UNL     1       1.071  55.320   4.885  1.00  0.00    -0.544 OA
ATOM      8  O   UNL     1       1.036  53.303   3.806  1.00  0.00    -0.544 OA
ENDBRANCH   1   6
BRANCH   1   9
ATOM      9  C   UNL     1      -1.328  53.982   6.326  1.00  0.00     0.047 C 
ATOM     10  C   UNL     1      -2.121  55.100   7.024  1.00  0.00     0.014 C 
ATOM     11  C   UNL     1      -2.008  52.624   6.563  1.00  0.00     0.014 C 
ENDBRANCH   1   9
TORSDOF 3
ENDMDL
MODEL 6
REMARK VINA RESULT:    -3.642      2.397      3.398
REMARK INTER + INTRA:          -4.226
REMARK INTER:                  -4.183
REMARK INTRA:                  -0.044
REMARK UNBOUND:                -0.052
REMARK SMILES CC(C)[C@@H]([NH3+])C(=O)[O-]
REMARK SMILES IDX 4 1 5 2 6 6 7 7 8 8 2 9 1 10 3 11
REMARK H PARENT 5 3 5 4 5 5
REMARK Flexibility Score: inf
ROOT
ATOM      1  C   UNL     1      -1.359  54.219   5.222  1.00  0.00     0.230 C 
ENDROOT
BRANCH   1   2
ATOM      2  N   UNL     1      -1.560  55.373   4.332  1.00  0.00    -0.350 N 
ATOM      3  H   UNL     1      -1.311  55.124   3.349  1.00  0.00     0.345 HD
ATOM      4  H   UNL     1      -0.930  56.154   4.629  1.00  0.00     0.345 HD
ATOM      5  H   UNL     1      -2.547  55.715   4.364  1.00  0.00     0.345 HD
ENDBRANCH   1   2
BRANCH   1   6
ATOM      6  C   UNL     1      -0.787  53.050   4.457  1.00  0.00     0.099 C 
ATOM      7  O   UNL     1      -0.089  53.255   3.429  1.00  0.00    -0.544 OA
ATOM      8  O   UNL     1      -1.063  51.744   4.844  1.00  0.00    -0.544 OA
ENDBRANCH   1   6
BRANCH   1   9
ATOM      9  C   UNL     1      -0.479  54.552   6.464  1.00  0.00     0.047 C 
ATOM     10  C   UNL     1       0.796  55.342   6.122  1.00  0.00     0.014 C 
ATOM     11  C   UNL     1      -1.279  55.285   7.552  1.00  0.00     0.014 C 
ENDBRANCH   1   9
TORSDOF 3
ENDMDL
MODEL 7
REMARK VINA RESULT:    -3.641      2.761      3.633
REMARK INTER + INTRA:          -4.225
REMARK INTER:                  -4.163
REMARK INTRA:                  -0.062
REMARK UNBOUND:                -0.052
REMARK SMILES CC(C)[C@@H]([NH3+])C(=O)[O-]
REMARK SMILES IDX 4 1 5 2 6 6 7 7 8 8 2 9 1 10 3 11
REMARK H PARENT 5 3 5 4 5 5
REMARK Flexibility Score: inf
ROOT
ATOM      1  C   UNL     1      -0.686  53.229   4.178  1.00  0.00     0.230 C 
ENDROOT
BRANCH   1   2
ATOM      2  N   UNL     1       0.479  52.705   3.448  1.00  0.00    -0.350 N 
ATOM      3  H   UNL     1       0.213  51.859   2.897  1.00  0.00     0.345 HD
ATOM      4  H   UNL     1       1.216  52.416   4.133  1.00  0.00     0.345 HD
ATOM      5  H   UNL     1       0.885  53.423   2.808  1.00  0.00     0.345 HD
ENDBRANCH   1   2
BRANCH   1   6
ATOM      6  C   UNL     1      -1.411  52.116   4.895  1.00  0.00     0.099 C 
ATOM      7  O   UNL     1      -1.344  52.031   6.150  1.00  0.00    -0.544 OA
ATOM      8  O   UNL     1      -2.115  51.152   4.183  1.00  0.00    -0.544 OA
ENDBRANCH   1   6
BRANCH   1   9
ATOM      9  C   UNL     1      -0.321  54.379   5.165  1.00  0.00     0.047 C 
ATOM     10  C   UNL     1       1.084  54.962   4.939  1.00  0.00     0.014 C 
ATOM     11  C   UNL     1      -1.369  55.503   5.146  1.00  0.00     0.014 C 
ENDBRANCH   1   9
TORSDOF 3
ENDMDL
MODEL 8
REMARK VINA RESULT:    -3.430      2.284      3.013
REMARK INTER + INTRA:          -3.983
REMARK INTER:                  -4.000
REMARK INTRA:                   0.017
REMARK UNBOUND:                -0.052
REMARK SMILES CC(C)[C@@H]([NH3+])C(=O)[O-]
REMARK SMILES IDX 4 1 5 2 6 6 7 7 8 8 2 9 1 10 3 11
REMARK H PARENT 5 3 5 4 5 5
REMARK Flexibility Score: inf
ROOT
ATOM      1  C   UNL     1      -1.574  52.693   5.528  1.00  0.00     0.230 C 
ENDROOT
BRANCH   1   2
ATOM      2  N   UNL     1      -1.319  51.309   5.100  1.00  0.00    -0.350 N 
ATOM      3  H   UNL     1      -1.646  50.636   5.829  1.00  0.00     0.345 HD
ATOM      4  H   UNL     1      -0.289  51.167   4.979  1.00  0.00     0.345 HD
ATOM      5  H   UNL     1      -1.790  51.094   4.193  1.00  0.00     0.345 HD
ENDBRANCH   1   2
BRANCH   1   6
ATOM      6  C   UNL     1      -1.608  52.788   7.034  1.00  0.00     0.099 C 
ATOM      7  O   UNL     1      -1.206  51.820   7.732  1.00  0.00    -0.544 OA
ATOM      8  O   UNL     1      -2.125  53.914   7.664  1.00  0.00    -0.544 OA
ENDBRANCH   1   6
BRANCH   1   9
ATOM      9  C   UNL     1      -0.558  53.713   4.931  1.00  0.00     0.047 C 
ATOM     10  C   UNL     1       0.153  53.206   3.665  1.00  0.00     0.014 C 
ATOM     11  C   UNL     1      -1.209  55.078   4.661  1.00  0.00     0.014 C 
ENDBRANCH   1   9
TORSDOF 3
ENDMDL
MODEL 9
REMARK VINA RESULT:    -3.427      1.857      2.211
REMARK INTER + INTRA:          -3.979
REMARK INTER:                  -4.024
REMARK INTRA:                   0.044
REMARK UNBOUND:                -0.052
REMARK SMILES CC(C)[C@@H]([NH3+])C(=O)[O-]
REMARK SMILES IDX 4 1 5 2 6 6 7 7 8 8 2 9 1 10 3 11
REMARK H PARENT 5 3 5 4 5 5
REMARK Flexibility Score: inf
ROOT
ATOM      1  C   UNL     1      -1.216  53.684   4.902  1.00  0.00     0.230 C 
ENDROOT
BRANCH   1   2
ATOM      2  N   UNL     1      -1.152  52.280   5.341  1.00  0.00    -0.350 N 
ATOM      3  H   UNL     1      -0.543  52.190   6.185  1.00  0.00     0.345 HD
ATOM      4  H   UNL     1      -0.729  51.698   4.582  1.00  0.00     0.345 HD
ATOM      5  H   UNL     1      -2.102  51.903   5.556  1.00  0.00     0.345 HD
ENDBRANCH   1   2
BRANCH   1   6
ATOM      6  C   UNL     1      -1.556  54.590   6.060  1.00  0.00     0.099 C 
ATOM      7  O   UNL     1      -1.415  54.177   7.241  1.00  0.00    -0.544 OA
ATOM      8  O   UNL     1      -2.069  55.862   5.840  1.00  0.00    -0.544 OA
ENDBRANCH   1   6
BRANCH   1   9
ATOM      9  C   UNL     1       0.086  54.159   4.189  1.00  0.00     0.047 C 
ATOM     10  C   UNL     1       1.063  54.897   5.119  1.00  0.00     0.014 C 
ATOM     11  C   UNL     1       0.805  53.002   3.478  1.00  0.00     0.014 C 
ENDBRANCH   1   9
TORSDOF 3
ENDMDL
