MODEL 1
REMARK VINA RESULT:    -3.639      0.000      0.000
REMARK INTER + INTRA:          -4.300
REMARK INTER:                  -4.277
REMARK INTRA:                  -0.022
REMARK UNBOUND:                -0.022
REMARK SMILES CCCCC(=O)[O-]
REMARK SMILES IDX 4 1 5 2 6 3 7 4 3 5 2 6 1 7
REMARK H PARENT
REMARK Flexibility Score: inf
ROOT
ATOM      1  C   UNL     1      23.972  35.168 147.247  1.00  0.00     0.053 C 
ENDROOT
BRANCH   1   2
ATOM      2  C   UNL     1      24.017  33.931 148.086  1.00  0.00     0.041 C 
ATOM      3  O   UNL     1      23.945  32.796 147.546  1.00  0.00    -0.550 OA
ATOM      4  O   UNL     1      24.088  34.032 149.471  1.00  0.00    -0.550 OA
ENDBRANCH   1   2
BRANCH   1   5
ATOM      5  C   UNL     1      23.861  36.414 148.136  1.00  0.00     0.006 C 
BRANCH   5   6
ATOM      6  C   UNL     1      24.298  37.696 147.410  1.00  0.00    -0.003 C 
ATOM      7  C   UNL     1      23.303  38.843 147.585  1.00  0.00     0.004 C 
ENDBRANCH   5   6
ENDBRANCH   1   5
TORSDOF 3
ENDMDL
MODEL 2
REMARK VINA RESULT:    -3.632      0.758      1.430
REMARK INTER + INTRA:          -4.291
REMARK INTER:                  -4.215
REMARK INTRA:                  -0.076
REMARK UNBOUND:                -0.022
REMARK SMILES CCCCC(=O)[O-]
REMARK SMILES IDX 4 1 5 2 6 3 7 4 3 5 2 6 1 7
REMARK H PARENT
REMARK Flexibility Score: inf
ROOT
ATOM      1  C   UNL     1      23.723  35.107 147.267  1.00  0.00     0.053 C 
ENDROOT
BRANCH   1   2
ATOM      2  C   UNL     1      24.032  34.004 148.228  1.00  0.00     0.041 C 
ATOM      3  O   UNL     1      24.303  34.267 149.429  1.00  0.00    -0.550 OA
ATOM      4  O   UNL     1      24.069  32.687 147.786  1.00  0.00    -0.550 OA
ENDBRANCH   1   2
BRANCH   1   5
ATOM      5  C   UNL     1      24.515  36.370 147.629  1.00  0.00     0.006 C 
BRANCH   5   6
ATOM      6  C   UNL     1      23.656  37.642 147.572  1.00  0.00    -0.003 C 
ATOM      7  C   UNL     1      22.993  37.969 148.909  1.00  0.00     0.004 C 
ENDBRANCH   5   6
ENDBRANCH   1   5
TORSDOF 3
ENDMDL
MODEL 3
REMARK VINA RESULT:    -3.532      1.308      1.913
REMARK INTER + INTRA:          -4.174
REMARK INTER:                  -4.142
REMARK INTRA:                  -0.032
REMARK UNBOUND:                -0.022
REMARK SMILES CCCCC(=O)[O-]
REMARK SMILES IDX 4 1 5 2 6 3 7 4 3 5 2 6 1 7
REMARK H PARENT
REMARK Flexibility Score: inf
ROOT
ATOM      1  C   UNL     1      23.716  36.349 147.672  1.00  0.00     0.053 C 
ENDROOT
BRANCH   1   2
ATOM      2  C   UNL     1      24.584  35.598 148.629  1.00  0.00     0.041 C 
ATOM      3  O   UNL     1      24.169  34.534 149.161  1.00  0.00    -0.550 OA
ATOM      4  O   UNL     1      25.834  36.097 148.974  1.00  0.00    -0.550 OA
ENDBRANCH   1   2
BRANCH   1   5
ATOM      5  C   UNL     1      24.296  37.745 147.405  1.00  0.00     0.006 C 
BRANCH   5   6
ATOM      6  C   UNL     1      23.282  38.866 147.674  1.00  0.00    -0.003 C 
ATOM      7  C   UNL     1      23.917  40.256 147.654  1.00  0.00     0.004 C 
ENDBRANCH   5   6
ENDBRANCH   1   5
TORSDOF 3
ENDMDL
MODEL 4
REMARK VINA RESULT:    -3.526      3.737      5.088
REMARK INTER + INTRA:          -4.167
REMARK INTER:                  -4.061
REMARK INTRA:                  -0.105
REMARK UNBOUND:                -0.022
REMARK SMILES CCCCC(=O)[O-]
REMARK SMILES IDX 4 1 5 2 6 3 7 4 3 5 2 6 1 7
REMARK H PARENT
REMARK Flexibility Score: inf
ROOT
ATOM      1  C   UNL     1      24.488  39.556 148.008  1.00  0.00     0.053 C 
ENDROOT
BRANCH   1   2
ATOM      2  C   UNL     1      24.328  40.136 149.376  1.00  0.00     0.041 C 
ATOM      3  O   UNL     1      24.290  39.381 150.384  1.00  0.00    -0.550 OA
ATOM      4  O   UNL     1      24.169  41.507 149.536  1.00  0.00    -0.550 OA
ENDBRANCH   1   2
BRANCH   1   5
ATOM      5  C   UNL     1      23.278  38.683 147.650  1.00  0.00     0.006 C 
BRANCH   5   6
ATOM      6  C   UNL     1      23.638  37.195 147.532  1.00  0.00    -0.003 C 
ATOM      7  C   UNL     1      25.146  36.947 147.560  1.00  0.00     0.004 C 
ENDBRANCH   5   6
ENDBRANCH   1   5
TORSDOF 3
ENDMDL
MODEL 5
REMARK VINA RESULT:    -3.441      2.922      4.328
REMARK INTER + INTRA:          -4.067
REMARK INTER:                  -4.021
REMARK INTRA:                  -0.046
REMARK UNBOUND:                -0.022
REMARK SMILES CCCCC(=O)[O-]
REMARK SMILES IDX 4 1 5 2 6 3 7 4 3 5 2 6 1 7
REMARK H PARENT
REMARK Flexibility Score: inf
ROOT
ATOM      1  C   UNL     1      23.535  38.273 147.697  1.00  0.00     0.053 C 
ENDROOT
BRANCH   1   2
ATOM      2  C   UNL     1      23.624  38.781 149.101  1.00  0.00     0.041 C 
ATOM      3  O   UNL     1      24.423  39.710 149.390  1.00  0.00    -0.550 OA
ATOM      4  O   UNL     1      22.858  38.195 150.102  1.00  0.00    -0.550 OA
ENDBRANCH   1   2
BRANCH   1   5
ATOM      5  C   UNL     1      24.334  36.972 147.547  1.00  0.00     0.006 C 
BRANCH   5   6
ATOM      6  C   UNL     1      23.431  35.748 147.327  1.00  0.00    -0.003 C 
ATOM      7  C   UNL     1      24.224  34.461 147.104  1.00  0.00     0.004 C 
ENDBRANCH   5   6
ENDBRANCH   1   5
TORSDOF 3
ENDMDL
MODEL 6
REMARK VINA RESULT:    -3.356      2.325      3.288
REMARK INTER + INTRA:          -3.967
REMARK INTER:                  -3.900
REMARK INTRA:                  -0.068
REMARK UNBOUND:                -0.022
REMARK SMILES CCCCC(=O)[O-]
REMARK SMILES IDX 4 1 5 2 6 3 7 4 3 5 2 6 1 7
REMARK H PARENT
REMARK Flexibility Score: inf
ROOT
ATOM      1  C   UNL     1      24.088  38.141 147.680  1.00  0.00     0.053 C 
ENDROOT
BRANCH   1   2
ATOM      2  C   UNL     1      23.696  37.276 148.835  1.00  0.00     0.041 C 
ATOM      3  O   UNL     1      24.054  36.069 148.872  1.00  0.00    -0.550 OA
ATOM      4  O   UNL     1      22.893  37.788 149.847  1.00  0.00    -0.550 OA
ENDBRANCH   1   2
BRANCH   1   5
ATOM      5  C   UNL     1      23.301  39.457 147.706  1.00  0.00     0.006 C 
BRANCH   5   6
ATOM      6  C   UNL     1      24.210  40.691 147.601  1.00  0.00    -0.003 C 
ATOM      7  C   UNL     1      25.675  40.327 147.364  1.00  0.00     0.004 C 
ENDBRANCH   5   6
ENDBRANCH   1   5
TORSDOF 3
ENDMDL
MODEL 7
REMARK VINA RESULT:    -3.329      2.561      4.133
REMARK INTER + INTRA:          -3.936
REMARK INTER:                  -3.887
REMARK INTRA:                  -0.048
REMARK UNBOUND:                -0.022
REMARK SMILES CCCCC(=O)[O-]
REMARK SMILES IDX 4 1 5 2 6 3 7 4 3 5 2 6 1 7
REMARK H PARENT
REMARK Flexibility Score: inf
ROOT
ATOM      1  C   UNL     1      23.500  36.224 147.520  1.00  0.00     0.053 C 
ENDROOT
BRANCH   1   2
ATOM      2  C   UNL     1      24.411  37.410 147.504  1.00  0.00     0.041 C 
ATOM      3  O   UNL     1      25.660  37.250 147.506  1.00  0.00    -0.550 OA
ATOM      4  O   UNL     1      23.882  38.694 147.537  1.00  0.00    -0.550 OA
ENDBRANCH   1   2
BRANCH   1   5
ATOM      5  C   UNL     1      24.314  34.923 147.501  1.00  0.00     0.006 C 
BRANCH   5   6
ATOM      6  C   UNL     1      24.323  34.214 148.864  1.00  0.00    -0.003 C 
ATOM      7  C   UNL     1      24.312  32.691 148.738  1.00  0.00     0.004 C 
ENDBRANCH   5   6
ENDBRANCH   1   5
TORSDOF 3
ENDMDL
MODEL 8
REMARK VINA RESULT:    -3.304      2.850      4.015
REMARK INTER + INTRA:          -3.906
REMARK INTER:                  -3.841
REMARK INTRA:                  -0.065
REMARK UNBOUND:                -0.022
REMARK SMILES CCCCC(=O)[O-]
REMARK SMILES IDX 4 1 5 2 6 3 7 4 3 5 2 6 1 7
REMARK H PARENT
REMARK Flexibility Score: inf
ROOT
ATOM      1  C   UNL     1      25.525  33.867 149.133  1.00  0.00     0.053 C 
ENDROOT
BRANCH   1   2
ATOM      2  C   UNL     1      24.667  34.716 148.251  1.00  0.00     0.041 C 
ATOM      3  O   UNL     1      24.137  35.766 148.702  1.00  0.00    -0.550 OA
ATOM      4  O   UNL     1      24.411  34.323 146.942  1.00  0.00    -0.550 OA
ENDBRANCH   1   2
BRANCH   1   5
ATOM      5  C   UNL     1      26.900  33.644 148.489  1.00  0.00     0.006 C 
BRANCH   5   6
ATOM      6  C   UNL     1      28.036  34.308 149.281  1.00  0.00    -0.003 C 
ATOM      7  C   UNL     1      27.543  35.015 150.543  1.00  0.00     0.004 C 
ENDBRANCH   5   6
ENDBRANCH   1   5
TORSDOF 3
ENDMDL
MODEL 9
REMARK VINA RESULT:    -3.232      3.075      4.016
REMARK INTER + INTRA:          -3.821
REMARK INTER:                  -3.748
REMARK INTRA:                  -0.073
REMARK UNBOUND:                -0.022
REMARK SMILES CCCCC(=O)[O-]
REMARK SMILES IDX 4 1 5 2 6 3 7 4 3 5 2 6 1 7
REMARK H PARENT
REMARK Flexibility Score: inf
ROOT
ATOM      1  C   UNL     1      26.060  37.685 148.002  1.00  0.00     0.053 C 
ENDROOT
BRANCH   1   2
ATOM      2  C   UNL     1      26.599  37.891 149.381  1.00  0.00     0.041 C 
ATOM      3  O   UNL     1      27.356  37.029 149.901  1.00  0.00    -0.550 OA
ATOM      4  O   UNL     1      26.226  39.011 150.114  1.00  0.00    -0.550 OA
ENDBRANCH   1   2
BRANCH   1   5
ATOM      5  C   UNL     1      24.970  38.720 147.693  1.00  0.00     0.006 C 
BRANCH   5   6
ATOM      6  C   UNL     1      23.574  38.090 147.577  1.00  0.00    -0.003 C 
ATOM      7  C   UNL     1      23.613  36.562 147.596  1.00  0.00     0.004 C 
ENDBRANCH   5   6
ENDBRANCH   1   5
TORSDOF 3
ENDMDL
