MODEL 1
REMARK VINA RESULT:    -2.685      0.000      0.000
REMARK INTER + INTRA:          -2.685
REMARK INTER:                  -2.685
REMARK INTRA:                   0.000
REMARK UNBOUND:                 0.000
REMARK SMILES CC(=O)[O-]
REMARK SMILES IDX 1 1 2 2 3 3 4 4
REMARK H PARENT
REMARK Flexibility Score: inf
ROOT
ATOM      1  C   UNL     1       2.572  -2.890  -6.426  1.00  0.00     0.063 C 
ATOM      2  C   UNL     1       2.045  -4.269  -6.215  1.00  0.00     0.038 C 
ATOM      3  O   UNL     1       2.832  -5.207  -5.921  1.00  0.00    -0.550 OA
ATOM      4  O   UNL     1       0.680  -4.512  -6.290  1.00  0.00    -0.550 OA
ENDROOT
TORSDOF 0
ENDMDL
MODEL 2
REMARK VINA RESULT:    -2.680      0.109      1.621
REMARK INTER + INTRA:          -2.680
REMARK INTER:                  -2.680
REMARK INTRA:                   0.000
REMARK UNBOUND:                 0.000
REMARK SMILES CC(=O)[O-]
REMARK SMILES IDX 1 1 2 2 3 3 4 4
REMARK H PARENT
REMARK Flexibility Score: inf
ROOT
ATOM      1  C   UNL     1       2.480  -2.815  -6.404  1.00  0.00     0.063 C 
ATOM      2  C   UNL     1       1.973  -4.198  -6.169  1.00  0.00     0.038 C 
ATOM      3  O   UNL     1       0.736  -4.431  -6.205  1.00  0.00    -0.550 OA
ATOM      4  O   UNL     1       2.865  -5.241  -5.963  1.00  0.00    -0.550 OA
ENDROOT
TORSDOF 0
ENDMDL
MODEL 3
REMARK VINA RESULT:    -2.577     12.195     12.646
REMARK INTER + INTRA:          -2.577
REMARK INTER:                  -2.577
REMARK INTRA:                   0.000
REMARK UNBOUND:                 0.000
REMARK SMILES CC(=O)[O-]
REMARK SMILES IDX 1 1 2 2 3 3 4 4
REMARK H PARENT
REMARK Flexibility Score: inf
ROOT
ATOM      1  C   UNL     1       0.166   6.229  -2.009  1.00  0.00     0.063 C 
ATOM      2  C   UNL     1       1.044   7.240  -1.353  1.00  0.00     0.038 C 
ATOM      3  O   UNL     1       1.044   8.433  -1.757  1.00  0.00    -0.550 OA
ATOM      4  O   UNL     1       1.825   6.882  -0.262  1.00  0.00    -0.550 OA
ENDROOT
TORSDOF 0
ENDMDL
MODEL 4
REMARK VINA RESULT:    -2.531      2.951      3.226
REMARK INTER + INTRA:          -2.531
REMARK INTER:                  -2.531
REMARK INTRA:                   0.000
REMARK UNBOUND:                 0.000
REMARK SMILES CC(=O)[O-]
REMARK SMILES IDX 1 1 2 2 3 3 4 4
REMARK H PARENT
REMARK Flexibility Score: inf
ROOT
ATOM      1  C   UNL     1       1.432  -2.943  -6.070  1.00  0.00     0.063 C 
ATOM      2  C   UNL     1       1.802  -1.604  -6.612  1.00  0.00     0.038 C 
ATOM      3  O   UNL     1       2.673  -1.508  -7.517  1.00  0.00    -0.550 OA
ATOM      4  O   UNL     1       1.150  -0.465  -6.159  1.00  0.00    -0.550 OA
ENDROOT
TORSDOF 0
ENDMDL
MODEL 5
REMARK VINA RESULT:    -2.284      2.426      2.991
REMARK INTER + INTRA:          -2.284
REMARK INTER:                  -2.284
REMARK INTRA:                   0.000
REMARK UNBOUND:                 0.000
REMARK SMILES CC(=O)[O-]
REMARK SMILES IDX 1 1 2 2 3 3 4 4
REMARK H PARENT
REMARK Flexibility Score: inf
ROOT
ATOM      1  C   UNL     1       2.734  -1.899  -7.630  1.00  0.00     0.063 C 
ATOM      2  C   UNL     1       1.812  -1.749  -6.467  1.00  0.00     0.038 C 
ATOM      3  O   UNL     1       1.356  -0.615  -6.165  1.00  0.00    -0.550 OA
ATOM      4  O   UNL     1       1.411  -2.867  -5.748  1.00  0.00    -0.550 OA
ENDROOT
TORSDOF 0
ENDMDL
MODEL 6
REMARK VINA RESULT:    -2.172     14.749     15.067
REMARK INTER + INTRA:          -2.172
REMARK INTER:                  -2.172
REMARK INTRA:                   0.000
REMARK UNBOUND:                 0.000
REMARK SMILES CC(=O)[O-]
REMARK SMILES IDX 1 1 2 2 3 3 4 4
REMARK H PARENT
REMARK Flexibility Score: inf
ROOT
ATOM      1  C   UNL     1      -3.813   3.784   6.034  1.00  0.00     0.063 C 
ATOM      2  C   UNL     1      -4.601   3.458   4.811  1.00  0.00     0.038 C 
ATOM      3  O   UNL     1      -4.204   3.849   3.681  1.00  0.00    -0.550 OA
ATOM      4  O   UNL     1      -5.746   2.679   4.907  1.00  0.00    -0.550 OA
ENDROOT
TORSDOF 0
ENDMDL
MODEL 7
REMARK VINA RESULT:    -2.149     14.916     15.223
REMARK INTER + INTRA:          -2.149
REMARK INTER:                  -2.149
REMARK INTRA:                   0.000
REMARK UNBOUND:                 0.000
REMARK SMILES CC(=O)[O-]
REMARK SMILES IDX 1 1 2 2 3 3 4 4
REMARK H PARENT
REMARK Flexibility Score: inf
ROOT
ATOM      1  C   UNL     1      -3.754   4.112   4.139  1.00  0.00     0.063 C 
ATOM      2  C   UNL     1      -4.527   3.353   5.164  1.00  0.00     0.038 C 
ATOM      3  O   UNL     1      -5.693   2.952   4.906  1.00  0.00    -0.550 OA
ATOM      4  O   UNL     1      -3.945   3.039   6.384  1.00  0.00    -0.550 OA
ENDROOT
TORSDOF 0
ENDMDL
MODEL 8
REMARK VINA RESULT:    -1.958     14.223     14.369
REMARK INTER + INTRA:          -1.958
REMARK INTER:                  -1.958
REMARK INTRA:                   0.000
REMARK UNBOUND:                 0.000
REMARK SMILES CC(=O)[O-]
REMARK SMILES IDX 1 1 2 2 3 3 4 4
REMARK H PARENT
REMARK Flexibility Score: inf
ROOT
ATOM      1  C   UNL     1       7.348   3.072   5.226  1.00  0.00     0.063 C 
ATOM      2  C   UNL     1       8.518   2.686   4.387  1.00  0.00     0.038 C 
ATOM      3  O   UNL     1       8.880   3.422   3.431  1.00  0.00    -0.550 OA
ATOM      4  O   UNL     1       9.245   1.542   4.689  1.00  0.00    -0.550 OA
ENDROOT
TORSDOF 0
ENDMDL
MODEL 9
REMARK VINA RESULT:    -1.892      2.947      3.422
REMARK INTER + INTRA:          -1.892
REMARK INTER:                  -1.892
REMARK INTRA:                   0.000
REMARK UNBOUND:                 0.000
REMARK SMILES CC(=O)[O-]
REMARK SMILES IDX 1 1 2 2 3 3 4 4
REMARK H PARENT
REMARK Flexibility Score: inf
ROOT
ATOM      1  C   UNL     1       2.259  -2.098  -6.283  1.00  0.00     0.063 C 
ATOM      2  C   UNL     1       2.597  -1.953  -7.728  1.00  0.00     0.038 C 
ATOM      3  O   UNL     1       2.346  -0.876  -8.330  1.00  0.00    -0.550 OA
ATOM      4  O   UNL     1       3.239  -2.984  -8.400  1.00  0.00    -0.550 OA
ENDROOT
TORSDOF 0
ENDMDL
