MODEL 1
REMARK VINA RESULT:    -3.641      0.000      0.000
REMARK INTER + INTRA:          -5.233
REMARK INTER:                  -4.706
REMARK INTRA:                  -0.528
REMARK UNBOUND:                -0.528
REMARK SMILES CO[C@@]1(CO)O[C@@H](CO)[C@H](O)[C@@H]1O
REMARK SMILES IDX 3 1 12 2 10 3 7 4 6 5 2 6 1 7 4 8 5 9 13 11 11 13 8 15 9 16
REMARK H PARENT 5 10 13 12 11 14 9 17
REMARK Flexibility Score: inf
ROOT
ATOM      1  C   UNL     1       7.486   3.907   2.837  1.00  0.00     0.221 C 
ATOM      2  C   UNL     1       6.892   4.436   1.496  1.00  0.00     0.207 C 
ATOM      3  C   UNL     1       5.512   3.802   1.454  1.00  0.00     0.180 C 
ATOM      4  C   UNL     1       5.633   2.635   2.432  1.00  0.00     0.179 C 
ATOM      5  O   UNL     1       6.565   2.995   3.423  1.00  0.00    -0.337 OA
ENDROOT
BRANCH   1   6
ATOM      6  O   UNL     1       7.763   4.993   3.718  1.00  0.00    -0.349 OA
ATOM      7  C   UNL     1       7.271   6.230   3.238  1.00  0.00     0.198 C 
ENDBRANCH   1   6
BRANCH   1   8
ATOM      8  C   UNL     1       8.813   3.146   2.643  1.00  0.00     0.224 C 
BRANCH   8   9
ATOM      9  O   UNL     1       9.874   4.045   2.464  1.00  0.00    -0.391 OA
ATOM     10  H   UNL     1       9.680   4.536   1.624  1.00  0.00     0.210 HD
ENDBRANCH   8   9
ENDBRANCH   1   8
BRANCH   2  11
ATOM     11  O   UNL     1       7.665   4.056   0.383  1.00  0.00    -0.385 OA
ATOM     12  H   UNL     1       8.258   3.317   0.682  1.00  0.00     0.211 HD
ENDBRANCH   2  11
BRANCH   3  13
ATOM     13  O   UNL     1       5.111   3.401   0.164  1.00  0.00    -0.387 OA
ATOM     14  H   UNL     1       5.825   2.833  -0.227  1.00  0.00     0.211 HD
ENDBRANCH   3  13
BRANCH   4  15
ATOM     15  C   UNL     1       4.292   2.270   3.078  1.00  0.00     0.191 C 
BRANCH  15  16
ATOM     16  O   UNL     1       3.227   2.763   2.312  1.00  0.00    -0.394 OA
ATOM     17  H   UNL     1       3.064   3.689   2.630  1.00  0.00     0.210 HD
ENDBRANCH  15  16
ENDBRANCH   4  15
TORSDOF 7
ENDMDL
MODEL 2
REMARK VINA RESULT:    -3.537      1.535      4.150
REMARK INTER + INTRA:          -5.099
REMARK INTER:                  -4.722
REMARK INTRA:                  -0.378
REMARK UNBOUND:                -0.528
REMARK SMILES CO[C@@]1(CO)O[C@@H](CO)[C@H](O)[C@@H]1O
REMARK SMILES IDX 3 1 12 2 10 3 7 4 6 5 2 6 1 7 4 8 5 9 13 11 11 13 8 15 9 16
REMARK H PARENT 5 10 13 12 11 14 9 17
REMARK Flexibility Score: inf
ROOT
ATOM      1  C   UNL     1       6.958   3.811   1.899  1.00  0.00     0.221 C 
ATOM      2  C   UNL     1       8.404   3.728   1.320  1.00  0.00     0.207 C 
ATOM      3  C   UNL     1       9.065   4.985   1.858  1.00  0.00     0.180 C 
ATOM      4  C   UNL     1       7.880   5.874   2.226  1.00  0.00     0.179 C 
ATOM      5  O   UNL     1       6.811   5.039   2.600  1.00  0.00    -0.337 OA
ENDROOT
BRANCH   1   6
ATOM      6  O   UNL     1       6.703   2.698   2.752  1.00  0.00    -0.349 OA
ATOM      7  C   UNL     1       6.825   3.019   4.125  1.00  0.00     0.198 C 
ENDBRANCH   1   6
BRANCH   1   8
ATOM      8  C   UNL     1       5.874   3.785   0.802  1.00  0.00     0.224 C 
BRANCH   8   9
ATOM      9  O   UNL     1       4.761   3.046   1.229  1.00  0.00    -0.391 OA
ATOM     10  H   UNL     1       3.970   3.474   0.811  1.00  0.00     0.210 HD
ENDBRANCH   8   9
ENDBRANCH   1   8
BRANCH   2  11
ATOM     11  O   UNL     1       8.415   3.705  -0.088  1.00  0.00    -0.385 OA
ATOM     12  H   UNL     1       9.230   4.193  -0.378  1.00  0.00     0.211 HD
ENDBRANCH   2  11
BRANCH   3  13
ATOM     13  O   UNL     1       9.950   5.595   0.947  1.00  0.00    -0.387 OA
ATOM     14  H   UNL     1      10.015   6.560   1.167  1.00  0.00     0.211 HD
ENDBRANCH   3  13
BRANCH   4  15
ATOM     15  C   UNL     1       8.208   6.849   3.362  1.00  0.00     0.191 C 
BRANCH  15  16
ATOM     16  O   UNL     1       9.593   6.923   3.561  1.00  0.00    -0.394 OA
ATOM     17  H   UNL     1       9.727   7.004   4.541  1.00  0.00     0.210 HD
ENDBRANCH  15  16
ENDBRANCH   4  15
TORSDOF 7
ENDMDL
MODEL 3
REMARK VINA RESULT:    -3.437      1.490      1.798
REMARK INTER + INTRA:          -4.970
REMARK INTER:                  -4.471
REMARK INTRA:                  -0.498
REMARK UNBOUND:                -0.528
REMARK SMILES CO[C@@]1(CO)O[C@@H](CO)[C@H](O)[C@@H]1O
REMARK SMILES IDX 3 1 12 2 10 3 7 4 6 5 2 6 1 7 4 8 5 9 13 11 11 13 8 15 9 16
REMARK H PARENT 5 10 13 12 11 14 9 17
REMARK Flexibility Score: inf
ROOT
ATOM      1  C   UNL     1       7.573   3.551   2.192  1.00  0.00     0.221 C 
ATOM      2  C   UNL     1       6.093   3.849   1.804  1.00  0.00     0.207 C 
ATOM      3  C   UNL     1       5.316   2.782   2.556  1.00  0.00     0.180 C 
ATOM      4  C   UNL     1       6.376   1.724   2.858  1.00  0.00     0.179 C 
ATOM      5  O   UNL     1       7.614   2.379   2.995  1.00  0.00    -0.337 OA
ENDROOT
BRANCH   1   6
ATOM      6  O   UNL     1       8.138   4.665   2.880  1.00  0.00    -0.349 OA
ATOM      7  C   UNL     1       7.204   5.704   3.103  1.00  0.00     0.198 C 
ENDBRANCH   1   6
BRANCH   1   8
ATOM      8  C   UNL     1       8.471   3.289   0.965  1.00  0.00     0.224 C 
BRANCH   8   9
ATOM      9  O   UNL     1       8.886   4.500   0.392  1.00  0.00    -0.391 OA
ATOM     10  H   UNL     1       9.602   4.851   0.981  1.00  0.00     0.210 HD
ENDBRANCH   8   9
ENDBRANCH   1   8
BRANCH   2  11
ATOM     11  O   UNL     1       5.876   3.757   0.416  1.00  0.00    -0.385 OA
ATOM     12  H   UNL     1       5.346   2.932   0.260  1.00  0.00     0.211 HD
ENDBRANCH   2  11
BRANCH   3  13
ATOM     13  O   UNL     1       4.215   2.270   1.841  1.00  0.00    -0.387 OA
ATOM     14  H   UNL     1       3.889   2.971   1.219  1.00  0.00     0.211 HD
ENDBRANCH   3  13
BRANCH   4  15
ATOM     15  C   UNL     1       6.061   0.922   4.125  1.00  0.00     0.191 C 
BRANCH  15  16
ATOM     16  O   UNL     1       4.759   0.405   4.068  1.00  0.00    -0.394 OA
ATOM     17  H   UNL     1       4.410   0.635   3.169  1.00  0.00     0.210 HD
ENDBRANCH  15  16
ENDBRANCH   4  15
TORSDOF 7
ENDMDL
MODEL 4
REMARK VINA RESULT:    -3.365     11.922     13.403
REMARK INTER + INTRA:          -4.877
REMARK INTER:                  -4.279
REMARK INTRA:                  -0.598
REMARK UNBOUND:                -0.528
REMARK SMILES CO[C@@]1(CO)O[C@@H](CO)[C@H](O)[C@@H]1O
REMARK SMILES IDX 3 1 12 2 10 3 7 4 6 5 2 6 1 7 4 8 5 9 13 11 11 13 8 15 9 16
REMARK H PARENT 5 10 13 12 11 14 9 17
REMARK Flexibility Score: inf
ROOT
ATOM      1  C   UNL     1      18.120   8.520   1.827  1.00  0.00     0.221 C 
ATOM      2  C   UNL     1      17.866   7.213   1.015  1.00  0.00     0.207 C 
ATOM      3  C   UNL     1      19.228   6.541   1.007  1.00  0.00     0.180 C 
ATOM      4  C   UNL     1      20.186   7.686   1.329  1.00  0.00     0.179 C 
ATOM      5  O   UNL     1      19.503   8.606   2.146  1.00  0.00    -0.337 OA
ENDROOT
BRANCH   1   6
ATOM      6  O   UNL     1      17.319   8.533   3.007  1.00  0.00    -0.349 OA
ATOM      7  C   UNL     1      17.996   9.075   4.125  1.00  0.00     0.198 C 
ENDBRANCH   1   6
BRANCH   1   8
ATOM      8  C   UNL     1      17.760   9.795   1.036  1.00  0.00     0.224 C 
BRANCH   8   9
ATOM      9  O   UNL     1      16.369   9.920   0.913  1.00  0.00    -0.391 OA
ATOM     10  H   UNL     1      16.159   9.740  -0.039  1.00  0.00     0.210 HD
ENDBRANCH   8   9
ENDBRANCH   1   8
BRANCH   2  11
ATOM     11  O   UNL     1      17.416   7.477  -0.293  1.00  0.00    -0.385 OA
ATOM     12  H   UNL     1      17.262   6.597  -0.727  1.00  0.00     0.211 HD
ENDBRANCH   2  11
BRANCH   3  13
ATOM     13  O   UNL     1      19.533   5.892  -0.206  1.00  0.00    -0.387 OA
ATOM     14  H   UNL     1      19.830   4.967  -0.004  1.00  0.00     0.211 HD
ENDBRANCH   3  13
BRANCH   4  15
ATOM     15  C   UNL     1      21.461   7.205   2.031  1.00  0.00     0.191 C 
BRANCH  15  16
ATOM     16  O   UNL     1      21.919   6.012   1.453  1.00  0.00    -0.394 OA
ATOM     17  H   UNL     1      22.164   6.235   0.518  1.00  0.00     0.210 HD
ENDBRANCH  15  16
ENDBRANCH   4  15
TORSDOF 7
ENDMDL
MODEL 5
REMARK VINA RESULT:    -3.278      2.179      3.016
REMARK INTER + INTRA:          -4.764
REMARK INTER:                  -4.440
REMARK INTRA:                  -0.324
REMARK UNBOUND:                -0.528
REMARK SMILES CO[C@@]1(CO)O[C@@H](CO)[C@H](O)[C@@H]1O
REMARK SMILES IDX 3 1 12 2 10 3 7 4 6 5 2 6 1 7 4 8 5 9 13 11 11 13 8 15 9 16
REMARK H PARENT 5 10 13 12 11 14 9 17
REMARK Flexibility Score: inf
ROOT
ATOM      1  C   UNL     1       9.782   5.414   3.190  1.00  0.00     0.221 C 
ATOM      2  C   UNL     1       9.293   5.605   1.722  1.00  0.00     0.207 C 
ATOM      3  C   UNL     1       8.405   4.393   1.493  1.00  0.00     0.180 C 
ATOM      4  C   UNL     1       8.855   3.419   2.579  1.00  0.00     0.179 C 
ATOM      5  O   UNL     1       9.294   4.173   3.683  1.00  0.00    -0.337 OA
ENDROOT
BRANCH   1   6
ATOM      6  O   UNL     1       9.340   6.499   4.003  1.00  0.00    -0.349 OA
ATOM      7  C   UNL     1       9.978   7.721   3.683  1.00  0.00     0.198 C 
ENDBRANCH   1   6
BRANCH   1   8
ATOM      8  C   UNL     1      11.320   5.372   3.307  1.00  0.00     0.224 C 
BRANCH   8   9
ATOM      9  O   UNL     1      11.802   4.094   2.993  1.00  0.00    -0.391 OA
ATOM     10  H   UNL     1      12.728   4.055   3.344  1.00  0.00     0.210 HD
ENDBRANCH   8   9
ENDBRANCH   1   8
BRANCH   2  11
ATOM     11  O   UNL     1      10.360   5.640   0.804  1.00  0.00    -0.385 OA
ATOM     12  H   UNL     1      10.121   6.307   0.109  1.00  0.00     0.211 HD
ENDBRANCH   2  11
BRANCH   3  13
ATOM     13  O   UNL     1       8.504   3.855   0.194  1.00  0.00    -0.387 OA
ATOM     14  H   UNL     1       7.955   4.407  -0.420  1.00  0.00     0.211 HD
ENDBRANCH   3  13
BRANCH   4  15
ATOM     15  C   UNL     1       7.739   2.461   3.007  1.00  0.00     0.191 C 
BRANCH  15  16
ATOM     16  O   UNL     1       6.525   2.819   2.403  1.00  0.00    -0.394 OA
ATOM     17  H   UNL     1       5.974   3.234   3.115  1.00  0.00     0.210 HD
ENDBRANCH  15  16
ENDBRANCH   4  15
TORSDOF 7
ENDMDL
MODEL 6
REMARK VINA RESULT:    -3.258      1.561      4.220
REMARK INTER + INTRA:          -4.739
REMARK INTER:                  -4.464
REMARK INTRA:                  -0.275
REMARK UNBOUND:                -0.528
REMARK SMILES CO[C@@]1(CO)O[C@@H](CO)[C@H](O)[C@@H]1O
REMARK SMILES IDX 3 1 12 2 10 3 7 4 6 5 2 6 1 7 4 8 5 9 13 11 11 13 8 15 9 16
REMARK H PARENT 5 10 13 12 11 14 9 17
REMARK Flexibility Score: inf
ROOT
ATOM      1  C   UNL     1       6.004   3.853   2.649  1.00  0.00     0.221 C 
ATOM      2  C   UNL     1       7.142   3.062   3.367  1.00  0.00     0.207 C 
ATOM      3  C   UNL     1       8.390   3.851   3.009  1.00  0.00     0.180 C 
ATOM      4  C   UNL     1       7.960   4.650   1.780  1.00  0.00     0.179 C 
ATOM      5  O   UNL     1       6.581   4.909   1.893  1.00  0.00    -0.337 OA
ENDROOT
BRANCH   1   6
ATOM      6  O   UNL     1       5.073   4.355   3.605  1.00  0.00    -0.349 OA
ATOM      7  C   UNL     1       4.086   3.406   3.961  1.00  0.00     0.198 C 
ENDBRANCH   1   6
BRANCH   1   8
ATOM      8  C   UNL     1       5.200   2.980   1.665  1.00  0.00     0.224 C 
BRANCH   8   9
ATOM      9  O   UNL     1       5.162   3.577   0.396  1.00  0.00    -0.391 OA
ATOM     10  H   UNL     1       4.203   3.655   0.157  1.00  0.00     0.210 HD
ENDBRANCH   8   9
ENDBRANCH   1   8
BRANCH   2  11
ATOM     11  O   UNL     1       7.230   1.731   2.918  1.00  0.00    -0.385 OA
ATOM     12  H   UNL     1       8.107   1.380   3.227  1.00  0.00     0.211 HD
ENDBRANCH   2  11
BRANCH   3  13
ATOM     13  O   UNL     1       9.522   3.046   2.774  1.00  0.00    -0.387 OA
ATOM     14  H   UNL     1      10.166   3.559   2.221  1.00  0.00     0.211 HD
ENDBRANCH   3  13
BRANCH   4  15
ATOM     15  C   UNL     1       8.733   5.965   1.635  1.00  0.00     0.191 C 
BRANCH  15  16
ATOM     16  O   UNL     1      10.015   5.727   1.120  1.00  0.00    -0.394 OA
ATOM     17  H   UNL     1       9.962   4.863   0.636  1.00  0.00     0.210 HD
ENDBRANCH  15  16
ENDBRANCH   4  15
TORSDOF 7
ENDMDL
MODEL 7
REMARK VINA RESULT:    -3.241      2.264      5.025
REMARK INTER + INTRA:          -4.716
REMARK INTER:                  -4.357
REMARK INTRA:                  -0.359
REMARK UNBOUND:                -0.528
REMARK SMILES CO[C@@]1(CO)O[C@@H](CO)[C@H](O)[C@@H]1O
REMARK SMILES IDX 3 1 12 2 10 3 7 4 6 5 2 6 1 7 4 8 5 9 13 11 11 13 8 15 9 16
REMARK H PARENT 5 10 13 12 11 14 9 17
REMARK Flexibility Score: inf
ROOT
ATOM      1  C   UNL     1       7.994   4.968   2.106  1.00  0.00     0.221 C 
ATOM      2  C   UNL     1       9.072   4.288   3.004  1.00  0.00     0.207 C 
ATOM      3  C   UNL     1      10.256   5.233   2.899  1.00  0.00     0.180 C 
ATOM      4  C   UNL     1       9.959   6.028   1.629  1.00  0.00     0.179 C 
ATOM      5  O   UNL     1       8.562   6.117   1.491  1.00  0.00    -0.337 OA
ENDROOT
BRANCH   1   6
ATOM      6  O   UNL     1       6.850   5.315   2.883  1.00  0.00    -0.349 OA
ATOM      7  C   UNL     1       6.094   4.187   3.282  1.00  0.00     0.198 C 
ENDBRANCH   1   6
BRANCH   1   8
ATOM      8  C   UNL     1       7.495   4.049   0.971  1.00  0.00     0.224 C 
BRANCH   8   9
ATOM      9  O   UNL     1       8.539   3.755   0.083  1.00  0.00    -0.391 OA
ATOM     10  H   UNL     1       9.120   4.558   0.065  1.00  0.00     0.210 HD
ENDBRANCH   8   9
ENDBRANCH   1   8
BRANCH   2  11
ATOM     11  O   UNL     1       9.405   2.997   2.552  1.00  0.00    -0.385 OA
ATOM     12  H   UNL     1       8.703   2.382   2.894  1.00  0.00     0.211 HD
ENDBRANCH   2  11
BRANCH   3  13
ATOM     13  O   UNL     1      11.504   4.578   2.861  1.00  0.00    -0.387 OA
ATOM     14  H   UNL     1      12.169   5.190   2.452  1.00  0.00     0.211 HD
ENDBRANCH   3  13
BRANCH   4  15
ATOM     15  C   UNL     1      10.577   7.430   1.656  1.00  0.00     0.191 C 
BRANCH  15  16
ATOM     16  O   UNL     1      11.969   7.351   1.803  1.00  0.00    -0.394 OA
ATOM     17  H   UNL     1      12.231   6.456   1.468  1.00  0.00     0.210 HD
ENDBRANCH  15  16
ENDBRANCH   4  15
TORSDOF 7
ENDMDL
MODEL 8
REMARK VINA RESULT:    -3.214     11.428     13.382
REMARK INTER + INTRA:          -4.682
REMARK INTER:                  -4.112
REMARK INTRA:                  -0.570
REMARK UNBOUND:                -0.528
REMARK SMILES CO[C@@]1(CO)O[C@@H](CO)[C@H](O)[C@@H]1O
REMARK SMILES IDX 3 1 12 2 10 3 7 4 6 5 2 6 1 7 4 8 5 9 13 11 11 13 8 15 9 16
REMARK H PARENT 5 10 13 12 11 14 9 17
REMARK Flexibility Score: inf
ROOT
ATOM      1  C   UNL     1      17.948   8.172   1.499  1.00  0.00     0.221 C 
ATOM      2  C   UNL     1      19.339   8.611   2.052  1.00  0.00     0.207 C 
ATOM      3  C   UNL     1      20.293   7.609   1.425  1.00  0.00     0.180 C 
ATOM      4  C   UNL     1      19.376   6.454   1.027  1.00  0.00     0.179 C 
ATOM      5  O   UNL     1      18.110   6.989   0.727  1.00  0.00    -0.337 OA
ENDROOT
BRANCH   1   6
ATOM      6  O   UNL     1      17.374   9.219   0.719  1.00  0.00    -0.349 OA
ATOM      7  C   UNL     1      16.394   8.754  -0.189  1.00  0.00     0.198 C 
ENDBRANCH   1   6
BRANCH   1   8
ATOM      8  C   UNL     1      16.936   7.847   2.616  1.00  0.00     0.224 C 
BRANCH   8   9
ATOM      9  O   UNL     1      16.578   9.013   3.309  1.00  0.00    -0.391 OA
ATOM     10  H   UNL     1      16.162   9.614   2.639  1.00  0.00     0.210 HD
ENDBRANCH   8   9
ENDBRANCH   1   8
BRANCH   2  11
ATOM     11  O   UNL     1      19.393   8.561   3.458  1.00  0.00    -0.385 OA
ATOM     12  H   UNL     1      18.732   9.220   3.796  1.00  0.00     0.211 HD
ENDBRANCH   2  11
BRANCH   3  13
ATOM     13  O   UNL     1      21.341   7.212   2.279  1.00  0.00    -0.387 OA
ATOM     14  H   UNL     1      21.181   6.274   2.560  1.00  0.00     0.211 HD
ENDBRANCH   3  13
BRANCH   4  15
ATOM     15  C   UNL     1      19.912   5.665  -0.172  1.00  0.00     0.191 C 
BRANCH  15  16
ATOM     16  O   UNL     1      21.243   5.283   0.046  1.00  0.00    -0.394 OA
ATOM     17  H   UNL     1      21.723   6.105   0.327  1.00  0.00     0.210 HD
ENDBRANCH  15  16
ENDBRANCH   4  15
TORSDOF 7
ENDMDL
MODEL 9
REMARK VINA RESULT:    -3.153      2.461      4.248
REMARK INTER + INTRA:          -4.602
REMARK INTER:                  -4.040
REMARK INTRA:                  -0.562
REMARK UNBOUND:                -0.528
REMARK SMILES CO[C@@]1(CO)O[C@@H](CO)[C@H](O)[C@@H]1O
REMARK SMILES IDX 3 1 12 2 10 3 7 4 6 5 2 6 1 7 4 8 5 9 13 11 11 13 8 15 9 16
REMARK H PARENT 5 10 13 12 11 14 9 17
REMARK Flexibility Score: inf
ROOT
ATOM      1  C   UNL     1       7.948   5.028   2.309  1.00  0.00     0.221 C 
ATOM      2  C   UNL     1       9.275   5.791   2.008  1.00  0.00     0.207 C 
ATOM      3  C   UNL     1       8.846   7.249   2.020  1.00  0.00     0.180 C 
ATOM      4  C   UNL     1       7.335   7.171   1.812  1.00  0.00     0.179 C 
ATOM      5  O   UNL     1       6.881   5.965   2.378  1.00  0.00    -0.337 OA
ENDROOT
BRANCH   1   6
ATOM      6  O   UNL     1       8.066   4.293   3.524  1.00  0.00    -0.349 OA
ATOM      7  C   UNL     1       6.814   4.020   4.125  1.00  0.00     0.198 C 
ENDBRANCH   1   6
BRANCH   1   8
ATOM      8  C   UNL     1       7.583   4.010   1.209  1.00  0.00     0.224 C 
BRANCH   8   9
ATOM      9  O   UNL     1       8.551   2.998   1.136  1.00  0.00    -0.391 OA
ATOM     10  H   UNL     1       8.268   2.299   1.781  1.00  0.00     0.210 HD
ENDBRANCH   8   9
ENDBRANCH   1   8
BRANCH   2  11
ATOM     11  O   UNL     1       9.829   5.430   0.766  1.00  0.00    -0.385 OA
ATOM     12  H   UNL     1      10.369   4.610   0.918  1.00  0.00     0.211 HD
ENDBRANCH   2  11
BRANCH   3  13
ATOM     13  O   UNL     1       9.496   8.039   1.051  1.00  0.00    -0.387 OA
ATOM     14  H   UNL     1      10.377   8.321   1.411  1.00  0.00     0.211 HD
ENDBRANCH   3  13
BRANCH   4  15
ATOM     15  C   UNL     1       6.595   8.358   2.438  1.00  0.00     0.191 C 
BRANCH  15  16
ATOM     16  O   UNL     1       7.097   9.568   1.939  1.00  0.00    -0.394 OA
ATOM     17  H   UNL     1       7.642   9.962   2.668  1.00  0.00     0.210 HD
ENDBRANCH  15  16
ENDBRANCH   4  15
TORSDOF 7
ENDMDL
