MODEL 1
REMARK VINA RESULT:    -3.685      0.000      0.000
REMARK INTER + INTRA:          -4.461
REMARK INTER:                  -4.440
REMARK INTRA:                  -0.021
REMARK UNBOUND:                -0.021
REMARK SMILES CC[C@@H](C)[C@H]([NH3+])C(=O)[O-]
REMARK SMILES IDX 3 1 4 2 5 3 6 4 7 8 8 9 9 10 2 11 1 12
REMARK H PARENT 6 5 6 6 6 7
REMARK Flexibility Score: inf
ROOT
ATOM      1  C   UNL     1      12.148 -25.045  37.261  1.00  0.00     0.050 C 
ATOM      2  C   UNL     1      11.670 -25.805  38.513  1.00  0.00     0.014 C 
ENDROOT
BRANCH   1   3
ATOM      3  C   UNL     1      11.080 -25.139  36.126  1.00  0.00     0.230 C 
BRANCH   3   4
ATOM      4  N   UNL     1      11.690 -25.387  34.811  1.00  0.00    -0.350 N 
ATOM      5  H   UNL     1      12.723 -25.516  34.914  1.00  0.00     0.345 HD
ATOM      6  H   UNL     1      11.294 -26.265  34.405  1.00  0.00     0.345 HD
ATOM      7  H   UNL     1      11.505 -24.605  34.144  1.00  0.00     0.345 HD
ENDBRANCH   3   4
BRANCH   3   8
ATOM      8  C   UNL     1      10.173 -23.932  36.081  1.00  0.00     0.099 C 
ATOM      9  O   UNL     1      10.324 -23.045  35.199  1.00  0.00    -0.544 OA
ATOM     10  O   UNL     1       9.182 -23.776  37.042  1.00  0.00    -0.544 OA
ENDBRANCH   3   8
ENDBRANCH   1   3
BRANCH   1  11
ATOM     11  C   UNL     1      12.539 -23.584  37.610  1.00  0.00     0.006 C 
ATOM     12  C   UNL     1      13.225 -23.462  38.972  1.00  0.00     0.004 C 
ENDBRANCH   1  11
TORSDOF 4
ENDMDL
MODEL 2
REMARK VINA RESULT:    -3.621      8.827      9.691
REMARK INTER + INTRA:          -4.383
REMARK INTER:                  -4.257
REMARK INTRA:                  -0.126
REMARK UNBOUND:                -0.021
REMARK SMILES CC[C@@H](C)[C@H]([NH3+])C(=O)[O-]
REMARK SMILES IDX 3 1 4 2 5 3 6 4 7 8 8 9 9 10 2 11 1 12
REMARK H PARENT 6 5 6 6 6 7
REMARK Flexibility Score: inf
ROOT
ATOM      1  C   UNL     1      13.444 -16.065  35.126  1.00  0.00     0.050 C 
ATOM      2  C   UNL     1      13.712 -17.147  34.063  1.00  0.00     0.014 C 
ENDROOT
BRANCH   1   3
ATOM      3  C   UNL     1      14.789 -15.546  35.725  1.00  0.00     0.230 C 
BRANCH   3   4
ATOM      4  N   UNL     1      15.956 -16.077  35.004  1.00  0.00    -0.350 N 
ATOM      5  H   UNL     1      16.107 -15.540  34.120  1.00  0.00     0.345 HD
ATOM      6  H   UNL     1      16.810 -15.968  35.598  1.00  0.00     0.345 HD
ATOM      7  H   UNL     1      15.842 -17.091  34.776  1.00  0.00     0.345 HD
ENDBRANCH   3   4
BRANCH   3   8
ATOM      8  C   UNL     1      14.904 -15.809  37.208  1.00  0.00     0.099 C 
ATOM      9  O   UNL     1      15.915 -15.424  37.854  1.00  0.00    -0.544 OA
ATOM     10  O   UNL     1      13.902 -16.512  37.864  1.00  0.00    -0.544 OA
ENDBRANCH   3   8
ENDBRANCH   1   3
BRANCH   1  11
ATOM     11  C   UNL     1      12.553 -14.930  34.555  1.00  0.00     0.006 C 
ATOM     12  C   UNL     1      12.046 -13.971  35.635  1.00  0.00     0.004 C 
ENDBRANCH   1  11
TORSDOF 4
ENDMDL
MODEL 3
REMARK VINA RESULT:    -3.609      9.319     10.387
REMARK INTER + INTRA:          -4.369
REMARK INTER:                  -4.270
REMARK INTRA:                  -0.099
REMARK UNBOUND:                -0.021
REMARK SMILES CC[C@@H](C)[C@H]([NH3+])C(=O)[O-]
REMARK SMILES IDX 3 1 4 2 5 3 6 4 7 8 8 9 9 10 2 11 1 12
REMARK H PARENT 6 5 6 6 6 7
REMARK Flexibility Score: inf
ROOT
ATOM      1  C   UNL     1      12.530 -19.418  28.100  1.00  0.00     0.050 C 
ATOM      2  C   UNL     1      12.222 -18.309  27.075  1.00  0.00     0.014 C 
ENDROOT
BRANCH   1   3
ATOM      3  C   UNL     1      11.907 -19.065  29.487  1.00  0.00     0.230 C 
BRANCH   3   4
ATOM      4  N   UNL     1      10.585 -18.433  29.354  1.00  0.00    -0.350 N 
ATOM      5  H   UNL     1      10.497 -17.641  30.030  1.00  0.00     0.345 HD
ATOM      6  H   UNL     1      10.480 -18.047  28.388  1.00  0.00     0.345 HD
ATOM      7  H   UNL     1       9.811 -19.116  29.521  1.00  0.00     0.345 HD
ENDBRANCH   3   4
BRANCH   3   8
ATOM      8  C   UNL     1      12.826 -18.219  30.337  1.00  0.00     0.099 C 
ATOM      9  O   UNL     1      12.382 -17.230  30.978  1.00  0.00    -0.544 OA
ATOM     10  O   UNL     1      14.183 -18.513  30.389  1.00  0.00    -0.544 OA
ENDBRANCH   3   8
ENDBRANCH   1   3
BRANCH   1  11
ATOM     11  C   UNL     1      12.086 -20.808  27.569  1.00  0.00     0.006 C 
ATOM     12  C   UNL     1      11.282 -20.719  26.270  1.00  0.00     0.004 C 
ENDBRANCH   1  11
TORSDOF 4
ENDMDL
MODEL 4
REMARK VINA RESULT:    -3.572     10.572     11.380
REMARK INTER + INTRA:          -4.324
REMARK INTER:                  -4.221
REMARK INTRA:                  -0.103
REMARK UNBOUND:                -0.021
REMARK SMILES CC[C@@H](C)[C@H]([NH3+])C(=O)[O-]
REMARK SMILES IDX 3 1 4 2 5 3 6 4 7 8 8 9 9 10 2 11 1 12
REMARK H PARENT 6 5 6 6 6 7
REMARK Flexibility Score: inf
ROOT
ATOM      1  C   UNL     1      12.258 -20.014  27.588  1.00  0.00     0.050 C 
ATOM      2  C   UNL     1      12.354 -21.551  27.616  1.00  0.00     0.014 C 
ENDROOT
BRANCH   1   3
ATOM      3  C   UNL     1      11.389 -19.546  26.378  1.00  0.00     0.230 C 
BRANCH   3   4
ATOM      4  N   UNL     1      10.806 -20.680  25.645  1.00  0.00    -0.350 N 
ATOM      5  H   UNL     1      11.193 -20.716  24.674  1.00  0.00     0.345 HD
ATOM      6  H   UNL     1      11.060 -21.573  26.127  1.00  0.00     0.345 HD
ATOM      7  H   UNL     1       9.764 -20.617  25.599  1.00  0.00     0.345 HD
ENDBRANCH   3   4
BRANCH   3   8
ATOM      8  C   UNL     1      12.142 -18.628  25.444  1.00  0.00     0.099 C 
ATOM      9  O   UNL     1      12.427 -17.450  25.788  1.00  0.00    -0.544 OA
ATOM     10  O   UNL     1      12.496 -19.073  24.176  1.00  0.00    -0.544 OA
ENDBRANCH   3   8
ENDBRANCH   1   3
BRANCH   1  11
ATOM     11  C   UNL     1      11.757 -19.460  28.948  1.00  0.00     0.006 C 
ATOM     12  C   UNL     1      12.677 -18.383  29.527  1.00  0.00     0.004 C 
ENDBRANCH   1  11
TORSDOF 4
ENDMDL
MODEL 5
REMARK VINA RESULT:    -3.484      1.249      1.953
REMARK INTER + INTRA:          -4.219
REMARK INTER:                  -4.148
REMARK INTRA:                  -0.071
REMARK UNBOUND:                -0.021
REMARK SMILES CC[C@@H](C)[C@H]([NH3+])C(=O)[O-]
REMARK SMILES IDX 3 1 4 2 5 3 6 4 7 8 8 9 9 10 2 11 1 12
REMARK H PARENT 6 5 6 6 6 7
REMARK Flexibility Score: inf
ROOT
ATOM      1  C   UNL     1      11.471 -24.124  37.529  1.00  0.00     0.050 C 
ATOM      2  C   UNL     1      11.955 -22.867  36.782  1.00  0.00     0.014 C 
ENDROOT
BRANCH   1   3
ATOM      3  C   UNL     1      11.130 -25.261  36.516  1.00  0.00     0.230 C 
BRANCH   3   4
ATOM      4  N   UNL     1      12.154 -25.393  35.468  1.00  0.00    -0.350 N 
ATOM      5  H   UNL     1      12.935 -26.001  35.804  1.00  0.00     0.345 HD
ATOM      6  H   UNL     1      11.731 -25.845  34.625  1.00  0.00     0.345 HD
ATOM      7  H   UNL     1      12.538 -24.464  35.183  1.00  0.00     0.345 HD
ENDBRANCH   3   4
BRANCH   3   8
ATOM      8  C   UNL     1       9.755 -25.106  35.910  1.00  0.00     0.099 C 
ATOM      9  O   UNL     1       8.734 -25.533  36.512  1.00  0.00    -0.544 OA
ATOM     10  O   UNL     1       9.612 -24.515  34.661  1.00  0.00    -0.544 OA
ENDBRANCH   3   8
ENDBRANCH   1   3
BRANCH   1  11
ATOM     11  C   UNL     1      12.495 -24.559  38.611  1.00  0.00     0.006 C 
ATOM     12  C   UNL     1      13.324 -23.391  39.149  1.00  0.00     0.004 C 
ENDBRANCH   1  11
TORSDOF 4
ENDMDL
MODEL 6
REMARK VINA RESULT:    -3.411      1.970      2.736
REMARK INTER + INTRA:          -4.131
REMARK INTER:                  -4.032
REMARK INTRA:                  -0.099
REMARK UNBOUND:                -0.021
REMARK SMILES CC[C@@H](C)[C@H]([NH3+])C(=O)[O-]
REMARK SMILES IDX 3 1 4 2 5 3 6 4 7 8 8 9 9 10 2 11 1 12
REMARK H PARENT 6 5 6 6 6 7
REMARK Flexibility Score: inf
ROOT
ATOM      1  C   UNL     1      11.393 -23.737  37.175  1.00  0.00     0.050 C 
ATOM      2  C   UNL     1      10.785 -23.093  35.914  1.00  0.00     0.014 C 
ENDROOT
BRANCH   1   3
ATOM      3  C   UNL     1      12.025 -25.121  36.826  1.00  0.00     0.230 C 
BRANCH   3   4
ATOM      4  N   UNL     1      12.056 -25.365  35.376  1.00  0.00    -0.350 N 
ATOM      5  H   UNL     1      11.215 -24.941  34.923  1.00  0.00     0.345 HD
ATOM      6  H   UNL     1      12.906 -24.915  34.966  1.00  0.00     0.345 HD
ATOM      7  H   UNL     1      12.087 -26.386  35.156  1.00  0.00     0.345 HD
ENDBRANCH   3   4
BRANCH   3   8
ATOM      8  C   UNL     1      11.357 -26.264  37.553  1.00  0.00     0.099 C 
ATOM      9  O   UNL     1      10.101 -26.352  37.598  1.00  0.00    -0.544 OA
ATOM     10  O   UNL     1      12.131 -27.213  38.208  1.00  0.00    -0.544 OA
ENDBRANCH   3   8
ENDBRANCH   1   3
BRANCH   1  11
ATOM     11  C   UNL     1      12.387 -22.770  37.871  1.00  0.00     0.006 C 
ATOM     12  C   UNL     1      13.217 -23.454  38.960  1.00  0.00     0.004 C 
ENDBRANCH   1  11
TORSDOF 4
ENDMDL
MODEL 7
REMARK VINA RESULT:    -3.405      8.614      9.765
REMARK INTER + INTRA:          -4.123
REMARK INTER:                  -4.110
REMARK INTRA:                  -0.013
REMARK UNBOUND:                -0.021
REMARK SMILES CC[C@@H](C)[C@H]([NH3+])C(=O)[O-]
REMARK SMILES IDX 3 1 4 2 5 3 6 4 7 8 8 9 9 10 2 11 1 12
REMARK H PARENT 6 5 6 6 6 7
REMARK Flexibility Score: inf
ROOT
ATOM      1  C   UNL     1      12.205 -18.155  29.766  1.00  0.00     0.050 C 
ATOM      2  C   UNL     1      11.286 -18.954  30.710  1.00  0.00     0.014 C 
ENDROOT
BRANCH   1   3
ATOM      3  C   UNL     1      13.401 -17.544  30.561  1.00  0.00     0.230 C 
BRANCH   3   4
ATOM      4  N   UNL     1      14.527 -18.484  30.675  1.00  0.00    -0.350 N 
ATOM      5  H   UNL     1      14.252 -19.420  30.301  1.00  0.00     0.345 HD
ATOM      6  H   UNL     1      15.332 -18.132  30.107  1.00  0.00     0.345 HD
ATOM      7  H   UNL     1      14.846 -18.588  31.665  1.00  0.00     0.345 HD
ENDBRANCH   3   4
BRANCH   3   8
ATOM      8  C   UNL     1      12.991 -17.026  31.920  1.00  0.00     0.099 C 
ATOM      9  O   UNL     1      13.415 -17.573  32.973  1.00  0.00    -0.544 OA
ATOM     10  O   UNL     1      12.110 -15.956  32.014  1.00  0.00    -0.544 OA
ENDBRANCH   3   8
ENDBRANCH   1   3
BRANCH   1  11
ATOM     11  C   UNL     1      12.655 -19.022  28.560  1.00  0.00     0.006 C 
ATOM     12  C   UNL     1      12.234 -18.430  27.213  1.00  0.00     0.004 C 
ENDBRANCH   1  11
TORSDOF 4
ENDMDL
MODEL 8
REMARK VINA RESULT:    -3.353      2.146      2.446
REMARK INTER + INTRA:          -4.060
REMARK INTER:                  -3.960
REMARK INTRA:                  -0.100
REMARK UNBOUND:                -0.021
REMARK SMILES CC[C@@H](C)[C@H]([NH3+])C(=O)[O-]
REMARK SMILES IDX 3 1 4 2 5 3 6 4 7 8 8 9 9 10 2 11 1 12
REMARK H PARENT 6 5 6 6 6 7
REMARK Flexibility Score: inf
ROOT
ATOM      1  C   UNL     1      12.091 -23.681  38.565  1.00  0.00     0.050 C 
ATOM      2  C   UNL     1      10.593 -23.759  38.917  1.00  0.00     0.014 C 
ENDROOT
BRANCH   1   3
ATOM      3  C   UNL     1      12.284 -23.641  37.017  1.00  0.00     0.230 C 
BRANCH   3   4
ATOM      4  N   UNL     1      11.665 -22.451  36.413  1.00  0.00    -0.350 N 
ATOM      5  H   UNL     1      11.973 -21.590  36.920  1.00  0.00     0.345 HD
ATOM      6  H   UNL     1      11.973 -22.367  35.417  1.00  0.00     0.345 HD
ATOM      7  H   UNL     1      10.621 -22.506  36.430  1.00  0.00     0.345 HD
ENDBRANCH   3   4
BRANCH   3   8
ATOM      8  C   UNL     1      11.802 -24.902  36.339  1.00  0.00     0.099 C 
ATOM      9  O   UNL     1      10.883 -24.861  35.478  1.00  0.00    -0.544 OA
ATOM     10  O   UNL     1      12.351 -26.129  36.692  1.00  0.00    -0.544 OA
ENDBRANCH   3   8
ENDBRANCH   1   3
BRANCH   1  11
ATOM     11  C   UNL     1      12.775 -22.494  39.295  1.00  0.00     0.006 C 
ATOM     12  C   UNL     1      14.194 -22.822  39.762  1.00  0.00     0.004 C 
ENDBRANCH   1  11
TORSDOF 4
ENDMDL
MODEL 9
REMARK VINA RESULT:    -3.293      7.695      8.686
REMARK INTER + INTRA:          -3.988
REMARK INTER:                  -3.925
REMARK INTRA:                  -0.063
REMARK UNBOUND:                -0.021
REMARK SMILES CC[C@@H](C)[C@H]([NH3+])C(=O)[O-]
REMARK SMILES IDX 3 1 4 2 5 3 6 4 7 8 8 9 9 10 2 11 1 12
REMARK H PARENT 6 5 6 6 6 7
REMARK Flexibility Score: inf
ROOT
ATOM      1  C   UNL     1      13.253 -18.041  31.631  1.00  0.00     0.050 C 
ATOM      2  C   UNL     1      14.700 -17.754  31.186  1.00  0.00     0.014 C 
ENDROOT
BRANCH   1   3
ATOM      3  C   UNL     1      12.959 -17.352  33.000  1.00  0.00     0.230 C 
BRANCH   3   4
ATOM      4  N   UNL     1      14.154 -17.289  33.856  1.00  0.00    -0.350 N 
ATOM      5  H   UNL     1      14.846 -18.013  33.557  1.00  0.00     0.345 HD
ATOM      6  H   UNL     1      14.604 -16.351  33.756  1.00  0.00     0.345 HD
ATOM      7  H   UNL     1      13.917 -17.433  34.863  1.00  0.00     0.345 HD
ENDBRANCH   3   4
BRANCH   3   8
ATOM      8  C   UNL     1      11.802 -17.989  33.734  1.00  0.00     0.099 C 
ATOM      9  O   UNL     1      11.550 -19.216  33.598  1.00  0.00    -0.544 OA
ATOM     10  O   UNL     1      10.984 -17.211  34.543  1.00  0.00    -0.544 OA
ENDBRANCH   3   8
ENDBRANCH   1   3
BRANCH   1  11
ATOM     11  C   UNL     1      12.240 -17.649  30.522  1.00  0.00     0.006 C 
ATOM     12  C   UNL     1      12.526 -18.338  29.186  1.00  0.00     0.004 C 
ENDBRANCH   1  11
TORSDOF 4
ENDMDL
