MODEL 1
REMARK VINA RESULT:    -8.668      0.000      0.000
REMARK INTER + INTRA:          -9.647
REMARK INTER:                  -9.935
REMARK INTRA:                   0.288
REMARK UNBOUND:                 0.288
REMARK SMILES O=c1c(-c2ccc(O)cc2)coc2c(O)c(O)ccc12
REMARK SMILES IDX 3 1 11 2 12 3 13 4 20 5 2 6 1 7 19 8 18 9 16 10 14 11 4 12
REMARK SMILES IDX 5 13 6 14 7 15 10 16 9 17 8 18 15 20 17 22
REMARK H PARENT 8 19 15 21 17 23
REMARK Flexibility Score: inf
ROOT
ATOM      1  C   UNL     1      43.375  45.576  43.444  1.00  0.00     0.065 A 
ATOM      2  C   UNL     1      42.564  46.251  44.370  1.00  0.00     0.208 A 
ATOM      3  O   UNL     1      42.992  46.492  45.604  1.00  0.00    -0.459 OA
ATOM      4  C   UNL     1      44.192  46.119  46.038  1.00  0.00     0.183 A 
ATOM      5  C   UNL     1      45.078  45.437  45.172  1.00  0.00     0.069 A 
ATOM      6  C   UNL     1      44.659  45.170  43.856  1.00  0.00     0.200 A 
ATOM      7  O   UNL     1      45.434  44.592  43.047  1.00  0.00    -0.288 OA
ATOM      8  C   UNL     1      46.346  45.052  45.642  1.00  0.00     0.020 A 
ATOM      9  C   UNL     1      46.724  45.339  46.956  1.00  0.00     0.051 A 
ATOM     10  C   UNL     1      45.847  46.013  47.815  1.00  0.00     0.161 A 
ATOM     11  C   UNL     1      44.580  46.405  47.360  1.00  0.00     0.201 A 
ENDROOT
BRANCH   1  12
ATOM     12  C   UNL     1      42.870  45.311  42.074  1.00  0.00    -0.011 A 
ATOM     13  C   UNL     1      41.512  45.024  41.852  1.00  0.00     0.013 A 
ATOM     14  C   UNL     1      41.041  44.784  40.558  1.00  0.00     0.047 A 
ATOM     15  C   UNL     1      41.920  44.833  39.468  1.00  0.00     0.115 A 
ATOM     16  C   UNL     1      43.744  45.365  40.974  1.00  0.00     0.013 A 
ATOM     17  C   UNL     1      43.271  45.125  39.680  1.00  0.00     0.047 A 
BRANCH  15  18
ATOM     18  O   UNL     1      41.463  44.596  38.174  1.00  0.00    -0.508 OA
ATOM     19  H   UNL     1      40.734  43.916  37.986  1.00  0.00     0.293 HD
ENDBRANCH  15  18
ENDBRANCH   1  12
BRANCH  11  20
ATOM     20  O   UNL     1      43.722  47.075  48.231  1.00  0.00    -0.502 OA
ATOM     21  H   UNL     1      42.931  46.617  48.668  1.00  0.00     0.293 HD
ENDBRANCH  11  20
BRANCH  10  22
ATOM     22  O   UNL     1      46.226  46.299  49.126  1.00  0.00    -0.504 OA
ATOM     23  H   UNL     1      46.134  45.613  49.865  1.00  0.00     0.293 HD
ENDBRANCH  10  22
TORSDOF 4
ENDMDL
MODEL 2
REMARK VINA RESULT:    -8.420      1.064      7.202
REMARK INTER + INTRA:          -9.362
REMARK INTER:                  -9.320
REMARK INTRA:                  -0.043
REMARK UNBOUND:                 0.288
REMARK SMILES O=c1c(-c2ccc(O)cc2)coc2c(O)c(O)ccc12
REMARK SMILES IDX 3 1 11 2 12 3 13 4 20 5 2 6 1 7 19 8 18 9 16 10 14 11 4 12
REMARK SMILES IDX 5 13 6 14 7 15 10 16 9 17 8 18 15 20 17 22
REMARK H PARENT 8 19 15 21 17 23
REMARK Flexibility Score: inf
ROOT
ATOM      1  C   UNL     1      44.345  45.733  43.629  1.00  0.00     0.065 A 
ATOM      2  C   UNL     1      45.267  45.629  42.575  1.00  0.00     0.208 A 
ATOM      3  O   UNL     1      44.862  45.364  41.338  1.00  0.00    -0.459 OA
ATOM      4  C   UNL     1      43.583  45.186  41.020  1.00  0.00     0.183 A 
ATOM      5  C   UNL     1      42.585  45.278  42.017  1.00  0.00     0.069 A 
ATOM      6  C   UNL     1      42.979  45.562  43.337  1.00  0.00     0.200 A 
ATOM      7  O   UNL     1      42.113  45.682  44.247  1.00  0.00    -0.288 OA
ATOM      8  C   UNL     1      41.237  45.091  41.666  1.00  0.00     0.020 A 
ATOM      9  C   UNL     1      40.888  44.813  40.342  1.00  0.00     0.051 A 
ATOM     10  C   UNL     1      41.876  44.720  39.354  1.00  0.00     0.161 A 
ATOM     11  C   UNL     1      43.224  44.906  39.688  1.00  0.00     0.201 A 
ENDROOT
BRANCH   1  12
ATOM     12  C   UNL     1      44.824  46.021  45.004  1.00  0.00    -0.011 A 
ATOM     13  C   UNL     1      45.736  45.161  45.641  1.00  0.00     0.013 A 
ATOM     14  C   UNL     1      46.190  45.442  46.933  1.00  0.00     0.047 A 
ATOM     15  C   UNL     1      45.743  46.589  47.603  1.00  0.00     0.115 A 
ATOM     16  C   UNL     1      44.385  47.173  45.681  1.00  0.00     0.013 A 
ATOM     17  C   UNL     1      44.840  47.451  46.973  1.00  0.00     0.047 A 
BRANCH  15  18
ATOM     18  O   UNL     1      46.187  46.879  48.891  1.00  0.00    -0.508 OA
ATOM     19  H   UNL     1      46.426  46.144  49.547  1.00  0.00     0.293 HD
ENDBRANCH  15  18
ENDBRANCH   1  12
BRANCH  11  20
ATOM     20  O   UNL     1      44.192  44.810  38.689  1.00  0.00    -0.502 OA
ATOM     21  H   UNL     1      44.834  44.027  38.633  1.00  0.00     0.293 HD
ENDBRANCH  11  20
BRANCH  10  22
ATOM     22  O   UNL     1      41.526  44.443  38.033  1.00  0.00    -0.504 OA
ATOM     23  H   UNL     1      41.181  43.532  37.756  1.00  0.00     0.293 HD
ENDBRANCH  10  22
TORSDOF 4
ENDMDL
MODEL 3
REMARK VINA RESULT:    -7.881      1.362      2.372
REMARK INTER + INTRA:          -8.744
REMARK INTER:                  -8.906
REMARK INTRA:                   0.162
REMARK UNBOUND:                 0.288
REMARK SMILES O=c1c(-c2ccc(O)cc2)coc2c(O)c(O)ccc12
REMARK SMILES IDX 3 1 11 2 12 3 13 4 20 5 2 6 1 7 19 8 18 9 16 10 14 11 4 12
REMARK SMILES IDX 5 13 6 14 7 15 10 16 9 17 8 18 15 20 17 22
REMARK H PARENT 8 19 15 21 17 23
REMARK Flexibility Score: inf
ROOT
ATOM      1  C   UNL     1      44.510  45.224  44.140  1.00  0.00     0.065 A 
ATOM      2  C   UNL     1      45.506  44.278  44.425  1.00  0.00     0.208 A 
ATOM      3  O   UNL     1      46.090  44.240  45.618  1.00  0.00    -0.459 OA
ATOM      4  C   UNL     1      45.776  45.077  46.602  1.00  0.00     0.183 A 
ATOM      5  C   UNL     1      44.779  46.060  46.406  1.00  0.00     0.069 A 
ATOM      6  C   UNL     1      44.137  46.124  45.156  1.00  0.00     0.200 A 
ATOM      7  O   UNL     1      43.221  46.968  44.954  1.00  0.00    -0.288 OA
ATOM      8  C   UNL     1      44.454  46.935  47.456  1.00  0.00     0.020 A 
ATOM      9  C   UNL     1      45.114  46.835  48.683  1.00  0.00     0.051 A 
ATOM     10  C   UNL     1      46.103  45.864  48.878  1.00  0.00     0.161 A 
ATOM     11  C   UNL     1      46.436  44.982  47.841  1.00  0.00     0.201 A 
ENDROOT
BRANCH   1  12
ATOM     12  C   UNL     1      43.879  45.250  42.797  1.00  0.00    -0.011 A 
ATOM     13  C   UNL     1      42.485  45.382  42.661  1.00  0.00     0.013 A 
ATOM     14  C   UNL     1      41.897  45.415  41.394  1.00  0.00     0.047 A 
ATOM     15  C   UNL     1      42.694  45.322  40.244  1.00  0.00     0.115 A 
ATOM     16  C   UNL     1      44.671  45.163  41.639  1.00  0.00     0.013 A 
ATOM     17  C   UNL     1      44.081  45.196  40.372  1.00  0.00     0.047 A 
BRANCH  15  18
ATOM     18  O   UNL     1      42.120  45.352  38.976  1.00  0.00    -0.508 OA
ATOM     19  H   UNL     1      42.689  45.348  38.137  1.00  0.00     0.293 HD
ENDBRANCH  15  18
ENDBRANCH   1  12
BRANCH  11  20
ATOM     20  O   UNL     1      47.424  44.021  48.057  1.00  0.00    -0.502 OA
ATOM     21  H   UNL     1      48.191  44.171  48.702  1.00  0.00     0.293 HD
ENDBRANCH  11  20
BRANCH  10  22
ATOM     22  O   UNL     1      46.760  45.765  50.104  1.00  0.00    -0.504 OA
ATOM     23  H   UNL     1      46.537  46.382  50.876  1.00  0.00     0.293 HD
ENDBRANCH  10  22
TORSDOF 4
ENDMDL
MODEL 4
REMARK VINA RESULT:    -7.813      1.280      6.923
REMARK INTER + INTRA:          -8.667
REMARK INTER:                  -8.694
REMARK INTRA:                   0.027
REMARK UNBOUND:                 0.288
REMARK SMILES O=c1c(-c2ccc(O)cc2)coc2c(O)c(O)ccc12
REMARK SMILES IDX 3 1 11 2 12 3 13 4 20 5 2 6 1 7 19 8 18 9 16 10 14 11 4 12
REMARK SMILES IDX 5 13 6 14 7 15 10 16 9 17 8 18 15 20 17 22
REMARK H PARENT 8 19 15 21 17 23
REMARK Flexibility Score: inf
ROOT
ATOM      1  C   UNL     1      43.608  45.687  43.648  1.00  0.00     0.065 A 
ATOM      2  C   UNL     1      42.211  45.571  43.590  1.00  0.00     0.208 A 
ATOM      3  O   UNL     1      41.594  45.318  42.441  1.00  0.00    -0.459 OA
ATOM      4  C   UNL     1      42.245  45.159  41.292  1.00  0.00     0.183 A 
ATOM      5  C   UNL     1      43.655  45.253  41.257  1.00  0.00     0.069 A 
ATOM      6  C   UNL     1      44.341  45.515  42.458  1.00  0.00     0.200 A 
ATOM      7  O   UNL     1      45.600  45.576  42.471  1.00  0.00    -0.288 OA
ATOM      8  C   UNL     1      44.331  45.079  40.037  1.00  0.00     0.020 A 
ATOM      9  C   UNL     1      43.612  44.817  38.868  1.00  0.00     0.051 A 
ATOM     10  C   UNL     1      42.216  44.725  38.901  1.00  0.00     0.161 A 
ATOM     11  C   UNL     1      41.528  44.895  40.111  1.00  0.00     0.201 A 
ENDROOT
BRANCH   1  12
ATOM     12  C   UNL     1      44.273  45.978  44.943  1.00  0.00    -0.011 A 
ATOM     13  C   UNL     1      43.882  47.085  45.717  1.00  0.00     0.013 A 
ATOM     14  C   UNL     1      44.506  47.350  46.940  1.00  0.00     0.047 A 
ATOM     15  C   UNL     1      45.525  46.509  47.408  1.00  0.00     0.115 A 
ATOM     16  C   UNL     1      45.292  45.136  45.423  1.00  0.00     0.013 A 
ATOM     17  C   UNL     1      45.914  45.403  46.646  1.00  0.00     0.047 A 
BRANCH  15  18
ATOM     18  O   UNL     1      46.154  46.762  48.624  1.00  0.00    -0.508 OA
ATOM     19  H   UNL     1      45.669  46.643  49.506  1.00  0.00     0.293 HD
ENDBRANCH  15  18
ENDBRANCH   1  12
BRANCH  11  20
ATOM     20  O   UNL     1      40.137  44.798  40.122  1.00  0.00    -0.502 OA
ATOM     21  H   UNL     1      39.557  45.286  39.449  1.00  0.00     0.293 HD
ENDBRANCH  11  20
BRANCH  10  22
ATOM     22  O   UNL     1      41.500  44.463  37.733  1.00  0.00    -0.504 OA
ATOM     23  H   UNL     1      40.963  45.186  37.268  1.00  0.00     0.293 HD
ENDBRANCH  10  22
TORSDOF 4
ENDMDL
MODEL 5
REMARK VINA RESULT:    -7.594      4.732      7.486
REMARK INTER + INTRA:          -8.415
REMARK INTER:                  -8.159
REMARK INTRA:                  -0.257
REMARK UNBOUND:                 0.288
REMARK SMILES O=c1c(-c2ccc(O)cc2)coc2c(O)c(O)ccc12
REMARK SMILES IDX 3 1 11 2 12 3 13 4 20 5 2 6 1 7 19 8 18 9 16 10 14 11 4 12
REMARK SMILES IDX 5 13 6 14 7 15 10 16 9 17 8 18 15 20 17 22
REMARK H PARENT 8 19 15 21 17 23
REMARK Flexibility Score: inf
ROOT
ATOM      1  C   UNL     1      47.641  43.288  46.915  1.00  0.00     0.065 A 
ATOM      2  C   UNL     1      48.869  43.359  47.589  1.00  0.00     0.208 A 
ATOM      3  O   UNL     1      49.698  42.322  47.609  1.00  0.00    -0.459 OA
ATOM      4  C   UNL     1      49.428  41.169  47.003  1.00  0.00     0.183 A 
ATOM      5  C   UNL     1      48.215  41.009  46.295  1.00  0.00     0.069 A 
ATOM      6  C   UNL     1      47.316  42.090  46.249  1.00  0.00     0.200 A 
ATOM      7  O   UNL     1      46.238  41.994  45.601  1.00  0.00    -0.288 OA
ATOM      8  C   UNL     1      47.943  39.787  45.655  1.00  0.00     0.020 A 
ATOM      9  C   UNL     1      48.864  38.739  45.722  1.00  0.00     0.051 A 
ATOM     10  C   UNL     1      50.065  38.896  46.425  1.00  0.00     0.161 A 
ATOM     11  C   UNL     1      50.351  40.109  47.066  1.00  0.00     0.201 A 
ENDROOT
BRANCH   1  12
ATOM     12  C   UNL     1      46.728  44.458  46.915  1.00  0.00    -0.011 A 
ATOM     13  C   UNL     1      45.630  44.512  47.792  1.00  0.00     0.013 A 
ATOM     14  C   UNL     1      44.779  45.621  47.793  1.00  0.00     0.047 A 
ATOM     15  C   UNL     1      45.017  46.693  46.921  1.00  0.00     0.115 A 
ATOM     16  C   UNL     1      46.963  45.540  46.047  1.00  0.00     0.013 A 
ATOM     17  C   UNL     1      46.110  46.648  46.050  1.00  0.00     0.047 A 
BRANCH  15  18
ATOM     18  O   UNL     1      44.175  47.803  46.912  1.00  0.00    -0.508 OA
ATOM     19  H   UNL     1      44.376  48.623  47.473  1.00  0.00     0.293 HD
ENDBRANCH  15  18
ENDBRANCH   1  12
BRANCH  11  20
ATOM     20  O   UNL     1      51.554  40.245  47.760  1.00  0.00    -0.502 OA
ATOM     21  H   UNL     1      52.397  40.590  47.315  1.00  0.00     0.293 HD
ENDBRANCH  11  20
BRANCH  10  22
ATOM     22  O   UNL     1      50.984  37.849  46.491  1.00  0.00    -0.504 OA
ATOM     23  H   UNL     1      51.770  37.874  47.130  1.00  0.00     0.293 HD
ENDBRANCH  10  22
TORSDOF 4
ENDMDL
MODEL 6
REMARK VINA RESULT:    -7.451      8.795      9.522
REMARK INTER + INTRA:          -8.252
REMARK INTER:                  -8.020
REMARK INTRA:                  -0.232
REMARK UNBOUND:                 0.288
REMARK SMILES O=c1c(-c2ccc(O)cc2)coc2c(O)c(O)ccc12
REMARK SMILES IDX 3 1 11 2 12 3 13 4 20 5 2 6 1 7 19 8 18 9 16 10 14 11 4 12
REMARK SMILES IDX 5 13 6 14 7 15 10 16 9 17 8 18 15 20 17 22
REMARK H PARENT 8 19 15 21 17 23
REMARK Flexibility Score: inf
ROOT
ATOM      1  C   UNL     1      49.026  45.700  35.995  1.00  0.00     0.065 A 
ATOM      2  C   UNL     1      48.362  46.802  36.556  1.00  0.00     0.208 A 
ATOM      3  O   UNL     1      48.910  47.498  37.545  1.00  0.00    -0.459 OA
ATOM      4  C   UNL     1      50.100  47.206  38.060  1.00  0.00     0.183 A 
ATOM      5  C   UNL     1      50.844  46.115  37.553  1.00  0.00     0.069 A 
ATOM      6  C   UNL     1      50.295  45.360  36.501  1.00  0.00     0.200 A 
ATOM      7  O   UNL     1      50.943  44.399  36.002  1.00  0.00    -0.288 OA
ATOM      8  C   UNL     1      52.103  45.821  38.104  1.00  0.00     0.020 A 
ATOM      9  C   UNL     1      52.613  46.598  39.146  1.00  0.00     0.051 A 
ATOM     10  C   UNL     1      51.877  47.677  39.651  1.00  0.00     0.161 A 
ATOM     11  C   UNL     1      50.621  47.984  39.111  1.00  0.00     0.201 A 
ENDROOT
BRANCH   1  12
ATOM     12  C   UNL     1      48.388  44.934  34.895  1.00  0.00    -0.011 A 
ATOM     13  C   UNL     1      47.800  43.681  35.141  1.00  0.00     0.013 A 
ATOM     14  C   UNL     1      47.194  42.967  34.103  1.00  0.00     0.047 A 
ATOM     15  C   UNL     1      47.163  43.499  32.806  1.00  0.00     0.115 A 
ATOM     16  C   UNL     1      48.348  45.463  33.592  1.00  0.00     0.013 A 
ATOM     17  C   UNL     1      47.741  44.747  32.556  1.00  0.00     0.047 A 
BRANCH  15  18
ATOM     18  O   UNL     1      46.563  42.798  31.763  1.00  0.00    -0.508 OA
ATOM     19  H   UNL     1      46.728  41.807  31.628  1.00  0.00     0.293 HD
ENDBRANCH  15  18
ENDBRANCH   1  12
BRANCH  11  20
ATOM     20  O   UNL     1      49.904  49.064  39.627  1.00  0.00    -0.502 OA
ATOM     21  H   UNL     1      49.838  49.950  39.140  1.00  0.00     0.293 HD
ENDBRANCH  11  20
BRANCH  10  22
ATOM     22  O   UNL     1      52.388  48.452  40.691  1.00  0.00    -0.504 OA
ATOM     23  H   UNL     1      53.243  48.197  41.171  1.00  0.00     0.293 HD
ENDBRANCH  10  22
TORSDOF 4
ENDMDL
MODEL 7
REMARK VINA RESULT:    -7.284     10.615     11.547
REMARK INTER + INTRA:          -8.061
REMARK INTER:                  -7.867
REMARK INTRA:                  -0.194
REMARK UNBOUND:                 0.288
REMARK SMILES O=c1c(-c2ccc(O)cc2)coc2c(O)c(O)ccc12
REMARK SMILES IDX 3 1 11 2 12 3 13 4 20 5 2 6 1 7 19 8 18 9 16 10 14 11 4 12
REMARK SMILES IDX 5 13 6 14 7 15 10 16 9 17 8 18 15 20 17 22
REMARK H PARENT 8 19 15 21 17 23
REMARK Flexibility Score: inf
ROOT
ATOM      1  C   UNL     1      50.030  45.755  35.007  1.00  0.00     0.065 A 
ATOM      2  C   UNL     1      51.279  45.502  35.594  1.00  0.00     0.208 A 
ATOM      3  O   UNL     1      52.060  46.499  35.994  1.00  0.00    -0.459 OA
ATOM      4  C   UNL     1      51.719  47.778  35.870  1.00  0.00     0.183 A 
ATOM      5  C   UNL     1      50.475  48.127  35.295  1.00  0.00     0.069 A 
ATOM      6  C   UNL     1      49.621  47.095  34.865  1.00  0.00     0.200 A 
ATOM      7  O   UNL     1      48.491  47.368  34.375  1.00  0.00    -0.288 OA
ATOM      8  C   UNL     1      50.125  49.483  35.174  1.00  0.00     0.020 A 
ATOM      9  C   UNL     1      51.001  50.477  35.616  1.00  0.00     0.051 A 
ATOM     10  C   UNL     1      52.234  50.132  36.184  1.00  0.00     0.161 A 
ATOM     11  C   UNL     1      52.596  48.785  36.313  1.00  0.00     0.201 A 
ENDROOT
BRANCH   1  12
ATOM     12  C   UNL     1      49.179  44.624  34.561  1.00  0.00    -0.011 A 
ATOM     13  C   UNL     1      48.525  43.804  35.499  1.00  0.00     0.013 A 
ATOM     14  C   UNL     1      47.719  42.745  35.073  1.00  0.00     0.047 A 
ATOM     15  C   UNL     1      47.551  42.494  33.704  1.00  0.00     0.115 A 
ATOM     16  C   UNL     1      49.000  44.368  33.190  1.00  0.00     0.013 A 
ATOM     17  C   UNL     1      48.193  43.308  32.766  1.00  0.00     0.047 A 
BRANCH  15  18
ATOM     18  O   UNL     1      46.750  41.441  33.267  1.00  0.00    -0.508 OA
ATOM     19  H   UNL     1      46.369  41.420  32.328  1.00  0.00     0.293 HD
ENDBRANCH  15  18
ENDBRANCH   1  12
BRANCH  11  20
ATOM     20  O   UNL     1      53.828  48.463  36.883  1.00  0.00    -0.502 OA
ATOM     21  H   UNL     1      54.074  47.513  37.135  1.00  0.00     0.293 HD
ENDBRANCH  11  20
BRANCH  10  22
ATOM     22  O   UNL     1      53.107  51.126  36.625  1.00  0.00    -0.504 OA
ATOM     23  H   UNL     1      54.010  50.898  37.023  1.00  0.00     0.293 HD
ENDBRANCH  10  22
TORSDOF 4
ENDMDL
MODEL 8
REMARK VINA RESULT:    -7.185      8.983      9.984
REMARK INTER + INTRA:          -7.947
REMARK INTER:                  -7.669
REMARK INTRA:                  -0.277
REMARK UNBOUND:                 0.288
REMARK SMILES O=c1c(-c2ccc(O)cc2)coc2c(O)c(O)ccc12
REMARK SMILES IDX 3 1 11 2 12 3 13 4 20 5 2 6 1 7 19 8 18 9 16 10 14 11 4 12
REMARK SMILES IDX 5 13 6 14 7 15 10 16 9 17 8 18 15 20 17 22
REMARK H PARENT 8 19 15 21 17 23
REMARK Flexibility Score: inf
ROOT
ATOM      1  C   UNL     1      49.693  45.072  35.825  1.00  0.00     0.065 A 
ATOM      2  C   UNL     1      50.961  44.524  36.073  1.00  0.00     0.208 A 
ATOM      3  O   UNL     1      51.752  45.031  37.012  1.00  0.00    -0.459 OA
ATOM      4  C   UNL     1      51.403  46.069  37.766  1.00  0.00     0.183 A 
ATOM      5  C   UNL     1      50.141  46.681  37.590  1.00  0.00     0.069 A 
ATOM      6  C   UNL     1      49.276  46.166  36.607  1.00  0.00     0.200 A 
ATOM      7  O   UNL     1      48.130  46.667  36.442  1.00  0.00    -0.288 OA
ATOM      8  C   UNL     1      49.783  47.775  38.398  1.00  0.00     0.020 A 
ATOM      9  C   UNL     1      50.670  48.254  39.364  1.00  0.00     0.051 A 
ATOM     10  C   UNL     1      51.921  47.649  39.538  1.00  0.00     0.161 A 
ATOM     11  C   UNL     1      52.291  46.557  38.743  1.00  0.00     0.201 A 
ENDROOT
BRANCH   1  12
ATOM     12  C   UNL     1      48.831  44.492  34.764  1.00  0.00    -0.011 A 
ATOM     13  C   UNL     1      47.986  43.403  35.042  1.00  0.00     0.013 A 
ATOM     14  C   UNL     1      47.170  42.867  34.041  1.00  0.00     0.047 A 
ATOM     15  C   UNL     1      47.186  43.414  32.751  1.00  0.00     0.115 A 
ATOM     16  C   UNL     1      48.836  45.039  33.469  1.00  0.00     0.013 A 
ATOM     17  C   UNL     1      48.020  44.500  32.470  1.00  0.00     0.047 A 
BRANCH  15  18
ATOM     18  O   UNL     1      46.379  42.888  31.745  1.00  0.00    -0.508 OA
ATOM     19  H   UNL     1      45.536  43.362  31.441  1.00  0.00     0.293 HD
ENDBRANCH  15  18
ENDBRANCH   1  12
BRANCH  11  20
ATOM     20  O   UNL     1      53.542  45.969  38.933  1.00  0.00    -0.502 OA
ATOM     21  H   UNL     1      53.663  44.964  38.984  1.00  0.00     0.293 HD
ENDBRANCH  11  20
BRANCH  10  22
ATOM     22  O   UNL     1      52.806  48.129  40.504  1.00  0.00    -0.504 OA
ATOM     23  H   UNL     1      52.475  48.509  41.383  1.00  0.00     0.293 HD
ENDBRANCH  10  22
TORSDOF 4
ENDMDL
MODEL 9
REMARK VINA RESULT:    -7.080      4.905      7.684
REMARK INTER + INTRA:          -7.827
REMARK INTER:                  -7.552
REMARK INTRA:                  -0.276
REMARK UNBOUND:                 0.288
REMARK SMILES O=c1c(-c2ccc(O)cc2)coc2c(O)c(O)ccc12
REMARK SMILES IDX 3 1 11 2 12 3 13 4 20 5 2 6 1 7 19 8 18 9 16 10 14 11 4 12
REMARK SMILES IDX 5 13 6 14 7 15 10 16 9 17 8 18 15 20 17 22
REMARK H PARENT 8 19 15 21 17 23
REMARK Flexibility Score: inf
ROOT
ATOM      1  C   UNL     1      47.308  42.631  46.748  1.00  0.00     0.065 A 
ATOM      2  C   UNL     1      46.769  41.464  46.185  1.00  0.00     0.208 A 
ATOM      3  O   UNL     1      47.517  40.380  46.016  1.00  0.00    -0.459 OA
ATOM      4  C   UNL     1      48.799  40.326  46.362  1.00  0.00     0.183 A 
ATOM      5  C   UNL     1      49.425  41.454  46.941  1.00  0.00     0.069 A 
ATOM      6  C   UNL     1      48.661  42.618  47.139  1.00  0.00     0.200 A 
ATOM      7  O   UNL     1      49.177  43.633  47.682  1.00  0.00    -0.288 OA
ATOM      8  C   UNL     1      50.781  41.381  47.306  1.00  0.00     0.020 A 
ATOM      9  C   UNL     1      51.504  40.205  47.095  1.00  0.00     0.051 A 
ATOM     10  C   UNL     1      50.885  39.088  46.519  1.00  0.00     0.161 A 
ATOM     11  C   UNL     1      49.534  39.144  46.152  1.00  0.00     0.201 A 
ENDROOT
BRANCH   1  12
ATOM     12  C   UNL     1      46.454  43.833  46.919  1.00  0.00    -0.011 A 
ATOM     13  C   UNL     1      45.779  44.067  48.130  1.00  0.00     0.013 A 
ATOM     14  C   UNL     1      44.983  45.205  48.289  1.00  0.00     0.047 A 
ATOM     15  C   UNL     1      44.853  46.126  47.240  1.00  0.00     0.115 A 
ATOM     16  C   UNL     1      46.324  44.765  45.874  1.00  0.00     0.013 A 
ATOM     17  C   UNL     1      45.526  45.902  46.035  1.00  0.00     0.047 A 
BRANCH  15  18
ATOM     18  O   UNL     1      44.062  47.263  47.386  1.00  0.00    -0.508 OA
ATOM     19  H   UNL     1      43.107  47.203  47.720  1.00  0.00     0.293 HD
ENDBRANCH  15  18
ENDBRANCH   1  12
BRANCH  11  20
ATOM     20  O   UNL     1      48.937  38.020  45.581  1.00  0.00    -0.502 OA
ATOM     21  H   UNL     1      49.373  37.105  45.608  1.00  0.00     0.293 HD
ENDBRANCH  11  20
BRANCH  10  22
ATOM     22  O   UNL     1      51.608  37.914  46.309  1.00  0.00    -0.504 OA
ATOM     23  H   UNL     1      52.545  37.931  45.925  1.00  0.00     0.293 HD
ENDBRANCH  10  22
TORSDOF 4
ENDMDL
