MODEL 1
REMARK VINA RESULT:    -5.028      0.000      0.000
REMARK INTER + INTRA:          -6.807
REMARK INTER:                  -6.351
REMARK INTRA:                  -0.456
REMARK UNBOUND:                -0.456
REMARK SMILES Oc1ccc(CCc2cc(O)cc(O)c2)cc1
REMARK SMILES IDX 6 1 5 2 4 3 3 4 2 5 16 6 17 7 1 8 7 10 8 11 15 12 9 13 13 14
REMARK SMILES IDX 10 15 12 16 14 17 11 19
REMARK H PARENT 1 9 14 18 11 20
REMARK Flexibility Score: inf
ROOT
ATOM      1  C   UNL     1     -20.666  23.604  13.037  1.00  0.00     0.040 C 
ENDROOT
BRANCH   1   2
ATOM      2  C   UNL     1     -20.571  23.541  14.538  1.00  0.00    -0.047 A 
ATOM      3  C   UNL     1     -21.712  23.266  15.310  1.00  0.00     0.007 A 
ATOM      4  C   UNL     1     -21.616  23.176  16.702  1.00  0.00     0.046 A 
ATOM      5  C   UNL     1     -20.377  23.349  17.335  1.00  0.00     0.115 A 
ATOM      6  C   UNL     1     -19.330  23.701  15.176  1.00  0.00     0.007 A 
ATOM      7  C   UNL     1     -19.236  23.609  16.569  1.00  0.00     0.046 A 
BRANCH   5   8
ATOM      8  O   UNL     1     -20.270  23.260  18.721  1.00  0.00    -0.508 OA
ATOM      9  H   UNL     1     -21.017  22.877  19.287  1.00  0.00     0.293 HD
ENDBRANCH   5   8
ENDBRANCH   1   2
BRANCH   1  10
ATOM     10  C   UNL     1     -22.027  23.088  12.562  1.00  0.00     0.040 C 
BRANCH  10  11
ATOM     11  C   UNL     1     -22.499  23.864  11.362  1.00  0.00    -0.040 A 
ATOM     12  C   UNL     1     -23.081  23.198  10.272  1.00  0.00     0.050 A 
ATOM     13  C   UNL     1     -22.413  25.267  11.348  1.00  0.00     0.050 A 
ATOM     14  C   UNL     1     -23.551  23.924   9.169  1.00  0.00     0.119 A 
ATOM     15  C   UNL     1     -22.881  25.993  10.248  1.00  0.00     0.119 A 
ATOM     16  C   UNL     1     -23.448  25.319   9.158  1.00  0.00     0.092 A 
BRANCH  14  17
ATOM     17  O   UNL     1     -24.124  23.269   8.081  1.00  0.00    -0.508 OA
ATOM     18  H   UNL     1     -23.583  22.648   7.491  1.00  0.00     0.293 HD
ENDBRANCH  14  17
BRANCH  15  19
ATOM     19  O   UNL     1     -22.781  27.382  10.250  1.00  0.00    -0.508 OA
ATOM     20  H   UNL     1     -23.302  27.949  10.909  1.00  0.00     0.293 HD
ENDBRANCH  15  19
ENDBRANCH  10  11
ENDBRANCH   1  10
TORSDOF 6
ENDMDL
MODEL 2
REMARK VINA RESULT:    -4.861      0.567      2.423
REMARK INTER + INTRA:          -6.596
REMARK INTER:                  -6.170
REMARK INTRA:                  -0.426
REMARK UNBOUND:                -0.456
REMARK SMILES Oc1ccc(CCc2cc(O)cc(O)c2)cc1
REMARK SMILES IDX 6 1 5 2 4 3 3 4 2 5 16 6 17 7 1 8 7 10 8 11 15 12 9 13 13 14
REMARK SMILES IDX 10 15 12 16 14 17 11 19
REMARK H PARENT 1 9 14 18 11 20
REMARK Flexibility Score: inf
ROOT
ATOM      1  C   UNL     1     -22.353  23.171  13.647  1.00  0.00     0.040 C 
ENDROOT
BRANCH   1   2
ATOM      2  C   UNL     1     -21.522  23.279  14.897  1.00  0.00    -0.047 A 
ATOM      3  C   UNL     1     -20.141  23.519  14.812  1.00  0.00     0.007 A 
ATOM      4  C   UNL     1     -19.375  23.652  15.975  1.00  0.00     0.046 A 
ATOM      5  C   UNL     1     -19.985  23.555  17.234  1.00  0.00     0.115 A 
ATOM      6  C   UNL     1     -22.130  23.197  16.161  1.00  0.00     0.007 A 
ATOM      7  C   UNL     1     -21.363  23.329  17.323  1.00  0.00     0.046 A 
BRANCH   5   8
ATOM      8  O   UNL     1     -19.232  23.686  18.399  1.00  0.00    -0.508 OA
ATOM      9  H   UNL     1     -18.827  24.573  18.671  1.00  0.00     0.293 HD
ENDBRANCH   5   8
ENDBRANCH   1   2
BRANCH   1  10
ATOM     10  C   UNL     1     -21.474  23.319  12.402  1.00  0.00     0.040 C 
BRANCH  10  11
ATOM     11  C   UNL     1     -22.227  24.018  11.302  1.00  0.00    -0.040 A 
ATOM     12  C   UNL     1     -22.270  25.421  11.254  1.00  0.00     0.050 A 
ATOM     13  C   UNL     1     -22.843  23.274  10.282  1.00  0.00     0.050 A 
ATOM     14  C   UNL     1     -22.943  26.072  10.211  1.00  0.00     0.119 A 
ATOM     15  C   UNL     1     -23.514  23.922   9.241  1.00  0.00     0.119 A 
ATOM     16  C   UNL     1     -23.566  25.322   9.208  1.00  0.00     0.092 A 
BRANCH  14  17
ATOM     17  O   UNL     1     -22.995  27.463  10.161  1.00  0.00    -0.508 OA
ATOM     18  H   UNL     1     -23.587  27.948   9.496  1.00  0.00     0.293 HD
ENDBRANCH  14  17
BRANCH  15  19
ATOM     19  O   UNL     1     -24.125  23.166   8.243  1.00  0.00    -0.508 OA
ATOM     20  H   UNL     1     -23.606  22.832   7.439  1.00  0.00     0.293 HD
ENDBRANCH  15  19
ENDBRANCH  10  11
ENDBRANCH   1  10
TORSDOF 6
ENDMDL
MODEL 3
REMARK VINA RESULT:    -4.811      1.640      6.780
REMARK INTER + INTRA:          -6.533
REMARK INTER:                  -5.993
REMARK INTRA:                  -0.541
REMARK UNBOUND:                -0.456
REMARK SMILES Oc1ccc(CCc2cc(O)cc(O)c2)cc1
REMARK SMILES IDX 6 1 5 2 4 3 3 4 2 5 16 6 17 7 1 8 7 10 8 11 15 12 9 13 13 14
REMARK SMILES IDX 10 15 12 16 14 17 11 19
REMARK H PARENT 1 9 14 18 11 20
REMARK Flexibility Score: inf
ROOT
ATOM      1  C   UNL     1     -22.980  22.938  11.375  1.00  0.00     0.040 C 
ENDROOT
BRANCH   1   2
ATOM      2  C   UNL     1     -23.114  24.154  10.498  1.00  0.00    -0.047 A 
ATOM      3  C   UNL     1     -23.559  24.026   9.172  1.00  0.00     0.007 A 
ATOM      4  C   UNL     1     -23.714  25.160   8.368  1.00  0.00     0.046 A 
ATOM      5  C   UNL     1     -23.435  26.433   8.886  1.00  0.00     0.115 A 
ATOM      6  C   UNL     1     -22.848  25.432  11.015  1.00  0.00     0.007 A 
ATOM      7  C   UNL     1     -23.004  26.565  10.210  1.00  0.00     0.046 A 
BRANCH   5   8
ATOM      8  O   UNL     1     -23.586  27.569   8.094  1.00  0.00    -0.508 OA
ATOM      9  H   UNL     1     -23.445  27.539   7.092  1.00  0.00     0.293 HD
ENDBRANCH   5   8
ENDBRANCH   1   2
BRANCH   1  10
ATOM     10  C   UNL     1     -21.583  22.875  11.997  1.00  0.00     0.040 C 
BRANCH  10  11
ATOM     11  C   UNL     1     -21.654  23.099  13.484  1.00  0.00    -0.040 A 
ATOM     12  C   UNL     1     -22.861  22.895  14.174  1.00  0.00     0.050 A 
ATOM     13  C   UNL     1     -20.500  23.455  14.202  1.00  0.00     0.050 A 
ATOM     14  C   UNL     1     -22.919  23.070  15.563  1.00  0.00     0.119 A 
ATOM     15  C   UNL     1     -20.557  23.630  15.589  1.00  0.00     0.119 A 
ATOM     16  C   UNL     1     -21.768  23.440  16.267  1.00  0.00     0.092 A 
BRANCH  14  17
ATOM     17  O   UNL     1     -24.113  22.877  16.253  1.00  0.00    -0.508 OA
ATOM     18  H   UNL     1     -25.011  23.049  15.816  1.00  0.00     0.293 HD
ENDBRANCH  14  17
BRANCH  15  19
ATOM     19  O   UNL     1     -19.404  23.991  16.282  1.00  0.00    -0.508 OA
ATOM     20  H   UNL     1     -19.367  23.970  17.295  1.00  0.00     0.293 HD
ENDBRANCH  15  19
ENDBRANCH  10  11
ENDBRANCH   1  10
TORSDOF 6
ENDMDL
MODEL 4
REMARK VINA RESULT:    -4.781      1.631      6.909
REMARK INTER + INTRA:          -6.495
REMARK INTER:                  -5.947
REMARK INTRA:                  -0.547
REMARK UNBOUND:                -0.456
REMARK SMILES Oc1ccc(CCc2cc(O)cc(O)c2)cc1
REMARK SMILES IDX 6 1 5 2 4 3 3 4 2 5 16 6 17 7 1 8 7 10 8 11 15 12 9 13 13 14
REMARK SMILES IDX 10 15 12 16 14 17 11 19
REMARK H PARENT 1 9 14 18 11 20
REMARK Flexibility Score: inf
ROOT
ATOM      1  C   UNL     1     -22.922  22.992  11.418  1.00  0.00     0.040 C 
ENDROOT
BRANCH   1   2
ATOM      2  C   UNL     1     -23.082  24.205  10.542  1.00  0.00    -0.047 A 
ATOM      3  C   UNL     1     -23.562  24.074   9.229  1.00  0.00     0.007 A 
ATOM      4  C   UNL     1     -23.742  25.206   8.427  1.00  0.00     0.046 A 
ATOM      5  C   UNL     1     -23.452  26.480   8.934  1.00  0.00     0.115 A 
ATOM      6  C   UNL     1     -22.806  25.486  11.049  1.00  0.00     0.007 A 
ATOM      7  C   UNL     1     -22.986  26.617  10.246  1.00  0.00     0.046 A 
BRANCH   5   8
ATOM      8  O   UNL     1     -23.627  27.614   8.144  1.00  0.00    -0.508 OA
ATOM      9  H   UNL     1     -22.929  27.903   7.470  1.00  0.00     0.293 HD
ENDBRANCH   5   8
ENDBRANCH   1   2
BRANCH   1  10
ATOM     10  C   UNL     1     -21.519  22.952  12.030  1.00  0.00     0.040 C 
BRANCH  10  11
ATOM     11  C   UNL     1     -21.588  23.119  13.525  1.00  0.00    -0.040 A 
ATOM     12  C   UNL     1     -20.431  23.429  14.257  1.00  0.00     0.050 A 
ATOM     13  C   UNL     1     -22.822  23.024  14.191  1.00  0.00     0.050 A 
ATOM     14  C   UNL     1     -20.502  23.617  15.645  1.00  0.00     0.119 A 
ATOM     15  C   UNL     1     -22.894  23.211  15.575  1.00  0.00     0.119 A 
ATOM     16  C   UNL     1     -21.732  23.505  16.301  1.00  0.00     0.092 A 
BRANCH  14  17
ATOM     17  O   UNL     1     -19.357  23.918  16.379  1.00  0.00    -0.508 OA
ATOM     18  H   UNL     1     -18.816  24.755  16.197  1.00  0.00     0.293 HD
ENDBRANCH  14  17
BRANCH  15  19
ATOM     19  O   UNL     1     -24.125  23.105  16.218  1.00  0.00    -0.508 OA
ATOM     20  H   UNL     1     -24.215  23.256  17.216  1.00  0.00     0.293 HD
ENDBRANCH  15  19
ENDBRANCH  10  11
ENDBRANCH   1  10
TORSDOF 6
ENDMDL
MODEL 5
REMARK VINA RESULT:    -4.671     15.956     17.742
REMARK INTER + INTRA:          -6.356
REMARK INTER:                  -5.741
REMARK INTRA:                  -0.615
REMARK UNBOUND:                -0.456
REMARK SMILES Oc1ccc(CCc2cc(O)cc(O)c2)cc1
REMARK SMILES IDX 6 1 5 2 4 3 3 4 2 5 16 6 17 7 1 8 7 10 8 11 15 12 9 13 13 14
REMARK SMILES IDX 10 15 12 16 14 17 11 19
REMARK H PARENT 1 9 14 18 11 20
REMARK Flexibility Score: inf
ROOT
ATOM      1  C   UNL     1     -21.836  39.348  23.404  1.00  0.00     0.040 C 
ENDROOT
BRANCH   1   2
ATOM      2  C   UNL     1     -21.125  40.304  22.485  1.00  0.00    -0.047 A 
ATOM      3  C   UNL     1     -19.897  40.871  22.864  1.00  0.00     0.007 A 
ATOM      4  C   UNL     1     -19.221  41.734  21.995  1.00  0.00     0.046 A 
ATOM      5  C   UNL     1     -19.762  42.031  20.736  1.00  0.00     0.115 A 
ATOM      6  C   UNL     1     -21.655  40.595  21.217  1.00  0.00     0.007 A 
ATOM      7  C   UNL     1     -20.978  41.458  20.350  1.00  0.00     0.046 A 
BRANCH   5   8
ATOM      8  O   UNL     1     -19.097  42.890  19.863  1.00  0.00    -0.508 OA
ATOM      9  H   UNL     1     -18.333  42.567  19.283  1.00  0.00     0.293 HD
ENDBRANCH   5   8
ENDBRANCH   1   2
BRANCH   1  10
ATOM     10  C   UNL     1     -22.964  38.626  22.660  1.00  0.00     0.040 C 
BRANCH  10  11
ATOM     11  C   UNL     1     -22.589  37.193  22.392  1.00  0.00    -0.040 A 
ATOM     12  C   UNL     1     -22.859  36.614  21.142  1.00  0.00     0.050 A 
ATOM     13  C   UNL     1     -21.914  36.444  23.369  1.00  0.00     0.050 A 
ATOM     14  C   UNL     1     -22.480  35.290  20.880  1.00  0.00     0.119 A 
ATOM     15  C   UNL     1     -21.535  35.122  23.110  1.00  0.00     0.119 A 
ATOM     16  C   UNL     1     -21.821  34.546  21.865  1.00  0.00     0.092 A 
BRANCH  14  17
ATOM     17  O   UNL     1     -22.750  34.706  19.645  1.00  0.00    -0.508 OA
ATOM     18  H   UNL     1     -23.150  35.240  18.882  1.00  0.00     0.293 HD
ENDBRANCH  14  17
BRANCH  15  19
ATOM     19  O   UNL     1     -20.873  34.393  24.094  1.00  0.00    -0.508 OA
ATOM     20  H   UNL     1     -20.059  34.764  24.571  1.00  0.00     0.293 HD
ENDBRANCH  15  19
ENDBRANCH  10  11
ENDBRANCH   1  10
TORSDOF 6
ENDMDL
MODEL 6
REMARK VINA RESULT:    -4.648     15.855     17.705
REMARK INTER + INTRA:          -6.327
REMARK INTER:                  -5.724
REMARK INTRA:                  -0.603
REMARK UNBOUND:                -0.456
REMARK SMILES Oc1ccc(CCc2cc(O)cc(O)c2)cc1
REMARK SMILES IDX 6 1 5 2 4 3 3 4 2 5 16 6 17 7 1 8 7 10 8 11 15 12 9 13 13 14
REMARK SMILES IDX 10 15 12 16 14 17 11 19
REMARK H PARENT 1 9 14 18 11 20
REMARK Flexibility Score: inf
ROOT
ATOM      1  C   UNL     1     -21.899  39.233  23.426  1.00  0.00     0.040 C 
ENDROOT
BRANCH   1   2
ATOM      2  C   UNL     1     -21.198  40.200  22.511  1.00  0.00    -0.047 A 
ATOM      3  C   UNL     1     -20.016  40.836  22.923  1.00  0.00     0.007 A 
ATOM      4  C   UNL     1     -19.348  41.710  22.059  1.00  0.00     0.046 A 
ATOM      5  C   UNL     1     -19.850  41.949  20.771  1.00  0.00     0.115 A 
ATOM      6  C   UNL     1     -21.690  40.433  21.216  1.00  0.00     0.007 A 
ATOM      7  C   UNL     1     -21.020  41.307  20.353  1.00  0.00     0.046 A 
BRANCH   5   8
ATOM      8  O   UNL     1     -19.193  42.817  19.903  1.00  0.00    -0.508 OA
ATOM      9  H   UNL     1     -18.760  42.486  19.050  1.00  0.00     0.293 HD
ENDBRANCH   5   8
ENDBRANCH   1   2
BRANCH   1  10
ATOM     10  C   UNL     1     -22.991  38.472  22.669  1.00  0.00     0.040 C 
BRANCH  10  11
ATOM     11  C   UNL     1     -22.548  37.064  22.373  1.00  0.00    -0.040 A 
ATOM     12  C   UNL     1     -21.883  36.310  23.353  1.00  0.00     0.050 A 
ATOM     13  C   UNL     1     -22.849  36.474  21.134  1.00  0.00     0.050 A 
ATOM     14  C   UNL     1     -21.500  34.988  23.089  1.00  0.00     0.119 A 
ATOM     15  C   UNL     1     -22.468  35.155  20.869  1.00  0.00     0.119 A 
ATOM     16  C   UNL     1     -21.791  34.414  21.847  1.00  0.00     0.092 A 
BRANCH  14  17
ATOM     17  O   UNL     1     -20.834  34.236  24.054  1.00  0.00    -0.508 OA
ATOM     18  H   UNL     1     -19.931  33.815  23.868  1.00  0.00     0.293 HD
ENDBRANCH  14  17
BRANCH  15  19
ATOM     19  O   UNL     1     -22.768  34.589  19.632  1.00  0.00    -0.508 OA
ATOM     20  H   UNL     1     -22.915  33.592  19.528  1.00  0.00     0.293 HD
ENDBRANCH  15  19
ENDBRANCH  10  11
ENDBRANCH   1  10
TORSDOF 6
ENDMDL
MODEL 7
REMARK VINA RESULT:    -4.644     10.180     12.557
REMARK INTER + INTRA:          -6.322
REMARK INTER:                  -5.831
REMARK INTRA:                  -0.491
REMARK UNBOUND:                -0.456
REMARK SMILES Oc1ccc(CCc2cc(O)cc(O)c2)cc1
REMARK SMILES IDX 6 1 5 2 4 3 3 4 2 5 16 6 17 7 1 8 7 10 8 11 15 12 9 13 13 14
REMARK SMILES IDX 10 15 12 16 14 17 11 19
REMARK H PARENT 1 9 14 18 11 20
REMARK Flexibility Score: inf
ROOT
ATOM      1  C   UNL     1     -20.099  31.252  22.224  1.00  0.00     0.040 C 
ENDROOT
BRANCH   1   2
ATOM      2  C   UNL     1     -20.720  30.206  21.337  1.00  0.00    -0.047 A 
ATOM      3  C   UNL     1     -22.034  29.770  21.569  1.00  0.00     0.007 A 
ATOM      4  C   UNL     1     -22.621  28.822  20.724  1.00  0.00     0.046 A 
ATOM      5  C   UNL     1     -21.903  28.309  19.634  1.00  0.00     0.115 A 
ATOM      6  C   UNL     1     -20.010  29.699  20.237  1.00  0.00     0.007 A 
ATOM      7  C   UNL     1     -20.598  28.752  19.393  1.00  0.00     0.046 A 
BRANCH   5   8
ATOM      8  O   UNL     1     -22.478  27.365  18.787  1.00  0.00    -0.508 OA
ATOM      9  H   UNL     1     -21.938  26.905  18.064  1.00  0.00     0.293 HD
ENDBRANCH   5   8
ENDBRANCH   1   2
BRANCH   1  10
ATOM     10  C   UNL     1     -21.164  31.915  23.102  1.00  0.00     0.040 C 
BRANCH  10  11
ATOM     11  C   UNL     1     -21.531  33.269  22.558  1.00  0.00    -0.040 A 
ATOM     12  C   UNL     1     -22.074  33.392  21.268  1.00  0.00     0.050 A 
ATOM     13  C   UNL     1     -21.388  34.415  23.358  1.00  0.00     0.050 A 
ATOM     14  C   UNL     1     -22.447  34.650  20.775  1.00  0.00     0.119 A 
ATOM     15  C   UNL     1     -21.759  35.671  22.867  1.00  0.00     0.119 A 
ATOM     16  C   UNL     1     -22.286  35.787  21.574  1.00  0.00     0.092 A 
BRANCH  14  17
ATOM     17  O   UNL     1     -22.980  34.780  19.495  1.00  0.00    -0.508 OA
ATOM     18  H   UNL     1     -23.861  35.252  19.333  1.00  0.00     0.293 HD
ENDBRANCH  14  17
BRANCH  15  19
ATOM     19  O   UNL     1     -21.602  36.797  23.672  1.00  0.00    -0.508 OA
ATOM     20  H   UNL     1     -20.698  37.057  24.049  1.00  0.00     0.293 HD
ENDBRANCH  15  19
ENDBRANCH  10  11
ENDBRANCH   1  10
TORSDOF 6
ENDMDL
MODEL 8
REMARK VINA RESULT:    -4.579     10.189     12.747
REMARK INTER + INTRA:          -6.240
REMARK INTER:                  -5.788
REMARK INTRA:                  -0.452
REMARK UNBOUND:                -0.456
REMARK SMILES Oc1ccc(CCc2cc(O)cc(O)c2)cc1
REMARK SMILES IDX 6 1 5 2 4 3 3 4 2 5 16 6 17 7 1 8 7 10 8 11 15 12 9 13 13 14
REMARK SMILES IDX 10 15 12 16 14 17 11 19
REMARK H PARENT 1 9 14 18 11 20
REMARK Flexibility Score: inf
ROOT
ATOM      1  C   UNL     1     -20.181  31.262  22.215  1.00  0.00     0.040 C 
ENDROOT
BRANCH   1   2
ATOM      2  C   UNL     1     -20.782  30.252  21.274  1.00  0.00    -0.047 A 
ATOM      3  C   UNL     1     -20.005  29.686  20.251  1.00  0.00     0.007 A 
ATOM      4  C   UNL     1     -20.556  28.724  19.397  1.00  0.00     0.046 A 
ATOM      5  C   UNL     1     -21.886  28.313  19.565  1.00  0.00     0.115 A 
ATOM      6  C   UNL     1     -22.110  29.828  21.445  1.00  0.00     0.007 A 
ATOM      7  C   UNL     1     -22.659  28.866  20.591  1.00  0.00     0.046 A 
BRANCH   5   8
ATOM      8  O   UNL     1     -22.445  27.356  18.721  1.00  0.00    -0.508 OA
ATOM      9  H   UNL     1     -22.282  27.372  17.722  1.00  0.00     0.293 HD
ENDBRANCH   5   8
ENDBRANCH   1   2
BRANCH   1  10
ATOM     10  C   UNL     1     -21.266  31.893  23.091  1.00  0.00     0.040 C 
BRANCH  10  11
ATOM     11  C   UNL     1     -21.629  33.262  22.582  1.00  0.00    -0.040 A 
ATOM     12  C   UNL     1     -21.437  34.393  23.392  1.00  0.00     0.050 A 
ATOM     13  C   UNL     1     -22.106  33.425  21.270  1.00  0.00     0.050 A 
ATOM     14  C   UNL     1     -21.743  35.671  22.905  1.00  0.00     0.119 A 
ATOM     15  C   UNL     1     -22.412  34.699  20.783  1.00  0.00     0.119 A 
ATOM     16  C   UNL     1     -22.233  35.821  21.603  1.00  0.00     0.092 A 
BRANCH  14  17
ATOM     17  O   UNL     1     -21.562  36.797  23.705  1.00  0.00    -0.508 OA
ATOM     18  H   UNL     1     -20.952  37.555  23.423  1.00  0.00     0.293 HD
ENDBRANCH  14  17
BRANCH  15  19
ATOM     19  O   UNL     1     -22.892  34.840  19.483  1.00  0.00    -0.508 OA
ATOM     20  H   UNL     1     -22.693  35.668  18.933  1.00  0.00     0.293 HD
ENDBRANCH  15  19
ENDBRANCH  10  11
ENDBRANCH   1  10
TORSDOF 6
ENDMDL
MODEL 9
REMARK VINA RESULT:    -4.528     10.579     13.120
REMARK INTER + INTRA:          -6.175
REMARK INTER:                  -5.712
REMARK INTRA:                  -0.463
REMARK UNBOUND:                -0.456
REMARK SMILES Oc1ccc(CCc2cc(O)cc(O)c2)cc1
REMARK SMILES IDX 6 1 5 2 4 3 3 4 2 5 16 6 17 7 1 8 7 10 8 11 15 12 9 13 13 14
REMARK SMILES IDX 10 15 12 16 14 17 11 19
REMARK H PARENT 1 9 14 18 11 20
REMARK Flexibility Score: inf
ROOT
ATOM      1  C   UNL     1     -21.012  32.872  22.625  1.00  0.00     0.040 C 
ENDROOT
BRANCH   1   2
ATOM      2  C   UNL     1     -21.491  34.269  22.335  1.00  0.00    -0.047 A 
ATOM      3  C   UNL     1     -21.882  34.629  21.035  1.00  0.00     0.007 A 
ATOM      4  C   UNL     1     -22.358  35.919  20.774  1.00  0.00     0.046 A 
ATOM      5  C   UNL     1     -22.457  36.856  21.811  1.00  0.00     0.115 A 
ATOM      6  C   UNL     1     -21.605  35.208  23.373  1.00  0.00     0.007 A 
ATOM      7  C   UNL     1     -22.081  36.497  23.110  1.00  0.00     0.046 A 
BRANCH   5   8
ATOM      8  O   UNL     1     -22.930  38.143  21.563  1.00  0.00    -0.508 OA
ATOM      9  H   UNL     1     -23.262  38.417  20.646  1.00  0.00     0.293 HD
ENDBRANCH   5   8
ENDBRANCH   1   2
BRANCH   1  10
ATOM     10  C   UNL     1     -22.055  31.843  22.183  1.00  0.00     0.040 C 
BRANCH  10  11
ATOM     11  C   UNL     1     -21.399  30.707  21.445  1.00  0.00    -0.040 A 
ATOM     12  C   UNL     1     -20.090  30.316  21.767  1.00  0.00     0.050 A 
ATOM     13  C   UNL     1     -22.114  29.990  20.470  1.00  0.00     0.050 A 
ATOM     14  C   UNL     1     -19.491  29.236  21.104  1.00  0.00     0.119 A 
ATOM     15  C   UNL     1     -21.518  28.913  19.807  1.00  0.00     0.119 A 
ATOM     16  C   UNL     1     -20.205  28.539  20.123  1.00  0.00     0.092 A 
BRANCH  14  17
ATOM     17  O   UNL     1     -18.189  28.847  21.413  1.00  0.00    -0.508 OA
ATOM     18  H   UNL     1     -17.811  28.957  22.347  1.00  0.00     0.293 HD
ENDBRANCH  14  17
BRANCH  15  19
ATOM     19  O   UNL     1     -22.239  28.219  18.838  1.00  0.00    -0.508 OA
ATOM     20  H   UNL     1     -22.330  28.571  17.893  1.00  0.00     0.293 HD
ENDBRANCH  15  19
ENDBRANCH  10  11
ENDBRANCH   1  10
TORSDOF 6
ENDMDL
