MODEL 1
REMARK VINA RESULT:    -9.888      0.000      0.000
REMARK INTER + INTRA:         -10.847
REMARK INTER:                 -10.755
REMARK INTRA:                  -0.092
REMARK UNBOUND:                -0.092
REMARK SMILES CC(=O)[C@H]1CC[C@H]2[C@@H]3CC=C4C[C@@H](O)CC[C@]4(C)[C@@H]3CC[C@]12C
REMARK SMILES IDX 4 1 5 2 6 3 7 4 22 5 21 6 20 7 19 8 8 9 9 10 10 11 11 12
REMARK SMILES IDX 17 13 16 14 15 15 13 16 12 17 18 18 23 19 2 20 1 21 3 22
REMARK SMILES IDX 14 23
REMARK H PARENT 14 24
REMARK Flexibility Score: inf
ROOT
ATOM      1  C   UNL     1     -20.113 -41.457  23.794  1.00  0.00     0.062 C 
ATOM      2  C   UNL     1     -20.679 -40.742  22.537  1.00  0.00     0.012 C 
ATOM      3  C   UNL     1     -19.924 -39.405  22.411  1.00  0.00     0.005 C 
ATOM      4  C   UNL     1     -18.837 -39.492  23.474  1.00  0.00    -0.001 C 
ATOM      5  C   UNL     1     -19.457 -40.309  24.610  1.00  0.00    -0.020 C 
ATOM      6  C   UNL     1     -18.297 -40.775  25.552  1.00  0.00     0.008 C 
ATOM      7  C   UNL     1     -17.109 -39.765  25.654  1.00  0.00     0.005 C 
ATOM      8  C   UNL     1     -17.555 -38.300  25.375  1.00  0.00     0.003 C 
ATOM      9  C   UNL     1     -18.134 -38.171  23.922  1.00  0.00     0.000 C 
ATOM     10  C   UNL     1     -17.031 -37.850  22.893  1.00  0.00     0.031 C 
ATOM     11  C   UNL     1     -16.075 -36.791  23.321  1.00  0.00    -0.027 C 
ATOM     12  C   UNL     1     -15.715 -36.602  24.602  1.00  0.00    -0.065 C 
ATOM     13  C   UNL     1     -16.565 -37.116  25.769  1.00  0.00    -0.008 C 
ATOM     14  C   UNL     1     -15.606 -37.534  26.926  1.00  0.00     0.014 C 
ATOM     15  C   UNL     1     -14.565 -36.464  27.288  1.00  0.00     0.033 C 
ATOM     16  C   UNL     1     -13.718 -36.098  26.060  1.00  0.00     0.118 C 
ATOM     17  C   UNL     1     -14.594 -35.617  24.892  1.00  0.00     0.063 C 
ATOM     18  C   UNL     1     -17.444 -35.924  26.247  1.00  0.00     0.016 C 
ATOM     19  C   UNL     1     -20.568 -39.508  25.384  1.00  0.00     0.012 C 
ENDROOT
BRANCH   1  20
ATOM     20  C   UNL     1     -21.130 -42.299  24.551  1.00  0.00     0.133 C 
ATOM     21  C   UNL     1     -20.736 -43.126  25.741  1.00  0.00     0.088 C 
ATOM     22  O   UNL     1     -22.309 -42.256  24.234  1.00  0.00    -0.300 OA
ENDBRANCH   1  20
BRANCH  16  23
ATOM     23  O   UNL     1     -12.756 -35.129  26.391  1.00  0.00    -0.393 OA
ATOM     24  H   UNL     1     -11.957 -35.290  25.821  1.00  0.00     0.210 HD
ENDBRANCH  16  23
TORSDOF 2
ENDMDL
MODEL 2
REMARK VINA RESULT:    -9.508      0.991      1.068
REMARK INTER + INTRA:         -10.433
REMARK INTER:                 -10.342
REMARK INTRA:                  -0.091
REMARK UNBOUND:                -0.092
REMARK SMILES CC(=O)[C@H]1CC[C@H]2[C@@H]3CC=C4C[C@@H](O)CC[C@]4(C)[C@@H]3CC[C@]12C
REMARK SMILES IDX 4 1 5 2 6 3 7 4 22 5 21 6 20 7 19 8 8 9 9 10 10 11 11 12
REMARK SMILES IDX 17 13 16 14 15 15 13 16 12 17 18 18 23 19 2 20 1 21 3 22
REMARK SMILES IDX 14 23
REMARK H PARENT 14 24
REMARK Flexibility Score: inf
ROOT
ATOM      1  C   UNL     1     -20.439 -42.135  23.561  1.00  0.00     0.062 C 
ATOM      2  C   UNL     1     -21.081 -41.392  22.357  1.00  0.00     0.012 C 
ATOM      3  C   UNL     1     -20.419 -40.002  22.293  1.00  0.00     0.005 C 
ATOM      4  C   UNL     1     -19.305 -40.074  23.327  1.00  0.00    -0.001 C 
ATOM      5  C   UNL     1     -19.842 -40.991  24.427  1.00  0.00    -0.020 C 
ATOM      6  C   UNL     1     -18.632 -41.429  25.319  1.00  0.00     0.008 C 
ATOM      7  C   UNL     1     -17.512 -40.348  25.454  1.00  0.00     0.005 C 
ATOM      8  C   UNL     1     -18.060 -38.903  25.268  1.00  0.00     0.003 C 
ATOM      9  C   UNL     1     -18.681 -38.734  23.835  1.00  0.00     0.000 C 
ATOM     10  C   UNL     1     -17.625 -38.283  22.805  1.00  0.00     0.031 C 
ATOM     11  C   UNL     1     -16.732 -37.187  23.274  1.00  0.00    -0.027 C 
ATOM     12  C   UNL     1     -16.356 -37.045  24.555  1.00  0.00    -0.065 C 
ATOM     13  C   UNL     1     -17.143 -37.678  25.708  1.00  0.00    -0.008 C 
ATOM     14  C   UNL     1     -16.131 -38.093  26.821  1.00  0.00     0.014 C 
ATOM     15  C   UNL     1     -15.156 -36.976  27.223  1.00  0.00     0.033 C 
ATOM     16  C   UNL     1     -14.364 -36.488  26.000  1.00  0.00     0.118 C 
ATOM     17  C   UNL     1     -15.296 -36.004  24.879  1.00  0.00     0.063 C 
ATOM     18  C   UNL     1     -18.088 -36.577  26.269  1.00  0.00     0.016 C 
ATOM     19  C   UNL     1     -20.985 -40.311  25.267  1.00  0.00     0.012 C 
ENDROOT
BRANCH   1  20
ATOM     20  C   UNL     1     -21.380 -43.084  24.289  1.00  0.00     0.133 C 
ATOM     21  C   UNL     1     -22.736 -43.422  23.739  1.00  0.00     0.088 C 
ATOM     22  O   UNL     1     -21.007 -43.643  25.309  1.00  0.00    -0.300 OA
ENDBRANCH   1  20
BRANCH  16  23
ATOM     23  O   UNL     1     -13.461 -35.475  26.367  1.00  0.00    -0.393 OA
ATOM     24  H   UNL     1     -13.454 -35.423  27.360  1.00  0.00     0.210 HD
ENDBRANCH  16  23
TORSDOF 2
ENDMDL
MODEL 3
REMARK VINA RESULT:    -8.667      1.710      7.371
REMARK INTER + INTRA:          -9.519
REMARK INTER:                 -10.087
REMARK INTRA:                   0.569
REMARK UNBOUND:                -0.092
REMARK SMILES CC(=O)[C@H]1CC[C@H]2[C@@H]3CC=C4C[C@@H](O)CC[C@]4(C)[C@@H]3CC[C@]12C
REMARK SMILES IDX 4 1 5 2 6 3 7 4 22 5 21 6 20 7 19 8 8 9 9 10 10 11 11 12
REMARK SMILES IDX 17 13 16 14 15 15 13 16 12 17 18 18 23 19 2 20 1 21 3 22
REMARK SMILES IDX 14 23
REMARK H PARENT 14 24
REMARK Flexibility Score: inf
ROOT
ATOM      1  C   UNL     1     -17.683 -37.355  25.126  1.00  0.00     0.062 C 
ATOM      2  C   UNL     1     -17.294 -37.152  23.636  1.00  0.00     0.012 C 
ATOM      3  C   UNL     1     -17.915 -38.325  22.854  1.00  0.00     0.005 C 
ATOM      4  C   UNL     1     -18.782 -39.038  23.881  1.00  0.00    -0.001 C 
ATOM      5  C   UNL     1     -18.047 -38.863  25.211  1.00  0.00    -0.020 C 
ATOM      6  C   UNL     1     -19.049 -39.215  26.362  1.00  0.00     0.008 C 
ATOM      7  C   UNL     1     -20.083 -40.327  25.993  1.00  0.00     0.005 C 
ATOM      8  C   UNL     1     -19.547 -41.290  24.893  1.00  0.00     0.003 C 
ATOM      9  C   UNL     1     -19.245 -40.498  23.572  1.00  0.00     0.000 C 
ATOM     10  C   UNL     1     -20.484 -40.418  22.657  1.00  0.00     0.031 C 
ATOM     11  C   UNL     1     -21.224 -41.702  22.505  1.00  0.00    -0.027 C 
ATOM     12  C   UNL     1     -21.312 -42.618  23.483  1.00  0.00    -0.065 C 
ATOM     13  C   UNL     1     -20.313 -42.664  24.645  1.00  0.00    -0.008 C 
ATOM     14  C   UNL     1     -21.074 -43.133  25.925  1.00  0.00     0.014 C 
ATOM     15  C   UNL     1     -21.908 -44.407  25.721  1.00  0.00     0.033 C 
ATOM     16  C   UNL     1     -22.930 -44.206  24.592  1.00  0.00     0.118 C 
ATOM     17  C   UNL     1     -22.247 -43.799  23.276  1.00  0.00     0.063 C 
ATOM     18  C   UNL     1     -19.239 -43.728  24.277  1.00  0.00     0.016 C 
ATOM     19  C   UNL     1     -16.732 -39.723  25.283  1.00  0.00     0.012 C 
ENDROOT
BRANCH   1  20
ATOM     20  C   UNL     1     -16.635 -36.878  26.121  1.00  0.00     0.133 C 
ATOM     21  C   UNL     1     -16.248 -35.431  26.222  1.00  0.00     0.088 C 
ATOM     22  O   UNL     1     -16.140 -37.671  26.907  1.00  0.00    -0.300 OA
ENDBRANCH   1  20
BRANCH  16  23
ATOM     23  O   UNL     1     -23.704 -45.365  24.411  1.00  0.00    -0.393 OA
ATOM     24  H   UNL     1     -24.548 -45.247  24.925  1.00  0.00     0.210 HD
ENDBRANCH  16  23
TORSDOF 2
ENDMDL
MODEL 4
REMARK VINA RESULT:    -8.578      2.802      5.060
REMARK INTER + INTRA:          -9.422
REMARK INTER:                  -9.308
REMARK INTRA:                  -0.114
REMARK UNBOUND:                -0.092
REMARK SMILES CC(=O)[C@H]1CC[C@H]2[C@@H]3CC=C4C[C@@H](O)CC[C@]4(C)[C@@H]3CC[C@]12C
REMARK SMILES IDX 4 1 5 2 6 3 7 4 22 5 21 6 20 7 19 8 8 9 9 10 10 11 11 12
REMARK SMILES IDX 17 13 16 14 15 15 13 16 12 17 18 18 23 19 2 20 1 21 3 22
REMARK SMILES IDX 14 23
REMARK H PARENT 14 24
REMARK Flexibility Score: inf
ROOT
ATOM      1  C   UNL     1     -22.238 -45.638  23.204  1.00  0.00     0.062 C 
ATOM      2  C   UNL     1     -23.624 -44.956  23.046  1.00  0.00     0.012 C 
ATOM      3  C   UNL     1     -23.453 -43.497  23.508  1.00  0.00     0.005 C 
ATOM      4  C   UNL     1     -21.954 -43.350  23.727  1.00  0.00    -0.001 C 
ATOM      5  C   UNL     1     -21.488 -44.725  24.211  1.00  0.00    -0.020 C 
ATOM      6  C   UNL     1     -19.928 -44.774  24.081  1.00  0.00     0.008 C 
ATOM      7  C   UNL     1     -19.222 -43.400  24.315  1.00  0.00     0.005 C 
ATOM      8  C   UNL     1     -20.053 -42.458  25.234  1.00  0.00     0.003 C 
ATOM      9  C   UNL     1     -21.446 -42.145  24.581  1.00  0.00     0.000 C 
ATOM     10  C   UNL     1     -21.380 -40.908  23.661  1.00  0.00     0.031 C 
ATOM     11  C   UNL     1     -20.642 -39.749  24.235  1.00  0.00    -0.027 C 
ATOM     12  C   UNL     1     -19.592 -39.884  25.062  1.00  0.00    -0.065 C 
ATOM     13  C   UNL     1     -19.341 -41.174  25.852  1.00  0.00    -0.008 C 
ATOM     14  C   UNL     1     -17.799 -41.380  25.974  1.00  0.00     0.014 C 
ATOM     15  C   UNL     1     -17.044 -40.140  26.478  1.00  0.00     0.033 C 
ATOM     16  C   UNL     1     -17.305 -38.939  25.556  1.00  0.00     0.118 C 
ATOM     17  C   UNL     1     -18.807 -38.637  25.432  1.00  0.00     0.063 C 
ATOM     18  C   UNL     1     -19.937 -40.958  27.273  1.00  0.00     0.016 C 
ATOM     19  C   UNL     1     -21.973 -45.038  25.674  1.00  0.00     0.012 C 
ENDROOT
BRANCH   1  20
ATOM     20  C   UNL     1     -22.301 -47.112  23.579  1.00  0.00     0.133 C 
ATOM     21  C   UNL     1     -21.097 -48.003  23.470  1.00  0.00     0.088 C 
ATOM     22  O   UNL     1     -23.330 -47.576  24.045  1.00  0.00    -0.300 OA
ENDBRANCH   1  20
BRANCH  16  23
ATOM     23  O   UNL     1     -16.606 -37.807  26.007  1.00  0.00    -0.393 OA
ATOM     24  H   UNL     1     -17.092 -37.447  26.796  1.00  0.00     0.210 HD
ENDBRANCH  16  23
TORSDOF 2
ENDMDL
MODEL 5
REMARK VINA RESULT:    -8.086      3.547      6.424
REMARK INTER + INTRA:          -8.886
REMARK INTER:                  -9.280
REMARK INTRA:                   0.394
REMARK UNBOUND:                -0.092
REMARK SMILES CC(=O)[C@H]1CC[C@H]2[C@@H]3CC=C4C[C@@H](O)CC[C@]4(C)[C@@H]3CC[C@]12C
REMARK SMILES IDX 4 1 5 2 6 3 7 4 22 5 21 6 20 7 19 8 8 9 9 10 10 11 11 12
REMARK SMILES IDX 17 13 16 14 15 15 13 16 12 17 18 18 23 19 2 20 1 21 3 22
REMARK SMILES IDX 14 23
REMARK H PARENT 14 24
REMARK Flexibility Score: inf
ROOT
ATOM      1  C   UNL     1     -22.991 -46.623  23.927  1.00  0.00     0.062 C 
ATOM      2  C   UNL     1     -21.916 -47.648  24.380  1.00  0.00     0.012 C 
ATOM      3  C   UNL     1     -20.679 -46.833  24.802  1.00  0.00     0.005 C 
ATOM      4  C   UNL     1     -21.155 -45.388  24.759  1.00  0.00    -0.001 C 
ATOM      5  C   UNL     1     -22.173 -45.339  23.617  1.00  0.00    -0.020 C 
ATOM      6  C   UNL     1     -22.988 -44.010  23.759  1.00  0.00     0.008 C 
ATOM      7  C   UNL     1     -22.169 -42.816  24.346  1.00  0.00     0.005 C 
ATOM      8  C   UNL     1     -20.644 -42.950  24.064  1.00  0.00     0.003 C 
ATOM      9  C   UNL     1     -20.078 -44.256  24.728  1.00  0.00     0.000 C 
ATOM     10  C   UNL     1     -19.614 -44.005  26.177  1.00  0.00     0.031 C 
ATOM     11  C   UNL     1     -18.810 -42.765  26.364  1.00  0.00    -0.027 C 
ATOM     12  C   UNL     1     -19.003 -41.650  25.640  1.00  0.00    -0.065 C 
ATOM     13  C   UNL     1     -19.715 -41.676  24.282  1.00  0.00    -0.008 C 
ATOM     14  C   UNL     1     -20.520 -40.348  24.127  1.00  0.00     0.014 C 
ATOM     15  C   UNL     1     -19.696 -39.084  24.417  1.00  0.00     0.033 C 
ATOM     16  C   UNL     1     -19.110 -39.136  25.836  1.00  0.00     0.118 C 
ATOM     17  C   UNL     1     -18.251 -40.393  26.047  1.00  0.00     0.063 C 
ATOM     18  C   UNL     1     -18.606 -41.726  23.191  1.00  0.00     0.016 C 
ATOM     19  C   UNL     1     -21.493 -45.472  22.205  1.00  0.00     0.012 C 
ENDROOT
BRANCH   1  20
ATOM     20  C   UNL     1     -23.893 -47.111  22.803  1.00  0.00     0.133 C 
ATOM     21  C   UNL     1     -23.328 -47.628  21.510  1.00  0.00     0.088 C 
ATOM     22  O   UNL     1     -25.102 -47.152  22.969  1.00  0.00    -0.300 OA
ENDBRANCH   1  20
BRANCH  16  23
ATOM     23  O   UNL     1     -18.368 -37.975  26.109  1.00  0.00    -0.393 OA
ATOM     24  H   UNL     1     -19.011 -37.256  26.349  1.00  0.00     0.210 HD
ENDBRANCH  16  23
TORSDOF 2
ENDMDL
MODEL 6
REMARK VINA RESULT:    -7.979      2.650      4.726
REMARK INTER + INTRA:          -8.770
REMARK INTER:                  -8.657
REMARK INTRA:                  -0.113
REMARK UNBOUND:                -0.092
REMARK SMILES CC(=O)[C@H]1CC[C@H]2[C@@H]3CC=C4C[C@@H](O)CC[C@]4(C)[C@@H]3CC[C@]12C
REMARK SMILES IDX 4 1 5 2 6 3 7 4 22 5 21 6 20 7 19 8 8 9 9 10 10 11 11 12
REMARK SMILES IDX 17 13 16 14 15 15 13 16 12 17 18 18 23 19 2 20 1 21 3 22
REMARK SMILES IDX 14 23
REMARK H PARENT 14 24
REMARK Flexibility Score: inf
ROOT
ATOM      1  C   UNL     1     -20.903 -46.094  23.846  1.00  0.00     0.062 C 
ATOM      2  C   UNL     1     -21.496 -45.922  22.420  1.00  0.00     0.012 C 
ATOM      3  C   UNL     1     -21.334 -44.436  22.052  1.00  0.00     0.005 C 
ATOM      4  C   UNL     1     -20.495 -43.862  23.185  1.00  0.00    -0.001 C 
ATOM      5  C   UNL     1     -20.910 -44.653  24.427  1.00  0.00    -0.020 C 
ATOM      6  C   UNL     1     -19.832 -44.405  25.535  1.00  0.00     0.008 C 
ATOM      7  C   UNL     1     -19.186 -42.983  25.493  1.00  0.00     0.005 C 
ATOM      8  C   UNL     1     -20.133 -41.923  24.856  1.00  0.00     0.003 C 
ATOM      9  C   UNL     1     -20.468 -42.311  23.372  1.00  0.00     0.000 C 
ATOM     10  C   UNL     1     -19.435 -41.733  22.384  1.00  0.00     0.031 C 
ATOM     11  C   UNL     1     -19.072 -40.309  22.630  1.00  0.00    -0.027 C 
ATOM     12  C   UNL     1     -19.034 -39.764  23.858  1.00  0.00    -0.065 C 
ATOM     13  C   UNL     1     -19.784 -40.381  25.044  1.00  0.00    -0.008 C 
ATOM     14  C   UNL     1     -18.941 -40.138  26.335  1.00  0.00     0.014 C 
ATOM     15  C   UNL     1     -18.495 -38.680  26.521  1.00  0.00     0.033 C 
ATOM     16  C   UNL     1     -17.678 -38.207  25.309  1.00  0.00     0.118 C 
ATOM     17  C   UNL     1     -18.469 -38.360  24.000  1.00  0.00     0.063 C 
ATOM     18  C   UNL     1     -21.134 -39.618  25.171  1.00  0.00     0.016 C 
ATOM     19  C   UNL     1     -22.360 -44.284  24.913  1.00  0.00     0.012 C 
ENDROOT
BRANCH   1  20
ATOM     20  C   UNL     1     -21.604 -47.145  24.696  1.00  0.00     0.133 C 
ATOM     21  C   UNL     1     -21.008 -47.641  25.982  1.00  0.00     0.088 C 
ATOM     22  O   UNL     1     -22.708 -47.551  24.369  1.00  0.00    -0.300 OA
ENDBRANCH   1  20
BRANCH  16  23
ATOM     23  O   UNL     1     -17.258 -36.878  25.483  1.00  0.00    -0.393 OA
ATOM     24  H   UNL     1     -17.979 -36.395  25.968  1.00  0.00     0.210 HD
ENDBRANCH  16  23
TORSDOF 2
ENDMDL
MODEL 7
REMARK VINA RESULT:    -7.963      1.397      7.276
REMARK INTER + INTRA:          -8.753
REMARK INTER:                  -8.646
REMARK INTRA:                  -0.107
REMARK UNBOUND:                -0.092
REMARK SMILES CC(=O)[C@H]1CC[C@H]2[C@@H]3CC=C4C[C@@H](O)CC[C@]4(C)[C@@H]3CC[C@]12C
REMARK SMILES IDX 4 1 5 2 6 3 7 4 22 5 21 6 20 7 19 8 8 9 9 10 10 11 11 12
REMARK SMILES IDX 17 13 16 14 15 15 13 16 12 17 18 18 23 19 2 20 1 21 3 22
REMARK SMILES IDX 14 23
REMARK H PARENT 14 24
REMARK Flexibility Score: inf
ROOT
ATOM      1  C   UNL     1     -15.287 -37.625  24.881  1.00  0.00     0.062 C 
ATOM      2  C   UNL     1     -14.836 -38.006  26.318  1.00  0.00     0.012 C 
ATOM      3  C   UNL     1     -15.875 -39.009  26.854  1.00  0.00     0.005 C 
ATOM      4  C   UNL     1     -16.760 -39.305  25.652  1.00  0.00    -0.001 C 
ATOM      5  C   UNL     1     -16.794 -38.001  24.853  1.00  0.00    -0.020 C 
ATOM      6  C   UNL     1     -17.345 -38.329  23.425  1.00  0.00     0.008 C 
ATOM      7  C   UNL     1     -18.398 -39.484  23.394  1.00  0.00     0.005 C 
ATOM      8  C   UNL     1     -19.160 -39.624  24.744  1.00  0.00     0.003 C 
ATOM      9  C   UNL     1     -18.157 -39.957  25.906  1.00  0.00     0.000 C 
ATOM     10  C   UNL     1     -17.949 -41.477  26.062  1.00  0.00     0.031 C 
ATOM     11  C   UNL     1     -19.202 -42.282  26.017  1.00  0.00    -0.027 C 
ATOM     12  C   UNL     1     -20.267 -41.939  25.274  1.00  0.00    -0.065 C 
ATOM     13  C   UNL     1     -20.486 -40.504  24.782  1.00  0.00    -0.008 C 
ATOM     14  C   UNL     1     -21.170 -40.567  23.380  1.00  0.00     0.014 C 
ATOM     15  C   UNL     1     -22.406 -41.478  23.331  1.00  0.00     0.033 C 
ATOM     16  C   UNL     1     -22.039 -42.907  23.760  1.00  0.00     0.118 C 
ATOM     17  C   UNL     1     -21.412 -42.933  25.163  1.00  0.00     0.063 C 
ATOM     18  C   UNL     1     -21.459 -39.824  25.788  1.00  0.00     0.016 C 
ATOM     19  C   UNL     1     -17.633 -36.881  25.572  1.00  0.00     0.012 C 
ENDROOT
BRANCH   1  20
ATOM     20  C   UNL     1     -14.962 -36.194  24.478  1.00  0.00     0.133 C 
ATOM     21  C   UNL     1     -14.780 -35.111  25.503  1.00  0.00     0.088 C 
ATOM     22  O   UNL     1     -14.776 -35.922  23.302  1.00  0.00    -0.300 OA
ENDBRANCH   1  20
BRANCH  16  23
ATOM     23  O   UNL     1     -23.165 -43.746  23.704  1.00  0.00    -0.393 OA
ATOM     24  H   UNL     1     -23.151 -44.323  24.514  1.00  0.00     0.210 HD
ENDBRANCH  16  23
TORSDOF 2
ENDMDL
MODEL 8
REMARK VINA RESULT:    -7.919      1.313      7.130
REMARK INTER + INTRA:          -8.705
REMARK INTER:                  -8.615
REMARK INTRA:                  -0.091
REMARK UNBOUND:                -0.092
REMARK SMILES CC(=O)[C@H]1CC[C@H]2[C@@H]3CC=C4C[C@@H](O)CC[C@]4(C)[C@@H]3CC[C@]12C
REMARK SMILES IDX 4 1 5 2 6 3 7 4 22 5 21 6 20 7 19 8 8 9 9 10 10 11 11 12
REMARK SMILES IDX 17 13 16 14 15 15 13 16 12 17 18 18 23 19 2 20 1 21 3 22
REMARK SMILES IDX 14 23
REMARK H PARENT 14 24
REMARK Flexibility Score: inf
ROOT
ATOM      1  C   UNL     1     -15.556 -37.160  26.684  1.00  0.00     0.062 C 
ATOM      2  C   UNL     1     -16.382 -35.853  26.535  1.00  0.00     0.012 C 
ATOM      3  C   UNL     1     -17.750 -36.260  25.957  1.00  0.00     0.005 C 
ATOM      4  C   UNL     1     -17.725 -37.781  25.978  1.00  0.00    -0.001 C 
ATOM      5  C   UNL     1     -16.264 -38.157  25.726  1.00  0.00    -0.020 C 
ATOM      6  C   UNL     1     -16.081 -39.662  26.120  1.00  0.00     0.008 C 
ATOM      7  C   UNL     1     -17.343 -40.548  25.864  1.00  0.00     0.005 C 
ATOM      8  C   UNL     1     -18.240 -39.982  24.724  1.00  0.00     0.003 C 
ATOM      9  C   UNL     1     -18.763 -38.550  25.099  1.00  0.00     0.000 C 
ATOM     10  C   UNL     1     -20.091 -38.613  25.881  1.00  0.00     0.031 C 
ATOM     11  C   UNL     1     -21.095 -39.559  25.320  1.00  0.00    -0.027 C 
ATOM     12  C   UNL     1     -20.760 -40.702  24.699  1.00  0.00    -0.065 C 
ATOM     13  C   UNL     1     -19.365 -40.923  24.103  1.00  0.00    -0.008 C 
ATOM     14  C   UNL     1     -18.999 -42.432  24.263  1.00  0.00     0.014 C 
ATOM     15  C   UNL     1     -20.090 -43.392  23.765  1.00  0.00     0.033 C 
ATOM     16  C   UNL     1     -21.414 -43.131  24.499  1.00  0.00     0.118 C 
ATOM     17  C   UNL     1     -21.872 -41.673  24.337  1.00  0.00     0.063 C 
ATOM     18  C   UNL     1     -19.461 -40.584  22.588  1.00  0.00     0.016 C 
ATOM     19  C   UNL     1     -15.821 -37.872  24.243  1.00  0.00     0.012 C 
ENDROOT
BRANCH   1  20
ATOM     20  C   UNL     1     -14.060 -36.988  26.461  1.00  0.00     0.133 C 
ATOM     21  C   UNL     1     -13.435 -35.629  26.332  1.00  0.00     0.088 C 
ATOM     22  O   UNL     1     -13.332 -37.969  26.455  1.00  0.00    -0.300 OA
ENDBRANCH   1  20
BRANCH  16  23
ATOM     23  O   UNL     1     -22.411 -44.016  24.055  1.00  0.00    -0.393 OA
ATOM     24  H   UNL     1     -22.744 -44.516  24.847  1.00  0.00     0.210 HD
ENDBRANCH  16  23
TORSDOF 2
ENDMDL
MODEL 9
REMARK VINA RESULT:    -7.572      3.192      8.746
REMARK INTER + INTRA:          -8.327
REMARK INTER:                  -8.234
REMARK INTRA:                  -0.093
REMARK UNBOUND:                -0.092
REMARK SMILES CC(=O)[C@H]1CC[C@H]2[C@@H]3CC=C4C[C@@H](O)CC[C@]4(C)[C@@H]3CC[C@]12C
REMARK SMILES IDX 4 1 5 2 6 3 7 4 22 5 21 6 20 7 19 8 8 9 9 10 10 11 11 12
REMARK SMILES IDX 17 13 16 14 15 15 13 16 12 17 18 18 23 19 2 20 1 21 3 22
REMARK SMILES IDX 14 23
REMARK H PARENT 14 24
REMARK Flexibility Score: inf
ROOT
ATOM      1  C   UNL     1     -18.274 -40.178  25.447  1.00  0.00     0.062 C 
ATOM      2  C   UNL     1     -18.346 -40.349  26.989  1.00  0.00     0.012 C 
ATOM      3  C   UNL     1     -19.069 -41.683  27.252  1.00  0.00     0.005 C 
ATOM      4  C   UNL     1     -19.210 -42.307  25.871  1.00  0.00    -0.001 C 
ATOM      5  C   UNL     1     -19.387 -41.125  24.917  1.00  0.00    -0.020 C 
ATOM      6  C   UNL     1     -19.144 -41.644  23.460  1.00  0.00     0.008 C 
ATOM      7  C   UNL     1     -19.591 -43.123  23.224  1.00  0.00     0.005 C 
ATOM      8  C   UNL     1     -20.729 -43.557  24.194  1.00  0.00     0.003 C 
ATOM      9  C   UNL     1     -20.244 -43.463  25.684  1.00  0.00     0.000 C 
ATOM     10  C   UNL     1     -19.579 -44.774  26.151  1.00  0.00     0.031 C 
ATOM     11  C   UNL     1     -20.316 -46.012  25.771  1.00  0.00    -0.027 C 
ATOM     12  C   UNL     1     -21.028 -46.122  24.638  1.00  0.00    -0.065 C 
ATOM     13  C   UNL     1     -21.534 -44.893  23.873  1.00  0.00    -0.008 C 
ATOM     14  C   UNL     1     -21.510 -45.223  22.348  1.00  0.00     0.014 C 
ATOM     15  C   UNL     1     -22.191 -46.552  21.988  1.00  0.00     0.033 C 
ATOM     16  C   UNL     1     -21.539 -47.716  22.749  1.00  0.00     0.118 C 
ATOM     17  C   UNL     1     -21.578 -47.490  24.269  1.00  0.00     0.063 C 
ATOM     18  C   UNL     1     -23.007 -44.659  24.317  1.00  0.00     0.016 C 
ATOM     19  C   UNL     1     -20.791 -40.434  25.076  1.00  0.00     0.012 C 
ENDROOT
BRANCH   1  20
ATOM     20  C   UNL     1     -18.360 -38.736  24.968  1.00  0.00     0.133 C 
ATOM     21  C   UNL     1     -18.221 -38.379  23.516  1.00  0.00     0.088 C 
ATOM     22  O   UNL     1     -18.617 -37.847  25.766  1.00  0.00    -0.300 OA
ENDBRANCH   1  20
BRANCH  16  23
ATOM     23  O   UNL     1     -22.152 -48.934  22.412  1.00  0.00    -0.393 OA
ATOM     24  H   UNL     1     -21.482 -49.483  21.923  1.00  0.00     0.210 HD
ENDBRANCH  16  23
TORSDOF 2
ENDMDL
