MODEL 1
REMARK VINA RESULT:    -6.418      0.000      0.000
REMARK INTER + INTRA:          -6.606
REMARK INTER:                  -6.606
REMARK INTRA:                   0.000
REMARK UNBOUND:                 0.000
REMARK SMILES CC1(C)CC[C@@]2(C)CC[C@@]3(C)C(=CC[C@@H]4[C@@]5(C)CC[C@H](O)C(C)(C)[C@H]5CC[C@@]43C)[C@H]2C1
REMARK SMILES IDX 1 1 2 2 4 3 5 4 6 5 8 6 9 7 10 8 12 9 13 10 14 11 15 12
REMARK SMILES IDX 28 13 27 14 26 15 25 16 16 17 18 18 19 19 20 20 22 21 23 22
REMARK SMILES IDX 24 23 17 24 29 25 30 26 31 27 11 28 7 29 3 30 21 31
REMARK H PARENT 21 32
REMARK Flexibility Score: inf
ROOT
ATOM      1  C   UNL     1      -3.375 -63.047 -26.250  1.00  0.00     0.011 C 
ATOM      2  C   UNL     1      -4.903 -63.023 -25.969  1.00  0.00    -0.035 C 
ATOM      3  C   UNL     1      -5.229 -62.768 -24.488  1.00  0.00     0.007 C 
ATOM      4  C   UNL     1      -4.685 -61.413 -24.024  1.00  0.00     0.008 C 
ATOM      5  C   UNL     1      -5.292 -60.196 -24.795  1.00  0.00    -0.026 C 
ATOM      6  C   UNL     1      -4.173 -59.108 -24.892  1.00  0.00     0.008 C 
ATOM      7  C   UNL     1      -4.460 -57.975 -25.891  1.00  0.00     0.012 C 
ATOM      8  C   UNL     1      -4.658 -58.512 -27.341  1.00  0.00    -0.006 C 
ATOM      9  C   UNL     1      -5.875 -59.455 -27.249  1.00  0.00    -0.064 C 
ATOM     10  C   UNL     1      -6.959 -59.326 -28.033  1.00  0.00    -0.027 C 
ATOM     11  C   UNL     1      -7.125 -58.314 -29.129  1.00  0.00     0.032 C 
ATOM     12  C   UNL     1      -5.795 -57.756 -29.639  1.00  0.00     0.006 C 
ATOM     13  C   UNL     1      -4.888 -57.318 -28.406  1.00  0.00    -0.020 C 
ATOM     14  C   UNL     1      -3.555 -56.700 -28.955  1.00  0.00     0.008 C 
ATOM     15  C   UNL     1      -3.314 -56.776 -30.496  1.00  0.00     0.005 C 
ATOM     16  C   UNL     1      -3.692 -58.112 -31.203  1.00  0.00     0.003 C 
ATOM     17  C   UNL     1      -5.179 -58.596 -30.875  1.00  0.00    -0.025 C 
ATOM     18  C   UNL     1      -6.206 -58.396 -32.083  1.00  0.00     0.010 C 
ATOM     19  C   UNL     1      -5.686 -58.128 -33.486  1.00  0.00     0.033 C 
ATOM     20  C   UNL     1      -4.376 -57.367 -33.557  1.00  0.00     0.120 C 
ATOM     21  C   UNL     1      -3.297 -58.114 -32.745  1.00  0.00    -0.006 C 
ATOM     22  C   UNL     1      -1.926 -57.427 -33.018  1.00  0.00     0.014 C 
ATOM     23  C   UNL     1      -3.102 -59.562 -33.264  1.00  0.00     0.014 C 
ATOM     24  C   UNL     1      -5.157 -60.149 -30.578  1.00  0.00     0.012 C 
ATOM     25  C   UNL     1      -5.639 -56.130 -27.690  1.00  0.00     0.012 C 
ATOM     26  C   UNL     1      -5.917 -60.583 -26.215  1.00  0.00     0.022 C 
ATOM     27  C   UNL     1      -5.576 -61.962 -26.883  1.00  0.00     0.015 C 
ATOM     28  C   UNL     1      -3.385 -59.319 -27.707  1.00  0.00     0.017 C 
ATOM     29  C   UNL     1      -6.441 -59.626 -23.927  1.00  0.00     0.012 C 
ATOM     30  C   UNL     1      -5.454 -64.415 -26.310  1.00  0.00     0.011 C 
ENDROOT
BRANCH  20  31
ATOM     31  O   UNL     1      -3.968 -57.186 -34.899  1.00  0.00    -0.393 OA
ATOM     32  H   UNL     1      -3.673 -56.246 -35.017  1.00  0.00     0.210 HD
ENDBRANCH  20  31
TORSDOF 1
ENDMDL
MODEL 2
REMARK VINA RESULT:    -6.308      6.074      9.691
REMARK INTER + INTRA:          -6.493
REMARK INTER:                  -6.493
REMARK INTRA:                   0.000
REMARK UNBOUND:                 0.000
REMARK SMILES CC1(C)CC[C@@]2(C)CC[C@@]3(C)C(=CC[C@@H]4[C@@]5(C)CC[C@H](O)C(C)(C)[C@H]5CC[C@@]43C)[C@H]2C1
REMARK SMILES IDX 1 1 2 2 4 3 5 4 6 5 8 6 9 7 10 8 12 9 13 10 14 11 15 12
REMARK SMILES IDX 28 13 27 14 26 15 25 16 16 17 18 18 19 19 20 20 22 21 23 22
REMARK SMILES IDX 24 23 17 24 29 25 30 26 31 27 11 28 7 29 3 30 21 31
REMARK H PARENT 21 32
REMARK Flexibility Score: inf
ROOT
ATOM      1  C   UNL     1      -4.889 -50.324 -26.257  1.00  0.00     0.011 C 
ATOM      2  C   UNL     1      -5.908 -51.005 -25.303  1.00  0.00    -0.035 C 
ATOM      3  C   UNL     1      -7.118 -51.592 -26.049  1.00  0.00     0.007 C 
ATOM      4  C   UNL     1      -6.686 -52.664 -27.054  1.00  0.00     0.008 C 
ATOM      5  C   UNL     1      -5.975 -53.891 -26.395  1.00  0.00    -0.026 C 
ATOM      6  C   UNL     1      -4.906 -54.405 -27.415  1.00  0.00     0.008 C 
ATOM      7  C   UNL     1      -3.880 -55.392 -26.832  1.00  0.00     0.012 C 
ATOM      8  C   UNL     1      -3.076 -54.768 -25.652  1.00  0.00    -0.006 C 
ATOM      9  C   UNL     1      -4.140 -54.423 -24.589  1.00  0.00    -0.064 C 
ATOM     10  C   UNL     1      -4.071 -54.859 -23.319  1.00  0.00    -0.027 C 
ATOM     11  C   UNL     1      -2.951 -55.673 -22.738  1.00  0.00     0.032 C 
ATOM     12  C   UNL     1      -1.650 -55.561 -23.535  1.00  0.00     0.006 C 
ATOM     13  C   UNL     1      -1.948 -55.777 -25.083  1.00  0.00    -0.020 C 
ATOM     14  C   UNL     1      -0.593 -55.712 -25.871  1.00  0.00     0.008 C 
ATOM     15  C   UNL     1       0.683 -55.312 -25.066  1.00  0.00     0.005 C 
ATOM     16  C   UNL     1       0.533 -54.153 -24.036  1.00  0.00     0.003 C 
ATOM     17  C   UNL     1      -0.687 -54.367 -23.025  1.00  0.00    -0.025 C 
ATOM     18  C   UNL     1      -0.238 -54.779 -21.548  1.00  0.00     0.010 C 
ATOM     19  C   UNL     1       1.208 -54.598 -21.115  1.00  0.00     0.033 C 
ATOM     20  C   UNL     1       2.238 -54.745 -22.218  1.00  0.00     0.120 C 
ATOM     21  C   UNL     1       1.919 -53.757 -23.361  1.00  0.00    -0.006 C 
ATOM     22  C   UNL     1       3.107 -53.782 -24.366  1.00  0.00     0.014 C 
ATOM     23  C   UNL     1       1.888 -52.294 -22.850  1.00  0.00     0.014 C 
ATOM     24  C   UNL     1      -1.472 -53.002 -22.874  1.00  0.00     0.012 C 
ATOM     25  C   UNL     1      -2.458 -57.260 -25.245  1.00  0.00     0.012 C 
ATOM     26  C   UNL     1      -5.365 -53.579 -24.950  1.00  0.00     0.022 C 
ATOM     27  C   UNL     1      -5.178 -52.096 -24.470  1.00  0.00     0.015 C 
ATOM     28  C   UNL     1      -2.416 -53.470 -26.185  1.00  0.00     0.017 C 
ATOM     29  C   UNL     1      -7.038 -55.001 -26.215  1.00  0.00     0.012 C 
ATOM     30  C   UNL     1      -6.451 -49.921 -24.362  1.00  0.00     0.011 C 
ENDROOT
BRANCH  20  31
ATOM     31  O   UNL     1       3.546 -54.539 -21.720  1.00  0.00    -0.393 OA
ATOM     32  H   UNL     1       4.134 -54.275 -22.474  1.00  0.00     0.210 HD
ENDBRANCH  20  31
TORSDOF 1
ENDMDL
MODEL 3
REMARK VINA RESULT:    -5.947      4.943      7.366
REMARK INTER + INTRA:          -6.120
REMARK INTER:                  -6.120
REMARK INTRA:                   0.000
REMARK UNBOUND:                 0.000
REMARK SMILES CC1(C)CC[C@@]2(C)CC[C@@]3(C)C(=CC[C@@H]4[C@@]5(C)CC[C@H](O)C(C)(C)[C@H]5CC[C@@]43C)[C@H]2C1
REMARK SMILES IDX 1 1 2 2 4 3 5 4 6 5 8 6 9 7 10 8 12 9 13 10 14 11 15 12
REMARK SMILES IDX 28 13 27 14 26 15 25 16 16 17 18 18 19 19 20 20 22 21 23 22
REMARK SMILES IDX 24 23 17 24 29 25 30 26 31 27 11 28 7 29 3 30 21 31
REMARK H PARENT 21 32
REMARK Flexibility Score: inf
ROOT
ATOM      1  C   UNL     1      -4.145 -60.590 -23.807  1.00  0.00     0.011 C 
ATOM      2  C   UNL     1      -4.212 -60.543 -25.358  1.00  0.00    -0.035 C 
ATOM      3  C   UNL     1      -5.643 -60.718 -25.896  1.00  0.00     0.007 C 
ATOM      4  C   UNL     1      -6.567 -59.606 -25.391  1.00  0.00     0.008 C 
ATOM      5  C   UNL     1      -6.131 -58.174 -25.844  1.00  0.00    -0.026 C 
ATOM      6  C   UNL     1      -6.522 -57.190 -24.694  1.00  0.00     0.008 C 
ATOM      7  C   UNL     1      -5.887 -55.792 -24.797  1.00  0.00     0.012 C 
ATOM      8  C   UNL     1      -4.330 -55.856 -24.791  1.00  0.00    -0.006 C 
ATOM      9  C   UNL     1      -3.965 -56.695 -26.032  1.00  0.00    -0.064 C 
ATOM     10  C   UNL     1      -3.120 -56.262 -26.984  1.00  0.00    -0.027 C 
ATOM     11  C   UNL     1      -2.374 -54.960 -26.956  1.00  0.00     0.032 C 
ATOM     12  C   UNL     1      -2.242 -54.371 -25.550  1.00  0.00     0.006 C 
ATOM     13  C   UNL     1      -3.660 -54.386 -24.827  1.00  0.00    -0.020 C 
ATOM     14  C   UNL     1      -3.510 -53.729 -23.411  1.00  0.00     0.008 C 
ATOM     15  C   UNL     1      -2.067 -53.359 -22.944  1.00  0.00     0.005 C 
ATOM     16  C   UNL     1      -0.941 -54.391 -23.247  1.00  0.00     0.003 C 
ATOM     17  C   UNL     1      -0.903 -54.846 -24.779  1.00  0.00    -0.025 C 
ATOM     18  C   UNL     1       0.312 -54.222 -25.608  1.00  0.00     0.010 C 
ATOM     19  C   UNL     1       1.484 -53.585 -24.877  1.00  0.00     0.033 C 
ATOM     20  C   UNL     1       1.142 -52.932 -23.551  1.00  0.00     0.120 C 
ATOM     21  C   UNL     1       0.460 -53.962 -22.626  1.00  0.00    -0.006 C 
ATOM     22  C   UNL     1       0.322 -53.324 -21.212  1.00  0.00     0.014 C 
ATOM     23  C   UNL     1       1.365 -55.199 -22.394  1.00  0.00     0.014 C 
ATOM     24  C   UNL     1      -0.712 -56.414 -24.843  1.00  0.00     0.012 C 
ATOM     25  C   UNL     1      -4.597 -53.416 -25.644  1.00  0.00     0.012 C 
ATOM     26  C   UNL     1      -4.590 -58.075 -26.259  1.00  0.00     0.022 C 
ATOM     27  C   UNL     1      -3.584 -59.212 -25.858  1.00  0.00     0.015 C 
ATOM     28  C   UNL     1      -3.909 -56.606 -23.499  1.00  0.00     0.017 C 
ATOM     29  C   UNL     1      -6.968 -57.809 -27.093  1.00  0.00     0.012 C 
ATOM     30  C   UNL     1      -3.391 -61.726 -25.889  1.00  0.00     0.011 C 
ENDROOT
BRANCH  20  31
ATOM     31  O   UNL     1       2.297 -52.388 -22.943  1.00  0.00    -0.393 OA
ATOM     32  H   UNL     1       2.094 -51.463 -22.648  1.00  0.00     0.210 HD
ENDBRANCH  20  31
TORSDOF 1
ENDMDL
MODEL 4
REMARK VINA RESULT:    -5.900      6.893      8.929
REMARK INTER + INTRA:          -6.072
REMARK INTER:                  -6.072
REMARK INTRA:                   0.000
REMARK UNBOUND:                 0.000
REMARK SMILES CC1(C)CC[C@@]2(C)CC[C@@]3(C)C(=CC[C@@H]4[C@@]5(C)CC[C@H](O)C(C)(C)[C@H]5CC[C@@]43C)[C@H]2C1
REMARK SMILES IDX 1 1 2 2 4 3 5 4 6 5 8 6 9 7 10 8 12 9 13 10 14 11 15 12
REMARK SMILES IDX 28 13 27 14 26 15 25 16 16 17 18 18 19 19 20 20 22 21 23 22
REMARK SMILES IDX 24 23 17 24 29 25 30 26 31 27 11 28 7 29 3 30 21 31
REMARK H PARENT 21 32
REMARK Flexibility Score: inf
ROOT
ATOM      1  C   UNL     1      -3.134 -57.464 -25.566  1.00  0.00     0.011 C 
ATOM      2  C   UNL     1      -3.467 -55.985 -25.903  1.00  0.00    -0.035 C 
ATOM      3  C   UNL     1      -4.315 -55.304 -24.814  1.00  0.00     0.007 C 
ATOM      4  C   UNL     1      -3.583 -55.285 -23.470  1.00  0.00     0.008 C 
ATOM      5  C   UNL     1      -2.237 -54.489 -23.499  1.00  0.00    -0.026 C 
ATOM      6  C   UNL     1      -1.261 -55.200 -22.506  1.00  0.00     0.008 C 
ATOM      7  C   UNL     1       0.211 -54.773 -22.633  1.00  0.00     0.012 C 
ATOM      8  C   UNL     1       0.778 -55.050 -24.058  1.00  0.00    -0.006 C 
ATOM      9  C   UNL     1      -0.100 -54.204 -25.003  1.00  0.00    -0.064 C 
ATOM     10  C   UNL     1       0.410 -53.315 -25.873  1.00  0.00    -0.027 C 
ATOM     11  C   UNL     1       1.872 -53.058 -26.098  1.00  0.00     0.032 C 
ATOM     12  C   UNL     1       2.763 -54.216 -25.642  1.00  0.00     0.006 C 
ATOM     13  C   UNL     1       2.346 -54.670 -24.175  1.00  0.00    -0.020 C 
ATOM     14  C   UNL     1       3.307 -55.819 -23.710  1.00  0.00     0.008 C 
ATOM     15  C   UNL     1       4.317 -56.374 -24.762  1.00  0.00     0.005 C 
ATOM     16  C   UNL     1       3.781 -56.590 -26.209  1.00  0.00     0.003 C 
ATOM     17  C   UNL     1       3.049 -55.301 -26.806  1.00  0.00    -0.025 C 
ATOM     18  C   UNL     1       3.903 -54.527 -27.912  1.00  0.00     0.010 C 
ATOM     19  C   UNL     1       5.102 -55.205 -28.559  1.00  0.00     0.033 C 
ATOM     20  C   UNL     1       5.843 -56.190 -27.675  1.00  0.00     0.120 C 
ATOM     21  C   UNL     1       4.862 -57.266 -27.162  1.00  0.00    -0.006 C 
ATOM     22  C   UNL     1       5.691 -58.372 -26.445  1.00  0.00     0.014 C 
ATOM     23  C   UNL     1       4.176 -58.011 -28.335  1.00  0.00     0.014 C 
ATOM     24  C   UNL     1       1.717 -55.756 -27.526  1.00  0.00     0.012 C 
ATOM     25  C   UNL     1       2.650 -53.453 -23.219  1.00  0.00     0.012 C 
ATOM     26  C   UNL     1      -1.626 -54.317 -24.967  1.00  0.00     0.022 C 
ATOM     27  C   UNL     1      -2.145 -55.206 -26.152  1.00  0.00     0.015 C 
ATOM     28  C   UNL     1       0.570 -56.560 -24.347  1.00  0.00     0.017 C 
ATOM     29  C   UNL     1      -2.527 -53.070 -22.953  1.00  0.00     0.012 C 
ATOM     30  C   UNL     1      -4.310 -55.984 -27.186  1.00  0.00     0.011 C 
ENDROOT
BRANCH  20  31
ATOM     31  O   UNL     1       6.924 -56.779 -28.372  1.00  0.00    -0.393 OA
ATOM     32  H   UNL     1       7.194 -56.172 -29.109  1.00  0.00     0.210 HD
ENDBRANCH  20  31
TORSDOF 1
ENDMDL
MODEL 5
REMARK VINA RESULT:    -5.509      8.530     12.129
REMARK INTER + INTRA:          -5.670
REMARK INTER:                  -5.670
REMARK INTRA:                   0.000
REMARK UNBOUND:                 0.000
REMARK SMILES CC1(C)CC[C@@]2(C)CC[C@@]3(C)C(=CC[C@@H]4[C@@]5(C)CC[C@H](O)C(C)(C)[C@H]5CC[C@@]43C)[C@H]2C1
REMARK SMILES IDX 1 1 2 2 4 3 5 4 6 5 8 6 9 7 10 8 12 9 13 10 14 11 15 12
REMARK SMILES IDX 28 13 27 14 26 15 25 16 16 17 18 18 19 19 20 20 22 21 23 22
REMARK SMILES IDX 24 23 17 24 29 25 30 26 31 27 11 28 7 29 3 30 21 31
REMARK H PARENT 21 32
REMARK Flexibility Score: inf
ROOT
ATOM      1  C   UNL     1      -3.923 -47.301 -24.754  1.00  0.00     0.011 C 
ATOM      2  C   UNL     1      -3.796 -46.777 -23.297  1.00  0.00    -0.035 C 
ATOM      3  C   UNL     1      -5.116 -46.201 -22.757  1.00  0.00     0.007 C 
ATOM      4  C   UNL     1      -6.219 -47.263 -22.738  1.00  0.00     0.008 C 
ATOM      5  C   UNL     1      -5.897 -48.486 -21.818  1.00  0.00    -0.026 C 
ATOM      6  C   UNL     1      -6.544 -49.745 -22.484  1.00  0.00     0.008 C 
ATOM      7  C   UNL     1      -6.067 -51.092 -21.914  1.00  0.00     0.012 C 
ATOM      8  C   UNL     1      -4.527 -51.276 -22.063  1.00  0.00    -0.006 C 
ATOM      9  C   UNL     1      -3.912 -50.115 -21.256  1.00  0.00    -0.064 C 
ATOM     10  C   UNL     1      -3.007 -50.303 -20.279  1.00  0.00    -0.027 C 
ATOM     11  C   UNL     1      -2.426 -51.627 -19.875  1.00  0.00     0.032 C 
ATOM     12  C   UNL     1      -2.544 -52.693 -20.965  1.00  0.00     0.006 C 
ATOM     13  C   UNL     1      -4.032 -52.721 -21.531  1.00  0.00    -0.020 C 
ATOM     14  C   UNL     1      -4.141 -53.857 -22.607  1.00  0.00     0.008 C 
ATOM     15  C   UNL     1      -2.823 -54.588 -23.010  1.00  0.00     0.005 C 
ATOM     16  C   UNL     1      -1.555 -53.703 -23.201  1.00  0.00     0.003 C 
ATOM     17  C   UNL     1      -1.269 -52.741 -21.957  1.00  0.00    -0.025 C 
ATOM     18  C   UNL     1      -0.038 -53.205 -21.051  1.00  0.00     0.010 C 
ATOM     19  C   UNL     1       0.948 -54.236 -21.578  1.00  0.00     0.033 C 
ATOM     20  C   UNL     1       0.366 -55.259 -22.534  1.00  0.00     0.120 C 
ATOM     21  C   UNL     1      -0.305 -54.538 -23.722  1.00  0.00    -0.006 C 
ATOM     22  C   UNL     1      -0.695 -55.611 -24.780  1.00  0.00     0.014 C 
ATOM     23  C   UNL     1       0.700 -53.623 -24.467  1.00  0.00     0.014 C 
ATOM     24  C   UNL     1      -0.891 -51.304 -22.498  1.00  0.00     0.012 C 
ATOM     25  C   UNL     1      -4.962 -53.175 -20.342  1.00  0.00     0.012 C 
ATOM     26  C   UNL     1      -4.338 -48.667 -21.514  1.00  0.00     0.022 C 
ATOM     27  C   UNL     1      -3.267 -47.920 -22.386  1.00  0.00     0.015 C 
ATOM     28  C   UNL     1      -4.191 -51.115 -23.569  1.00  0.00     0.017 C 
ATOM     29  C   UNL     1      -6.605 -48.244 -20.462  1.00  0.00     0.012 C 
ATOM     30  C   UNL     1      -2.782 -45.624 -23.311  1.00  0.00     0.011 C 
ENDROOT
BRANCH  20  31
ATOM     31  O   UNL     1       1.364 -56.157 -22.982  1.00  0.00    -0.393 OA
ATOM     32  H   UNL     1       2.066 -55.639 -23.454  1.00  0.00     0.210 HD
ENDBRANCH  20  31
TORSDOF 1
ENDMDL
MODEL 6
REMARK VINA RESULT:    -5.500      7.908     10.792
REMARK INTER + INTRA:          -5.661
REMARK INTER:                  -5.661
REMARK INTRA:                   0.000
REMARK UNBOUND:                 0.000
REMARK SMILES CC1(C)CC[C@@]2(C)CC[C@@]3(C)C(=CC[C@@H]4[C@@]5(C)CC[C@H](O)C(C)(C)[C@H]5CC[C@@]43C)[C@H]2C1
REMARK SMILES IDX 1 1 2 2 4 3 5 4 6 5 8 6 9 7 10 8 12 9 13 10 14 11 15 12
REMARK SMILES IDX 28 13 27 14 26 15 25 16 16 17 18 18 19 19 20 20 22 21 23 22
REMARK SMILES IDX 24 23 17 24 29 25 30 26 31 27 11 28 7 29 3 30 21 31
REMARK H PARENT 21 32
REMARK Flexibility Score: inf
ROOT
ATOM      1  C   UNL     1      -3.821 -53.979 -26.881  1.00  0.00     0.011 C 
ATOM      2  C   UNL     1      -4.519 -54.798 -25.761  1.00  0.00    -0.035 C 
ATOM      3  C   UNL     1      -4.474 -56.314 -26.018  1.00  0.00     0.007 C 
ATOM      4  C   UNL     1      -3.031 -56.823 -26.089  1.00  0.00     0.008 C 
ATOM      5  C   UNL     1      -2.224 -56.607 -24.767  1.00  0.00    -0.026 C 
ATOM      6  C   UNL     1      -0.738 -56.341 -25.175  1.00  0.00     0.008 C 
ATOM      7  C   UNL     1       0.149 -55.783 -24.050  1.00  0.00     0.012 C 
ATOM      8  C   UNL     1      -0.389 -54.428 -23.500  1.00  0.00    -0.006 C 
ATOM      9  C   UNL     1      -1.793 -54.755 -22.952  1.00  0.00    -0.064 C 
ATOM     10  C   UNL     1      -2.171 -54.469 -21.694  1.00  0.00    -0.027 C 
ATOM     11  C   UNL     1      -1.332 -53.752 -20.676  1.00  0.00     0.032 C 
ATOM     12  C   UNL     1      -0.208 -52.923 -21.299  1.00  0.00     0.006 C 
ATOM     13  C   UNL     1       0.579 -53.801 -22.367  1.00  0.00    -0.020 C 
ATOM     14  C   UNL     1       1.759 -52.948 -22.952  1.00  0.00     0.008 C 
ATOM     15  C   UNL     1       1.834 -51.448 -22.526  1.00  0.00     0.005 C 
ATOM     16  C   UNL     1       0.491 -50.660 -22.478  1.00  0.00     0.003 C 
ATOM     17  C   UNL     1      -0.639 -51.398 -21.621  1.00  0.00    -0.025 C 
ATOM     18  C   UNL     1      -0.918 -50.722 -20.201  1.00  0.00     0.010 C 
ATOM     19  C   UNL     1      -0.410 -49.318 -19.914  1.00  0.00     0.033 C 
ATOM     20  C   UNL     1       0.876 -48.937 -20.622  1.00  0.00     0.120 C 
ATOM     21  C   UNL     1       0.704 -49.118 -22.145  1.00  0.00    -0.006 C 
ATOM     22  C   UNL     1       1.956 -48.517 -22.847  1.00  0.00     0.014 C 
ATOM     23  C   UNL     1      -0.475 -48.268 -22.685  1.00  0.00     0.014 C 
ATOM     24  C   UNL     1      -2.007 -51.328 -22.411  1.00  0.00     0.012 C 
ATOM     25  C   UNL     1       1.265 -54.977 -21.572  1.00  0.00     0.012 C 
ATOM     26  C   UNL     1      -2.830 -55.467 -23.825  1.00  0.00     0.022 C 
ATOM     27  C   UNL     1      -3.877 -54.442 -24.390  1.00  0.00     0.015 C 
ATOM     28  C   UNL     1      -0.501 -53.458 -24.706  1.00  0.00     0.017 C 
ATOM     29  C   UNL     1      -2.273 -57.935 -23.972  1.00  0.00     0.012 C 
ATOM     30  C   UNL     1      -5.999 -54.394 -25.751  1.00  0.00     0.011 C 
ENDROOT
BRANCH  20  31
ATOM     31  O   UNL     1       1.252 -47.610 -20.307  1.00  0.00    -0.393 OA
ATOM     32  H   UNL     1       1.302 -47.521 -19.320  1.00  0.00     0.210 HD
ENDBRANCH  20  31
TORSDOF 1
ENDMDL
MODEL 7
REMARK VINA RESULT:    -5.427      3.280      5.641
REMARK INTER + INTRA:          -5.586
REMARK INTER:                  -5.586
REMARK INTRA:                   0.000
REMARK UNBOUND:                 0.000
REMARK SMILES CC1(C)CC[C@@]2(C)CC[C@@]3(C)C(=CC[C@@H]4[C@@]5(C)CC[C@H](O)C(C)(C)[C@H]5CC[C@@]43C)[C@H]2C1
REMARK SMILES IDX 1 1 2 2 4 3 5 4 6 5 8 6 9 7 10 8 12 9 13 10 14 11 15 12
REMARK SMILES IDX 28 13 27 14 26 15 25 16 16 17 18 18 19 19 20 20 22 21 23 22
REMARK SMILES IDX 24 23 17 24 29 25 30 26 31 27 11 28 7 29 3 30 21 31
REMARK H PARENT 21 32
REMARK Flexibility Score: inf
ROOT
ATOM      1  C   UNL     1      -4.677 -61.696 -30.555  1.00  0.00     0.011 C 
ATOM      2  C   UNL     1      -6.082 -61.961 -29.949  1.00  0.00    -0.035 C 
ATOM      3  C   UNL     1      -6.308 -63.441 -29.597  1.00  0.00     0.007 C 
ATOM      4  C   UNL     1      -5.293 -63.927 -28.558  1.00  0.00     0.008 C 
ATOM      5  C   UNL     1      -5.375 -63.164 -27.196  1.00  0.00    -0.026 C 
ATOM      6  C   UNL     1      -3.922 -63.092 -26.621  1.00  0.00     0.008 C 
ATOM      7  C   UNL     1      -3.737 -62.103 -25.458  1.00  0.00     0.012 C 
ATOM      8  C   UNL     1      -4.105 -60.645 -25.868  1.00  0.00    -0.006 C 
ATOM      9  C   UNL     1      -5.591 -60.712 -26.272  1.00  0.00    -0.064 C 
ATOM     10  C   UNL     1      -6.532 -59.917 -25.732  1.00  0.00    -0.027 C 
ATOM     11  C   UNL     1      -6.279 -58.831 -24.727  1.00  0.00     0.032 C 
ATOM     12  C   UNL     1      -4.830 -58.343 -24.719  1.00  0.00     0.006 C 
ATOM     13  C   UNL     1      -3.843 -59.591 -24.670  1.00  0.00    -0.020 C 
ATOM     14  C   UNL     1      -2.367 -59.064 -24.608  1.00  0.00     0.008 C 
ATOM     15  C   UNL     1      -2.150 -57.526 -24.761  1.00  0.00     0.005 C 
ATOM     16  C   UNL     1      -3.001 -56.798 -25.844  1.00  0.00     0.003 C 
ATOM     17  C   UNL     1      -4.565 -57.104 -25.723  1.00  0.00    -0.025 C 
ATOM     18  C   UNL     1      -5.418 -55.887 -25.137  1.00  0.00     0.010 C 
ATOM     19  C   UNL     1      -4.813 -54.493 -25.079  1.00  0.00     0.033 C 
ATOM     20  C   UNL     1      -3.311 -54.446 -24.879  1.00  0.00     0.120 C 
ATOM     21  C   UNL     1      -2.613 -55.261 -25.988  1.00  0.00    -0.006 C 
ATOM     22  C   UNL     1      -1.080 -55.013 -25.878  1.00  0.00     0.014 C 
ATOM     23  C   UNL     1      -2.981 -54.728 -27.396  1.00  0.00     0.014 C 
ATOM     24  C   UNL     1      -5.145 -57.383 -27.168  1.00  0.00     0.012 C 
ATOM     25  C   UNL     1      -4.091 -60.312 -23.290  1.00  0.00     0.012 C 
ATOM     26  C   UNL     1      -6.079 -61.732 -27.304  1.00  0.00     0.022 C 
ATOM     27  C   UNL     1      -6.282 -61.051 -28.705  1.00  0.00     0.015 C 
ATOM     28  C   UNL     1      -3.233 -60.284 -27.100  1.00  0.00     0.017 C 
ATOM     29  C   UNL     1      -6.230 -64.024 -26.234  1.00  0.00     0.012 C 
ATOM     30  C   UNL     1      -7.120 -61.597 -31.020  1.00  0.00     0.011 C 
ENDROOT
BRANCH  20  31
ATOM     31  O   UNL     1      -2.845 -53.111 -24.860  1.00  0.00    -0.393 OA
ATOM     32  H   UNL     1      -2.890 -52.773 -23.928  1.00  0.00     0.210 HD
ENDBRANCH  20  31
TORSDOF 1
ENDMDL
MODEL 8
REMARK VINA RESULT:    -5.292      3.458      5.759
REMARK INTER + INTRA:          -5.447
REMARK INTER:                  -5.447
REMARK INTRA:                   0.000
REMARK UNBOUND:                 0.000
REMARK SMILES CC1(C)CC[C@@]2(C)CC[C@@]3(C)C(=CC[C@@H]4[C@@]5(C)CC[C@H](O)C(C)(C)[C@H]5CC[C@@]43C)[C@H]2C1
REMARK SMILES IDX 1 1 2 2 4 3 5 4 6 5 8 6 9 7 10 8 12 9 13 10 14 11 15 12
REMARK SMILES IDX 28 13 27 14 26 15 25 16 16 17 18 18 19 19 20 20 22 21 23 22
REMARK SMILES IDX 24 23 17 24 29 25 30 26 31 27 11 28 7 29 3 30 21 31
REMARK H PARENT 21 32
REMARK Flexibility Score: inf
ROOT
ATOM      1  C   UNL     1       0.506 -55.271 -25.922  1.00  0.00     0.011 C 
ATOM      2  C   UNL     1       0.350 -55.938 -24.528  1.00  0.00    -0.035 C 
ATOM      3  C   UNL     1       0.323 -54.914 -23.380  1.00  0.00     0.007 C 
ATOM      4  C   UNL     1      -0.853 -53.944 -23.528  1.00  0.00     0.008 C 
ATOM      5  C   UNL     1      -2.251 -54.642 -23.487  1.00  0.00    -0.026 C 
ATOM      6  C   UNL     1      -3.197 -53.832 -24.434  1.00  0.00     0.008 C 
ATOM      7  C   UNL     1      -4.515 -54.541 -24.788  1.00  0.00     0.012 C 
ATOM      8  C   UNL     1      -4.271 -55.906 -25.497  1.00  0.00    -0.006 C 
ATOM      9  C   UNL     1      -3.479 -56.746 -24.475  1.00  0.00    -0.064 C 
ATOM     10  C   UNL     1      -3.873 -57.966 -24.070  1.00  0.00    -0.027 C 
ATOM     11  C   UNL     1      -5.076 -58.705 -24.580  1.00  0.00     0.032 C 
ATOM     12  C   UNL     1      -5.552 -58.209 -25.947  1.00  0.00     0.006 C 
ATOM     13  C   UNL     1      -5.654 -56.621 -25.936  1.00  0.00    -0.020 C 
ATOM     14  C   UNL     1      -6.195 -56.140 -27.328  1.00  0.00     0.008 C 
ATOM     15  C   UNL     1      -6.365 -57.222 -28.440  1.00  0.00     0.005 C 
ATOM     16  C   UNL     1      -5.231 -58.282 -28.571  1.00  0.00     0.003 C 
ATOM     17  C   UNL     1      -4.877 -58.997 -27.186  1.00  0.00    -0.025 C 
ATOM     18  C   UNL     1      -5.409 -60.499 -27.080  1.00  0.00     0.010 C 
ATOM     19  C   UNL     1      -5.857 -61.238 -28.331  1.00  0.00     0.033 C 
ATOM     20  C   UNL     1      -6.457 -60.366 -29.418  1.00  0.00     0.120 C 
ATOM     21  C   UNL     1      -5.454 -59.259 -29.808  1.00  0.00    -0.006 C 
ATOM     22  C   UNL     1      -6.010 -58.526 -31.064  1.00  0.00     0.014 C 
ATOM     23  C   UNL     1      -4.109 -59.861 -30.288  1.00  0.00     0.014 C 
ATOM     24  C   UNL     1      -3.304 -59.082 -27.042  1.00  0.00     0.012 C 
ATOM     25  C   UNL     1      -6.777 -56.244 -24.895  1.00  0.00     0.012 C 
ATOM     26  C   UNL     1      -2.199 -56.202 -23.835  1.00  0.00     0.022 C 
ATOM     27  C   UNL     1      -0.929 -56.820 -24.522  1.00  0.00     0.015 C 
ATOM     28  C   UNL     1      -3.395 -55.622 -26.746  1.00  0.00     0.017 C 
ATOM     29  C   UNL     1      -2.792 -54.512 -22.043  1.00  0.00     0.012 C 
ATOM     30  C   UNL     1       1.583 -56.824 -24.302  1.00  0.00     0.011 C 
ENDROOT
BRANCH  20  31
ATOM     31  O   UNL     1      -6.822 -61.141 -30.543  1.00  0.00    -0.393 OA
ATOM     32  H   UNL     1      -6.255 -61.954 -30.565  1.00  0.00     0.210 HD
ENDBRANCH  20  31
TORSDOF 1
ENDMDL
MODEL 9
REMARK VINA RESULT:    -5.276      6.684      9.971
REMARK INTER + INTRA:          -5.430
REMARK INTER:                  -5.430
REMARK INTRA:                   0.000
REMARK UNBOUND:                 0.000
REMARK SMILES CC1(C)CC[C@@]2(C)CC[C@@]3(C)C(=CC[C@@H]4[C@@]5(C)CC[C@H](O)C(C)(C)[C@H]5CC[C@@]43C)[C@H]2C1
REMARK SMILES IDX 1 1 2 2 4 3 5 4 6 5 8 6 9 7 10 8 12 9 13 10 14 11 15 12
REMARK SMILES IDX 28 13 27 14 26 15 25 16 16 17 18 18 19 19 20 20 22 21 23 22
REMARK SMILES IDX 24 23 17 24 29 25 30 26 31 27 11 28 7 29 3 30 21 31
REMARK H PARENT 21 32
REMARK Flexibility Score: inf
ROOT
ATOM      1  C   UNL     1      -4.520 -49.287 -24.560  1.00  0.00     0.011 C 
ATOM      2  C   UNL     1      -4.800 -49.489 -23.046  1.00  0.00    -0.035 C 
ATOM      3  C   UNL     1      -6.296 -49.673 -22.738  1.00  0.00     0.007 C 
ATOM      4  C   UNL     1      -6.863 -50.905 -23.449  1.00  0.00     0.008 C 
ATOM      5  C   UNL     1      -6.187 -52.246 -23.014  1.00  0.00    -0.026 C 
ATOM      6  C   UNL     1      -6.175 -53.182 -24.267  1.00  0.00     0.008 C 
ATOM      7  C   UNL     1      -5.265 -54.415 -24.142  1.00  0.00     0.012 C 
ATOM      8  C   UNL     1      -3.778 -54.021 -23.892  1.00  0.00    -0.006 C 
ATOM      9  C   UNL     1      -3.796 -53.241 -22.562  1.00  0.00    -0.064 C 
ATOM     10  C   UNL     1      -3.022 -53.569 -21.513  1.00  0.00    -0.027 C 
ATOM     11  C   UNL     1      -2.006 -54.675 -21.493  1.00  0.00     0.032 C 
ATOM     12  C   UNL     1      -1.543 -55.090 -22.891  1.00  0.00     0.006 C 
ATOM     13  C   UNL     1      -2.807 -55.312 -23.832  1.00  0.00    -0.020 C 
ATOM     14  C   UNL     1      -2.309 -55.789 -25.241  1.00  0.00     0.008 C 
ATOM     15  C   UNL     1      -0.767 -55.799 -25.488  1.00  0.00     0.005 C 
ATOM     16  C   UNL     1       0.041 -54.582 -24.947  1.00  0.00     0.003 C 
ATOM     17  C   UNL     1      -0.247 -54.273 -23.406  1.00  0.00    -0.025 C 
ATOM     18  C   UNL     1       0.943 -54.696 -22.428  1.00  0.00     0.010 C 
ATOM     19  C   UNL     1       2.322 -55.000 -22.995  1.00  0.00     0.033 C 
ATOM     20  C   UNL     1       2.332 -55.586 -24.393  1.00  0.00     0.120 C 
ATOM     21  C   UNL     1       1.578 -54.645 -25.357  1.00  0.00    -0.006 C 
ATOM     22  C   UNL     1       1.795 -55.165 -26.808  1.00  0.00     0.014 C 
ATOM     23  C   UNL     1       2.205 -53.227 -25.367  1.00  0.00     0.014 C 
ATOM     24  C   UNL     1      -0.425 -52.712 -23.222  1.00  0.00     0.012 C 
ATOM     25  C   UNL     1      -3.610 -56.530 -23.235  1.00  0.00     0.012 C 
ATOM     26  C   UNL     1      -4.740 -52.053 -22.361  1.00  0.00     0.022 C 
ATOM     27  C   UNL     1      -3.969 -50.696 -22.528  1.00  0.00     0.015 C 
ATOM     28  C   UNL     1      -3.353 -53.084 -25.054  1.00  0.00     0.017 C 
ATOM     29  C   UNL     1      -7.093 -52.895 -21.940  1.00  0.00     0.012 C 
ATOM     30  C   UNL     1      -4.353 -48.212 -22.322  1.00  0.00     0.011 C 
ENDROOT
BRANCH  20  31
ATOM     31  O   UNL     1       3.656 -55.812 -24.837  1.00  0.00    -0.393 OA
ATOM     32  H   UNL     1       4.126 -54.940 -24.889  1.00  0.00     0.210 HD
ENDBRANCH  20  31
TORSDOF 1
ENDMDL
