MODEL 1
REMARK VINA RESULT:    -3.737      0.000      0.000
REMARK INTER + INTRA:          -5.036
REMARK INTER:                  -4.830
REMARK INTRA:                  -0.207
REMARK UNBOUND:                -0.207
REMARK SMILES CCO[C@H]1O[C@@H](CO)[C@@H](O)[C@H](O)[C@@H]1O
REMARK SMILES IDX 4 1 13 2 11 3 9 4 6 5 5 6 3 7 2 8 1 9 14 10 12 12 7 14 8 15
REMARK SMILES IDX 10 17
REMARK H PARENT 14 11 12 13 8 16 10 18
REMARK Flexibility Score: inf
ROOT
ATOM      1  C   UNL     1       8.444   2.751   2.965  1.00  0.00     0.281 C 
ATOM      2  C   UNL     1       9.138   3.924   3.682  1.00  0.00     0.202 C 
ATOM      3  C   UNL     1       8.276   5.193   3.580  1.00  0.00     0.179 C 
ATOM      4  C   UNL     1       7.944   5.471   2.107  1.00  0.00     0.177 C 
ATOM      5  C   UNL     1       7.350   4.217   1.420  1.00  0.00     0.178 C 
ATOM      6  O   UNL     1       8.154   3.054   1.605  1.00  0.00    -0.341 OA
ENDROOT
BRANCH   1   7
ATOM      7  O   UNL     1       7.259   2.370   3.649  1.00  0.00    -0.350 OA
BRANCH   7   8
ATOM      8  C   UNL     1       6.976   0.998   3.461  1.00  0.00     0.160 C 
ATOM      9  C   UNL     1       5.508   0.748   3.768  1.00  0.00     0.035 C 
ENDBRANCH   7   8
ENDBRANCH   1   7
BRANCH   2  10
ATOM     10  O   UNL     1      10.400   4.138   3.098  1.00  0.00    -0.385 OA
ATOM     11  H   UNL     1      11.075   3.756   3.715  1.00  0.00     0.211 HD
ENDBRANCH   2  10
BRANCH   3  12
ATOM     12  O   UNL     1       8.960   6.292   4.123  1.00  0.00    -0.387 OA
ATOM     13  H   UNL     1       9.674   5.924   4.709  1.00  0.00     0.211 HD
ENDBRANCH   3  12
BRANCH   5  14
ATOM     14  C   UNL     1       5.861   3.953   1.740  1.00  0.00     0.191 C 
BRANCH  14  15
ATOM     15  O   UNL     1       5.172   3.604   0.571  1.00  0.00    -0.394 OA
ATOM     16  H   UNL     1       5.774   3.002   0.063  1.00  0.00     0.210 HD
ENDBRANCH  14  15
ENDBRANCH   5  14
BRANCH   4  17
ATOM     17  O   UNL     1       7.051   6.551   2.004  1.00  0.00    -0.387 OA
ATOM     18  H   UNL     1       6.135   6.184   2.124  1.00  0.00     0.211 HD
ENDBRANCH   4  17
TORSDOF 7
ENDMDL
MODEL 2
REMARK VINA RESULT:    -3.654      1.829      3.467
REMARK INTER + INTRA:          -4.929
REMARK INTER:                  -4.728
REMARK INTRA:                  -0.200
REMARK UNBOUND:                -0.207
REMARK SMILES CCO[C@H]1O[C@@H](CO)[C@@H](O)[C@H](O)[C@@H]1O
REMARK SMILES IDX 4 1 13 2 11 3 9 4 6 5 5 6 3 7 2 8 1 9 14 10 12 12 7 14 8 15
REMARK SMILES IDX 10 17
REMARK H PARENT 14 11 12 13 8 16 10 18
REMARK Flexibility Score: inf
ROOT
ATOM      1  C   UNL     1       7.397   5.238   3.796  1.00  0.00     0.281 C 
ATOM      2  C   UNL     1       8.837   5.572   3.363  1.00  0.00     0.202 C 
ATOM      3  C   UNL     1       8.978   5.434   1.839  1.00  0.00     0.179 C 
ATOM      4  C   UNL     1       8.504   4.040   1.404  1.00  0.00     0.177 C 
ATOM      5  C   UNL     1       7.094   3.728   1.964  1.00  0.00     0.178 C 
ATOM      6  O   UNL     1       7.000   3.939   3.371  1.00  0.00    -0.341 OA
ENDROOT
BRANCH   1   7
ATOM      7  O   UNL     1       6.484   6.215   3.317  1.00  0.00    -0.350 OA
BRANCH   7   8
ATOM      8  C   UNL     1       6.590   7.419   4.049  1.00  0.00     0.160 C 
ATOM      9  C   UNL     1       6.898   8.558   3.089  1.00  0.00     0.035 C 
ENDBRANCH   7   8
ENDBRANCH   1   7
BRANCH   2  10
ATOM     10  O   UNL     1       9.728   4.704   4.021  1.00  0.00    -0.385 OA
ATOM     11  H   UNL     1      10.639   4.921   3.694  1.00  0.00     0.211 HD
ENDBRANCH   2  10
BRANCH   3  12
ATOM     12  O   UNL     1      10.316   5.616   1.455  1.00  0.00    -0.387 OA
ATOM     13  H   UNL     1      10.471   5.026   0.671  1.00  0.00     0.211 HD
ENDBRANCH   3  12
BRANCH   5  14
ATOM     14  C   UNL     1       5.933   4.399   1.195  1.00  0.00     0.191 C 
BRANCH  14  15
ATOM     15  O   UNL     1       5.099   3.422   0.633  1.00  0.00    -0.394 OA
ATOM     16  H   UNL     1       5.289   2.581   1.123  1.00  0.00     0.210 HD
ENDBRANCH  14  15
ENDBRANCH   5  14
BRANCH   4  17
ATOM     17  O   UNL     1       8.503   3.941   0.002  1.00  0.00    -0.387 OA
ATOM     18  H   UNL     1       9.303   4.430  -0.325  1.00  0.00     0.211 HD
ENDBRANCH   4  17
TORSDOF 7
ENDMDL
MODEL 3
REMARK VINA RESULT:    -3.577      1.406      3.250
REMARK INTER + INTRA:          -4.830
REMARK INTER:                  -4.660
REMARK INTRA:                  -0.169
REMARK UNBOUND:                -0.207
REMARK SMILES CCO[C@H]1O[C@@H](CO)[C@@H](O)[C@H](O)[C@@H]1O
REMARK SMILES IDX 4 1 13 2 11 3 9 4 6 5 5 6 3 7 2 8 1 9 14 10 12 12 7 14 8 15
REMARK SMILES IDX 10 17
REMARK H PARENT 14 11 12 13 8 16 10 18
REMARK Flexibility Score: inf
ROOT
ATOM      1  C   UNL     1       6.482   3.625   2.934  1.00  0.00     0.281 C 
ATOM      2  C   UNL     1       6.800   3.402   1.444  1.00  0.00     0.202 C 
ATOM      3  C   UNL     1       8.240   3.843   1.137  1.00  0.00     0.179 C 
ATOM      4  C   UNL     1       8.445   5.290   1.609  1.00  0.00     0.177 C 
ATOM      5  C   UNL     1       8.004   5.467   3.083  1.00  0.00     0.178 C 
ATOM      6  O   UNL     1       6.687   4.978   3.327  1.00  0.00    -0.341 OA
ENDROOT
BRANCH   1   7
ATOM      7  O   UNL     1       7.248   2.752   3.751  1.00  0.00    -0.350 OA
BRANCH   7   8
ATOM      8  C   UNL     1       6.547   1.555   4.022  1.00  0.00     0.160 C 
ATOM      9  C   UNL     1       5.058   1.856   4.088  1.00  0.00     0.035 C 
ENDBRANCH   7   8
ENDBRANCH   1   7
BRANCH   2  10
ATOM     10  O   UNL     1       5.885   4.133   0.664  1.00  0.00    -0.385 OA
ATOM     11  H   UNL     1       4.996   3.708   0.784  1.00  0.00     0.211 HD
ENDBRANCH   2  10
BRANCH   3  12
ATOM     12  O   UNL     1       8.493   3.758  -0.241  1.00  0.00    -0.387 OA
ATOM     13  H   UNL     1       8.543   4.691  -0.581  1.00  0.00     0.211 HD
ENDBRANCH   3  12
BRANCH   5  14
ATOM     14  C   UNL     1       9.021   4.948   4.125  1.00  0.00     0.191 C 
BRANCH  14  15
ATOM     15  O   UNL     1       9.852   3.978   3.546  1.00  0.00    -0.394 OA
ATOM     16  H   UNL     1      10.047   3.318   4.260  1.00  0.00     0.210 HD
ENDBRANCH  14  15
ENDBRANCH   5  14
BRANCH   4  17
ATOM     17  O   UNL     1       9.790   5.667   1.456  1.00  0.00    -0.387 OA
ATOM     18  H   UNL     1      10.179   5.079   0.755  1.00  0.00     0.211 HD
ENDBRANCH   4  17
TORSDOF 7
ENDMDL
MODEL 4
REMARK VINA RESULT:    -3.522      1.299      4.644
REMARK INTER + INTRA:          -4.758
REMARK INTER:                  -4.299
REMARK INTRA:                  -0.459
REMARK UNBOUND:                -0.207
REMARK SMILES CCO[C@H]1O[C@@H](CO)[C@@H](O)[C@H](O)[C@@H]1O
REMARK SMILES IDX 4 1 13 2 11 3 9 4 6 5 5 6 3 7 2 8 1 9 14 10 12 12 7 14 8 15
REMARK SMILES IDX 10 17
REMARK H PARENT 14 11 12 13 8 16 10 18
REMARK Flexibility Score: inf
ROOT
ATOM      1  C   UNL     1       6.984   4.772   1.597  1.00  0.00     0.281 C 
ATOM      2  C   UNL     1       5.638   4.097   1.920  1.00  0.00     0.202 C 
ATOM      3  C   UNL     1       5.808   3.106   3.083  1.00  0.00     0.179 C 
ATOM      4  C   UNL     1       6.938   2.119   2.755  1.00  0.00     0.177 C 
ATOM      5  C   UNL     1       8.229   2.865   2.334  1.00  0.00     0.178 C 
ATOM      6  O   UNL     1       8.001   3.821   1.302  1.00  0.00    -0.341 OA
ENDROOT
BRANCH   1   7
ATOM      7  O   UNL     1       7.394   5.619   2.661  1.00  0.00    -0.350 OA
BRANCH   7   8
ATOM      8  C   UNL     1       7.400   6.975   2.265  1.00  0.00     0.160 C 
ATOM      9  C   UNL     1       8.835   7.478   2.240  1.00  0.00     0.035 C 
ENDBRANCH   7   8
ENDBRANCH   1   7
BRANCH   2  10
ATOM     10  O   UNL     1       5.170   3.433   0.772  1.00  0.00    -0.385 OA
ATOM     11  H   UNL     1       5.662   3.809  -0.003  1.00  0.00     0.211 HD
ENDBRANCH   2  10
BRANCH   3  12
ATOM     12  O   UNL     1       4.615   2.398   3.299  1.00  0.00    -0.387 OA
ATOM     13  H   UNL     1       4.843   1.432   3.252  1.00  0.00     0.211 HD
ENDBRANCH   3  12
BRANCH   5  14
ATOM     14  C   UNL     1       9.041   3.457   3.509  1.00  0.00     0.191 C 
BRANCH  14  15
ATOM     15  O   UNL     1      10.114   4.215   3.018  1.00  0.00    -0.394 OA
ATOM     16  H   UNL     1      10.936   3.811   3.400  1.00  0.00     0.210 HD
ENDBRANCH  14  15
ENDBRANCH   5  14
BRANCH   4  17
ATOM     17  O   UNL     1       7.195   1.288   3.859  1.00  0.00    -0.387 OA
ATOM     18  H   UNL     1       6.357   0.791   4.050  1.00  0.00     0.211 HD
ENDBRANCH   4  17
TORSDOF 7
ENDMDL
MODEL 5
REMARK VINA RESULT:    -3.470      1.581      2.421
REMARK INTER + INTRA:          -4.691
REMARK INTER:                  -4.244
REMARK INTRA:                  -0.448
REMARK UNBOUND:                -0.207
REMARK SMILES CCO[C@H]1O[C@@H](CO)[C@@H](O)[C@H](O)[C@@H]1O
REMARK SMILES IDX 4 1 13 2 11 3 9 4 6 5 5 6 3 7 2 8 1 9 14 10 12 12 7 14 8 15
REMARK SMILES IDX 10 17
REMARK H PARENT 14 11 12 13 8 16 10 18
REMARK Flexibility Score: inf
ROOT
ATOM      1  C   UNL     1       7.001   3.853   2.116  1.00  0.00     0.281 C 
ATOM      2  C   UNL     1       8.528   3.817   1.920  1.00  0.00     0.202 C 
ATOM      3  C   UNL     1       9.204   4.862   2.822  1.00  0.00     0.179 C 
ATOM      4  C   UNL     1       8.575   6.240   2.571  1.00  0.00     0.177 C 
ATOM      5  C   UNL     1       7.031   6.180   2.678  1.00  0.00     0.178 C 
ATOM      6  O   UNL     1       6.463   5.149   1.875  1.00  0.00    -0.341 OA
ENDROOT
BRANCH   1   7
ATOM      7  O   UNL     1       6.647   3.406   3.417  1.00  0.00    -0.350 OA
BRANCH   7   8
ATOM      8  C   UNL     1       6.015   2.143   3.372  1.00  0.00     0.160 C 
ATOM      9  C   UNL     1       4.586   2.321   2.884  1.00  0.00     0.035 C 
ENDBRANCH   7   8
ENDBRANCH   1   7
BRANCH   2  10
ATOM     10  O   UNL     1       8.824   4.069   0.568  1.00  0.00    -0.385 OA
ATOM     11  H   UNL     1       8.190   4.767   0.257  1.00  0.00     0.211 HD
ENDBRANCH   2  10
BRANCH   3  12
ATOM     12  O   UNL     1      10.581   4.918   2.556  1.00  0.00    -0.387 OA
ATOM     13  H   UNL     1      10.907   5.786   2.915  1.00  0.00     0.211 HD
ENDBRANCH   3  12
BRANCH   5  14
ATOM     14  C   UNL     1       6.488   6.159   4.125  1.00  0.00     0.191 C 
BRANCH  14  15
ATOM     15  O   UNL     1       5.127   5.824   4.123  1.00  0.00    -0.394 OA
ATOM     16  H   UNL     1       4.631   6.676   4.228  1.00  0.00     0.210 HD
ENDBRANCH  14  15
ENDBRANCH   5  14
BRANCH   4  17
ATOM     17  O   UNL     1       9.089   7.183   3.477  1.00  0.00    -0.387 OA
ATOM     18  H   UNL     1       8.789   6.909   4.384  1.00  0.00     0.211 HD
ENDBRANCH   4  17
TORSDOF 7
ENDMDL
MODEL 6
REMARK VINA RESULT:    -3.468      1.532      3.699
REMARK INTER + INTRA:          -4.688
REMARK INTER:                  -4.300
REMARK INTRA:                  -0.388
REMARK UNBOUND:                -0.207
REMARK SMILES CCO[C@H]1O[C@@H](CO)[C@@H](O)[C@H](O)[C@@H]1O
REMARK SMILES IDX 4 1 13 2 11 3 9 4 6 5 5 6 3 7 2 8 1 9 14 10 12 12 7 14 8 15
REMARK SMILES IDX 10 17
REMARK H PARENT 14 11 12 13 8 16 10 18
REMARK Flexibility Score: inf
ROOT
ATOM      1  C   UNL     1       5.644   2.041   3.476  1.00  0.00     0.281 C 
ATOM      2  C   UNL     1       4.862   2.645   2.294  1.00  0.00     0.202 C 
ATOM      3  C   UNL     1       5.831   3.294   1.294  1.00  0.00     0.179 C 
ATOM      4  C   UNL     1       6.729   4.301   2.028  1.00  0.00     0.177 C 
ATOM      5  C   UNL     1       7.399   3.655   3.266  1.00  0.00     0.178 C 
ATOM      6  O   UNL     1       6.463   3.007   4.124  1.00  0.00    -0.341 OA
ENDROOT
BRANCH   1   7
ATOM      7  O   UNL     1       6.428   0.935   3.050  1.00  0.00    -0.350 OA
BRANCH   7   8
ATOM      8  C   UNL     1       6.443  -0.089   4.024  1.00  0.00     0.160 C 
ATOM      9  C   UNL     1       7.255  -1.262   3.498  1.00  0.00     0.035 C 
ENDBRANCH   7   8
ENDBRANCH   1   7
BRANCH   2  10
ATOM     10  O   UNL     1       3.951   3.598   2.786  1.00  0.00    -0.385 OA
ATOM     11  H   UNL     1       4.328   4.493   2.582  1.00  0.00     0.211 HD
ENDBRANCH   2  10
BRANCH   3  12
ATOM     12  O   UNL     1       5.117   3.954   0.281  1.00  0.00    -0.387 OA
ATOM     13  H   UNL     1       4.424   3.319  -0.040  1.00  0.00     0.211 HD
ENDBRANCH   3  12
BRANCH   5  14
ATOM     14  C   UNL     1       8.614   2.755   2.944  1.00  0.00     0.191 C 
BRANCH  14  15
ATOM     15  O   UNL     1       9.787   3.522   2.916  1.00  0.00    -0.394 OA
ATOM     16  H   UNL     1      10.527   2.905   3.151  1.00  0.00     0.210 HD
ENDBRANCH  14  15
ENDBRANCH   5  14
BRANCH   4  17
ATOM     17  O   UNL     1       7.707   4.808   1.156  1.00  0.00    -0.387 OA
ATOM     18  H   UNL     1       8.574   4.780   1.641  1.00  0.00     0.211 HD
ENDBRANCH   4  17
TORSDOF 7
ENDMDL
MODEL 7
REMARK VINA RESULT:    -3.364      1.609      2.995
REMARK INTER + INTRA:          -4.553
REMARK INTER:                  -4.337
REMARK INTRA:                  -0.216
REMARK UNBOUND:                -0.207
REMARK SMILES CCO[C@H]1O[C@@H](CO)[C@@H](O)[C@H](O)[C@@H]1O
REMARK SMILES IDX 4 1 13 2 11 3 9 4 6 5 5 6 3 7 2 8 1 9 14 10 12 12 7 14 8 15
REMARK SMILES IDX 10 17
REMARK H PARENT 14 11 12 13 8 16 10 18
REMARK Flexibility Score: inf
ROOT
ATOM      1  C   UNL     1       6.164   4.505   3.269  1.00  0.00     0.281 C 
ATOM      2  C   UNL     1       6.625   5.928   2.902  1.00  0.00     0.202 C 
ATOM      3  C   UNL     1       7.998   5.880   2.215  1.00  0.00     0.179 C 
ATOM      4  C   UNL     1       8.990   5.114   3.102  1.00  0.00     0.177 C 
ATOM      5  C   UNL     1       8.417   3.737   3.521  1.00  0.00     0.178 C 
ATOM      6  O   UNL     1       7.113   3.832   4.089  1.00  0.00    -0.341 OA
ENDROOT
BRANCH   1   7
ATOM      7  O   UNL     1       5.893   3.744   2.101  1.00  0.00    -0.350 OA
BRANCH   7   8
ATOM      8  C   UNL     1       4.774   2.902   2.284  1.00  0.00     0.160 C 
ATOM      9  C   UNL     1       3.798   3.574   3.236  1.00  0.00     0.035 C 
ENDBRANCH   7   8
ENDBRANCH   1   7
BRANCH   2  10
ATOM     10  O   UNL     1       6.686   6.707   4.072  1.00  0.00    -0.385 OA
ATOM     11  H   UNL     1       7.640   6.941   4.216  1.00  0.00     0.211 HD
ENDBRANCH   2  10
BRANCH   3  12
ATOM     12  O   UNL     1       8.477   7.181   1.991  1.00  0.00    -0.387 OA
ATOM     13  H   UNL     1       9.343   7.089   1.511  1.00  0.00     0.211 HD
ENDBRANCH   3  12
BRANCH   5  14
ATOM     14  C   UNL     1       8.500   2.647   2.429  1.00  0.00     0.191 C 
BRANCH  14  15
ATOM     15  O   UNL     1       8.562   3.239   1.161  1.00  0.00    -0.394 OA
ATOM     16  H   UNL     1       9.525   3.313   0.935  1.00  0.00     0.210 HD
ENDBRANCH  14  15
ENDBRANCH   5  14
BRANCH   4  17
ATOM     17  O   UNL     1      10.214   4.947   2.433  1.00  0.00    -0.387 OA
ATOM     18  H   UNL     1      10.812   4.439   3.043  1.00  0.00     0.211 HD
ENDBRANCH   4  17
TORSDOF 7
ENDMDL
MODEL 8
REMARK VINA RESULT:    -3.148      1.774      3.701
REMARK INTER + INTRA:          -4.275
REMARK INTER:                  -3.995
REMARK INTRA:                  -0.280
REMARK UNBOUND:                -0.207
REMARK SMILES CCO[C@H]1O[C@@H](CO)[C@@H](O)[C@H](O)[C@@H]1O
REMARK SMILES IDX 4 1 13 2 11 3 9 4 6 5 5 6 3 7 2 8 1 9 14 10 12 12 7 14 8 15
REMARK SMILES IDX 10 17
REMARK H PARENT 14 11 12 13 8 16 10 18
REMARK Flexibility Score: inf
ROOT
ATOM      1  C   UNL     1       5.486   4.078   3.035  1.00  0.00     0.281 C 
ATOM      2  C   UNL     1       6.525   4.710   2.090  1.00  0.00     0.202 C 
ATOM      3  C   UNL     1       7.502   3.638   1.582  1.00  0.00     0.179 C 
ATOM      4  C   UNL     1       8.116   2.895   2.777  1.00  0.00     0.177 C 
ATOM      5  C   UNL     1       7.018   2.379   3.740  1.00  0.00     0.178 C 
ATOM      6  O   UNL     1       6.099   3.399   4.125  1.00  0.00    -0.341 OA
ENDROOT
BRANCH   1   7
ATOM      7  O   UNL     1       4.627   3.197   2.325  1.00  0.00    -0.350 OA
BRANCH   7   8
ATOM      8  C   UNL     1       3.346   3.139   2.918  1.00  0.00     0.160 C 
ATOM      9  C   UNL     1       3.091   4.433   3.675  1.00  0.00     0.035 C 
ENDBRANCH   7   8
ENDBRANCH   1   7
BRANCH   2  10
ATOM     10  O   UNL     1       7.220   5.720   2.781  1.00  0.00    -0.385 OA
ATOM     11  H   UNL     1       7.961   6.019   2.193  1.00  0.00     0.211 HD
ENDBRANCH   2  10
BRANCH   3  12
ATOM     12  O   UNL     1       8.523   4.229   0.821  1.00  0.00    -0.387 OA
ATOM     13  H   UNL     1       8.426   5.213   0.927  1.00  0.00     0.211 HD
ENDBRANCH   3  12
BRANCH   5  14
ATOM     14  C   UNL     1       6.300   1.095   3.268  1.00  0.00     0.191 C 
BRANCH  14  15
ATOM     15  O   UNL     1       7.055  -0.034   3.614  1.00  0.00    -0.394 OA
ATOM     16  H   UNL     1       7.542   0.202   4.445  1.00  0.00     0.210 HD
ENDBRANCH  14  15
ENDBRANCH   5  14
BRANCH   4  17
ATOM     17  O   UNL     1       8.911   1.826   2.330  1.00  0.00    -0.387 OA
ATOM     18  H   UNL     1       9.805   2.200   2.111  1.00  0.00     0.211 HD
ENDBRANCH   4  17
TORSDOF 7
ENDMDL
MODEL 9
REMARK VINA RESULT:    -3.139      1.957      4.383
REMARK INTER + INTRA:          -4.263
REMARK INTER:                  -3.876
REMARK INTRA:                  -0.387
REMARK UNBOUND:                -0.207
REMARK SMILES CCO[C@H]1O[C@@H](CO)[C@@H](O)[C@H](O)[C@@H]1O
REMARK SMILES IDX 4 1 13 2 11 3 9 4 6 5 5 6 3 7 2 8 1 9 14 10 12 12 7 14 8 15
REMARK SMILES IDX 10 17
REMARK H PARENT 14 11 12 13 8 16 10 18
REMARK Flexibility Score: inf
ROOT
ATOM      1  C   UNL     1       8.416   6.479   2.898  1.00  0.00     0.281 C 
ATOM      2  C   UNL     1       9.021   5.513   1.862  1.00  0.00     0.202 C 
ATOM      3  C   UNL     1       8.045   4.361   1.576  1.00  0.00     0.179 C 
ATOM      4  C   UNL     1       7.644   3.688   2.896  1.00  0.00     0.177 C 
ATOM      5  C   UNL     1       7.146   4.730   3.928  1.00  0.00     0.178 C 
ATOM      6  O   UNL     1       8.058   5.812   4.103  1.00  0.00    -0.341 OA
ENDROOT
BRANCH   1   7
ATOM      7  O   UNL     1       7.292   7.160   2.358  1.00  0.00    -0.350 OA
BRANCH   7   8
ATOM      8  C   UNL     1       7.291   8.523   2.728  1.00  0.00     0.160 C 
ATOM      9  C   UNL     1       7.379   9.378   1.474  1.00  0.00     0.035 C 
ENDBRANCH   7   8
ENDBRANCH   1   7
BRANCH   2  10
ATOM     10  O   UNL     1      10.240   5.014   2.357  1.00  0.00    -0.385 OA
ATOM     11  H   UNL     1      10.319   4.076   2.042  1.00  0.00     0.211 HD
ENDBRANCH   2  10
BRANCH   3  12
ATOM     12  O   UNL     1       8.642   3.415   0.728  1.00  0.00    -0.387 OA
ATOM     13  H   UNL     1       8.891   2.639   1.297  1.00  0.00     0.211 HD
ENDBRANCH   3  12
BRANCH   5  14
ATOM     14  C   UNL     1       5.698   5.219   3.700  1.00  0.00     0.191 C 
BRANCH  14  15
ATOM     15  O   UNL     1       4.788   4.227   4.090  1.00  0.00    -0.394 OA
ATOM     16  H   UNL     1       3.886   4.573   3.862  1.00  0.00     0.210 HD
ENDBRANCH  14  15
ENDBRANCH   5  14
BRANCH   4  17
ATOM     17  O   UNL     1       6.654   2.718   2.668  1.00  0.00    -0.387 OA
ATOM     18  H   UNL     1       6.995   1.861   3.037  1.00  0.00     0.211 HD
ENDBRANCH   4  17
TORSDOF 7
ENDMDL
