MODEL 1
REMARK VINA RESULT:    -4.083      0.000      0.000
REMARK INTER + INTRA:          -6.454
REMARK INTER:                  -5.516
REMARK INTRA:                  -0.939
REMARK UNBOUND:                -0.939
REMARK SMILES O=C[C@H](O)[C@@H](O)[C@H](O)CO
REMARK SMILES IDX 7 1 9 2 10 3 5 5 3 6 2 7 1 8 4 9 6 11 8 13
REMARK H PARENT 10 4 4 10 6 12 8 14
REMARK Flexibility Score: inf
ROOT
ATOM      1  C   UNL     1     -13.493 -39.989 -15.449  1.00  0.00     0.171 C 
ENDROOT
BRANCH   1   2
ATOM      2  C   UNL     1     -14.873 -39.428 -15.074  1.00  0.00     0.190 C 
BRANCH   2   3
ATOM      3  O   UNL     1     -15.062 -39.520 -13.690  1.00  0.00    -0.394 OA
ATOM      4  H   UNL     1     -15.849 -38.952 -13.480  1.00  0.00     0.210 HD
ENDBRANCH   2   3
ENDBRANCH   1   2
BRANCH   1   5
ATOM      5  C   UNL     1     -13.589 -41.487 -15.842  1.00  0.00     0.181 C 
BRANCH   5   6
ATOM      6  C   UNL     1     -12.223 -42.139 -16.183  1.00  0.00     0.209 C 
BRANCH   6   7
ATOM      7  C   UNL     1     -11.686 -43.029 -15.085  1.00  0.00     0.258 C 
ATOM      8  O   UNL     1     -11.393 -42.560 -13.997  1.00  0.00    -0.300 OA
ENDBRANCH   6   7
BRANCH   6   9
ATOM      9  O   UNL     1     -11.279 -41.168 -16.562  1.00  0.00    -0.383 OA
ATOM     10  H   UNL     1     -11.759 -40.414 -16.993  1.00  0.00     0.211 HD
ENDBRANCH   6   9
ENDBRANCH   5   6
BRANCH   5  11
ATOM     11  O   UNL     1     -14.204 -42.220 -14.811  1.00  0.00    -0.387 OA
ATOM     12  H   UNL     1     -13.825 -43.137 -14.832  1.00  0.00     0.211 HD
ENDBRANCH   5  11
ENDBRANCH   1   5
BRANCH   1  13
ATOM     13  O   UNL     1     -12.615 -39.832 -14.364  1.00  0.00    -0.388 OA
ATOM     14  H   UNL     1     -13.168 -39.838 -13.539  1.00  0.00     0.211 HD
ENDBRANCH   1  13
TORSDOF 8
ENDMDL
MODEL 2
REMARK VINA RESULT:    -4.026      1.272      1.850
REMARK INTER + INTRA:          -6.376
REMARK INTER:                  -5.439
REMARK INTRA:                  -0.938
REMARK UNBOUND:                -0.939
REMARK SMILES O=C[C@H](O)[C@@H](O)[C@H](O)CO
REMARK SMILES IDX 7 1 9 2 10 3 5 5 3 6 2 7 1 8 4 9 6 11 8 13
REMARK H PARENT 10 4 4 10 6 12 8 14
REMARK Flexibility Score: inf
ROOT
ATOM      1  C   UNL     1     -15.163 -40.256 -16.068  1.00  0.00     0.171 C 
ENDROOT
BRANCH   1   2
ATOM      2  C   UNL     1     -16.228 -40.530 -14.995  1.00  0.00     0.190 C 
BRANCH   2   3
ATOM      3  O   UNL     1     -15.841 -39.945 -13.783  1.00  0.00    -0.394 OA
ATOM      4  H   UNL     1     -15.308 -39.142 -14.022  1.00  0.00     0.210 HD
ENDBRANCH   2   3
ENDBRANCH   1   2
BRANCH   1   5
ATOM      5  C   UNL     1     -13.908 -41.141 -15.846  1.00  0.00     0.181 C 
BRANCH   5   6
ATOM      6  C   UNL     1     -12.650 -40.353 -15.395  1.00  0.00     0.209 C 
BRANCH   6   7
ATOM      7  C   UNL     1     -11.423 -41.219 -15.221  1.00  0.00     0.258 C 
ATOM      8  O   UNL     1     -11.267 -41.870 -14.200  1.00  0.00    -0.300 OA
ENDBRANCH   6   7
BRANCH   6   9
ATOM      9  O   UNL     1     -12.913 -39.599 -14.237  1.00  0.00    -0.383 OA
ATOM     10  H   UNL     1     -13.760 -39.925 -13.835  1.00  0.00     0.211 HD
ENDBRANCH   6   9
ENDBRANCH   5   6
BRANCH   5  11
ATOM     11  O   UNL     1     -14.185 -42.146 -14.901  1.00  0.00    -0.387 OA
ATOM     12  H   UNL     1     -13.713 -42.968 -15.195  1.00  0.00     0.211 HD
ENDBRANCH   5  11
ENDBRANCH   1   5
BRANCH   1  13
ATOM     13  O   UNL     1     -14.805 -38.898 -16.034  1.00  0.00    -0.388 OA
ATOM     14  H   UNL     1     -15.041 -38.513 -16.918  1.00  0.00     0.211 HD
ENDBRANCH   1  13
TORSDOF 8
ENDMDL
MODEL 3
REMARK VINA RESULT:    -3.957      1.097      3.691
REMARK INTER + INTRA:          -6.283
REMARK INTER:                  -5.330
REMARK INTRA:                  -0.954
REMARK UNBOUND:                -0.939
REMARK SMILES O=C[C@H](O)[C@@H](O)[C@H](O)CO
REMARK SMILES IDX 7 1 9 2 10 3 5 5 3 6 2 7 1 8 4 9 6 11 8 13
REMARK H PARENT 10 4 4 10 6 12 8 14
REMARK Flexibility Score: inf
ROOT
ATOM      1  C   UNL     1     -12.904 -42.076 -15.627  1.00  0.00     0.171 C 
ENDROOT
BRANCH   1   2
ATOM      2  C   UNL     1     -11.666 -42.799 -15.077  1.00  0.00     0.190 C 
BRANCH   2   3
ATOM      3  O   UNL     1     -11.702 -42.802 -13.678  1.00  0.00    -0.394 OA
ATOM      4  H   UNL     1     -11.541 -41.863 -13.395  1.00  0.00     0.210 HD
ENDBRANCH   2   3
ENDBRANCH   1   2
BRANCH   1   5
ATOM      5  C   UNL     1     -12.682 -40.541 -15.665  1.00  0.00     0.181 C 
BRANCH   5   6
ATOM      6  C   UNL     1     -13.861 -39.746 -16.286  1.00  0.00     0.209 C 
BRANCH   6   7
ATOM      7  C   UNL     1     -14.700 -39.010 -15.266  1.00  0.00     0.258 C 
ATOM      8  O   UNL     1     -15.244 -39.619 -14.359  1.00  0.00    -0.300 OA
ENDBRANCH   6   7
BRANCH   6   9
ATOM      9  O   UNL     1     -14.655 -40.573 -17.101  1.00  0.00    -0.383 OA
ATOM     10  H   UNL     1     -15.367 -40.018 -17.514  1.00  0.00     0.211 HD
ENDBRANCH   6   9
ENDBRANCH   5   6
BRANCH   5  11
ATOM     11  O   UNL     1     -12.433 -40.055 -14.368  1.00  0.00    -0.387 OA
ATOM     12  H   UNL     1     -13.026 -39.272 -14.225  1.00  0.00     0.211 HD
ENDBRANCH   5  11
ENDBRANCH   1   5
BRANCH   1  13
ATOM     13  O   UNL     1     -14.017 -42.380 -14.826  1.00  0.00    -0.388 OA
ATOM     14  H   UNL     1     -13.869 -43.289 -14.454  1.00  0.00     0.211 HD
ENDBRANCH   1  13
TORSDOF 8
ENDMDL
MODEL 4
REMARK VINA RESULT:    -3.869      1.147      3.784
REMARK INTER + INTRA:          -6.165
REMARK INTER:                  -5.181
REMARK INTRA:                  -0.984
REMARK UNBOUND:                -0.939
REMARK SMILES O=C[C@H](O)[C@@H](O)[C@H](O)CO
REMARK SMILES IDX 7 1 9 2 10 3 5 5 3 6 2 7 1 8 4 9 6 11 8 13
REMARK H PARENT 10 4 4 10 6 12 8 14
REMARK Flexibility Score: inf
ROOT
ATOM      1  C   UNL     1     -11.587 -41.469 -15.862  1.00  0.00     0.171 C 
ENDROOT
BRANCH   1   2
ATOM      2  C   UNL     1     -10.906 -41.893 -14.551  1.00  0.00     0.190 C 
BRANCH   2   3
ATOM      3  O   UNL     1     -11.790 -42.663 -13.786  1.00  0.00    -0.394 OA
ATOM      4  H   UNL     1     -12.573 -42.081 -13.598  1.00  0.00     0.210 HD
ENDBRANCH   2   3
ENDBRANCH   1   2
BRANCH   1   5
ATOM      5  C   UNL     1     -12.662 -40.381 -15.605  1.00  0.00     0.181 C 
BRANCH   5   6
ATOM      6  C   UNL     1     -14.120 -40.873 -15.802  1.00  0.00     0.209 C 
BRANCH   6   7
ATOM      7  C   UNL     1     -15.147 -39.766 -15.740  1.00  0.00     0.258 C 
ATOM      8  O   UNL     1     -14.796 -38.603 -15.618  1.00  0.00    -0.300 OA
ENDBRANCH   6   7
BRANCH   6   9
ATOM      9  O   UNL     1     -14.430 -41.910 -14.903  1.00  0.00    -0.383 OA
ATOM     10  H   UNL     1     -14.508 -41.524 -13.992  1.00  0.00     0.211 HD
ENDBRANCH   6   9
ENDBRANCH   5   6
BRANCH   5  11
ATOM     11  O   UNL     1     -12.524 -39.860 -14.305  1.00  0.00    -0.387 OA
ATOM     12  H   UNL     1     -12.748 -40.588 -13.669  1.00  0.00     0.211 HD
ENDBRANCH   5  11
ENDBRANCH   1   5
BRANCH   1  13
ATOM     13  O   UNL     1     -12.175 -42.592 -16.467  1.00  0.00    -0.388 OA
ATOM     14  H   UNL     1     -12.479 -43.191 -15.735  1.00  0.00     0.211 HD
ENDBRANCH   1  13
TORSDOF 8
ENDMDL
MODEL 5
REMARK VINA RESULT:    -3.841      1.602      2.769
REMARK INTER + INTRA:          -6.127
REMARK INTER:                  -5.210
REMARK INTRA:                  -0.917
REMARK UNBOUND:                -0.939
REMARK SMILES O=C[C@H](O)[C@@H](O)[C@H](O)CO
REMARK SMILES IDX 7 1 9 2 10 3 5 5 3 6 2 7 1 8 4 9 6 11 8 13
REMARK H PARENT 10 4 4 10 6 12 8 14
REMARK Flexibility Score: inf
ROOT
ATOM      1  C   UNL     1     -14.174 -41.734 -15.840  1.00  0.00     0.171 C 
ENDROOT
BRANCH   1   2
ATOM      2  C   UNL     1     -15.020 -42.343 -16.968  1.00  0.00     0.190 C 
BRANCH   2   3
ATOM      3  O   UNL     1     -14.267 -42.402 -18.146  1.00  0.00    -0.394 OA
ATOM      4  H   UNL     1     -13.314 -42.359 -17.868  1.00  0.00     0.210 HD
ENDBRANCH   2   3
ENDBRANCH   1   2
BRANCH   1   5
ATOM      5  C   UNL     1     -12.688 -41.601 -16.267  1.00  0.00     0.181 C 
BRANCH   5   6
ATOM      6  C   UNL     1     -11.813 -40.799 -15.269  1.00  0.00     0.209 C 
BRANCH   6   7
ATOM      7  C   UNL     1     -10.876 -41.663 -14.455  1.00  0.00     0.258 C 
ATOM      8  O   UNL     1     -11.305 -42.620 -13.830  1.00  0.00    -0.300 OA
ENDBRANCH   6   7
BRANCH   6   9
ATOM      9  O   UNL     1     -12.606 -39.983 -14.441  1.00  0.00    -0.383 OA
ATOM     10  H   UNL     1     -12.163 -39.908 -13.557  1.00  0.00     0.211 HD
ENDBRANCH   6   9
ENDBRANCH   5   6
BRANCH   5  11
ATOM     11  O   UNL     1     -12.122 -42.875 -16.455  1.00  0.00    -0.387 OA
ATOM     12  H   UNL     1     -11.867 -43.221 -15.561  1.00  0.00     0.211 HD
ENDBRANCH   5  11
ENDBRANCH   1   5
BRANCH   1  13
ATOM     13  O   UNL     1     -14.274 -42.541 -14.694  1.00  0.00    -0.388 OA
ATOM     14  H   UNL     1     -15.224 -42.520 -14.405  1.00  0.00     0.211 HD
ENDBRANCH   1  13
TORSDOF 8
ENDMDL
MODEL 6
REMARK VINA RESULT:    -3.836     14.830     15.751
REMARK INTER + INTRA:          -6.120
REMARK INTER:                  -5.813
REMARK INTRA:                  -0.307
REMARK UNBOUND:                -0.939
REMARK SMILES O=C[C@H](O)[C@@H](O)[C@H](O)CO
REMARK SMILES IDX 7 1 9 2 10 3 5 5 3 6 2 7 1 8 4 9 6 11 8 13
REMARK H PARENT 10 4 4 10 6 12 8 14
REMARK Flexibility Score: inf
ROOT
ATOM      1  C   UNL     1      -0.238 -50.312 -14.735  1.00  0.00     0.171 C 
ENDROOT
BRANCH   1   2
ATOM      2  C   UNL     1       0.452 -51.676 -14.577  1.00  0.00     0.190 C 
BRANCH   2   3
ATOM      3  O   UNL     1      -0.511 -52.678 -14.411  1.00  0.00    -0.394 OA
ATOM      4  H   UNL     1      -1.267 -52.257 -13.923  1.00  0.00     0.210 HD
ENDBRANCH   2   3
ENDBRANCH   1   2
BRANCH   1   5
ATOM      5  C   UNL     1      -0.150 -49.487 -13.424  1.00  0.00     0.181 C 
BRANCH   5   6
ATOM      6  C   UNL     1       0.844 -48.298 -13.491  1.00  0.00     0.209 C 
BRANCH   6   7
ATOM      7  C   UNL     1       0.656 -47.288 -12.382  1.00  0.00     0.258 C 
ATOM      8  O   UNL     1      -0.180 -46.405 -12.486  1.00  0.00    -0.300 OA
ENDBRANCH   6   7
BRANCH   6   9
ATOM      9  O   UNL     1       0.813 -47.682 -14.755  1.00  0.00    -0.383 OA
ATOM     10  H   UNL     1      -0.006 -47.123 -14.812  1.00  0.00     0.211 HD
ENDBRANCH   6   9
ENDBRANCH   5   6
BRANCH   5  11
ATOM     11  O   UNL     1      -1.422 -49.004 -13.070  1.00  0.00    -0.387 OA
ATOM     12  H   UNL     1      -2.082 -49.431 -13.676  1.00  0.00     0.211 HD
ENDBRANCH   5  11
ENDBRANCH   1   5
BRANCH   1  13
ATOM     13  O   UNL     1      -1.583 -50.508 -15.090  1.00  0.00    -0.388 OA
ATOM     14  H   UNL     1      -2.079 -49.695 -14.810  1.00  0.00     0.211 HD
ENDBRANCH   1  13
TORSDOF 8
ENDMDL
MODEL 7
REMARK VINA RESULT:    -3.795      1.457      2.109
REMARK INTER + INTRA:          -6.065
REMARK INTER:                  -5.351
REMARK INTRA:                  -0.714
REMARK UNBOUND:                -0.939
REMARK SMILES O=C[C@H](O)[C@@H](O)[C@H](O)CO
REMARK SMILES IDX 7 1 9 2 10 3 5 5 3 6 2 7 1 8 4 9 6 11 8 13
REMARK H PARENT 10 4 4 10 6 12 8 14
REMARK Flexibility Score: inf
ROOT
ATOM      1  C   UNL     1     -13.329 -41.254 -15.688  1.00  0.00     0.171 C 
ENDROOT
BRANCH   1   2
ATOM      2  C   UNL     1     -14.596 -42.114 -15.810  1.00  0.00     0.190 C 
BRANCH   2   3
ATOM      3  O   UNL     1     -15.059 -42.459 -14.535  1.00  0.00    -0.394 OA
ATOM      4  H   UNL     1     -15.690 -43.214 -14.665  1.00  0.00     0.210 HD
ENDBRANCH   2   3
ENDBRANCH   1   2
BRANCH   1   5
ATOM      5  C   UNL     1     -12.080 -42.137 -15.427  1.00  0.00     0.181 C 
BRANCH   5   6
ATOM      6  C   UNL     1     -10.730 -41.407 -15.655  1.00  0.00     0.209 C 
BRANCH   6   7
ATOM      7  C   UNL     1      -9.765 -41.541 -14.499  1.00  0.00     0.258 C 
ATOM      8  O   UNL     1      -9.056 -42.530 -14.398  1.00  0.00    -0.300 OA
ENDBRANCH   6   7
BRANCH   6   9
ATOM      9  O   UNL     1     -10.936 -40.058 -15.996  1.00  0.00    -0.383 OA
ATOM     10  H   UNL     1     -11.876 -39.948 -16.292  1.00  0.00     0.211 HD
ENDBRANCH   6   9
ENDBRANCH   5   6
BRANCH   5  11
ATOM     11  O   UNL     1     -12.111 -42.646 -14.116  1.00  0.00    -0.387 OA
ATOM     12  H   UNL     1     -12.455 -41.926 -13.526  1.00  0.00     0.211 HD
ENDBRANCH   5  11
ENDBRANCH   1   5
BRANCH   1  13
ATOM     13  O   UNL     1     -13.490 -40.330 -14.643  1.00  0.00    -0.388 OA
ATOM     14  H   UNL     1     -12.769 -39.654 -14.738  1.00  0.00     0.211 HD
ENDBRANCH   1  13
TORSDOF 8
ENDMDL
MODEL 8
REMARK VINA RESULT:    -3.778     12.979     14.358
REMARK INTER + INTRA:          -6.042
REMARK INTER:                  -5.100
REMARK INTRA:                  -0.942
REMARK UNBOUND:                -0.939
REMARK SMILES O=C[C@H](O)[C@@H](O)[C@H](O)CO
REMARK SMILES IDX 7 1 9 2 10 3 5 5 3 6 2 7 1 8 4 9 6 11 8 13
REMARK H PARENT 10 4 4 10 6 12 8 14
REMARK Flexibility Score: inf
ROOT
ATOM      1  C   UNL     1       0.250 -44.153 -15.421  1.00  0.00     0.171 C 
ENDROOT
BRANCH   1   2
ATOM      2  C   UNL     1      -0.262 -43.987 -16.860  1.00  0.00     0.190 C 
BRANCH   2   3
ATOM      3  O   UNL     1      -1.377 -44.808 -17.064  1.00  0.00    -0.394 OA
ATOM      4  H   UNL     1      -1.673 -44.646 -17.998  1.00  0.00     0.210 HD
ENDBRANCH   2   3
ENDBRANCH   1   2
BRANCH   1   5
ATOM      5  C   UNL     1       1.306 -45.286 -15.332  1.00  0.00     0.181 C 
BRANCH   5   6
ATOM      6  C   UNL     1       1.951 -45.440 -13.930  1.00  0.00     0.209 C 
BRANCH   6   7
ATOM      7  C   UNL     1       1.418 -46.615 -13.142  1.00  0.00     0.258 C 
ATOM      8  O   UNL     1       0.257 -46.631 -12.766  1.00  0.00    -0.300 OA
ENDBRANCH   6   7
BRANCH   6   9
ATOM      9  O   UNL     1       1.854 -44.244 -13.194  1.00  0.00    -0.383 OA
ATOM     10  H   UNL     1       0.986 -43.814 -13.407  1.00  0.00     0.211 HD
ENDBRANCH   6   9
ENDBRANCH   5   6
BRANCH   5  11
ATOM     11  O   UNL     1       0.732 -46.514 -15.711  1.00  0.00    -0.387 OA
ATOM     12  H   UNL     1      -0.002 -46.314 -16.349  1.00  0.00     0.211 HD
ENDBRANCH   5  11
ENDBRANCH   1   5
BRANCH   1  13
ATOM     13  O   UNL     1      -0.832 -44.436 -14.571  1.00  0.00    -0.388 OA
ATOM     14  H   UNL     1      -1.070 -43.589 -14.110  1.00  0.00     0.211 HD
ENDBRANCH   1  13
TORSDOF 8
ENDMDL
MODEL 9
REMARK VINA RESULT:    -3.718      1.603      3.828
REMARK INTER + INTRA:          -5.961
REMARK INTER:                  -5.006
REMARK INTRA:                  -0.955
REMARK UNBOUND:                -0.939
REMARK SMILES O=C[C@H](O)[C@@H](O)[C@H](O)CO
REMARK SMILES IDX 7 1 9 2 10 3 5 5 3 6 2 7 1 8 4 9 6 11 8 13
REMARK H PARENT 10 4 4 10 6 12 8 14
REMARK Flexibility Score: inf
ROOT
ATOM      1  C   UNL     1     -10.862 -41.406 -14.478  1.00  0.00     0.171 C 
ENDROOT
BRANCH   1   2
ATOM      2  C   UNL     1      -9.891 -42.586 -14.323  1.00  0.00     0.190 C 
BRANCH   2   3
ATOM      3  O   UNL     1     -10.612 -43.779 -14.195  1.00  0.00    -0.394 OA
ATOM      4  H   UNL     1     -10.033 -44.493 -14.570  1.00  0.00     0.210 HD
ENDBRANCH   2   3
ENDBRANCH   1   2
BRANCH   1   5
ATOM      5  C   UNL     1     -12.212 -41.871 -15.086  1.00  0.00     0.181 C 
BRANCH   5   6
ATOM      6  C   UNL     1     -13.248 -40.731 -15.271  1.00  0.00     0.209 C 
BRANCH   6   7
ATOM      7  C   UNL     1     -13.385 -40.263 -16.702  1.00  0.00     0.258 C 
ATOM      8  O   UNL     1     -12.435 -39.760 -17.281  1.00  0.00    -0.300 OA
ENDBRANCH   6   7
BRANCH   6   9
ATOM      9  O   UNL     1     -12.978 -39.656 -14.404  1.00  0.00    -0.383 OA
ATOM     10  H   UNL     1     -11.995 -39.530 -14.356  1.00  0.00     0.211 HD
ENDBRANCH   6   9
ENDBRANCH   5   6
BRANCH   5  11
ATOM     11  O   UNL     1     -11.994 -42.500 -16.325  1.00  0.00    -0.387 OA
ATOM     12  H   UNL     1     -12.828 -42.408 -16.855  1.00  0.00     0.211 HD
ENDBRANCH   5  11
ENDBRANCH   1   5
BRANCH   1  13
ATOM     13  O   UNL     1     -10.278 -40.426 -15.299  1.00  0.00    -0.388 OA
ATOM     14  H   UNL     1     -10.687 -40.519 -16.199  1.00  0.00     0.211 HD
ENDBRANCH   1  13
TORSDOF 8
ENDMDL
