MODEL 1
REMARK VINA RESULT:    -5.573      0.000      0.000
REMARK INTER + INTRA:          -8.240
REMARK INTER:                  -7.854
REMARK INTRA:                  -0.385
REMARK UNBOUND:                -0.385
REMARK SMILES C=CCCCCCCC(=O)[O-]
REMARK SMILES IDX 6 1 7 2 8 3 9 4 10 5 11 6 5 7 4 8 3 9 2 10 1 11
REMARK H PARENT
REMARK Flexibility Score: inf
ROOT
ATOM      1  C   UNL     1     152.511 156.152 158.042  1.00  0.00     0.000 C 
ENDROOT
BRANCH   1   2
ATOM      2  C   UNL     1     151.848 157.256 158.886  1.00  0.00     0.006 C 
BRANCH   2   3
ATOM      3  C   UNL     1     150.644 157.885 158.173  1.00  0.00     0.053 C 
BRANCH   3   4
ATOM      4  C   UNL     1     149.483 158.070 159.103  1.00  0.00     0.041 C 
ATOM      5  O   UNL     1     148.689 159.033 158.941  1.00  0.00    -0.550 OA
ATOM      6  O   UNL     1     149.301 157.198 160.170  1.00  0.00    -0.550 OA
ENDBRANCH   3   4
ENDBRANCH   2   3
ENDBRANCH   1   2
BRANCH   1   7
ATOM      7  C   UNL     1     153.057 155.001 158.899  1.00  0.00     0.000 C 
BRANCH   7   8
ATOM      8  C   UNL     1     152.461 154.981 160.314  1.00  0.00     0.004 C 
BRANCH   8   9
ATOM      9  C   UNL     1     153.278 154.073 161.241  1.00  0.00     0.027 C 
BRANCH   9  10
ATOM     10  C   UNL     1     154.746 154.146 160.922  1.00  0.00    -0.035 C 
ATOM     11  C   UNL     1     155.676 154.132 161.882  1.00  0.00     0.004 C 
ENDBRANCH   9  10
ENDBRANCH   8   9
ENDBRANCH   7   8
ENDBRANCH   1   7
TORSDOF 7
ENDMDL
MODEL 2
REMARK VINA RESULT:    -5.512      3.415      6.072
REMARK INTER + INTRA:          -8.153
REMARK INTER:                  -7.849
REMARK INTRA:                  -0.304
REMARK UNBOUND:                -0.385
REMARK SMILES C=CCCCCCCC(=O)[O-]
REMARK SMILES IDX 6 1 7 2 8 3 9 4 10 5 11 6 5 7 4 8 3 9 2 10 1 11
REMARK H PARENT
REMARK Flexibility Score: inf
ROOT
ATOM      1  C   UNL     1     152.230 155.503 160.235  1.00  0.00     0.000 C 
ENDROOT
BRANCH   1   2
ATOM      2  C   UNL     1     152.899 154.385 161.054  1.00  0.00     0.006 C 
BRANCH   2   3
ATOM      3  C   UNL     1     154.349 154.137 160.617  1.00  0.00     0.053 C 
BRANCH   3   4
ATOM      4  C   UNL     1     155.293 154.179 161.780  1.00  0.00     0.041 C 
ATOM      5  O   UNL     1     156.533 154.073 161.594  1.00  0.00    -0.550 OA
ATOM      6  O   UNL     1     154.798 154.299 163.073  1.00  0.00    -0.550 OA
ENDBRANCH   3   4
ENDBRANCH   2   3
ENDBRANCH   1   2
BRANCH   1   7
ATOM      7  C   UNL     1     152.781 155.599 158.804  1.00  0.00     0.000 C 
BRANCH   7   8
ATOM      8  C   UNL     1     152.057 156.658 157.961  1.00  0.00     0.004 C 
BRANCH   8   9
ATOM      9  C   UNL     1     151.047 157.440 158.810  1.00  0.00     0.027 C 
BRANCH   9  10
ATOM     10  C   UNL     1     150.042 158.152 157.947  1.00  0.00    -0.035 C 
ATOM     11  C   UNL     1     149.103 158.946 158.469  1.00  0.00     0.004 C 
ENDBRANCH   9  10
ENDBRANCH   8   9
ENDBRANCH   7   8
ENDBRANCH   1   7
TORSDOF 7
ENDMDL
MODEL 3
REMARK VINA RESULT:    -5.443      2.846      5.458
REMARK INTER + INTRA:          -8.056
REMARK INTER:                  -7.643
REMARK INTRA:                  -0.413
REMARK UNBOUND:                -0.385
REMARK SMILES C=CCCCCCCC(=O)[O-]
REMARK SMILES IDX 6 1 7 2 8 3 9 4 10 5 11 6 5 7 4 8 3 9 2 10 1 11
REMARK H PARENT
REMARK Flexibility Score: inf
ROOT
ATOM      1  C   UNL     1     152.874 155.165 158.012  1.00  0.00     0.000 C 
ENDROOT
BRANCH   1   2
ATOM      2  C   UNL     1     153.023 155.181 159.544  1.00  0.00     0.006 C 
BRANCH   2   3
ATOM      3  C   UNL     1     153.995 154.103 160.041  1.00  0.00     0.053 C 
BRANCH   3   4
ATOM      4  C   UNL     1     154.183 154.169 161.526  1.00  0.00     0.041 C 
ATOM      5  O   UNL     1     153.184 154.228 162.290  1.00  0.00    -0.550 OA
ATOM      6  O   UNL     1     155.464 154.202 162.064  1.00  0.00    -0.550 OA
ENDBRANCH   3   4
ENDBRANCH   2   3
ENDBRANCH   1   2
BRANCH   1   7
ATOM      7  C   UNL     1     152.063 156.358 157.484  1.00  0.00     0.000 C 
BRANCH   7   8
ATOM      8  C   UNL     1     151.692 157.357 158.590  1.00  0.00     0.004 C 
BRANCH   8   9
ATOM      9  C   UNL     1     150.414 158.124 158.231  1.00  0.00     0.027 C 
BRANCH   9  10
ATOM     10  C   UNL     1     149.354 157.941 159.282  1.00  0.00    -0.035 C 
ATOM     11  C   UNL     1     149.492 157.057 160.275  1.00  0.00     0.004 C 
ENDBRANCH   9  10
ENDBRANCH   8   9
ENDBRANCH   7   8
ENDBRANCH   1   7
TORSDOF 7
ENDMDL
MODEL 4
REMARK VINA RESULT:    -5.133      3.385      5.436
REMARK INTER + INTRA:          -7.619
REMARK INTER:                  -6.915
REMARK INTRA:                  -0.704
REMARK UNBOUND:                -0.385
REMARK SMILES C=CCCCCCCC(=O)[O-]
REMARK SMILES IDX 6 1 7 2 8 3 9 4 10 5 11 6 5 7 4 8 3 9 2 10 1 11
REMARK H PARENT
REMARK Flexibility Score: inf
ROOT
ATOM      1  C   UNL     1     152.239 156.048 160.870  1.00  0.00     0.000 C 
ENDROOT
BRANCH   1   2
ATOM      2  C   UNL     1     152.641 154.563 160.808  1.00  0.00     0.006 C 
BRANCH   2   3
ATOM      3  C   UNL     1     154.121 154.380 160.446  1.00  0.00     0.053 C 
BRANCH   3   4
ATOM      4  C   UNL     1     154.982 154.278 161.668  1.00  0.00     0.041 C 
ATOM      5  O   UNL     1     156.234 154.215 161.558  1.00  0.00    -0.550 OA
ATOM      6  O   UNL     1     154.397 154.218 162.927  1.00  0.00    -0.550 OA
ENDBRANCH   3   4
ENDBRANCH   2   3
ENDBRANCH   1   2
BRANCH   1   7
ATOM      7  C   UNL     1     150.919 156.335 160.139  1.00  0.00     0.000 C 
BRANCH   7   8
ATOM      8  C   UNL     1     151.074 157.387 159.030  1.00  0.00     0.004 C 
BRANCH   8   9
ATOM      9  C   UNL     1     152.317 157.107 158.178  1.00  0.00     0.027 C 
BRANCH   9  10
ATOM     10  C   UNL     1     152.035 156.074 157.123  1.00  0.00    -0.035 C 
ATOM     11  C   UNL     1     152.784 154.974 156.996  1.00  0.00     0.004 C 
ENDBRANCH   9  10
ENDBRANCH   8   9
ENDBRANCH   7   8
ENDBRANCH   1   7
TORSDOF 7
ENDMDL
MODEL 5
REMARK VINA RESULT:    -4.980      2.270      2.736
REMARK INTER + INTRA:          -7.404
REMARK INTER:                  -7.160
REMARK INTRA:                  -0.243
REMARK UNBOUND:                -0.385
REMARK SMILES C=CCCCCCCC(=O)[O-]
REMARK SMILES IDX 6 1 7 2 8 3 9 4 10 5 11 6 5 7 4 8 3 9 2 10 1 11
REMARK H PARENT
REMARK Flexibility Score: inf
ROOT
ATOM      1  C   UNL     1     150.583 156.632 160.160  1.00  0.00     0.000 C 
ENDROOT
BRANCH   1   2
ATOM      2  C   UNL     1     150.876 157.745 159.137  1.00  0.00     0.006 C 
BRANCH   2   3
ATOM      3  C   UNL     1     150.953 157.205 157.703  1.00  0.00     0.053 C 
BRANCH   3   4
ATOM      4  C   UNL     1     152.228 156.456 157.461  1.00  0.00     0.041 C 
ATOM      5  O   UNL     1     153.313 156.879 157.939  1.00  0.00    -0.550 OA
ATOM      6  O   UNL     1     152.222 155.308 156.677  1.00  0.00    -0.550 OA
ENDBRANCH   3   4
ENDBRANCH   2   3
ENDBRANCH   1   2
BRANCH   1   7
ATOM      7  C   UNL     1     151.825 156.231 160.969  1.00  0.00     0.000 C 
BRANCH   7   8
ATOM      8  C   UNL     1     152.334 154.826 160.614  1.00  0.00     0.004 C 
BRANCH   8   9
ATOM      9  C   UNL     1     153.316 154.314 161.675  1.00  0.00     0.027 C 
BRANCH   9  10
ATOM     10  C   UNL     1     154.697 154.144 161.104  1.00  0.00    -0.035 C 
ATOM     11  C   UNL     1     155.786 154.162 161.878  1.00  0.00     0.004 C 
ENDBRANCH   9  10
ENDBRANCH   8   9
ENDBRANCH   7   8
ENDBRANCH   1   7
TORSDOF 7
ENDMDL
MODEL 6
REMARK VINA RESULT:    -4.835     12.823     14.224
REMARK INTER + INTRA:          -7.199
REMARK INTER:                  -6.860
REMARK INTRA:                  -0.339
REMARK UNBOUND:                -0.385
REMARK SMILES C=CCCCCCCC(=O)[O-]
REMARK SMILES IDX 6 1 7 2 8 3 9 4 10 5 11 6 5 7 4 8 3 9 2 10 1 11
REMARK H PARENT
REMARK Flexibility Score: inf
ROOT
ATOM      1  C   UNL     1     157.200 168.674 163.248  1.00  0.00     0.000 C 
ENDROOT
BRANCH   1   2
ATOM      2  C   UNL     1     157.372 167.583 164.320  1.00  0.00     0.006 C 
BRANCH   2   3
ATOM      3  C   UNL     1     158.401 166.522 163.905  1.00  0.00     0.053 C 
BRANCH   3   4
ATOM      4  C   UNL     1     157.782 165.162 163.799  1.00  0.00     0.041 C 
ATOM      5  O   UNL     1     158.504 164.151 163.594  1.00  0.00    -0.550 OA
ATOM      6  O   UNL     1     156.403 165.016 163.892  1.00  0.00    -0.550 OA
ENDBRANCH   3   4
ENDBRANCH   2   3
ENDBRANCH   1   2
BRANCH   1   7
ATOM      7  C   UNL     1     155.734 169.095 163.064  1.00  0.00     0.000 C 
BRANCH   7   8
ATOM      8  C   UNL     1     155.593 170.516 162.497  1.00  0.00     0.004 C 
BRANCH   8   9
ATOM      9  C   UNL     1     154.811 170.505 161.178  1.00  0.00     0.027 C 
BRANCH   9  10
ATOM     10  C   UNL     1     155.727 170.685 159.999  1.00  0.00    -0.035 C 
ATOM     11  C   UNL     1     156.167 169.645 159.285  1.00  0.00     0.004 C 
ENDBRANCH   9  10
ENDBRANCH   8   9
ENDBRANCH   7   8
ENDBRANCH   1   7
TORSDOF 7
ENDMDL
MODEL 7
REMARK VINA RESULT:    -4.826      1.879      3.112
REMARK INTER + INTRA:          -7.187
REMARK INTER:                  -6.962
REMARK INTRA:                  -0.225
REMARK UNBOUND:                -0.385
REMARK SMILES C=CCCCCCCC(=O)[O-]
REMARK SMILES IDX 6 1 7 2 8 3 9 4 10 5 11 6 5 7 4 8 3 9 2 10 1 11
REMARK H PARENT
REMARK Flexibility Score: inf
ROOT
ATOM      1  C   UNL     1     151.419 156.806 160.813  1.00  0.00     0.000 C 
ENDROOT
BRANCH   1   2
ATOM      2  C   UNL     1     150.059 156.664 160.104  1.00  0.00     0.006 C 
BRANCH   2   3
ATOM      3  C   UNL     1     149.239 157.959 160.163  1.00  0.00     0.053 C 
BRANCH   3   4
ATOM      4  C   UNL     1     149.150 158.621 158.822  1.00  0.00     0.041 C 
ATOM      5  O   UNL     1     148.205 159.412 158.567  1.00  0.00    -0.550 OA
ATOM      6  O   UNL     1     150.092 158.334 157.842  1.00  0.00    -0.550 OA
ENDBRANCH   3   4
ENDBRANCH   2   3
ENDBRANCH   1   2
BRANCH   1   7
ATOM      7  C   UNL     1     152.191 155.480 160.882  1.00  0.00     0.000 C 
BRANCH   7   8
ATOM      8  C   UNL     1     152.946 155.166 159.581  1.00  0.00     0.004 C 
BRANCH   8   9
ATOM      9  C   UNL     1     153.216 156.446 158.782  1.00  0.00     0.027 C 
BRANCH   9  10
ATOM     10  C   UNL     1     152.529 156.410 157.444  1.00  0.00    -0.035 C 
ATOM     11  C   UNL     1     152.385 155.273 156.758  1.00  0.00     0.004 C 
ENDBRANCH   9  10
ENDBRANCH   8   9
ENDBRANCH   7   8
ENDBRANCH   1   7
TORSDOF 7
ENDMDL
MODEL 8
REMARK VINA RESULT:    -4.612     14.603     16.580
REMARK INTER + INTRA:          -6.884
REMARK INTER:                  -6.191
REMARK INTRA:                  -0.693
REMARK UNBOUND:                -0.385
REMARK SMILES C=CCCCCCCC(=O)[O-]
REMARK SMILES IDX 6 1 7 2 8 3 9 4 10 5 11 6 5 7 4 8 3 9 2 10 1 11
REMARK H PARENT
REMARK Flexibility Score: inf
ROOT
ATOM      1  C   UNL     1     150.684 172.048 152.660  1.00  0.00     0.000 C 
ENDROOT
BRANCH   1   2
ATOM      2  C   UNL     1     151.769 171.451 153.574  1.00  0.00     0.006 C 
BRANCH   2   3
ATOM      3  C   UNL     1     152.719 170.518 152.811  1.00  0.00     0.053 C 
BRANCH   3   4
ATOM      4  C   UNL     1     152.775 169.156 153.433  1.00  0.00     0.041 C 
ATOM      5  O   UNL     1     151.760 168.412 153.423  1.00  0.00    -0.550 OA
ATOM      6  O   UNL     1     153.940 168.723 154.055  1.00  0.00    -0.550 OA
ENDBRANCH   3   4
ENDBRANCH   2   3
ENDBRANCH   1   2
BRANCH   1   7
ATOM      7  C   UNL     1     149.502 171.091 152.442  1.00  0.00     0.000 C 
BRANCH   7   8
ATOM      8  C   UNL     1     148.695 171.425 151.178  1.00  0.00     0.004 C 
BRANCH   8   9
ATOM      9  C   UNL     1     148.896 170.355 150.100  1.00  0.00     0.027 C 
BRANCH   9  10
ATOM     10  C   UNL     1     149.773 169.238 150.596  1.00  0.00    -0.035 C 
ATOM     11  C   UNL     1     150.749 168.721 149.843  1.00  0.00     0.004 C 
ENDBRANCH   9  10
ENDBRANCH   8   9
ENDBRANCH   7   8
ENDBRANCH   1   7
TORSDOF 7
ENDMDL
MODEL 9
REMARK VINA RESULT:    -4.484     15.098     16.662
REMARK INTER + INTRA:          -6.704
REMARK INTER:                  -6.116
REMARK INTRA:                  -0.588
REMARK UNBOUND:                -0.385
REMARK SMILES C=CCCCCCCC(=O)[O-]
REMARK SMILES IDX 6 1 7 2 8 3 9 4 10 5 11 6 5 7 4 8 3 9 2 10 1 11
REMARK H PARENT
REMARK Flexibility Score: inf
ROOT
ATOM      1  C   UNL     1     151.561 170.849 153.614  1.00  0.00     0.000 C 
ENDROOT
BRANCH   1   2
ATOM      2  C   UNL     1     152.976 170.737 153.019  1.00  0.00     0.006 C 
BRANCH   2   3
ATOM      3  C   UNL     1     153.635 169.389 153.343  1.00  0.00     0.053 C 
BRANCH   3   4
ATOM      4  C   UNL     1     155.069 169.355 152.911  1.00  0.00     0.041 C 
ATOM      5  O   UNL     1     155.888 168.597 153.492  1.00  0.00    -0.550 OA
ATOM      6  O   UNL     1     155.508 170.189 151.889  1.00  0.00    -0.550 OA
ENDBRANCH   3   4
ENDBRANCH   2   3
ENDBRANCH   1   2
BRANCH   1   7
ATOM      7  C   UNL     1     150.791 172.066 153.083  1.00  0.00     0.000 C 
BRANCH   7   8
ATOM      8  C   UNL     1     149.833 171.707 151.937  1.00  0.00     0.004 C 
BRANCH   8   9
ATOM      9  C   UNL     1     149.528 170.205 151.928  1.00  0.00     0.027 C 
BRANCH   9  10
ATOM     10  C   UNL     1     149.821 169.596 150.584  1.00  0.00    -0.035 C 
ATOM     11  C   UNL     1     150.908 168.848 150.372  1.00  0.00     0.004 C 
ENDBRANCH   9  10
ENDBRANCH   8   9
ENDBRANCH   7   8
ENDBRANCH   1   7
TORSDOF 7
ENDMDL
