MODEL 1
REMARK VINA RESULT:    -6.888      0.000      0.000
REMARK INTER + INTRA:          -7.492
REMARK INTER:                  -7.492
REMARK INTRA:                   0.000
REMARK UNBOUND:                 0.000
REMARK SMILES Cc1cc(O)c2c(c1)C(=O)c1cc(O)cc(O)c1C2=O
REMARK SMILES IDX 1 1 2 2 8 3 7 4 6 5 4 6 3 7 19 8 20 9 18 10 11 11 9 12 10 13
REMARK SMILES IDX 12 14 13 15 15 16 16 17 5 18 17 20 14 22
REMARK H PARENT 5 19 17 21 14 23
REMARK Flexibility Score: inf
ROOT
ATOM      1  C   UNL     1      23.785  50.937  48.170  1.00  0.00     0.044 C 
ATOM      2  C   UNL     1      22.811  50.509  47.111  1.00  0.00    -0.047 A 
ATOM      3  C   UNL     1      21.455  50.360  47.419  1.00  0.00     0.016 A 
ATOM      4  C   UNL     1      20.543  49.918  46.445  1.00  0.00     0.038 A 
ATOM      5  C   UNL     1      21.002  49.594  45.148  1.00  0.00     0.076 A 
ATOM      6  C   UNL     1      22.370  49.791  44.829  1.00  0.00     0.127 A 
ATOM      7  C   UNL     1      23.262  50.213  45.820  1.00  0.00     0.050 A 
ATOM      8  C   UNL     1      20.036  48.991  44.193  1.00  0.00     0.201 C 
ATOM      9  O   UNL     1      20.445  48.191  43.310  1.00  0.00    -0.288 OA
ATOM     10  C   UNL     1      18.578  49.183  44.399  1.00  0.00     0.076 A 
ATOM     11  C   UNL     1      18.123  49.507  45.697  1.00  0.00     0.041 A 
ATOM     12  C   UNL     1      19.104  49.794  46.771  1.00  0.00     0.194 C 
ATOM     13  O   UNL     1      18.709  49.956  47.959  1.00  0.00    -0.289 OA
ATOM     14  C   UNL     1      16.745  49.561  45.962  1.00  0.00     0.059 A 
ATOM     15  C   UNL     1      15.817  49.312  44.947  1.00  0.00     0.120 A 
ATOM     16  C   UNL     1      16.261  49.032  43.656  1.00  0.00     0.093 A 
ATOM     17  C   UNL     1      17.628  48.992  43.362  1.00  0.00     0.131 A 
ENDROOT
BRANCH   6  18
ATOM     18  O   UNL     1      22.879  49.612  43.540  1.00  0.00    -0.507 OA
ATOM     19  H   UNL     1      22.307  49.368  42.743  1.00  0.00     0.293 HD
ENDBRANCH   6  18
BRANCH  17  20
ATOM     20  O   UNL     1      17.995  48.795  42.028  1.00  0.00    -0.507 OA
ATOM     21  H   UNL     1      17.919  47.907  41.553  1.00  0.00     0.293 HD
ENDBRANCH  17  20
BRANCH  15  22
ATOM     22  O   UNL     1      14.449  49.353  45.210  1.00  0.00    -0.508 OA
ATOM     23  H   UNL     1      13.999  50.195  45.548  1.00  0.00     0.293 HD
ENDBRANCH  15  22
TORSDOF 3
ENDMDL
MODEL 2
REMARK VINA RESULT:    -6.754      1.368      1.957
REMARK INTER + INTRA:          -7.347
REMARK INTER:                  -7.347
REMARK INTRA:                   0.000
REMARK UNBOUND:                 0.000
REMARK SMILES Cc1cc(O)c2c(c1)C(=O)c1cc(O)cc(O)c1C2=O
REMARK SMILES IDX 1 1 2 2 8 3 7 4 6 5 4 6 3 7 19 8 20 9 18 10 11 11 9 12 10 13
REMARK SMILES IDX 12 14 13 15 15 16 16 17 5 18 17 20 14 22
REMARK H PARENT 5 19 17 21 14 23
REMARK Flexibility Score: inf
ROOT
ATOM      1  C   UNL     1      21.747  50.511  47.902  1.00  0.00     0.044 C 
ATOM      2  C   UNL     1      20.992  50.045  46.691  1.00  0.00    -0.047 A 
ATOM      3  C   UNL     1      19.596  50.122  46.658  1.00  0.00     0.016 A 
ATOM      4  C   UNL     1      18.879  49.648  45.546  1.00  0.00     0.038 A 
ATOM      5  C   UNL     1      19.569  49.063  44.461  1.00  0.00     0.076 A 
ATOM      6  C   UNL     1      20.987  49.029  44.481  1.00  0.00     0.127 A 
ATOM      7  C   UNL     1      21.678  49.489  45.606  1.00  0.00     0.050 A 
ATOM      8  C   UNL     1      18.769  48.441  43.374  1.00  0.00     0.201 C 
ATOM      9  O   UNL     1      19.237  47.463  42.732  1.00  0.00    -0.288 OA
ATOM     10  C   UNL     1      17.354  48.848  43.174  1.00  0.00     0.076 A 
ATOM     11  C   UNL     1      16.667  49.433  44.262  1.00  0.00     0.041 A 
ATOM     12  C   UNL     1      17.402  49.762  45.507  1.00  0.00     0.194 C 
ATOM     13  O   UNL     1      16.772  50.163  46.524  1.00  0.00    -0.289 OA
ATOM     14  C   UNL     1      15.293  49.705  44.156  1.00  0.00     0.059 A 
ATOM     15  C   UNL     1      14.602  49.415  42.978  1.00  0.00     0.120 A 
ATOM     16  C   UNL     1      15.284  48.875  41.888  1.00  0.00     0.093 A 
ATOM     17  C   UNL     1      16.656  48.614  41.961  1.00  0.00     0.131 A 
ENDROOT
BRANCH   6  18
ATOM     18  O   UNL     1      21.748  48.581  43.397  1.00  0.00    -0.507 OA
ATOM     19  H   UNL     1      22.615  49.013  43.108  1.00  0.00     0.293 HD
ENDBRANCH   6  18
BRANCH  17  20
ATOM     20  O   UNL     1      17.288  48.160  40.801  1.00  0.00    -0.507 OA
ATOM     21  H   UNL     1      16.858  47.526  40.142  1.00  0.00     0.293 HD
ENDBRANCH  17  20
BRANCH  15  22
ATOM     22  O   UNL     1      13.236  49.672  42.874  1.00  0.00    -0.508 OA
ATOM     23  H   UNL     1      12.874  50.361  42.227  1.00  0.00     0.293 HD
ENDBRANCH  15  22
TORSDOF 3
ENDMDL
MODEL 3
REMARK VINA RESULT:    -6.750      2.127      4.117
REMARK INTER + INTRA:          -7.342
REMARK INTER:                  -7.342
REMARK INTRA:                   0.000
REMARK UNBOUND:                 0.000
REMARK SMILES Cc1cc(O)c2c(c1)C(=O)c1cc(O)cc(O)c1C2=O
REMARK SMILES IDX 1 1 2 2 8 3 7 4 6 5 4 6 3 7 19 8 20 9 18 10 11 11 9 12 10 13
REMARK SMILES IDX 12 14 13 15 15 16 16 17 5 18 17 20 14 22
REMARK H PARENT 5 19 17 21 14 23
REMARK Flexibility Score: inf
ROOT
ATOM      1  C   UNL     1      24.919  52.085  48.996  1.00  0.00     0.044 C 
ATOM      2  C   UNL     1      23.709  51.319  48.549  1.00  0.00    -0.047 A 
ATOM      3  C   UNL     1      23.605  50.875  47.226  1.00  0.00     0.016 A 
ATOM      4  C   UNL     1      22.456  50.195  46.787  1.00  0.00     0.038 A 
ATOM      5  C   UNL     1      21.381  49.979  47.679  1.00  0.00     0.076 A 
ATOM      6  C   UNL     1      21.511  50.393  49.030  1.00  0.00     0.127 A 
ATOM      7  C   UNL     1      22.656  51.084  49.440  1.00  0.00     0.050 A 
ATOM      8  C   UNL     1      20.129  49.391  47.139  1.00  0.00     0.201 C 
ATOM      9  O   UNL     1      19.021  49.688  47.661  1.00  0.00    -0.288 OA
ATOM     10  C   UNL     1      20.165  48.609  45.877  1.00  0.00     0.076 A 
ATOM     11  C   UNL     1      21.242  48.827  44.987  1.00  0.00     0.041 A 
ATOM     12  C   UNL     1      22.369  49.700  45.394  1.00  0.00     0.194 C 
ATOM     13  O   UNL     1      23.266  50.001  44.558  1.00  0.00    -0.289 OA
ATOM     14  C   UNL     1      21.241  48.211  43.725  1.00  0.00     0.059 A 
ATOM     15  C   UNL     1      20.190  47.371  43.346  1.00  0.00     0.120 A 
ATOM     16  C   UNL     1      19.147  47.121  44.236  1.00  0.00     0.093 A 
ATOM     17  C   UNL     1      19.134  47.707  45.507  1.00  0.00     0.131 A 
ENDROOT
BRANCH   6  18
ATOM     18  O   UNL     1      20.549  50.109  50.003  1.00  0.00    -0.507 OA
ATOM     19  H   UNL     1      19.670  49.653  49.802  1.00  0.00     0.293 HD
ENDBRANCH   6  18
BRANCH  17  20
ATOM     20  O   UNL     1      18.104  47.338  46.376  1.00  0.00    -0.507 OA
ATOM     21  H   UNL     1      17.520  48.003  46.864  1.00  0.00     0.293 HD
ENDBRANCH  17  20
BRANCH  15  22
ATOM     22  O   UNL     1      20.181  46.768  42.090  1.00  0.00    -0.508 OA
ATOM     23  H   UNL     1      19.379  46.245  41.759  1.00  0.00     0.293 HD
ENDBRANCH  15  22
TORSDOF 3
ENDMDL
MODEL 4
REMARK VINA RESULT:    -6.657      2.406      4.142
REMARK INTER + INTRA:          -7.240
REMARK INTER:                  -7.240
REMARK INTRA:                   0.000
REMARK UNBOUND:                 0.000
REMARK SMILES Cc1cc(O)c2c(c1)C(=O)c1cc(O)cc(O)c1C2=O
REMARK SMILES IDX 1 1 2 2 8 3 7 4 6 5 4 6 3 7 19 8 20 9 18 10 11 11 9 12 10 13
REMARK SMILES IDX 12 14 13 15 15 16 16 17 5 18 17 20 14 22
REMARK H PARENT 5 19 17 21 14 23
REMARK Flexibility Score: inf
ROOT
ATOM      1  C   UNL     1      21.902  50.486  47.514  1.00  0.00     0.044 C 
ATOM      2  C   UNL     1      20.908  50.088  46.463  1.00  0.00    -0.047 A 
ATOM      3  C   UNL     1      21.164  48.994  45.629  1.00  0.00     0.016 A 
ATOM      4  C   UNL     1      20.259  48.640  44.613  1.00  0.00     0.038 A 
ATOM      5  C   UNL     1      19.092  49.410  44.411  1.00  0.00     0.076 A 
ATOM      6  C   UNL     1      18.816  50.491  45.288  1.00  0.00     0.127 A 
ATOM      7  C   UNL     1      19.740  50.836  46.279  1.00  0.00     0.050 A 
ATOM      8  C   UNL     1      18.239  49.095  43.236  1.00  0.00     0.201 C 
ATOM      9  O   UNL     1      17.576  50.010  42.679  1.00  0.00    -0.288 OA
ATOM     10  C   UNL     1      18.314  47.751  42.609  1.00  0.00     0.076 A 
ATOM     11  C   UNL     1      19.484  46.983  42.814  1.00  0.00     0.041 A 
ATOM     12  C   UNL     1      20.523  47.461  43.757  1.00  0.00     0.194 C 
ATOM     13  O   UNL     1      21.623  46.847  43.847  1.00  0.00    -0.289 OA
ATOM     14  C   UNL     1      19.652  45.769  42.128  1.00  0.00     0.059 A 
ATOM     15  C   UNL     1      18.665  45.305  41.254  1.00  0.00     0.120 A 
ATOM     16  C   UNL     1      17.493  46.040  41.080  1.00  0.00     0.093 A 
ATOM     17  C   UNL     1      17.292  47.241  41.767  1.00  0.00     0.131 A 
ENDROOT
BRANCH   6  18
ATOM     18  O   UNL     1      17.628  51.224  45.233  1.00  0.00    -0.507 OA
ATOM     19  H   UNL     1      17.594  52.234  45.248  1.00  0.00     0.293 HD
ENDBRANCH   6  18
BRANCH  17  20
ATOM     20  O   UNL     1      16.056  47.874  41.611  1.00  0.00    -0.507 OA
ATOM     21  H   UNL     1      15.261  47.702  42.210  1.00  0.00     0.293 HD
ENDBRANCH  17  20
BRANCH  15  22
ATOM     22  O   UNL     1      18.834  44.107  40.563  1.00  0.00    -0.508 OA
ATOM     23  H   UNL     1      18.206  43.325  40.696  1.00  0.00     0.293 HD
ENDBRANCH  15  22
TORSDOF 3
ENDMDL
MODEL 5
REMARK VINA RESULT:    -6.608      2.294      5.146
REMARK INTER + INTRA:          -7.188
REMARK INTER:                  -7.188
REMARK INTRA:                   0.000
REMARK UNBOUND:                 0.000
REMARK SMILES Cc1cc(O)c2c(c1)C(=O)c1cc(O)cc(O)c1C2=O
REMARK SMILES IDX 1 1 2 2 8 3 7 4 6 5 4 6 3 7 19 8 20 9 18 10 11 11 9 12 10 13
REMARK SMILES IDX 12 14 13 15 15 16 16 17 5 18 17 20 14 22
REMARK H PARENT 5 19 17 21 14 23
REMARK Flexibility Score: inf
ROOT
ATOM      1  C   UNL     1      16.245  49.183  50.125  1.00  0.00     0.044 C 
ATOM      2  C   UNL     1      16.932  48.726  48.871  1.00  0.00    -0.047 A 
ATOM      3  C   UNL     1      17.940  49.506  48.295  1.00  0.00     0.016 A 
ATOM      4  C   UNL     1      18.558  49.108  47.097  1.00  0.00     0.038 A 
ATOM      5  C   UNL     1      18.142  47.922  46.451  1.00  0.00     0.076 A 
ATOM      6  C   UNL     1      17.151  47.113  47.063  1.00  0.00     0.127 A 
ATOM      7  C   UNL     1      16.536  47.539  48.245  1.00  0.00     0.050 A 
ATOM      8  C   UNL     1      18.714  47.614  45.115  1.00  0.00     0.201 C 
ATOM      9  O   UNL     1      18.032  46.970  44.274  1.00  0.00    -0.288 OA
ATOM     10  C   UNL     1      20.006  48.224  44.707  1.00  0.00     0.076 A 
ATOM     11  C   UNL     1      20.419  49.410  45.356  1.00  0.00     0.041 A 
ATOM     12  C   UNL     1      19.647  49.925  46.512  1.00  0.00     0.194 C 
ATOM     13  O   UNL     1      19.934  51.047  47.013  1.00  0.00    -0.289 OA
ATOM     14  C   UNL     1      21.562  50.091  44.906  1.00  0.00     0.059 A 
ATOM     15  C   UNL     1      22.304  49.598  43.830  1.00  0.00     0.120 A 
ATOM     16  C   UNL     1      21.922  48.408  43.212  1.00  0.00     0.093 A 
ATOM     17  C   UNL     1      20.800  47.699  43.654  1.00  0.00     0.131 A 
ENDROOT
BRANCH   6  18
ATOM     18  O   UNL     1      16.772  45.868  46.554  1.00  0.00    -0.507 OA
ATOM     19  H   UNL     1      15.821  45.634  46.303  1.00  0.00     0.293 HD
ENDBRANCH   6  18
BRANCH  17  20
ATOM     20  O   UNL     1      20.533  46.470  43.048  1.00  0.00    -0.507 OA
ATOM     21  H   UNL     1      20.500  46.336  42.047  1.00  0.00     0.293 HD
ENDBRANCH  17  20
BRANCH  15  22
ATOM     22  O   UNL     1      23.431  50.278  43.373  1.00  0.00    -0.508 OA
ATOM     23  H   UNL     1      23.781  50.152  42.432  1.00  0.00     0.293 HD
ENDBRANCH  15  22
TORSDOF 3
ENDMDL
MODEL 6
REMARK VINA RESULT:    -6.606      2.524      3.255
REMARK INTER + INTRA:          -7.186
REMARK INTER:                  -7.186
REMARK INTRA:                   0.000
REMARK UNBOUND:                 0.000
REMARK SMILES Cc1cc(O)c2c(c1)C(=O)c1cc(O)cc(O)c1C2=O
REMARK SMILES IDX 1 1 2 2 8 3 7 4 6 5 4 6 3 7 19 8 20 9 18 10 11 11 9 12 10 13
REMARK SMILES IDX 12 14 13 15 15 16 16 17 5 18 17 20 14 22
REMARK H PARENT 5 19 17 21 14 23
REMARK Flexibility Score: inf
ROOT
ATOM      1  C   UNL     1      22.886  50.066  44.013  1.00  0.00     0.044 C 
ATOM      2  C   UNL     1      21.606  49.323  44.261  1.00  0.00    -0.047 A 
ATOM      3  C   UNL     1      20.376  49.978  44.141  1.00  0.00     0.016 A 
ATOM      4  C   UNL     1      19.174  49.302  44.414  1.00  0.00     0.038 A 
ATOM      5  C   UNL     1      19.206  47.956  44.841  1.00  0.00     0.076 A 
ATOM      6  C   UNL     1      20.453  47.284  44.918  1.00  0.00     0.127 A 
ATOM      7  C   UNL     1      21.637  47.982  44.660  1.00  0.00     0.050 A 
ATOM      8  C   UNL     1      17.929  47.324  45.262  1.00  0.00     0.201 C 
ATOM      9  O   UNL     1      17.936  46.420  46.140  1.00  0.00    -0.288 OA
ATOM     10  C   UNL     1      16.637  47.884  44.788  1.00  0.00     0.076 A 
ATOM     11  C   UNL     1      16.609  49.231  44.361  1.00  0.00     0.041 A 
ATOM     12  C   UNL     1      17.875  49.996  44.252  1.00  0.00     0.194 C 
ATOM     13  O   UNL     1      17.845  51.231  43.998  1.00  0.00    -0.289 OA
ATOM     14  C   UNL     1      15.384  49.837  44.038  1.00  0.00     0.059 A 
ATOM     15  C   UNL     1      14.192  49.114  44.120  1.00  0.00     0.120 A 
ATOM     16  C   UNL     1      14.219  47.773  44.501  1.00  0.00     0.093 A 
ATOM     17  C   UNL     1      15.428  47.141  44.809  1.00  0.00     0.131 A 
ENDROOT
BRANCH   6  18
ATOM     18  O   UNL     1      20.560  45.922  45.212  1.00  0.00    -0.507 OA
ATOM     19  H   UNL     1      21.284  45.325  44.835  1.00  0.00     0.293 HD
ENDBRANCH   6  18
BRANCH  17  20
ATOM     20  O   UNL     1      15.386  45.773  45.094  1.00  0.00    -0.507 OA
ATOM     21  H   UNL     1      15.646  45.056  44.432  1.00  0.00     0.293 HD
ENDBRANCH  17  20
BRANCH  15  22
ATOM     22  O   UNL     1      12.974  49.715  43.811  1.00  0.00    -0.508 OA
ATOM     23  H   UNL     1      12.114  49.437  44.267  1.00  0.00     0.293 HD
ENDBRANCH  15  22
TORSDOF 3
ENDMDL
MODEL 7
REMARK VINA RESULT:    -6.488      3.337      6.283
REMARK INTER + INTRA:          -7.057
REMARK INTER:                  -7.057
REMARK INTRA:                   0.000
REMARK UNBOUND:                 0.000
REMARK SMILES Cc1cc(O)c2c(c1)C(=O)c1cc(O)cc(O)c1C2=O
REMARK SMILES IDX 1 1 2 2 8 3 7 4 6 5 4 6 3 7 19 8 20 9 18 10 11 11 9 12 10 13
REMARK SMILES IDX 12 14 13 15 15 16 16 17 5 18 17 20 14 22
REMARK H PARENT 5 19 17 21 14 23
REMARK Flexibility Score: inf
ROOT
ATOM      1  C   UNL     1      12.334  47.338  48.983  1.00  0.00     0.044 C 
ATOM      2  C   UNL     1      13.532  48.045  48.419  1.00  0.00    -0.047 A 
ATOM      3  C   UNL     1      13.777  48.027  47.041  1.00  0.00     0.016 A 
ATOM      4  C   UNL     1      14.919  48.649  46.509  1.00  0.00     0.038 A 
ATOM      5  C   UNL     1      15.845  49.278  47.372  1.00  0.00     0.076 A 
ATOM      6  C   UNL     1      15.568  49.331  48.762  1.00  0.00     0.127 A 
ATOM      7  C   UNL     1      14.435  48.688  49.271  1.00  0.00     0.050 A 
ATOM      8  C   UNL     1      17.110  49.793  46.787  1.00  0.00     0.201 C 
ATOM      9  O   UNL     1      18.158  49.821  47.486  1.00  0.00    -0.288 OA
ATOM     10  C   UNL     1      17.183  50.094  45.334  1.00  0.00     0.076 A 
ATOM     11  C   UNL     1      16.254  49.464  44.474  1.00  0.00     0.041 A 
ATOM     12  C   UNL     1      15.153  48.653  45.046  1.00  0.00     0.194 C 
ATOM     13  O   UNL     1      14.401  47.984  44.284  1.00  0.00    -0.289 OA
ATOM     14  C   UNL     1      16.377  49.615  43.083  1.00  0.00     0.059 A 
ATOM     15  C   UNL     1      17.401  50.395  42.542  1.00  0.00     0.120 A 
ATOM     16  C   UNL     1      18.294  51.051  43.387  1.00  0.00     0.093 A 
ATOM     17  C   UNL     1      18.182  50.934  44.777  1.00  0.00     0.131 A 
ENDROOT
BRANCH   6  18
ATOM     18  O   UNL     1      16.367  50.037  49.665  1.00  0.00    -0.507 OA
ATOM     19  H   UNL     1      16.616  49.689  50.581  1.00  0.00     0.293 HD
ENDBRANCH   6  18
BRANCH  17  20
ATOM     20  O   UNL     1      19.055  51.692  45.561  1.00  0.00    -0.507 OA
ATOM     21  H   UNL     1      19.358  52.624  45.317  1.00  0.00     0.293 HD
ENDBRANCH  17  20
BRANCH  15  22
ATOM     22  O   UNL     1      17.532  50.537  41.162  1.00  0.00    -0.508 OA
ATOM     23  H   UNL     1      17.089  49.893  40.518  1.00  0.00     0.293 HD
ENDBRANCH  15  22
TORSDOF 3
ENDMDL
MODEL 8
REMARK VINA RESULT:    -6.483      2.946      6.403
REMARK INTER + INTRA:          -7.052
REMARK INTER:                  -7.052
REMARK INTRA:                   0.000
REMARK UNBOUND:                 0.000
REMARK SMILES Cc1cc(O)c2c(c1)C(=O)c1cc(O)cc(O)c1C2=O
REMARK SMILES IDX 1 1 2 2 8 3 7 4 6 5 4 6 3 7 19 8 20 9 18 10 11 11 9 12 10 13
REMARK SMILES IDX 12 14 13 15 15 16 16 17 5 18 17 20 14 22
REMARK H PARENT 5 19 17 21 14 23
REMARK Flexibility Score: inf
ROOT
ATOM      1  C   UNL     1      14.864  45.733  39.251  1.00  0.00     0.044 C 
ATOM      2  C   UNL     1      15.958  46.052  40.228  1.00  0.00    -0.047 A 
ATOM      3  C   UNL     1      16.064  47.335  40.773  1.00  0.00     0.016 A 
ATOM      4  C   UNL     1      17.111  47.655  41.655  1.00  0.00     0.038 A 
ATOM      5  C   UNL     1      18.083  46.680  41.976  1.00  0.00     0.076 A 
ATOM      6  C   UNL     1      17.944  45.368  41.456  1.00  0.00     0.127 A 
ATOM      7  C   UNL     1      16.905  45.079  40.565  1.00  0.00     0.050 A 
ATOM      8  C   UNL     1      19.253  47.098  42.791  1.00  0.00     0.201 C 
ATOM      9  O   UNL     1      20.362  46.521  42.638  1.00  0.00    -0.288 OA
ATOM     10  C   UNL     1      19.163  48.312  43.642  1.00  0.00     0.076 A 
ATOM     11  C   UNL     1      18.189  49.285  43.318  1.00  0.00     0.041 A 
ATOM     12  C   UNL     1      17.197  49.008  42.252  1.00  0.00     0.194 C 
ATOM     13  O   UNL     1      16.411  49.918  41.871  1.00  0.00    -0.289 OA
ATOM     14  C   UNL     1      18.163  50.506  44.012  1.00  0.00     0.059 A 
ATOM     15  C   UNL     1      19.083  50.762  45.032  1.00  0.00     0.120 A 
ATOM     16  C   UNL     1      20.019  49.790  45.381  1.00  0.00     0.093 A 
ATOM     17  C   UNL     1      20.053  48.558  44.720  1.00  0.00     0.131 A 
ENDROOT
BRANCH   6  18
ATOM     18  O   UNL     1      18.789  44.317  41.821  1.00  0.00    -0.507 OA
ATOM     19  H   UNL     1      18.843  43.443  41.315  1.00  0.00     0.293 HD
ENDBRANCH   6  18
BRANCH  17  20
ATOM     20  O   UNL     1      20.957  47.600  45.186  1.00  0.00    -0.507 OA
ATOM     21  H   UNL     1      21.708  47.222  44.626  1.00  0.00     0.293 HD
ENDBRANCH  17  20
BRANCH  15  22
ATOM     22  O   UNL     1      19.068  51.977  45.714  1.00  0.00    -0.508 OA
ATOM     23  H   UNL     1      19.923  52.463  45.950  1.00  0.00     0.293 HD
ENDBRANCH  15  22
TORSDOF 3
ENDMDL
MODEL 9
REMARK VINA RESULT:    -6.429      1.963      3.131
REMARK INTER + INTRA:          -6.993
REMARK INTER:                  -6.993
REMARK INTRA:                   0.000
REMARK UNBOUND:                 0.000
REMARK SMILES Cc1cc(O)c2c(c1)C(=O)c1cc(O)cc(O)c1C2=O
REMARK SMILES IDX 1 1 2 2 8 3 7 4 6 5 4 6 3 7 19 8 20 9 18 10 11 11 9 12 10 13
REMARK SMILES IDX 12 14 13 15 15 16 16 17 5 18 17 20 14 22
REMARK H PARENT 5 19 17 21 14 23
REMARK Flexibility Score: inf
ROOT
ATOM      1  C   UNL     1      23.243  50.117  44.645  1.00  0.00     0.044 C 
ATOM      2  C   UNL     1      21.832  49.633  44.809  1.00  0.00    -0.047 A 
ATOM      3  C   UNL     1      21.143  49.861  46.006  1.00  0.00     0.016 A 
ATOM      4  C   UNL     1      19.838  49.373  46.185  1.00  0.00     0.038 A 
ATOM      5  C   UNL     1      19.220  48.621  45.159  1.00  0.00     0.076 A 
ATOM      6  C   UNL     1      19.907  48.432  43.932  1.00  0.00     0.127 A 
ATOM      7  C   UNL     1      21.213  48.910  43.784  1.00  0.00     0.050 A 
ATOM      8  C   UNL     1      17.902  47.999  45.443  1.00  0.00     0.201 C 
ATOM      9  O   UNL     1      17.581  46.922  44.873  1.00  0.00    -0.288 OA
ATOM     10  C   UNL     1      17.049  48.541  46.532  1.00  0.00     0.076 A 
ATOM     11  C   UNL     1      17.670  49.293  47.555  1.00  0.00     0.041 A 
ATOM     12  C   UNL     1      19.105  49.647  47.442  1.00  0.00     0.194 C 
ATOM     13  O   UNL     1      19.695  50.204  48.409  1.00  0.00    -0.289 OA
ATOM     14  C   UNL     1      16.923  49.704  48.671  1.00  0.00     0.059 A 
ATOM     15  C   UNL     1      15.565  49.390  48.771  1.00  0.00     0.120 A 
ATOM     16  C   UNL     1      14.939  48.684  47.745  1.00  0.00     0.093 A 
ATOM     17  C   UNL     1      15.656  48.280  46.614  1.00  0.00     0.131 A 
ENDROOT
BRANCH   6  18
ATOM     18  O   UNL     1      19.321  47.809  42.827  1.00  0.00    -0.507 OA
ATOM     19  H   UNL     1      18.731  48.290  42.162  1.00  0.00     0.293 HD
ENDBRANCH   6  18
BRANCH  17  20
ATOM     20  O   UNL     1      14.943  47.657  45.587  1.00  0.00    -0.507 OA
ATOM     21  H   UNL     1      14.105  47.113  45.738  1.00  0.00     0.293 HD
ENDBRANCH  17  20
BRANCH  15  22
ATOM     22  O   UNL     1      14.824  49.787  49.882  1.00  0.00    -0.508 OA
ATOM     23  H   UNL     1      14.589  50.758  50.044  1.00  0.00     0.293 HD
ENDBRANCH  15  22
TORSDOF 3
ENDMDL
