MODEL 1
REMARK VINA RESULT:    -5.381      0.000      0.000
REMARK INTER + INTRA:         -11.513
REMARK INTER:                  -9.785
REMARK INTRA:                  -1.728
REMARK UNBOUND:                -1.728
REMARK SMILES CCCCCCCCCCCCCC[C@H](C)C(=O)[O-]
REMARK SMILES IDX 9 1 10 2 11 3 12 4 13 5 14 6 15 7 16 8 17 9 18 10 19 11 8 12
REMARK SMILES IDX 7 13 6 14 5 15 4 16 3 17 2 18 1 19
REMARK H PARENT
REMARK Flexibility Score: inf
ROOT
ATOM      1  C   UNL     1       0.446  45.807   9.775  1.00  0.00     0.000 C 
ENDROOT
BRANCH   1   2
ATOM      2  C   UNL     1       1.329  44.622  10.210  1.00  0.00     0.000 C 
BRANCH   2   3
ATOM      3  C   UNL     1       1.721  43.709   9.040  1.00  0.00     0.000 C 
BRANCH   3   4
ATOM      4  C   UNL     1       2.930  42.835   9.408  1.00  0.00     0.000 C 
BRANCH   4   5
ATOM      5  C   UNL     1       3.818  43.475  10.488  1.00  0.00     0.001 C 
BRANCH   5   6
ATOM      6  C   UNL     1       3.956  42.586  11.742  1.00  0.00     0.009 C 
BRANCH   6   7
ATOM      7  C   UNL     1       2.852  41.515  11.882  1.00  0.00     0.032 C 
ATOM      8  C   UNL     1       1.614  42.036  12.629  1.00  0.00     0.014 C 
BRANCH   7   9
ATOM      9  C   UNL     1       3.383  40.242  12.489  1.00  0.00     0.044 C 
ATOM     10  O   UNL     1       2.613  39.284  12.766  1.00  0.00    -0.550 OA
ATOM     11  O   UNL     1       4.734  40.141  12.796  1.00  0.00    -0.550 OA
ENDBRANCH   7   9
ENDBRANCH   6   7
ENDBRANCH   5   6
ENDBRANCH   4   5
ENDBRANCH   3   4
ENDBRANCH   2   3
ENDBRANCH   1   2
BRANCH   1  12
ATOM     12  C   UNL     1       0.328  46.010   8.251  1.00  0.00     0.000 C 
BRANCH  12  13
ATOM     13  C   UNL     1       0.965  47.303   7.713  1.00  0.00    -0.000 C 
BRANCH  13  14
ATOM     14  C   UNL     1       1.980  47.919   8.687  1.00  0.00    -0.000 C 
BRANCH  14  15
ATOM     15  C   UNL     1       3.413  47.747   8.169  1.00  0.00    -0.000 C 
BRANCH  15  16
ATOM     16  C   UNL     1       4.119  46.585   8.881  1.00  0.00    -0.000 C 
BRANCH  16  17
ATOM     17  C   UNL     1       5.141  47.056   9.932  1.00  0.00    -0.000 C 
BRANCH  17  18
ATOM     18  C   UNL     1       6.481  47.549   9.355  1.00  0.00    -0.003 C 
ATOM     19  C   UNL     1       6.570  49.071   9.267  1.00  0.00     0.004 C 
ENDBRANCH  17  18
ENDBRANCH  16  17
ENDBRANCH  15  16
ENDBRANCH  14  15
ENDBRANCH  13  14
ENDBRANCH  12  13
ENDBRANCH   1  12
TORSDOF 14
ENDMDL
MODEL 2
REMARK VINA RESULT:    -5.326      1.802      2.546
REMARK INTER + INTRA:         -11.413
REMARK INTER:                  -9.477
REMARK INTRA:                  -1.936
REMARK UNBOUND:                -1.728
REMARK SMILES CCCCCCCCCCCCCC[C@H](C)C(=O)[O-]
REMARK SMILES IDX 9 1 10 2 11 3 12 4 13 5 14 6 15 7 16 8 17 9 18 10 19 11 8 12
REMARK SMILES IDX 7 13 6 14 5 15 4 16 3 17 2 18 1 19
REMARK H PARENT
REMARK Flexibility Score: inf
ROOT
ATOM      1  C   UNL     1      -0.767  46.644   8.319  1.00  0.00     0.000 C 
ENDROOT
BRANCH   1   2
ATOM      2  C   UNL     1       0.044  45.531   7.631  1.00  0.00     0.000 C 
BRANCH   2   3
ATOM      3  C   UNL     1       0.769  44.616   8.628  1.00  0.00     0.000 C 
BRANCH   3   4
ATOM      4  C   UNL     1       0.349  44.936  10.071  1.00  0.00     0.000 C 
BRANCH   4   5
ATOM      5  C   UNL     1       1.522  44.860  11.062  1.00  0.00     0.001 C 
BRANCH   5   6
ATOM      6  C   UNL     1       1.649  43.470  11.720  1.00  0.00     0.009 C 
BRANCH   6   7
ATOM      7  C   UNL     1       2.662  42.532  11.028  1.00  0.00     0.032 C 
ATOM      8  C   UNL     1       3.056  41.335  11.907  1.00  0.00     0.014 C 
BRANCH   7   9
ATOM      9  C   UNL     1       3.868  43.285  10.527  1.00  0.00     0.044 C 
ATOM     10  O   UNL     1       4.677  43.823  11.329  1.00  0.00    -0.550 OA
ATOM     11  O   UNL     1       4.063  43.435   9.160  1.00  0.00    -0.550 OA
ENDBRANCH   7   9
ENDBRANCH   6   7
ENDBRANCH   5   6
ENDBRANCH   4   5
ENDBRANCH   3   4
ENDBRANCH   2   3
ENDBRANCH   1   2
BRANCH   1  12
ATOM     12  C   UNL     1      -0.201  48.068   8.146  1.00  0.00     0.000 C 
BRANCH  12  13
ATOM     13  C   UNL     1       1.223  48.276   8.692  1.00  0.00    -0.000 C 
BRANCH  13  14
ATOM     14  C   UNL     1       2.212  48.750   7.616  1.00  0.00    -0.000 C 
BRANCH  14  15
ATOM     15  C   UNL     1       3.543  47.998   7.725  1.00  0.00    -0.000 C 
BRANCH  15  16
ATOM     16  C   UNL     1       3.552  47.067   8.946  1.00  0.00    -0.000 C 
BRANCH  16  17
ATOM     17  C   UNL     1       4.961  46.847   9.523  1.00  0.00    -0.000 C 
BRANCH  17  18
ATOM     18  C   UNL     1       5.989  47.931   9.151  1.00  0.00    -0.003 C 
ATOM     19  C   UNL     1       7.422  47.547   9.514  1.00  0.00     0.004 C 
ENDBRANCH  17  18
ENDBRANCH  16  17
ENDBRANCH  15  16
ENDBRANCH  14  15
ENDBRANCH  13  14
ENDBRANCH  12  13
ENDBRANCH   1  12
TORSDOF 14
ENDMDL
MODEL 3
REMARK VINA RESULT:    -5.243      3.109      6.643
REMARK INTER + INTRA:         -11.261
REMARK INTER:                  -9.769
REMARK INTRA:                  -1.492
REMARK UNBOUND:                -1.728
REMARK SMILES CCCCCCCCCCCCCC[C@H](C)C(=O)[O-]
REMARK SMILES IDX 9 1 10 2 11 3 12 4 13 5 14 6 15 7 16 8 17 9 18 10 19 11 8 12
REMARK SMILES IDX 7 13 6 14 5 15 4 16 3 17 2 18 1 19
REMARK H PARENT
REMARK Flexibility Score: inf
ROOT
ATOM      1  C   UNL     1      -0.068  45.505  10.185  1.00  0.00     0.000 C 
ENDROOT
BRANCH   1   2
ATOM      2  C   UNL     1      -0.155  45.926   8.706  1.00  0.00     0.000 C 
BRANCH   2   3
ATOM      3  C   UNL     1       0.219  47.398   8.482  1.00  0.00     0.000 C 
BRANCH   3   4
ATOM      4  C   UNL     1       1.624  47.520   7.873  1.00  0.00     0.000 C 
BRANCH   4   5
ATOM      5  C   UNL     1       2.729  47.594   8.940  1.00  0.00     0.001 C 
BRANCH   5   6
ATOM      6  C   UNL     1       4.136  47.729   8.323  1.00  0.00     0.009 C 
BRANCH   6   7
ATOM      7  C   UNL     1       5.240  46.971   9.094  1.00  0.00     0.032 C 
ATOM      8  C   UNL     1       4.722  46.329  10.390  1.00  0.00     0.014 C 
BRANCH   7   9
ATOM      9  C   UNL     1       6.447  47.839   9.337  1.00  0.00     0.044 C 
ATOM     10  O   UNL     1       6.359  49.096   9.314  1.00  0.00    -0.550 OA
ATOM     11  O   UNL     1       7.688  47.249   9.538  1.00  0.00    -0.550 OA
ENDBRANCH   7   9
ENDBRANCH   6   7
ENDBRANCH   5   6
ENDBRANCH   4   5
ENDBRANCH   3   4
ENDBRANCH   2   3
ENDBRANCH   1   2
BRANCH   1  12
ATOM     12  C   UNL     1       1.211  44.736  10.573  1.00  0.00     0.000 C 
BRANCH  12  13
ATOM     13  C   UNL     1       1.902  43.992   9.417  1.00  0.00    -0.000 C 
BRANCH  13  14
ATOM     14  C   UNL     1       2.923  42.952   9.902  1.00  0.00    -0.000 C 
BRANCH  14  15
ATOM     15  C   UNL     1       2.835  42.762  11.421  1.00  0.00    -0.000 C 
BRANCH  15  16
ATOM     16  C   UNL     1       2.908  41.275  11.795  1.00  0.00    -0.000 C 
BRANCH  16  17
ATOM     17  C   UNL     1       4.241  40.888  12.461  1.00  0.00    -0.000 C 
BRANCH  17  18
ATOM     18  C   UNL     1       4.286  39.462  13.039  1.00  0.00    -0.003 C 
ATOM     19  C   UNL     1       3.052  38.635  12.685  1.00  0.00     0.004 C 
ENDBRANCH  17  18
ENDBRANCH  16  17
ENDBRANCH  15  16
ENDBRANCH  14  15
ENDBRANCH  13  14
ENDBRANCH  12  13
ENDBRANCH   1  12
TORSDOF 14
ENDMDL
MODEL 4
REMARK VINA RESULT:    -5.238      1.311      2.262
REMARK INTER + INTRA:         -11.252
REMARK INTER:                  -9.234
REMARK INTRA:                  -2.018
REMARK UNBOUND:                -1.728
REMARK SMILES CCCCCCCCCCCCCC[C@H](C)C(=O)[O-]
REMARK SMILES IDX 9 1 10 2 11 3 12 4 13 5 14 6 15 7 16 8 17 9 18 10 19 11 8 12
REMARK SMILES IDX 7 13 6 14 5 15 4 16 3 17 2 18 1 19
REMARK H PARENT
REMARK Flexibility Score: inf
ROOT
ATOM      1  C   UNL     1       0.235  46.927   8.957  1.00  0.00     0.000 C 
ENDROOT
BRANCH   1   2
ATOM      2  C   UNL     1       0.091  46.147   7.637  1.00  0.00     0.000 C 
BRANCH   2   3
ATOM      3  C   UNL     1       0.461  44.664   7.776  1.00  0.00     0.000 C 
BRANCH   3   4
ATOM      4  C   UNL     1       1.223  44.410   9.086  1.00  0.00     0.000 C 
BRANCH   4   5
ATOM      5  C   UNL     1       2.216  43.241   8.977  1.00  0.00     0.001 C 
BRANCH   5   6
ATOM      6  C   UNL     1       3.437  43.416   9.903  1.00  0.00     0.009 C 
BRANCH   6   7
ATOM      7  C   UNL     1       3.078  43.630  11.390  1.00  0.00     0.032 C 
ATOM      8  C   UNL     1       4.286  44.067  12.234  1.00  0.00     0.014 C 
BRANCH   7   9
ATOM      9  C   UNL     1       2.387  42.426  11.976  1.00  0.00     0.044 C 
ATOM     10  O   UNL     1       2.921  41.286  11.933  1.00  0.00    -0.550 OA
ATOM     11  O   UNL     1       1.119  42.564  12.526  1.00  0.00    -0.550 OA
ENDBRANCH   7   9
ENDBRANCH   6   7
ENDBRANCH   5   6
ENDBRANCH   4   5
ENDBRANCH   3   4
ENDBRANCH   2   3
ENDBRANCH   1   2
BRANCH   1  12
ATOM     12  C   UNL     1       1.268  48.072   8.931  1.00  0.00     0.000 C 
BRANCH  12  13
ATOM     13  C   UNL     1       2.227  48.060   7.728  1.00  0.00    -0.000 C 
BRANCH  13  14
ATOM     14  C   UNL     1       3.643  47.593   8.098  1.00  0.00    -0.000 C 
BRANCH  14  15
ATOM     15  C   UNL     1       3.729  47.223   9.583  1.00  0.00    -0.000 C 
BRANCH  15  16
ATOM     16  C   UNL     1       5.116  46.664   9.932  1.00  0.00    -0.000 C 
BRANCH  16  17
ATOM     17  C   UNL     1       6.257  47.379   9.185  1.00  0.00    -0.000 C 
BRANCH  17  18
ATOM     18  C   UNL     1       6.674  48.733   9.786  1.00  0.00    -0.003 C 
ATOM     19  C   UNL     1       6.504  49.897   8.813  1.00  0.00     0.004 C 
ENDBRANCH  17  18
ENDBRANCH  16  17
ENDBRANCH  15  16
ENDBRANCH  14  15
ENDBRANCH  13  14
ENDBRANCH  12  13
ENDBRANCH   1  12
TORSDOF 14
ENDMDL
MODEL 5
REMARK VINA RESULT:    -5.219      3.134      6.800
REMARK INTER + INTRA:         -11.218
REMARK INTER:                  -9.713
REMARK INTRA:                  -1.505
REMARK UNBOUND:                -1.728
REMARK SMILES CCCCCCCCCCCCCC[C@H](C)C(=O)[O-]
REMARK SMILES IDX 9 1 10 2 11 3 12 4 13 5 14 6 15 7 16 8 17 9 18 10 19 11 8 12
REMARK SMILES IDX 7 13 6 14 5 15 4 16 3 17 2 18 1 19
REMARK H PARENT
REMARK Flexibility Score: inf
ROOT
ATOM      1  C   UNL     1       0.743  44.374   8.109  1.00  0.00     0.000 C 
ENDROOT
BRANCH   1   2
ATOM      2  C   UNL     1       0.113  45.695   8.587  1.00  0.00     0.000 C 
BRANCH   2   3
ATOM      3  C   UNL     1       0.519  46.897   7.723  1.00  0.00     0.000 C 
BRANCH   3   4
ATOM      4  C   UNL     1       1.229  47.966   8.569  1.00  0.00     0.000 C 
BRANCH   4   5
ATOM      5  C   UNL     1       2.447  47.411   9.325  1.00  0.00     0.001 C 
BRANCH   5   6
ATOM      6  C   UNL     1       3.741  47.474   8.486  1.00  0.00     0.009 C 
BRANCH   6   7
ATOM      7  C   UNL     1       4.963  46.809   9.158  1.00  0.00     0.032 C 
ATOM      8  C   UNL     1       4.636  46.233  10.544  1.00  0.00     0.014 C 
BRANCH   7   9
ATOM      9  C   UNL     1       6.151  47.735   9.197  1.00  0.00     0.044 C 
ATOM     10  O   UNL     1       7.276  47.332   9.596  1.00  0.00    -0.550 OA
ATOM     11  O   UNL     1       5.994  49.067   8.837  1.00  0.00    -0.550 OA
ENDBRANCH   7   9
ENDBRANCH   6   7
ENDBRANCH   5   6
ENDBRANCH   4   5
ENDBRANCH   3   4
ENDBRANCH   2   3
ENDBRANCH   1   2
BRANCH   1  12
ATOM     12  C   UNL     1       1.708  43.708   9.111  1.00  0.00     0.000 C 
BRANCH  12  13
ATOM     13  C   UNL     1       1.390  43.966  10.594  1.00  0.00    -0.000 C 
BRANCH  13  14
ATOM     14  C   UNL     1       2.507  43.493  11.535  1.00  0.00    -0.000 C 
BRANCH  14  15
ATOM     15  C   UNL     1       3.234  42.274  10.956  1.00  0.00    -0.000 C 
BRANCH  15  16
ATOM     16  C   UNL     1       3.862  41.426  12.072  1.00  0.00    -0.000 C 
BRANCH  16  17
ATOM     17  C   UNL     1       2.942  40.291  12.554  1.00  0.00    -0.000 C 
BRANCH  17  18
ATOM     18  C   UNL     1       3.628  38.920  12.702  1.00  0.00    -0.003 C 
ATOM     19  C   UNL     1       2.751  37.759  12.240  1.00  0.00     0.004 C 
ENDBRANCH  17  18
ENDBRANCH  16  17
ENDBRANCH  15  16
ENDBRANCH  14  15
ENDBRANCH  13  14
ENDBRANCH  12  13
ENDBRANCH   1  12
TORSDOF 14
ENDMDL
MODEL 6
REMARK VINA RESULT:    -5.082      1.196      3.621
REMARK INTER + INTRA:         -10.970
REMARK INTER:                  -9.289
REMARK INTRA:                  -1.681
REMARK UNBOUND:                -1.728
REMARK SMILES CCCCCCCCCCCCCC[C@H](C)C(=O)[O-]
REMARK SMILES IDX 9 1 10 2 11 3 12 4 13 5 14 6 15 7 16 8 17 9 18 10 19 11 8 12
REMARK SMILES IDX 7 13 6 14 5 15 4 16 3 17 2 18 1 19
REMARK H PARENT
REMARK Flexibility Score: inf
ROOT
ATOM      1  C   UNL     1       4.577  47.604   8.585  1.00  0.00     0.000 C 
ENDROOT
BRANCH   1   2
ATOM      2  C   UNL     1       4.164  46.224   9.130  1.00  0.00     0.000 C 
BRANCH   2   3
ATOM      3  C   UNL     1       4.768  45.922  10.509  1.00  0.00     0.000 C 
BRANCH   3   4
ATOM      4  C   UNL     1       3.707  45.345  11.458  1.00  0.00     0.000 C 
BRANCH   4   5
ATOM      5  C   UNL     1       4.165  44.046  12.142  1.00  0.00     0.001 C 
BRANCH   5   6
ATOM      6  C   UNL     1       4.088  42.825  11.202  1.00  0.00     0.009 C 
BRANCH   6   7
ATOM      7  C   UNL     1       2.934  41.850  11.525  1.00  0.00     0.032 C 
ATOM      8  C   UNL     1       1.738  42.549  12.190  1.00  0.00     0.014 C 
BRANCH   7   9
ATOM      9  C   UNL     1       3.411  40.666  12.325  1.00  0.00     0.044 C 
ATOM     10  O   UNL     1       2.594  39.845  12.821  1.00  0.00    -0.550 OA
ATOM     11  O   UNL     1       4.770  40.502  12.564  1.00  0.00    -0.550 OA
ENDBRANCH   7   9
ENDBRANCH   6   7
ENDBRANCH   5   6
ENDBRANCH   4   5
ENDBRANCH   3   4
ENDBRANCH   2   3
ENDBRANCH   1   2
BRANCH   1  12
ATOM     12  C   UNL     1       3.562  48.259   7.626  1.00  0.00     0.000 C 
BRANCH  12  13
ATOM     13  C   UNL     1       2.112  47.766   7.774  1.00  0.00    -0.000 C 
BRANCH  13  14
ATOM     14  C   UNL     1       1.119  48.905   8.049  1.00  0.00    -0.000 C 
BRANCH  14  15
ATOM     15  C   UNL     1      -0.288  48.356   8.308  1.00  0.00    -0.000 C 
BRANCH  15  16
ATOM     16  C   UNL     1      -0.281  46.821   8.354  1.00  0.00    -0.000 C 
BRANCH  16  17
ATOM     17  C   UNL     1      -0.603  46.260   9.750  1.00  0.00    -0.000 C 
BRANCH  17  18
ATOM     18  C   UNL     1       0.279  45.078  10.192  1.00  0.00    -0.003 C 
ATOM     19  C   UNL     1       1.101  44.486   9.049  1.00  0.00     0.004 C 
ENDBRANCH  17  18
ENDBRANCH  16  17
ENDBRANCH  15  16
ENDBRANCH  14  15
ENDBRANCH  13  14
ENDBRANCH  12  13
ENDBRANCH   1  12
TORSDOF 14
ENDMDL
MODEL 7
REMARK VINA RESULT:    -4.933      3.396      5.178
REMARK INTER + INTRA:         -10.698
REMARK INTER:                  -8.698
REMARK INTRA:                  -2.000
REMARK UNBOUND:                -1.728
REMARK SMILES CCCCCCCCCCCCCC[C@H](C)C(=O)[O-]
REMARK SMILES IDX 9 1 10 2 11 3 12 4 13 5 14 6 15 7 16 8 17 9 18 10 19 11 8 12
REMARK SMILES IDX 7 13 6 14 5 15 4 16 3 17 2 18 1 19
REMARK H PARENT
REMARK Flexibility Score: inf
ROOT
ATOM      1  C   UNL     1       3.031  42.543   9.976  1.00  0.00     0.000 C 
ENDROOT
BRANCH   1   2
ATOM      2  C   UNL     1       2.808  42.301  11.481  1.00  0.00     0.000 C 
BRANCH   2   3
ATOM      3  C   UNL     1       1.417  42.742  11.956  1.00  0.00     0.000 C 
BRANCH   3   4
ATOM      4  C   UNL     1       1.303  44.274  11.972  1.00  0.00     0.000 C 
BRANCH   4   5
ATOM      5  C   UNL     1       0.218  44.798  11.016  1.00  0.00     0.001 C 
BRANCH   5   6
ATOM      6  C   UNL     1       0.799  45.672   9.886  1.00  0.00     0.009 C 
BRANCH   6   7
ATOM      7  C   UNL     1       0.145  45.440   8.506  1.00  0.00     0.032 C 
ATOM      8  C   UNL     1       0.719  44.214   7.778  1.00  0.00     0.014 C 
BRANCH   7   9
ATOM      9  C   UNL     1       0.193  46.679   7.649  1.00  0.00     0.044 C 
ATOM     10  O   UNL     1       1.210  47.423   7.641  1.00  0.00    -0.550 OA
ATOM     11  O   UNL     1      -0.918  47.036   6.897  1.00  0.00    -0.550 OA
ENDBRANCH   7   9
ENDBRANCH   6   7
ENDBRANCH   5   6
ENDBRANCH   4   5
ENDBRANCH   3   4
ENDBRANCH   2   3
ENDBRANCH   1   2
BRANCH   1  12
ATOM     12  C   UNL     1       4.051  43.649   9.636  1.00  0.00     0.000 C 
BRANCH  12  13
ATOM     13  C   UNL     1       4.546  44.474  10.837  1.00  0.00    -0.000 C 
BRANCH  13  14
ATOM     14  C   UNL     1       4.355  45.985  10.643  1.00  0.00    -0.000 C 
BRANCH  14  15
ATOM     15  C   UNL     1       4.167  46.329   9.161  1.00  0.00    -0.000 C 
BRANCH  15  16
ATOM     16  C   UNL     1       4.813  47.681   8.822  1.00  0.00    -0.000 C 
BRANCH  16  17
ATOM     17  C   UNL     1       6.310  47.735   9.173  1.00  0.00    -0.000 C 
BRANCH  17  18
ATOM     18  C   UNL     1       6.798  49.090   9.718  1.00  0.00    -0.003 C 
ATOM     19  C   UNL     1       6.521  50.251   8.766  1.00  0.00     0.004 C 
ENDBRANCH  17  18
ENDBRANCH  16  17
ENDBRANCH  15  16
ENDBRANCH  14  15
ENDBRANCH  13  14
ENDBRANCH  12  13
ENDBRANCH   1  12
TORSDOF 14
ENDMDL
MODEL 8
REMARK VINA RESULT:    -4.876      3.282      6.241
REMARK INTER + INTRA:         -10.594
REMARK INTER:                  -9.209
REMARK INTRA:                  -1.386
REMARK UNBOUND:                -1.728
REMARK SMILES CCCCCCCCCCCCCC[C@H](C)C(=O)[O-]
REMARK SMILES IDX 9 1 10 2 11 3 12 4 13 5 14 6 15 7 16 8 17 9 18 10 19 11 8 12
REMARK SMILES IDX 7 13 6 14 5 15 4 16 3 17 2 18 1 19
REMARK H PARENT
REMARK Flexibility Score: inf
ROOT
ATOM      1  C   UNL     1       2.236  42.221  11.643  1.00  0.00     0.000 C 
ENDROOT
BRANCH   1   2
ATOM      2  C   UNL     1       3.751  42.178  11.367  1.00  0.00     0.000 C 
BRANCH   2   3
ATOM      3  C   UNL     1       4.255  43.415  10.609  1.00  0.00     0.000 C 
BRANCH   3   4
ATOM      4  C   UNL     1       4.639  44.537  11.585  1.00  0.00     0.000 C 
BRANCH   4   5
ATOM      5  C   UNL     1       4.253  45.932  11.067  1.00  0.00     0.001 C 
BRANCH   5   6
ATOM      6  C   UNL     1       4.647  46.144   9.590  1.00  0.00     0.009 C 
BRANCH   6   7
ATOM      7  C   UNL     1       4.706  47.625   9.157  1.00  0.00     0.032 C 
ATOM      8  C   UNL     1       3.913  47.896   7.868  1.00  0.00     0.014 C 
BRANCH   7   9
ATOM      9  C   UNL     1       6.125  48.124   9.062  1.00  0.00     0.044 C 
ATOM     10  O   UNL     1       7.096  47.373   9.344  1.00  0.00    -0.550 OA
ATOM     11  O   UNL     1       6.366  49.445   8.710  1.00  0.00    -0.550 OA
ENDBRANCH   7   9
ENDBRANCH   6   7
ENDBRANCH   5   6
ENDBRANCH   4   5
ENDBRANCH   3   4
ENDBRANCH   2   3
ENDBRANCH   1   2
BRANCH   1  12
ATOM     12  C   UNL     1       1.705  43.570  12.168  1.00  0.00     0.000 C 
BRANCH  12  13
ATOM     13  C   UNL     1       0.603  44.217  11.312  1.00  0.00    -0.000 C 
BRANCH  13  14
ATOM     14  C   UNL     1       1.056  44.503   9.872  1.00  0.00    -0.000 C 
BRANCH  14  15
ATOM     15  C   UNL     1       1.021  46.006   9.574  1.00  0.00    -0.000 C 
BRANCH  15  16
ATOM     16  C   UNL     1      -0.368  46.437   9.080  1.00  0.00    -0.000 C 
BRANCH  16  17
ATOM     17  C   UNL     1      -0.330  47.122   7.702  1.00  0.00    -0.000 C 
BRANCH  17  18
ATOM     18  C   UNL     1      -1.025  46.340   6.572  1.00  0.00    -0.003 C 
ATOM     19  C   UNL     1      -0.650  44.860   6.550  1.00  0.00     0.004 C 
ENDBRANCH  17  18
ENDBRANCH  16  17
ENDBRANCH  15  16
ENDBRANCH  14  15
ENDBRANCH  13  14
ENDBRANCH  12  13
ENDBRANCH   1  12
TORSDOF 14
ENDMDL
MODEL 9
REMARK VINA RESULT:    -4.755      1.175      2.343
REMARK INTER + INTRA:         -10.375
REMARK INTER:                  -8.712
REMARK INTRA:                  -1.662
REMARK UNBOUND:                -1.728
REMARK SMILES CCCCCCCCCCCCCC[C@H](C)C(=O)[O-]
REMARK SMILES IDX 9 1 10 2 11 3 12 4 13 5 14 6 15 7 16 8 17 9 18 10 19 11 8 12
REMARK SMILES IDX 7 13 6 14 5 15 4 16 3 17 2 18 1 19
REMARK H PARENT
REMARK Flexibility Score: inf
ROOT
ATOM      1  C   UNL     1       1.685  45.454  10.224  1.00  0.00     0.000 C 
ENDROOT
BRANCH   1   2
ATOM      2  C   UNL     1       2.371  44.328   9.428  1.00  0.00     0.000 C 
BRANCH   2   3
ATOM      3  C   UNL     1       3.896  44.318   9.602  1.00  0.00     0.000 C 
BRANCH   3   4
ATOM      4  C   UNL     1       4.297  44.908  10.963  1.00  0.00     0.000 C 
BRANCH   4   5
ATOM      5  C   UNL     1       3.925  43.991  12.140  1.00  0.00     0.001 C 
BRANCH   5   6
ATOM      6  C   UNL     1       4.218  42.505  11.846  1.00  0.00     0.009 C 
BRANCH   6   7
ATOM      7  C   UNL     1       2.965  41.601  11.843  1.00  0.00     0.032 C 
ATOM      8  C   UNL     1       1.715  42.322  12.371  1.00  0.00     0.014 C 
BRANCH   7   9
ATOM      9  C   UNL     1       3.213  40.301  12.563  1.00  0.00     0.044 C 
ATOM     10  O   UNL     1       2.256  39.571  12.934  1.00  0.00    -0.550 OA
ATOM     11  O   UNL     1       4.515  39.924  12.868  1.00  0.00    -0.550 OA
ENDBRANCH   7   9
ENDBRANCH   6   7
ENDBRANCH   5   6
ENDBRANCH   4   5
ENDBRANCH   3   4
ENDBRANCH   2   3
ENDBRANCH   1   2
BRANCH   1  12
ATOM     12  C   UNL     1       0.182  45.243  10.493  1.00  0.00     0.000 C 
BRANCH  12  13
ATOM     13  C   UNL     1      -0.754  46.246   9.796  1.00  0.00    -0.000 C 
BRANCH  13  14
ATOM     14  C   UNL     1      -0.324  46.563   8.356  1.00  0.00    -0.000 C 
BRANCH  14  15
ATOM     15  C   UNL     1      -0.367  48.071   8.089  1.00  0.00    -0.000 C 
BRANCH  15  16
ATOM     16  C   UNL     1       1.041  48.682   8.151  1.00  0.00    -0.000 C 
BRANCH  16  17
ATOM     17  C   UNL     1       2.143  47.694   7.728  1.00  0.00    -0.000 C 
BRANCH  17  18
ATOM     18  C   UNL     1       3.545  48.312   7.583  1.00  0.00    -0.003 C 
ATOM     19  C   UNL     1       4.555  47.743   8.577  1.00  0.00     0.004 C 
ENDBRANCH  17  18
ENDBRANCH  16  17
ENDBRANCH  15  16
ENDBRANCH  14  15
ENDBRANCH  13  14
ENDBRANCH  12  13
ENDBRANCH   1  12
TORSDOF 14
ENDMDL
