MODEL 1
REMARK VINA RESULT:     1.428      0.000      0.000
REMARK INTER + INTRA:           3.347
REMARK INTER:                   1.929
REMARK INTRA:                   1.418
REMARK UNBOUND:                 1.418
REMARK SMILES COc1ccc(-c2cc(=O)c3c(OC)c(OC)c(OC)c(OC)c3o2)cc1
REMARK SMILES IDX 7 1 8 2 9 3 10 4 11 5 24 6 25 7 21 8 18 9 15 10 12 11 6 12
REMARK SMILES IDX 3 13 4 14 27 15 5 16 26 17 2 18 1 19 22 20 23 21 13 22 14 23
REMARK SMILES IDX 19 24 20 25 16 26 17 27
REMARK H PARENT
REMARK Flexibility Score: inf
ROOT
ATOM      1  C   UNL     1      57.678  22.894  23.787  1.00  0.00     0.138 A 
ATOM      2  C   UNL     1      58.022  23.641  24.916  1.00  0.00     0.100 A 
ATOM      3  C   UNL     1      59.312  24.150  25.028  1.00  0.00     0.197 A 
ATOM      4  O   UNL     1      59.599  24.832  26.049  1.00  0.00    -0.289 OA
ATOM      5  C   UNL     1      60.262  23.898  24.007  1.00  0.00     0.115 A 
ATOM      6  C   UNL     1      59.844  23.122  22.901  1.00  0.00     0.188 A 
ATOM      7  O   UNL     1      58.589  22.678  22.844  1.00  0.00    -0.452 OA
ATOM      8  C   UNL     1      60.746  22.814  21.857  1.00  0.00     0.209 A 
ATOM      9  C   UNL     1      62.062  23.344  21.892  1.00  0.00     0.211 A 
ATOM     10  C   UNL     1      62.481  24.135  22.995  1.00  0.00     0.208 A 
ATOM     11  C   UNL     1      61.587  24.389  24.067  1.00  0.00     0.179 A 
ENDROOT
BRANCH   1  12
ATOM     12  C   UNL     1      56.314  22.345  23.614  1.00  0.00     0.018 A 
ATOM     13  C   UNL     1      53.695  21.343  23.293  1.00  0.00     0.118 A 
ATOM     14  C   UNL     1      53.973  22.305  24.271  1.00  0.00     0.047 A 
ATOM     15  C   UNL     1      54.740  20.881  22.471  1.00  0.00     0.047 A 
ATOM     16  C   UNL     1      55.268  22.806  24.430  1.00  0.00     0.016 A 
ATOM     17  C   UNL     1      56.036  21.379  22.630  1.00  0.00     0.016 A 
BRANCH  13  18
ATOM     18  O   UNL     1      52.378  20.875  23.172  1.00  0.00    -0.497 OA
ATOM     19  C   UNL     1      51.396  20.967  24.198  1.00  0.00     0.278 C 
ENDBRANCH  13  18
ENDBRANCH   1  12
BRANCH   8  20
ATOM     20  O   UNL     1      60.386  21.990  20.774  1.00  0.00    -0.490 OA
ATOM     21  C   UNL     1      61.039  21.877  19.514  1.00  0.00     0.278 C 
ENDBRANCH   8  20
BRANCH  11  22
ATOM     22  O   UNL     1      61.962  25.129  25.208  1.00  0.00    -0.492 OA
ATOM     23  C   UNL     1      63.183  25.043  25.937  1.00  0.00     0.278 C 
ENDBRANCH  11  22
BRANCH   9  24
ATOM     24  O   UNL     1      62.992  23.116  20.856  1.00  0.00    -0.490 OA
ATOM     25  C   UNL     1      64.001  22.114  20.784  1.00  0.00     0.279 C 
ENDBRANCH   9  24
BRANCH  10  26
ATOM     26  O   UNL     1      63.769  24.705  23.073  1.00  0.00    -0.490 OA
ATOM     27  C   UNL     1      64.114  26.072  23.267  1.00  0.00     0.278 C 
ENDBRANCH  10  26
TORSDOF 6
ENDMDL
MODEL 2
REMARK VINA RESULT:     3.301      0.940      3.421
REMARK INTER + INTRA:           5.877
REMARK INTER:                   5.404
REMARK INTRA:                   0.473
REMARK UNBOUND:                 1.418
REMARK SMILES COc1ccc(-c2cc(=O)c3c(OC)c(OC)c(OC)c(OC)c3o2)cc1
REMARK SMILES IDX 7 1 8 2 9 3 10 4 11 5 24 6 25 7 21 8 18 9 15 10 12 11 6 12
REMARK SMILES IDX 3 13 4 14 27 15 5 16 26 17 2 18 1 19 22 20 23 21 13 22 14 23
REMARK SMILES IDX 19 24 20 25 16 26 17 27
REMARK H PARENT
REMARK Flexibility Score: inf
ROOT
ATOM      1  C   UNL     1      57.512  22.253  22.862  1.00  0.00     0.138 A 
ATOM      2  C   UNL     1      58.128  21.940  21.649  1.00  0.00     0.100 A 
ATOM      3  C   UNL     1      59.458  22.298  21.450  1.00  0.00     0.197 A 
ATOM      4  O   UNL     1      60.000  21.996  20.353  1.00  0.00    -0.289 OA
ATOM      5  C   UNL     1      60.166  22.982  22.469  1.00  0.00     0.115 A 
ATOM      6  C   UNL     1      59.470  23.277  23.665  1.00  0.00     0.188 A 
ATOM      7  O   UNL     1      58.202  22.891  23.801  1.00  0.00    -0.452 OA
ATOM      8  C   UNL     1      60.110  23.976  24.714  1.00  0.00     0.209 A 
ATOM      9  C   UNL     1      61.479  24.327  24.588  1.00  0.00     0.211 A 
ATOM     10  C   UNL     1      62.184  24.020  23.393  1.00  0.00     0.208 A 
ATOM     11  C   UNL     1      61.518  23.372  22.322  1.00  0.00     0.179 A 
ENDROOT
BRANCH   1  12
ATOM     12  C   UNL     1      56.104  21.880  23.129  1.00  0.00     0.018 A 
ATOM     13  C   UNL     1      53.414  21.213  23.663  1.00  0.00     0.118 A 
ATOM     14  C   UNL     1      54.183  21.883  24.621  1.00  0.00     0.047 A 
ATOM     15  C   UNL     1      54.000  20.876  22.428  1.00  0.00     0.047 A 
ATOM     16  C   UNL     1      55.514  22.218  24.358  1.00  0.00     0.016 A 
ATOM     17  C   UNL     1      55.331  21.208  22.165  1.00  0.00     0.016 A 
BRANCH  13  18
ATOM     18  O   UNL     1      52.082  20.903  23.974  1.00  0.00    -0.497 OA
ATOM     19  C   UNL     1      51.542  20.913  25.291  1.00  0.00     0.278 C 
ENDBRANCH  13  18
ENDBRANCH   1  12
BRANCH   8  20
ATOM     20  O   UNL     1      59.431  24.345  25.891  1.00  0.00    -0.490 OA
ATOM     21  C   UNL     1      58.086  24.797  26.012  1.00  0.00     0.278 C 
ENDBRANCH   8  20
BRANCH  11  22
ATOM     22  O   UNL     1      62.155  23.083  21.096  1.00  0.00    -0.492 OA
ATOM     23  C   UNL     1      63.032  21.998  20.808  1.00  0.00     0.278 C 
ENDBRANCH  11  22
BRANCH   9  24
ATOM     24  O   UNL     1      62.185  24.978  25.620  1.00  0.00    -0.490 OA
ATOM     25  C   UNL     1      63.556  24.832  25.977  1.00  0.00     0.279 C 
ENDBRANCH   9  24
BRANCH  10  26
ATOM     26  O   UNL     1      63.550  24.325  23.221  1.00  0.00    -0.490 OA
ATOM     27  C   UNL     1      64.125  25.402  22.489  1.00  0.00     0.278 C 
ENDBRANCH  10  26
TORSDOF 6
ENDMDL
