MODEL 1
REMARK VINA RESULT:    -3.377      0.000      0.000
REMARK INTER + INTRA:          -5.313
REMARK INTER:                  -5.153
REMARK INTRA:                  -0.160
REMARK UNBOUND:                -0.160
REMARK SMILES CC1=CCC[C@H](C)C(=O)C[C@@H](C(C)C)C(=O)C1
REMARK SMILES IDX 8 1 9 2 6 3 7 4 5 5 4 6 3 7 2 8 1 9 10 11 11 12 15 13 16 14
REMARK SMILES IDX 17 15 12 17 13 18 14 19
REMARK H PARENT
REMARK Flexibility Score: 70.00
ROOT
ATOM      1  C   UNL     1      34.566  70.683 105.645  1.00  0.00     0.136 C 
ATOM      2  O   UNL     1      35.020  71.489 104.844  1.00  0.00    -0.299 OA
ENDROOT
BRANCH   1   3
ATOM      3  C   UNL     1      33.835  71.225 106.868  1.00  0.00     0.053 C 
ATOM      4  C   UNL     1      34.747  71.826 107.953  1.00  0.00     0.016 C 
BRANCH   3   5
ATOM      5  C   UNL     1      32.693  72.200 106.484  1.00  0.00     0.015 C 
BRANCH   5   6
ATOM      6  C   UNL     1      31.461  71.537 105.828  1.00  0.00     0.028 C 
BRANCH   6   7
ATOM      7  C   UNL     1      30.842  70.494 106.734  1.00  0.00    -0.028 C 
ATOM      8  C   UNL     1      30.638  69.188 106.434  1.00  0.00    -0.070 CG0
ATOM      9  C   UNL     1      29.975  68.321 107.475  1.00  0.00     0.039 C 
ATOM     10  G   UNL     1      31.089  68.541 105.140  1.00  0.00     0.000 G0
ENDBRANCH   6   7
ENDBRANCH   5   6
ENDBRANCH   3   5
ENDBRANCH   1   3
BRANCH   1  11
ATOM     11  C   UNL     1      34.738  69.207 105.339  1.00  0.00     0.087 C 
BRANCH  11  12
ATOM     12  C   UNL     1      33.619  68.654 104.425  1.00  0.00     0.066 C 
BRANCH  12  13
ATOM     13  C   UNL     1      32.507  68.020 105.240  1.00  0.00     0.140 C 
ATOM     14  O   UNL     1      32.761  67.116 106.022  1.00  0.00    -0.299 OA
BRANCH  13  15
ATOM     15  C   UNL     1      31.089  68.514 105.133  1.00  0.00     0.106 CG0
ATOM     16  G   UNL     1      30.664  69.177 106.427  1.00  0.00     0.000 G0
ENDBRANCH  13  15
ENDBRANCH  12  13
BRANCH  12  17
ATOM     17  C   UNL     1      34.172  67.709 103.314  1.00  0.00    -0.006 C 
ATOM     18  C   UNL     1      33.093  66.903 102.569  1.00  0.00     0.008 C 
ATOM     19  C   UNL     1      35.034  68.486 102.307  1.00  0.00     0.008 C 
ENDBRANCH  12  17
ENDBRANCH  11  12
ENDBRANCH   1  11
TORSDOF 1
ENDMDL
MODEL 2
REMARK VINA RESULT:    -3.301      1.475      4.040
REMARK INTER + INTRA:          -5.198
REMARK INTER:                  -4.988
REMARK INTRA:                  -0.210
REMARK UNBOUND:                -0.160
REMARK SMILES CC1=CCC[C@H](C)C(=O)C[C@@H](C(C)C)C(=O)C1
REMARK SMILES IDX 8 1 9 2 6 3 7 4 5 5 4 6 3 7 2 8 1 9 10 11 11 12 15 13 16 14
REMARK SMILES IDX 17 15 12 17 13 18 14 19
REMARK H PARENT
REMARK Flexibility Score: 70.00
ROOT
ATOM      1  C   UNL     1      35.153  69.708 104.453  1.00  0.00     0.136 C 
ATOM      2  O   UNL     1      36.050  69.200 105.114  1.00  0.00    -0.299 OA
ENDROOT
BRANCH   1   3
ATOM      3  C   UNL     1      34.719  68.999 103.175  1.00  0.00     0.053 C 
ATOM      4  C   UNL     1      35.872  68.461 102.308  1.00  0.00     0.016 C 
BRANCH   3   5
ATOM      5  C   UNL     1      33.656  67.904 103.445  1.00  0.00     0.015 C 
BRANCH   5   6
ATOM      6  C   UNL     1      32.188  68.379 103.351  1.00  0.00     0.028 C 
BRANCH   6   7
ATOM      7  C   UNL     1      31.468  68.223 104.673  1.00  0.00    -0.028 C 
ATOM      8  C   UNL     1      31.128  69.220 105.526  1.00  0.00    -0.070 CG0
ATOM      9  C   UNL     1      30.436  68.843 106.812  1.00  0.00     0.039 C 
ATOM     10  G   UNL     1      31.350  70.690 105.233  1.00  0.00     0.000 G0
ENDBRANCH   6   7
ENDBRANCH   5   6
ENDBRANCH   3   5
ENDBRANCH   1   3
BRANCH   1  11
ATOM     11  C   UNL     1      34.524  70.986 104.975  1.00  0.00     0.087 C 
BRANCH  11  12
ATOM     12  C   UNL     1      33.748  70.770 106.296  1.00  0.00     0.066 C 
BRANCH  12  13
ATOM     13  C   UNL     1      32.333  71.308 106.197  1.00  0.00     0.140 C 
ATOM     14  O   UNL     1      31.993  72.262 106.881  1.00  0.00    -0.299 OA
BRANCH  13  15
ATOM     15  C   UNL     1      31.341  70.711 105.235  1.00  0.00     0.106 CG0
ATOM     16  G   UNL     1      31.136  69.240 105.537  1.00  0.00     0.000 G0
ENDBRANCH  13  15
ENDBRANCH  12  13
BRANCH  12  17
ATOM     17  C   UNL     1      34.520  71.318 107.535  1.00  0.00    -0.006 C 
ATOM     18  C   UNL     1      35.105  70.230 108.454  1.00  0.00     0.008 C 
ATOM     19  C   UNL     1      35.629  72.293 107.108  1.00  0.00     0.008 C 
ENDBRANCH  12  17
ENDBRANCH  11  12
ENDBRANCH   1  11
TORSDOF 1
ENDMDL
MODEL 3
REMARK VINA RESULT:    -3.192      2.192      4.579
REMARK INTER + INTRA:          -5.031
REMARK INTER:                  -4.896
REMARK INTRA:                  -0.135
REMARK UNBOUND:                -0.160
REMARK SMILES CC1=CCC[C@H](C)C(=O)C[C@@H](C(C)C)C(=O)C1
REMARK SMILES IDX 8 1 9 2 6 3 7 4 5 5 4 6 3 7 2 8 1 9 10 11 11 12 15 13 16 14
REMARK SMILES IDX 17 15 12 17 13 18 14 19
REMARK H PARENT
REMARK Flexibility Score: 70.00
ROOT
ATOM      1  C   UNL     1      32.196  68.818 103.674  1.00  0.00     0.136 C 
ATOM      2  O   UNL     1      33.076  69.624 103.403  1.00  0.00    -0.299 OA
ENDROOT
BRANCH   1   3
ATOM      3  C   UNL     1      32.242  67.455 102.993  1.00  0.00     0.053 C 
ATOM      4  C   UNL     1      33.601  66.736 103.074  1.00  0.00     0.016 C 
BRANCH   3   5
ATOM      5  C   UNL     1      31.084  66.532 103.452  1.00  0.00     0.015 C 
BRANCH   5   6
ATOM      6  C   UNL     1      31.422  65.601 104.638  1.00  0.00     0.028 C 
BRANCH   6   7
ATOM      7  C   UNL     1      30.217  65.374 105.527  1.00  0.00    -0.028 C 
ATOM      8  C   UNL     1      30.015  65.905 106.758  1.00  0.00    -0.070 CG0
ATOM      9  C   UNL     1      28.753  65.525 107.491  1.00  0.00     0.039 C 
ATOM     10  G   UNL     1      30.953  66.900 107.409  1.00  0.00     0.000 G0
ENDBRANCH   6   7
ENDBRANCH   5   6
ENDBRANCH   3   5
ENDBRANCH   1   3
BRANCH   1  11
ATOM     11  C   UNL     1      31.146  69.229 104.690  1.00  0.00     0.087 C 
BRANCH  11  12
ATOM     12  C   UNL     1      31.644  69.093 106.148  1.00  0.00     0.066 C 
BRANCH  12  13
ATOM     13  C   UNL     1      30.662  68.304 106.993  1.00  0.00     0.140 C 
ATOM     14  O   UNL     1      29.590  68.800 107.307  1.00  0.00    -0.299 OA
BRANCH  13  15
ATOM     15  C   UNL     1      30.967  66.893 107.423  1.00  0.00     0.106 CG0
ATOM     16  G   UNL     1      30.014  65.923 106.755  1.00  0.00     0.000 G0
ENDBRANCH  13  15
ENDBRANCH  12  13
BRANCH  12  17
ATOM     17  C   UNL     1      32.019  70.469 106.779  1.00  0.00    -0.006 C 
ATOM     18  C   UNL     1      33.526  70.780 106.778  1.00  0.00     0.008 C 
ATOM     19  C   UNL     1      31.248  71.614 106.104  1.00  0.00     0.008 C 
ENDBRANCH  12  17
ENDBRANCH  11  12
ENDBRANCH   1  11
TORSDOF 1
ENDMDL
MODEL 4
REMARK VINA RESULT:    -3.174      2.267      5.070
REMARK INTER + INTRA:          -5.004
REMARK INTER:                  -4.785
REMARK INTRA:                  -0.219
REMARK UNBOUND:                -0.160
REMARK SMILES CC1=CCC[C@H](C)C(=O)C[C@@H](C(C)C)C(=O)C1
REMARK SMILES IDX 8 1 9 2 6 3 7 4 5 5 4 6 3 7 2 8 1 9 10 11 11 12 15 13 16 14
REMARK SMILES IDX 17 15 12 17 13 18 14 19
REMARK H PARENT
REMARK Flexibility Score: 70.00
ROOT
ATOM      1  C   UNL     1      31.839  68.215 104.358  1.00  0.00     0.136 C 
ATOM      2  O   UNL     1      30.825  68.440 103.711  1.00  0.00    -0.299 OA
ENDROOT
BRANCH   1   3
ATOM      3  C   UNL     1      33.120  67.901 103.594  1.00  0.00     0.053 C 
ATOM      4  C   UNL     1      32.991  66.779 102.548  1.00  0.00     0.016 C 
BRANCH   3   5
ATOM      5  C   UNL     1      33.765  69.172 102.984  1.00  0.00     0.015 C 
BRANCH   5   6
ATOM      6  C   UNL     1      34.778  69.895 103.900  1.00  0.00     0.028 C 
BRANCH   6   7
ATOM      7  C   UNL     1      35.625  68.910 104.678  1.00  0.00    -0.028 C 
ATOM      8  C   UNL     1      35.769  68.861 106.025  1.00  0.00    -0.070 CG0
ATOM      9  C   UNL     1      36.690  67.813 106.597  1.00  0.00     0.039 C 
ATOM     10  G   UNL     1      35.015  69.758 106.984  1.00  0.00     0.000 G0
ENDBRANCH   6   7
ENDBRANCH   5   6
ENDBRANCH   3   5
ENDBRANCH   1   3
BRANCH   1  11
ATOM     11  C   UNL     1      31.747  68.299 105.871  1.00  0.00     0.087 C 
BRANCH  11  12
ATOM     12  C   UNL     1      32.444  69.557 106.440  1.00  0.00     0.066 C 
BRANCH  12  13
ATOM     13  C   UNL     1      33.640  69.184 107.296  1.00  0.00     0.140 C 
ATOM     14  O   UNL     1      33.510  68.387 108.213  1.00  0.00    -0.299 OA
BRANCH  13  15
ATOM     15  C   UNL     1      35.005  69.751 107.011  1.00  0.00     0.106 CG0
ATOM     16  G   UNL     1      35.754  68.858 106.043  1.00  0.00     0.000 G0
ENDBRANCH  13  15
ENDBRANCH  12  13
BRANCH  12  17
ATOM     17  C   UNL     1      31.447  70.508 107.171  1.00  0.00    -0.006 C 
ATOM     18  C   UNL     1      31.330  71.910 106.547  1.00  0.00     0.008 C 
ATOM     19  C   UNL     1      30.055  69.868 107.284  1.00  0.00     0.008 C 
ENDBRANCH  12  17
ENDBRANCH  11  12
ENDBRANCH   1  11
TORSDOF 1
ENDMDL
MODEL 5
REMARK VINA RESULT:    -3.130      1.848      3.703
REMARK INTER + INTRA:          -4.936
REMARK INTER:                  -5.075
REMARK INTRA:                   0.139
REMARK UNBOUND:                -0.160
REMARK SMILES CC1=CCC[C@H](C)C(=O)C[C@@H](C(C)C)C(=O)C1
REMARK SMILES IDX 8 1 9 2 6 3 7 4 5 5 4 6 3 7 2 8 1 9 10 11 11 12 15 13 16 14
REMARK SMILES IDX 17 15 12 17 13 18 14 19
REMARK H PARENT
REMARK Flexibility Score: 70.00
ROOT
ATOM      1  C   UNL     1      34.556  71.428 105.934  1.00  0.00     0.136 C 
ATOM      2  O   UNL     1      35.141  71.431 104.859  1.00  0.00    -0.299 OA
ENDROOT
BRANCH   1   3
ATOM      3  C   UNL     1      35.396  71.378 107.204  1.00  0.00     0.053 C 
ATOM      4  C   UNL     1      35.273  72.616 108.112  1.00  0.00     0.016 C 
BRANCH   3   5
ATOM      5  C   UNL     1      35.175  70.067 108.002  1.00  0.00     0.015 C 
BRANCH   5   6
ATOM      6  C   UNL     1      35.696  68.787 107.312  1.00  0.00     0.028 C 
BRANCH   6   7
ATOM      7  C   UNL     1      34.634  67.708 107.268  1.00  0.00    -0.028 C 
ATOM      8  C   UNL     1      33.774  67.468 106.249  1.00  0.00    -0.070 CG0
ATOM      9  C   UNL     1      32.769  66.357 106.422  1.00  0.00     0.039 C 
ATOM     10  G   UNL     1      33.805  68.211 104.929  1.00  0.00     0.000 G0
ENDBRANCH   6   7
ENDBRANCH   5   6
ENDBRANCH   3   5
ENDBRANCH   1   3
BRANCH   1  11
ATOM     11  C   UNL     1      33.040  71.507 105.916  1.00  0.00     0.087 C 
BRANCH  11  12
ATOM     12  C   UNL     1      32.371  70.119 106.041  1.00  0.00     0.066 C 
BRANCH  12  13
ATOM     13  C   UNL     1      32.694  69.243 104.845  1.00  0.00     0.140 C 
ATOM     14  O   UNL     1      32.082  69.389 103.798  1.00  0.00    -0.299 OA
BRANCH  13  15
ATOM     15  C   UNL     1      33.790  68.213 104.912  1.00  0.00     0.106 CG0
ATOM     16  G   UNL     1      33.747  67.484 106.239  1.00  0.00     0.000 G0
ENDBRANCH  13  15
ENDBRANCH  12  13
BRANCH  12  17
ATOM     17  C   UNL     1      30.840  70.220 106.324  1.00  0.00    -0.006 C 
ATOM     18  C   UNL     1      30.317  69.217 107.366  1.00  0.00     0.008 C 
ATOM     19  C   UNL     1      30.447  71.650 106.730  1.00  0.00     0.008 C 
ENDBRANCH  12  17
ENDBRANCH  11  12
ENDBRANCH   1  11
TORSDOF 1
ENDMDL
MODEL 6
REMARK VINA RESULT:    -3.125      1.936      3.613
REMARK INTER + INTRA:          -4.930
REMARK INTER:                  -4.704
REMARK INTRA:                  -0.225
REMARK UNBOUND:                -0.160
REMARK SMILES CC1=CCC[C@H](C)C(=O)C[C@@H](C(C)C)C(=O)C1
REMARK SMILES IDX 8 1 9 2 6 3 7 4 5 5 4 6 3 7 2 8 1 9 10 11 11 12 15 13 16 14
REMARK SMILES IDX 17 15 12 17 13 18 14 19
REMARK H PARENT
REMARK Flexibility Score: 70.00
ROOT
ATOM      1  C   UNL     1      33.864  68.227 107.270  1.00  0.00     0.136 C 
ATOM      2  O   UNL     1      34.522  68.561 108.246  1.00  0.00    -0.299 OA
ENDROOT
BRANCH   1   3
ATOM      3  C   UNL     1      32.540  67.512 107.511  1.00  0.00     0.053 C 
ATOM      4  C   UNL     1      32.598  66.371 108.544  1.00  0.00     0.016 C 
BRANCH   3   5
ATOM      5  C   UNL     1      31.389  68.502 107.825  1.00  0.00     0.015 C 
BRANCH   5   6
ATOM      6  C   UNL     1      30.337  68.659 106.704  1.00  0.00     0.028 C 
BRANCH   6   7
ATOM      7  C   UNL     1      30.610  67.716 105.551  1.00  0.00    -0.028 C 
ATOM      8  C   UNL     1      31.094  68.056 104.332  1.00  0.00    -0.070 CG0
ATOM      9  C   UNL     1      31.265  66.960 103.310  1.00  0.00     0.039 C 
ATOM     10  G   UNL     1      31.527  69.460 103.960  1.00  0.00     0.000 G0
ENDBRANCH   6   7
ENDBRANCH   5   6
ENDBRANCH   3   5
ENDBRANCH   1   3
BRANCH   1  11
ATOM     11  C   UNL     1      34.405  68.579 105.896  1.00  0.00     0.087 C 
BRANCH  11  12
ATOM     12  C   UNL     1      33.761  69.859 105.314  1.00  0.00     0.066 C 
BRANCH  12  13
ATOM     13  C   UNL     1      33.044  69.570 104.009  1.00  0.00     0.140 C 
ATOM     14  O   UNL     1      33.688  69.379 102.987  1.00  0.00    -0.299 OA
BRANCH  13  15
ATOM     15  C   UNL     1      31.543  69.472 103.953  1.00  0.00     0.106 CG0
ATOM     16  G   UNL     1      31.094  68.068 104.301  1.00  0.00     0.000 G0
ENDBRANCH  13  15
ENDBRANCH  12  13
BRANCH  12  17
ATOM     17  C   UNL     1      34.777  71.036 105.200  1.00  0.00    -0.006 C 
ATOM     18  C   UNL     1      34.763  72.008 106.394  1.00  0.00     0.008 C 
ATOM     19  C   UNL     1      36.204  70.514 104.968  1.00  0.00     0.008 C 
ENDBRANCH  12  17
ENDBRANCH  11  12
ENDBRANCH   1  11
TORSDOF 1
ENDMDL
MODEL 7
REMARK VINA RESULT:    -2.981      2.469      4.574
REMARK INTER + INTRA:          -4.709
REMARK INTER:                  -4.611
REMARK INTRA:                  -0.098
REMARK UNBOUND:                -0.160
REMARK SMILES CC1=CCC[C@H](C)C(=O)C[C@@H](C(C)C)C(=O)C1
REMARK SMILES IDX 8 1 9 2 6 3 7 4 5 5 4 6 3 7 2 8 1 9 10 11 11 12 15 13 16 14
REMARK SMILES IDX 17 15 12 17 13 18 14 19
REMARK H PARENT
REMARK Flexibility Score: 70.00
ROOT
ATOM      1  C   UNL     1      32.561  68.276 107.943  1.00  0.00     0.136 C 
ATOM      2  O   UNL     1      31.453  68.568 108.373  1.00  0.00    -0.299 OA
ENDROOT
BRANCH   1   3
ATOM      3  C   UNL     1      33.239  67.031 108.505  1.00  0.00     0.053 C 
ATOM      4  C   UNL     1      33.095  66.845 110.026  1.00  0.00     0.016 C 
BRANCH   3   5
ATOM      5  C   UNL     1      32.836  65.747 107.736  1.00  0.00     0.015 C 
BRANCH   5   6
ATOM      6  C   UNL     1      33.464  65.600 106.332  1.00  0.00     0.028 C 
BRANCH   6   7
ATOM      7  C   UNL     1      32.410  65.627 105.246  1.00  0.00    -0.028 C 
ATOM      8  C   UNL     1      32.191  66.631 104.362  1.00  0.00    -0.070 CG0
ATOM      9  C   UNL     1      31.063  66.468 103.375  1.00  0.00     0.039 C 
ATOM     10  G   UNL     1      33.051  67.876 104.274  1.00  0.00     0.000 G0
ENDBRANCH   6   7
ENDBRANCH   5   6
ENDBRANCH   3   5
ENDBRANCH   1   3
BRANCH   1  11
ATOM     11  C   UNL     1      33.158  69.158 106.863  1.00  0.00     0.087 C 
BRANCH  11  12
ATOM     12  C   UNL     1      32.088  69.733 105.905  1.00  0.00     0.066 C 
BRANCH  12  13
ATOM     13  C   UNL     1      32.208  69.128 104.519  1.00  0.00     0.140 C 
ATOM     14  O   UNL     1      31.647  69.657 103.571  1.00  0.00    -0.299 OA
BRANCH  13  15
ATOM     15  C   UNL     1      33.045  67.900 104.278  1.00  0.00     0.106 CG0
ATOM     16  G   UNL     1      32.188  66.654 104.366  1.00  0.00     0.000 G0
ENDBRANCH  13  15
ENDBRANCH  12  13
BRANCH  12  17
ATOM     17  C   UNL     1      32.082  71.292 105.889  1.00  0.00    -0.006 C 
ATOM     18  C   UNL     1      30.900  71.933 106.637  1.00  0.00     0.008 C 
ATOM     19  C   UNL     1      33.408  71.856 106.426  1.00  0.00     0.008 C 
ENDBRANCH  12  17
ENDBRANCH  11  12
ENDBRANCH   1  11
TORSDOF 1
ENDMDL
MODEL 8
REMARK VINA RESULT:    -2.966      2.244      3.996
REMARK INTER + INTRA:          -4.687
REMARK INTER:                  -4.491
REMARK INTRA:                  -0.196
REMARK UNBOUND:                -0.160
REMARK SMILES CC1=CCC[C@H](C)C(=O)C[C@@H](C(C)C)C(=O)C1
REMARK SMILES IDX 8 1 9 2 6 3 7 4 5 5 4 6 3 7 2 8 1 9 10 11 11 12 15 13 16 14
REMARK SMILES IDX 17 15 12 17 13 18 14 19
REMARK H PARENT
REMARK Flexibility Score: 70.00
ROOT
ATOM      1  C   UNL     1      31.546  69.219 104.431  1.00  0.00     0.136 C 
ATOM      2  O   UNL     1      31.051  69.925 103.563  1.00  0.00    -0.299 OA
ENDROOT
BRANCH   1   3
ATOM      3  C   UNL     1      30.899  69.225 105.811  1.00  0.00     0.053 C 
ATOM      4  C   UNL     1      30.641  67.831 106.412  1.00  0.00     0.016 C 
BRANCH   3   5
ATOM      5  C   UNL     1      31.655  70.139 106.809  1.00  0.00     0.015 C 
BRANCH   5   6
ATOM      6  C   UNL     1      32.091  71.508 106.240  1.00  0.00     0.028 C 
BRANCH   6   7
ATOM      7  C   UNL     1      33.512  71.847 106.636  1.00  0.00    -0.028 C 
ATOM      8  C   UNL     1      34.632  71.582 105.920  1.00  0.00    -0.070 CG0
ATOM      9  C   UNL     1      35.960  71.980 106.514  1.00  0.00     0.039 C 
ATOM     10  G   UNL     1      34.619  70.963 104.537  1.00  0.00     0.000 G0
ENDBRANCH   6   7
ENDBRANCH   5   6
ENDBRANCH   3   5
ENDBRANCH   1   3
BRANCH   1  11
ATOM     11  C   UNL     1      32.746  68.370 104.055  1.00  0.00     0.087 C 
BRANCH  11  12
ATOM     12  C   UNL     1      33.903  68.491 105.075  1.00  0.00     0.066 C 
BRANCH  12  13
ATOM     13  C   UNL     1      34.943  69.494 104.611  1.00  0.00     0.140 C 
ATOM     14  O   UNL     1      36.048  69.110 104.260  1.00  0.00    -0.299 OA
BRANCH  13  15
ATOM     15  C   UNL     1      34.623  70.963 104.538  1.00  0.00     0.106 CG0
ATOM     16  G   UNL     1      34.656  71.579 105.922  1.00  0.00     0.000 G0
ENDBRANCH  13  15
ENDBRANCH  12  13
BRANCH  12  17
ATOM     17  C   UNL     1      34.518  67.105 105.442  1.00  0.00    -0.006 C 
ATOM     18  C   UNL     1      34.792  66.907 106.943  1.00  0.00     0.008 C 
ATOM     19  C   UNL     1      33.645  65.956 104.913  1.00  0.00     0.008 C 
ENDBRANCH  12  17
ENDBRANCH  11  12
ENDBRANCH   1  11
TORSDOF 1
ENDMDL
MODEL 9
REMARK VINA RESULT:    -2.942      2.004      4.081
REMARK INTER + INTRA:          -4.650
REMARK INTER:                  -4.436
REMARK INTRA:                  -0.214
REMARK UNBOUND:                -0.160
REMARK SMILES CC1=CCC[C@H](C)C(=O)C[C@@H](C(C)C)C(=O)C1
REMARK SMILES IDX 8 1 9 2 6 3 7 4 5 5 4 6 3 7 2 8 1 9 10 11 11 12 15 13 16 14
REMARK SMILES IDX 17 15 12 17 13 18 14 19
REMARK H PARENT
REMARK Flexibility Score: 70.00
ROOT
ATOM      1  C   UNL     1      30.684  67.776 105.134  1.00  0.00     0.136 C 
ATOM      2  O   UNL     1      29.884  66.850 105.140  1.00  0.00    -0.299 OA
ENDROOT
BRANCH   1   3
ATOM      3  C   UNL     1      30.987  68.466 106.459  1.00  0.00     0.053 C 
ATOM      4  C   UNL     1      29.749  68.958 107.231  1.00  0.00     0.016 C 
BRANCH   3   5
ATOM      5  C   UNL     1      31.917  67.617 107.363  1.00  0.00     0.015 C 
BRANCH   5   6
ATOM      6  C   UNL     1      33.370  68.132 107.472  1.00  0.00     0.028 C 
BRANCH   6   7
ATOM      7  C   UNL     1      33.487  69.568 107.006  1.00  0.00    -0.028 C 
ATOM      8  C   UNL     1      34.114  70.002 105.886  1.00  0.00    -0.070 CG0
ATOM      9  C   UNL     1      34.140  71.486 105.622  1.00  0.00     0.039 C 
ATOM     10  G   UNL     1      34.736  69.078 104.859  1.00  0.00     0.000 G0
ENDBRANCH   6   7
ENDBRANCH   5   6
ENDBRANCH   3   5
ENDBRANCH   1   3
BRANCH   1  11
ATOM     11  C   UNL     1      31.335  68.142 103.813  1.00  0.00     0.087 C 
BRANCH  11  12
ATOM     12  C   UNL     1      32.803  67.665 103.721  1.00  0.00     0.066 C 
BRANCH  12  13
ATOM     13  C   UNL     1      33.764  68.839 103.715  1.00  0.00     0.140 C 
ATOM     14  O   UNL     1      33.747  69.637 102.790  1.00  0.00    -0.299 OA
BRANCH  13  15
ATOM     15  C   UNL     1      34.721  69.064 104.855  1.00  0.00     0.106 CG0
ATOM     16  G   UNL     1      34.106  69.996 105.880  1.00  0.00     0.000 G0
ENDBRANCH  13  15
ENDBRANCH  12  13
BRANCH  12  17
ATOM     17  C   UNL     1      33.036  66.684 102.531  1.00  0.00    -0.006 C 
ATOM     18  C   UNL     1      34.393  65.960 102.558  1.00  0.00     0.008 C 
ATOM     19  C   UNL     1      31.897  65.656 102.432  1.00  0.00     0.008 C 
ENDBRANCH  12  17
ENDBRANCH  11  12
ENDBRANCH   1  11
TORSDOF 1
ENDMDL
