MODEL 1
REMARK VINA RESULT:    -5.022      0.000      0.000
REMARK INTER + INTRA:          -5.574
REMARK INTER:                  -5.316
REMARK INTRA:                  -0.258
REMARK UNBOUND:                -0.258
REMARK SMILES CC1=C[C@@H]2C(=C(C)CC[C@@H]2C(C)C)CC1
REMARK SMILES IDX 1 1 2 2 3 3 4 4 10 5 9 6 8 7 6 8 5 9 14 10 15 11 7 12 11 13
REMARK SMILES IDX 12 14 13 15
REMARK H PARENT
REMARK Flexibility Score: inf
ROOT
ATOM      1  C   UNL     1     135.688 140.210 133.549  1.00  0.00     0.039 C 
ATOM      2  C   UNL     1     134.468 139.590 134.171  1.00  0.00    -0.076 C 
ATOM      3  C   UNL     1     133.981 138.426 133.693  1.00  0.00    -0.020 C 
ATOM      4  C   UNL     1     132.799 137.798 134.398  1.00  0.00     0.041 C 
ATOM      5  C   UNL     1     132.322 136.418 133.868  1.00  0.00     0.003 C 
ATOM      6  C   UNL     1     133.250 135.311 134.380  1.00  0.00     0.009 C 
ATOM      7  C   UNL     1     133.162 135.252 135.909  1.00  0.00     0.031 C 
ATOM      8  C   UNL     1     133.348 136.608 136.568  1.00  0.00    -0.073 C 
ATOM      9  C   UNL     1     133.166 137.775 135.882  1.00  0.00    -0.064 C 
ATOM     10  C   UNL     1     133.586 139.117 136.485  1.00  0.00     0.036 C 
ATOM     11  C   UNL     1     133.818 140.198 135.403  1.00  0.00     0.035 C 
ATOM     12  C   UNL     1     133.687 136.615 138.039  1.00  0.00     0.039 C 
ENDROOT
BRANCH   5  13
ATOM     13  C   UNL     1     131.962 136.298 132.350  1.00  0.00    -0.013 C 
ATOM     14  C   UNL     1     130.735 137.097 131.875  1.00  0.00     0.007 C 
ATOM     15  C   UNL     1     131.850 134.834 131.901  1.00  0.00     0.007 C 
ENDBRANCH   5  13
TORSDOF 1
ENDMDL
MODEL 2
REMARK VINA RESULT:    -5.018      3.854      5.635
REMARK INTER + INTRA:          -5.569
REMARK INTER:                  -5.315
REMARK INTRA:                  -0.254
REMARK UNBOUND:                -0.258
REMARK SMILES CC1=C[C@@H]2C(=C(C)CC[C@@H]2C(C)C)CC1
REMARK SMILES IDX 1 1 2 2 3 3 4 4 10 5 9 6 8 7 6 8 5 9 14 10 15 11 7 12 11 13
REMARK SMILES IDX 12 14 13 15
REMARK H PARENT
REMARK Flexibility Score: inf
ROOT
ATOM      1  C   UNL     1     140.218 136.829 133.476  1.00  0.00     0.039 C 
ATOM      2  C   UNL     1     139.664 138.079 134.101  1.00  0.00    -0.076 C 
ATOM      3  C   UNL     1     138.502 138.601 133.657  1.00  0.00    -0.020 C 
ATOM      4  C   UNL     1     137.942 139.814 134.366  1.00  0.00     0.041 C 
ATOM      5  C   UNL     1     136.562 140.334 133.878  1.00  0.00     0.003 C 
ATOM      6  C   UNL     1     135.442 139.453 134.440  1.00  0.00     0.009 C 
ATOM      7  C   UNL     1     135.439 139.563 135.969  1.00  0.00     0.031 C 
ATOM      8  C   UNL     1     136.809 139.336 136.583  1.00  0.00    -0.073 C 
ATOM      9  C   UNL     1     137.958 139.467 135.855  1.00  0.00    -0.064 C 
ATOM     10  C   UNL     1     139.304 139.006 136.418  1.00  0.00     0.036 C 
ATOM     11  C   UNL     1     140.338 138.721 135.302  1.00  0.00     0.035 C 
ATOM     12  C   UNL     1     136.855 139.016 138.058  1.00  0.00     0.039 C 
ENDROOT
BRANCH   5  13
ATOM     13  C   UNL     1     136.403 140.679 132.360  1.00  0.00    -0.013 C 
ATOM     14  C   UNL     1     137.094 141.967 131.877  1.00  0.00     0.007 C 
ATOM     15  C   UNL     1     134.932 140.668 131.920  1.00  0.00     0.007 C 
ENDBRANCH   5  13
TORSDOF 1
ENDMDL
MODEL 3
REMARK VINA RESULT:    -4.970      5.953      7.773
REMARK INTER + INTRA:          -5.518
REMARK INTER:                  -5.261
REMARK INTRA:                  -0.257
REMARK UNBOUND:                -0.258
REMARK SMILES CC1=C[C@@H]2C(=C(C)CC[C@@H]2C(C)C)CC1
REMARK SMILES IDX 1 1 2 2 3 3 4 4 10 5 9 6 8 7 6 8 5 9 14 10 15 11 7 12 11 13
REMARK SMILES IDX 12 14 13 15
REMARK H PARENT
REMARK Flexibility Score: inf
ROOT
ATOM      1  C   UNL     1     136.851 132.339 133.753  1.00  0.00     0.039 C 
ATOM      2  C   UNL     1     138.094 132.963 134.322  1.00  0.00    -0.076 C 
ATOM      3  C   UNL     1     138.551 134.134 133.831  1.00  0.00    -0.020 C 
ATOM      4  C   UNL     1     139.760 134.766 134.484  1.00  0.00     0.041 C 
ATOM      5  C   UNL     1     140.202 136.153 133.943  1.00  0.00     0.003 C 
ATOM      6  C   UNL     1     139.291 137.249 134.506  1.00  0.00     0.009 C 
ATOM      7  C   UNL     1     139.450 137.299 136.029  1.00  0.00     0.031 C 
ATOM      8  C   UNL     1     139.304 135.937 136.686  1.00  0.00    -0.073 C 
ATOM      9  C   UNL     1     139.462 134.775 135.984  1.00  0.00    -0.064 C 
ATOM     10  C   UNL     1     139.079 133.426 136.596  1.00  0.00     0.036 C 
ATOM     11  C   UNL     1     138.805 132.351 135.518  1.00  0.00     0.035 C 
ATOM     12  C   UNL     1     139.033 135.917 138.172  1.00  0.00     0.039 C 
ENDROOT
BRANCH   5  13
ATOM     13  C   UNL     1     140.491 136.286 132.411  1.00  0.00    -0.013 C 
ATOM     14  C   UNL     1     141.707 135.510 131.876  1.00  0.00     0.007 C 
ATOM     15  C   UNL     1     140.558 137.753 131.965  1.00  0.00     0.007 C 
ENDBRANCH   5  13
TORSDOF 1
ENDMDL
MODEL 4
REMARK VINA RESULT:    -4.924      3.614      5.401
REMARK INTER + INTRA:          -5.469
REMARK INTER:                  -5.216
REMARK INTRA:                  -0.253
REMARK UNBOUND:                -0.258
REMARK SMILES CC1=C[C@@H]2C(=C(C)CC[C@@H]2C(C)C)CC1
REMARK SMILES IDX 1 1 2 2 3 3 4 4 10 5 9 6 8 7 6 8 5 9 14 10 15 11 7 12 11 13
REMARK SMILES IDX 12 14 13 15
REMARK H PARENT
REMARK Flexibility Score: inf
ROOT
ATOM      1  C   UNL     1     132.483 135.912 133.370  1.00  0.00     0.039 C 
ATOM      2  C   UNL     1     133.006 134.658 134.015  1.00  0.00    -0.076 C 
ATOM      3  C   UNL     1     134.177 134.124 133.607  1.00  0.00    -0.020 C 
ATOM      4  C   UNL     1     134.704 132.907 134.335  1.00  0.00     0.041 C 
ATOM      5  C   UNL     1     136.093 132.374 133.891  1.00  0.00     0.003 C 
ATOM      6  C   UNL     1     137.204 133.246 134.487  1.00  0.00     0.009 C 
ATOM      7  C   UNL     1     137.158 133.139 136.015  1.00  0.00     0.031 C 
ATOM      8  C   UNL     1     135.771 133.379 136.586  1.00  0.00    -0.073 C 
ATOM      9  C   UNL     1     134.645 133.257 135.822  1.00  0.00    -0.064 C 
ATOM     10  C   UNL     1     133.286 133.732 136.342  1.00  0.00     0.036 C 
ATOM     11  C   UNL     1     132.290 134.024 135.195  1.00  0.00     0.035 C 
ATOM     12  C   UNL     1     135.683 133.703 138.058  1.00  0.00     0.039 C 
ENDROOT
BRANCH   5  13
ATOM     13  C   UNL     1     136.296 132.025 132.379  1.00  0.00    -0.013 C 
ATOM     14  C   UNL     1     135.614 130.740 131.878  1.00  0.00     0.007 C 
ATOM     15  C   UNL     1     137.780 132.028 131.984  1.00  0.00     0.007 C 
ENDBRANCH   5  13
TORSDOF 1
ENDMDL
MODEL 5
REMARK VINA RESULT:    -4.831      0.932      4.282
REMARK INTER + INTRA:          -5.371
REMARK INTER:                  -5.112
REMARK INTRA:                  -0.259
REMARK UNBOUND:                -0.258
REMARK SMILES CC1=C[C@@H]2C(=C(C)CC[C@@H]2C(C)C)CC1
REMARK SMILES IDX 1 1 2 2 3 3 4 4 10 5 9 6 8 7 6 8 5 9 14 10 15 11 7 12 11 13
REMARK SMILES IDX 12 14 13 15
REMARK H PARENT
REMARK Flexibility Score: inf
ROOT
ATOM      1  C   UNL     1     130.859 137.079 131.875  1.00  0.00     0.039 C 
ATOM      2  C   UNL     1     132.095 136.820 132.692  1.00  0.00    -0.076 C 
ATOM      3  C   UNL     1     132.535 137.746 133.569  1.00  0.00    -0.020 C 
ATOM      4  C   UNL     1     133.736 137.412 134.425  1.00  0.00     0.041 C 
ATOM      5  C   UNL     1     134.159 138.471 135.479  1.00  0.00     0.003 C 
ATOM      6  C   UNL     1     133.233 138.396 136.698  1.00  0.00     0.009 C 
ATOM      7  C   UNL     1     133.392 137.024 137.363  1.00  0.00     0.031 C 
ATOM      8  C   UNL     1     133.265 135.871 136.382  1.00  0.00    -0.073 C 
ATOM      9  C   UNL     1     133.439 136.043 135.038  1.00  0.00    -0.064 C 
ATOM     10  C   UNL     1     133.075 134.934 134.048  1.00  0.00     0.036 C 
ATOM     11  C   UNL     1     132.814 135.483 132.626  1.00  0.00     0.035 C 
ATOM     12  C   UNL     1     132.996 134.503 136.964  1.00  0.00     0.039 C 
ENDROOT
BRANCH   5  13
ATOM     13  C   UNL     1     134.445 139.928 134.984  1.00  0.00    -0.013 C 
ATOM     14  C   UNL     1     135.469 140.072 133.844  1.00  0.00     0.007 C 
ATOM     15  C   UNL     1     134.801 140.869 136.143  1.00  0.00     0.007 C 
ENDBRANCH   5  13
TORSDOF 1
ENDMDL
MODEL 6
REMARK VINA RESULT:    -4.823      1.468      2.961
REMARK INTER + INTRA:          -5.363
REMARK INTER:                  -5.104
REMARK INTRA:                  -0.259
REMARK UNBOUND:                -0.258
REMARK SMILES CC1=C[C@@H]2C(=C(C)CC[C@@H]2C(C)C)CC1
REMARK SMILES IDX 1 1 2 2 3 3 4 4 10 5 9 6 8 7 6 8 5 9 14 10 15 11 7 12 11 13
REMARK SMILES IDX 12 14 13 15
REMARK H PARENT
REMARK Flexibility Score: inf
ROOT
ATOM      1  C   UNL     1     137.977 137.405 132.680  1.00  0.00     0.039 C 
ATOM      2  C   UNL     1     136.753 138.272 132.771  1.00  0.00    -0.076 C 
ATOM      3  C   UNL     1     135.546 137.718 133.014  1.00  0.00    -0.020 C 
ATOM      4  C   UNL     1     134.354 138.634 133.174  1.00  0.00     0.041 C 
ATOM      5  C   UNL     1     133.000 137.964 133.535  1.00  0.00     0.003 C 
ATOM      6  C   UNL     1     132.969 137.617 135.027  1.00  0.00     0.009 C 
ATOM      7  C   UNL     1     133.052 138.911 135.844  1.00  0.00     0.031 C 
ATOM      8  C   UNL     1     134.196 139.813 135.413  1.00  0.00    -0.073 C 
ATOM      9  C   UNL     1     134.783 139.699 134.185  1.00  0.00    -0.064 C 
ATOM     10  C   UNL     1     136.078 140.444 133.858  1.00  0.00     0.036 C 
ATOM     11  C   UNL     1     136.854 139.786 132.693  1.00  0.00     0.035 C 
ATOM     12  C   UNL     1     134.624 140.888 136.383  1.00  0.00     0.039 C 
ENDROOT
BRANCH   5  13
ATOM     13  C   UNL     1     132.474 136.822 132.603  1.00  0.00    -0.013 C 
ATOM     14  C   UNL     1     131.097 137.051 131.954  1.00  0.00     0.007 C 
ATOM     15  C   UNL     1     132.516 135.452 133.293  1.00  0.00     0.007 C 
ENDBRANCH   5  13
TORSDOF 1
ENDMDL
MODEL 7
REMARK VINA RESULT:    -4.795      4.741      6.926
REMARK INTER + INTRA:          -5.333
REMARK INTER:                  -5.080
REMARK INTRA:                  -0.252
REMARK UNBOUND:                -0.258
REMARK SMILES CC1=C[C@@H]2C(=C(C)CC[C@@H]2C(C)C)CC1
REMARK SMILES IDX 1 1 2 2 3 3 4 4 10 5 9 6 8 7 6 8 5 9 14 10 15 11 7 12 11 13
REMARK SMILES IDX 12 14 13 15
REMARK H PARENT
REMARK Flexibility Score: inf
ROOT
ATOM      1  C   UNL     1     139.010 139.952 141.343  1.00  0.00     0.039 C 
ATOM      2  C   UNL     1     138.630 138.998 140.245  1.00  0.00    -0.076 C 
ATOM      3  C   UNL     1     137.826 139.406 139.241  1.00  0.00    -0.020 C 
ATOM      4  C   UNL     1     137.532 138.438 138.117  1.00  0.00     0.041 C 
ATOM      5  C   UNL     1     136.671 138.974 136.940  1.00  0.00     0.003 C 
ATOM      6  C   UNL     1     137.534 139.834 136.010  1.00  0.00     0.009 C 
ATOM      7  C   UNL     1     138.630 138.960 135.393  1.00  0.00     0.031 C 
ATOM      8  C   UNL     1     139.399 138.153 136.426  1.00  0.00    -0.073 C 
ATOM      9  C   UNL     1     138.891 137.900 137.669  1.00  0.00    -0.064 C 
ATOM     10  C   UNL     1     139.766 137.299 138.770  1.00  0.00     0.036 C 
ATOM     11  C   UNL     1     139.214 137.596 140.184  1.00  0.00     0.035 C 
ATOM     12  C   UNL     1     140.734 137.590 136.001  1.00  0.00     0.039 C 
ENDROOT
BRANCH   5  13
ATOM     13  C   UNL     1     135.275 139.596 137.275  1.00  0.00    -0.013 C 
ATOM     14  C   UNL     1     134.086 138.620 137.320  1.00  0.00     0.007 C 
ATOM     15  C   UNL     1     134.948 140.792 136.369  1.00  0.00     0.007 C 
ENDBRANCH   5  13
TORSDOF 1
ENDMDL
MODEL 8
REMARK VINA RESULT:    -4.785      2.513      4.945
REMARK INTER + INTRA:          -5.322
REMARK INTER:                  -5.070
REMARK INTRA:                  -0.252
REMARK UNBOUND:                -0.258
REMARK SMILES CC1=C[C@@H]2C(=C(C)CC[C@@H]2C(C)C)CC1
REMARK SMILES IDX 1 1 2 2 3 3 4 4 10 5 9 6 8 7 6 8 5 9 14 10 15 11 7 12 11 13
REMARK SMILES IDX 12 14 13 15
REMARK H PARENT
REMARK Flexibility Score: inf
ROOT
ATOM      1  C   UNL     1     132.670 138.661 141.489  1.00  0.00     0.039 C 
ATOM      2  C   UNL     1     133.643 138.414 140.370  1.00  0.00    -0.076 C 
ATOM      3  C   UNL     1     133.284 137.653 139.315  1.00  0.00    -0.020 C 
ATOM      4  C   UNL     1     134.266 137.494 138.176  1.00  0.00     0.041 C 
ATOM      5  C   UNL     1     133.783 136.681 136.944  1.00  0.00     0.003 C 
ATOM      6  C   UNL     1     132.867 137.546 136.071  1.00  0.00     0.009 C 
ATOM      7  C   UNL     1     133.669 138.733 135.528  1.00  0.00     0.031 C 
ATOM      8  C   UNL     1     134.428 139.482 136.611  1.00  0.00    -0.073 C 
ATOM      9  C   UNL     1     134.716 138.911 137.818  1.00  0.00    -0.064 C 
ATOM     10  C   UNL     1     135.263 139.749 138.975  1.00  0.00     0.036 C 
ATOM     11  C   UNL     1     135.005 139.088 140.349  1.00  0.00     0.035 C 
ATOM     12  C   UNL     1     134.905 140.875 136.274  1.00  0.00     0.039 C 
ENDROOT
BRANCH   5  13
ATOM     13  C   UNL     1     133.250 135.229 137.186  1.00  0.00    -0.013 C 
ATOM     14  C   UNL     1     134.279 134.093 137.047  1.00  0.00     0.007 C 
ATOM     15  C   UNL     1     132.005 134.926 136.341  1.00  0.00     0.007 C 
ENDBRANCH   5  13
TORSDOF 1
ENDMDL
MODEL 9
REMARK VINA RESULT:    -4.751      5.852      6.888
REMARK INTER + INTRA:          -5.287
REMARK INTER:                  -5.027
REMARK INTRA:                  -0.260
REMARK UNBOUND:                -0.258
REMARK SMILES CC1=C[C@@H]2C(=C(C)CC[C@@H]2C(C)C)CC1
REMARK SMILES IDX 1 1 2 2 3 3 4 4 10 5 9 6 8 7 6 8 5 9 14 10 15 11 7 12 11 13
REMARK SMILES IDX 12 14 13 15
REMARK H PARENT
REMARK Flexibility Score: inf
ROOT
ATOM      1  C   UNL     1     141.634 135.624 131.885  1.00  0.00     0.039 C 
ATOM      2  C   UNL     1     140.411 135.900 132.714  1.00  0.00    -0.076 C 
ATOM      3  C   UNL     1     139.971 134.983 133.601  1.00  0.00    -0.020 C 
ATOM      4  C   UNL     1     138.783 135.334 134.469  1.00  0.00     0.041 C 
ATOM      5  C   UNL     1     138.361 134.284 135.533  1.00  0.00     0.003 C 
ATOM      6  C   UNL     1     139.301 134.357 136.742  1.00  0.00     0.009 C 
ATOM      7  C   UNL     1     139.163 135.734 137.400  1.00  0.00     0.031 C 
ATOM      8  C   UNL     1     139.290 136.880 136.412  1.00  0.00    -0.073 C 
ATOM      9  C   UNL     1     139.101 136.703 135.071  1.00  0.00    -0.064 C 
ATOM     10  C   UNL     1     139.465 137.802 134.071  1.00  0.00     0.036 C 
ATOM     11  C   UNL     1     139.704 137.244 132.648  1.00  0.00     0.035 C 
ATOM     12  C   UNL     1     139.580 138.248 136.983  1.00  0.00     0.039 C 
ENDROOT
BRANCH   5  13
ATOM     13  C   UNL     1     138.055 132.828 135.049  1.00  0.00    -0.013 C 
ATOM     14  C   UNL     1     136.902 132.673 134.042  1.00  0.00     0.007 C 
ATOM     15  C   UNL     1     137.870 131.859 136.224  1.00  0.00     0.007 C 
ENDBRANCH   5  13
TORSDOF 1
ENDMDL
