MODEL 1
REMARK VINA RESULT:    -4.044      0.000      0.000
REMARK INTER + INTRA:          -4.598
REMARK INTER:                  -4.399
REMARK INTRA:                  -0.199
REMARK UNBOUND:                -0.199
REMARK SMILES CC(C)(C)[C@H]1C=C[C@@H](O)CC1
REMARK SMILES IDX 5 1 11 2 10 3 8 4 7 5 6 6 2 7 1 8 3 9 4 10 9 11
REMARK H PARENT 9 12
REMARK Flexibility Score: inf
ROOT
ATOM      1  C   UNL     1     125.575 137.217 147.931  1.00  0.00     0.017 C 
ATOM      2  C   UNL     1     124.759 136.013 147.369  1.00  0.00     0.011 C 
ATOM      3  C   UNL     1     124.957 135.750 145.849  1.00  0.00     0.037 C 
ATOM      4  C   UNL     1     125.765 136.852 145.136  1.00  0.00     0.137 C 
ATOM      5  C   UNL     1     127.013 137.137 145.923  1.00  0.00     0.000 C 
ATOM      6  C   UNL     1     126.933 137.288 147.250  1.00  0.00    -0.025 C 
ENDROOT
BRANCH   1   7
ATOM      7  C   UNL     1     125.654 137.269 149.504  1.00  0.00    -0.032 C 
ATOM      8  C   UNL     1     125.487 138.730 149.987  1.00  0.00     0.011 C 
ATOM      9  C   UNL     1     124.503 136.443 150.124  1.00  0.00     0.011 C 
ATOM     10  C   UNL     1     126.997 136.721 150.046  1.00  0.00     0.011 C 
ENDBRANCH   1   7
BRANCH   4  11
ATOM     11  O   UNL     1     126.111 136.440 143.841  1.00  0.00    -0.389 OA
ATOM     12  H   UNL     1     125.852 137.178 143.229  1.00  0.00     0.211 HD
ENDBRANCH   4  11
TORSDOF 2
ENDMDL
MODEL 2
REMARK VINA RESULT:    -4.008     11.157     13.121
REMARK INTER + INTRA:          -4.558
REMARK INTER:                  -4.353
REMARK INTRA:                  -0.204
REMARK UNBOUND:                -0.199
REMARK SMILES CC(C)(C)[C@H]1C=C[C@@H](O)CC1
REMARK SMILES IDX 5 1 11 2 10 3 8 4 7 5 6 6 2 7 1 8 3 9 4 10 9 11
REMARK H PARENT 9 12
REMARK Flexibility Score: inf
ROOT
ATOM      1  C   UNL     1     136.738 136.763 141.844  1.00  0.00     0.017 C 
ATOM      2  C   UNL     1     137.964 135.941 141.338  1.00  0.00     0.011 C 
ATOM      3  C   UNL     1     139.329 136.383 141.935  1.00  0.00     0.037 C 
ATOM      4  C   UNL     1     139.248 137.683 142.759  1.00  0.00     0.137 C 
ATOM      5  C   UNL     1     138.108 137.580 143.732  1.00  0.00     0.000 C 
ATOM      6  C   UNL     1     136.923 137.123 143.309  1.00  0.00    -0.025 C 
ENDROOT
BRANCH   1   7
ATOM      7  C   UNL     1     135.341 136.108 141.525  1.00  0.00    -0.032 C 
ATOM      8  C   UNL     1     135.545 134.830 140.676  1.00  0.00     0.011 C 
ATOM      9  C   UNL     1     134.639 135.685 142.836  1.00  0.00     0.011 C 
ATOM     10  C   UNL     1     134.402 137.068 140.754  1.00  0.00     0.011 C 
ENDBRANCH   1   7
BRANCH   4  11
ATOM     11  O   UNL     1     140.445 137.890 143.460  1.00  0.00    -0.389 OA
ATOM     12  H   UNL     1     140.193 138.230 144.359  1.00  0.00     0.211 HD
ENDBRANCH   4  11
TORSDOF 2
ENDMDL
MODEL 3
REMARK VINA RESULT:    -3.905     11.491     12.697
REMARK INTER + INTRA:          -4.447
REMARK INTER:                  -4.242
REMARK INTRA:                  -0.205
REMARK UNBOUND:                -0.199
REMARK SMILES CC(C)(C)[C@H]1C=C[C@@H](O)CC1
REMARK SMILES IDX 5 1 11 2 10 3 8 4 7 5 6 6 2 7 1 8 3 9 4 10 9 11
REMARK H PARENT 9 12
REMARK Flexibility Score: inf
ROOT
ATOM      1  C   UNL     1     136.410 136.497 142.842  1.00  0.00     0.017 C 
ATOM      2  C   UNL     1     137.801 137.143 142.558  1.00  0.00     0.011 C 
ATOM      3  C   UNL     1     138.658 137.418 143.826  1.00  0.00     0.037 C 
ATOM      4  C   UNL     1     137.894 137.191 145.144  1.00  0.00     0.137 C 
ATOM      5  C   UNL     1     137.205 135.856 145.093  1.00  0.00     0.000 C 
ATOM      6  C   UNL     1     136.520 135.512 143.995  1.00  0.00    -0.025 C 
ENDROOT
BRANCH   1   7
ATOM      7  C   UNL     1     135.699 135.902 141.569  1.00  0.00    -0.032 C 
ATOM      8  C   UNL     1     136.762 135.491 140.521  1.00  0.00     0.011 C 
ATOM      9  C   UNL     1     134.906 134.628 141.946  1.00  0.00     0.011 C 
ATOM     10  C   UNL     1     134.723 136.909 140.912  1.00  0.00     0.011 C 
ENDBRANCH   1   7
BRANCH   4  11
ATOM     11  O   UNL     1     138.779 137.219 146.231  1.00  0.00    -0.389 OA
ATOM     12  H   UNL     1     139.660 136.914 145.889  1.00  0.00     0.211 HD
ENDBRANCH   4  11
TORSDOF 2
ENDMDL
MODEL 4
REMARK VINA RESULT:    -3.746     11.439     13.250
REMARK INTER + INTRA:          -4.273
REMARK INTER:                  -4.075
REMARK INTRA:                  -0.199
REMARK UNBOUND:                -0.199
REMARK SMILES CC(C)(C)[C@H]1C=C[C@@H](O)CC1
REMARK SMILES IDX 5 1 11 2 10 3 8 4 7 5 6 6 2 7 1 8 3 9 4 10 9 11
REMARK H PARENT 9 12
REMARK Flexibility Score: inf
ROOT
ATOM      1  C   UNL     1     137.004 135.940 142.354  1.00  0.00     0.017 C 
ATOM      2  C   UNL     1     136.758 137.148 143.310  1.00  0.00     0.011 C 
ATOM      3  C   UNL     1     138.052 137.846 143.815  1.00  0.00     0.037 C 
ATOM      4  C   UNL     1     139.343 137.091 143.443  1.00  0.00     0.137 C 
ATOM      5  C   UNL     1     139.310 136.746 141.981  1.00  0.00     0.000 C 
ATOM      6  C   UNL     1     138.196 136.222 141.454  1.00  0.00    -0.025 C 
ENDROOT
BRANCH   1   7
ATOM      7  C   UNL     1     135.722 135.460 141.573  1.00  0.00    -0.032 C 
ATOM      8  C   UNL     1     136.145 134.646 140.326  1.00  0.00     0.011 C 
ATOM      9  C   UNL     1     134.871 134.527 142.466  1.00  0.00     0.011 C 
ATOM     10  C   UNL     1     134.834 136.642 141.114  1.00  0.00     0.011 C 
ENDBRANCH   1   7
BRANCH   4  11
ATOM     11  O   UNL     1     140.467 137.886 143.712  1.00  0.00    -0.389 OA
ATOM     12  H   UNL     1     140.995 137.407 144.403  1.00  0.00     0.211 HD
ENDBRANCH   4  11
TORSDOF 2
ENDMDL
MODEL 5
REMARK VINA RESULT:    -3.688     14.750     16.557
REMARK INTER + INTRA:          -4.211
REMARK INTER:                  -4.012
REMARK INTRA:                  -0.198
REMARK UNBOUND:                -0.199
REMARK SMILES CC(C)(C)[C@H]1C=C[C@@H](O)CC1
REMARK SMILES IDX 5 1 11 2 10 3 8 4 7 5 6 6 2 7 1 8 3 9 4 10 9 11
REMARK H PARENT 9 12
REMARK Flexibility Score: inf
ROOT
ATOM      1  C   UNL     1     134.419 129.399 136.247  1.00  0.00     0.017 C 
ATOM      2  C   UNL     1     134.689 129.613 137.769  1.00  0.00     0.011 C 
ATOM      3  C   UNL     1     133.884 128.670 138.707  1.00  0.00     0.037 C 
ATOM      4  C   UNL     1     132.816 127.837 137.972  1.00  0.00     0.137 C 
ATOM      5  C   UNL     1     133.437 127.191 136.766  1.00  0.00     0.000 C 
ATOM      6  C   UNL     1     134.216 127.920 135.958  1.00  0.00    -0.025 C 
ENDROOT
BRANCH   1   7
ATOM      7  C   UNL     1     135.469 130.090 135.299  1.00  0.00    -0.032 C 
ATOM      8  C   UNL     1     134.744 130.712 134.080  1.00  0.00     0.011 C 
ATOM      9  C   UNL     1     136.188 131.239 136.044  1.00  0.00     0.011 C 
ATOM     10  C   UNL     1     136.540 129.098 134.781  1.00  0.00     0.011 C 
ENDBRANCH   1   7
BRANCH   4  11
ATOM     11  O   UNL     1     132.302 126.847 138.822  1.00  0.00    -0.389 OA
ATOM     12  H   UNL     1     132.097 127.292 139.686  1.00  0.00     0.211 HD
ENDBRANCH   4  11
TORSDOF 2
ENDMDL
MODEL 6
REMARK VINA RESULT:    -3.633      1.393      2.129
REMARK INTER + INTRA:          -4.150
REMARK INTER:                  -3.945
REMARK INTRA:                  -0.205
REMARK UNBOUND:                -0.199
REMARK SMILES CC(C)(C)[C@H]1C=C[C@@H](O)CC1
REMARK SMILES IDX 5 1 11 2 10 3 8 4 7 5 6 6 2 7 1 8 3 9 4 10 9 11
REMARK H PARENT 9 12
REMARK Flexibility Score: inf
ROOT
ATOM      1  C   UNL     1     125.671 137.517 147.654  1.00  0.00     0.017 C 
ATOM      2  C   UNL     1     125.633 136.019 148.089  1.00  0.00     0.011 C 
ATOM      3  C   UNL     1     125.253 135.026 146.956  1.00  0.00     0.037 C 
ATOM      4  C   UNL     1     124.783 135.720 145.663  1.00  0.00     0.137 C 
ATOM      5  C   UNL     1     125.766 136.793 145.293  1.00  0.00     0.000 C 
ATOM      6  C   UNL     1     126.209 137.633 146.237  1.00  0.00    -0.025 C 
ENDROOT
BRANCH   1   7
ATOM      7  C   UNL     1     126.385 138.473 148.682  1.00  0.00    -0.032 C 
ATOM      8  C   UNL     1     127.832 137.983 148.933  1.00  0.00     0.011 C 
ATOM      9  C   UNL     1     126.477 139.905 148.104  1.00  0.00     0.011 C 
ATOM     10  C   UNL     1     125.644 138.540 150.040  1.00  0.00     0.011 C 
ENDBRANCH   1   7
BRANCH   4  11
ATOM     11  O   UNL     1     124.689 134.789 144.617  1.00  0.00    -0.389 OA
ATOM     12  H   UNL     1     124.750 133.889 145.032  1.00  0.00     0.211 HD
ENDBRANCH   4  11
TORSDOF 2
ENDMDL
MODEL 7
REMARK VINA RESULT:    -3.618     12.878     14.425
REMARK INTER + INTRA:          -4.134
REMARK INTER:                  -3.933
REMARK INTRA:                  -0.201
REMARK UNBOUND:                -0.199
REMARK SMILES CC(C)(C)[C@H]1C=C[C@@H](O)CC1
REMARK SMILES IDX 5 1 11 2 10 3 8 4 7 5 6 6 2 7 1 8 3 9 4 10 9 11
REMARK H PARENT 9 12
REMARK Flexibility Score: inf
ROOT
ATOM      1  C   UNL     1     134.524 128.668 139.659  1.00  0.00     0.017 C 
ATOM      2  C   UNL     1     134.614 129.642 138.444  1.00  0.00     0.011 C 
ATOM      3  C   UNL     1     133.823 129.183 137.187  1.00  0.00     0.037 C 
ATOM      4  C   UNL     1     133.264 127.752 137.302  1.00  0.00     0.137 C 
ATOM      5  C   UNL     1     132.552 127.604 138.617  1.00  0.00     0.000 C 
ATOM      6  C   UNL     1     133.133 128.057 139.734  1.00  0.00    -0.025 C 
ENDROOT
BRANCH   1   7
ATOM      7  C   UNL     1     135.017 129.284 141.022  1.00  0.00    -0.032 C 
ATOM      8  C   UNL     1     136.248 128.497 141.536  1.00  0.00     0.011 C 
ATOM      9  C   UNL     1     135.461 130.752 140.815  1.00  0.00     0.011 C 
ATOM     10  C   UNL     1     133.921 129.254 142.115  1.00  0.00     0.011 C 
ENDBRANCH   1   7
BRANCH   4  11
ATOM     11  O   UNL     1     132.369 127.492 136.253  1.00  0.00    -0.389 OA
ATOM     12  H   UNL     1     131.840 126.696 136.521  1.00  0.00     0.211 HD
ENDBRANCH   4  11
TORSDOF 2
ENDMDL
MODEL 8
REMARK VINA RESULT:    -3.611     12.779     14.173
REMARK INTER + INTRA:          -4.126
REMARK INTER:                  -3.921
REMARK INTRA:                  -0.205
REMARK UNBOUND:                -0.199
REMARK SMILES CC(C)(C)[C@H]1C=C[C@@H](O)CC1
REMARK SMILES IDX 5 1 11 2 10 3 8 4 7 5 6 6 2 7 1 8 3 9 4 10 9 11
REMARK H PARENT 9 12
REMARK Flexibility Score: inf
ROOT
ATOM      1  C   UNL     1     134.353 129.493 140.006  1.00  0.00     0.017 C 
ATOM      2  C   UNL     1     133.713 128.114 139.655  1.00  0.00     0.011 C 
ATOM      3  C   UNL     1     133.313 127.949 138.162  1.00  0.00     0.037 C 
ATOM      4  C   UNL     1     133.433 129.250 137.346  1.00  0.00     0.137 C 
ATOM      5  C   UNL     1     134.777 129.871 137.601  1.00  0.00     0.000 C 
ATOM      6  C   UNL     1     135.229 129.968 138.858  1.00  0.00    -0.025 C 
ENDROOT
BRANCH   1   7
ATOM      7  C   UNL     1     135.070 129.537 141.408  1.00  0.00    -0.032 C 
ATOM      8  C   UNL     1     136.241 128.524 141.428  1.00  0.00     0.011 C 
ATOM      9  C   UNL     1     135.669 130.941 141.657  1.00  0.00     0.011 C 
ATOM     10  C   UNL     1     134.108 129.201 142.574  1.00  0.00     0.011 C 
ENDBRANCH   1   7
BRANCH   4  11
ATOM     11  O   UNL     1     133.294 128.981 135.976  1.00  0.00    -0.389 OA
ATOM     12  H   UNL     1     133.856 128.184 135.785  1.00  0.00     0.211 HD
ENDBRANCH   4  11
TORSDOF 2
ENDMDL
MODEL 9
REMARK VINA RESULT:    -3.586      2.479      3.714
REMARK INTER + INTRA:          -4.100
REMARK INTER:                  -3.899
REMARK INTRA:                  -0.201
REMARK UNBOUND:                -0.199
REMARK SMILES CC(C)(C)[C@H]1C=C[C@@H](O)CC1
REMARK SMILES IDX 5 1 11 2 10 3 8 4 7 5 6 6 2 7 1 8 3 9 4 10 9 11
REMARK H PARENT 9 12
REMARK Flexibility Score: inf
ROOT
ATOM      1  C   UNL     1     126.675 136.926 146.500  1.00  0.00     0.017 C 
ATOM      2  C   UNL     1     127.946 136.047 146.287  1.00  0.00     0.011 C 
ATOM      3  C   UNL     1     129.292 136.792 146.512  1.00  0.00     0.037 C 
ATOM      4  C   UNL     1     129.128 138.312 146.705  1.00  0.00     0.137 C 
ATOM      5  C   UNL     1     128.056 138.568 147.726  1.00  0.00     0.000 C 
ATOM      6  C   UNL     1     126.900 137.897 147.648  1.00  0.00    -0.025 C 
ENDROOT
BRANCH   1   7
ATOM      7  C   UNL     1     125.334 136.108 146.619  1.00  0.00    -0.032 C 
ATOM      8  C   UNL     1     124.393 136.791 147.641  1.00  0.00     0.011 C 
ATOM      9  C   UNL     1     124.599 136.086 145.258  1.00  0.00     0.011 C 
ATOM     10  C   UNL     1     125.572 134.645 147.069  1.00  0.00     0.011 C 
ENDBRANCH   1   7
BRANCH   4  11
ATOM     11  O   UNL     1     130.334 138.881 147.139  1.00  0.00    -0.389 OA
ATOM     12  H   UNL     1     130.943 138.126 147.354  1.00  0.00     0.211 HD
ENDBRANCH   4  11
TORSDOF 2
ENDMDL
