MODEL 1
REMARK VINA RESULT:    -2.997      0.000      0.000
REMARK INTER + INTRA:          -4.079
REMARK INTER:                  -3.873
REMARK INTRA:                  -0.206
REMARK UNBOUND:                -0.206
REMARK SMILES CCCCCCC(=O)[O-]
REMARK SMILES IDX 5 1 6 2 7 3 8 4 9 5 4 6 3 7 2 8 1 9
REMARK H PARENT
REMARK Flexibility Score: inf
ROOT
ATOM      1  C   UNL     1      58.022  28.545  49.795  1.00  0.00     0.006 C 
ENDROOT
BRANCH   1   2
ATOM      2  C   UNL     1      58.866  28.315  48.534  1.00  0.00     0.053 C 
BRANCH   2   3
ATOM      3  C   UNL     1      59.880  27.231  48.733  1.00  0.00     0.041 C 
ATOM      4  O   UNL     1      61.106  27.514  48.795  1.00  0.00    -0.550 OA
ATOM      5  O   UNL     1      59.476  25.905  48.816  1.00  0.00    -0.550 OA
ENDBRANCH   2   3
ENDBRANCH   1   2
BRANCH   1   6
ATOM      6  C   UNL     1      56.688  27.784  49.749  1.00  0.00     0.000 C 
BRANCH   6   7
ATOM      7  C   UNL     1      55.558  28.618  50.372  1.00  0.00    -0.000 C 
BRANCH   7   8
ATOM      8  C   UNL     1      55.523  30.057  49.837  1.00  0.00    -0.003 C 
ATOM      9  C   UNL     1      55.225  31.086  50.928  1.00  0.00     0.004 C 
ENDBRANCH   7   8
ENDBRANCH   6   7
ENDBRANCH   1   6
TORSDOF 5
ENDMDL
MODEL 2
REMARK VINA RESULT:    -2.956      3.045      5.197
REMARK INTER + INTRA:          -4.026
REMARK INTER:                  -3.832
REMARK INTRA:                  -0.194
REMARK UNBOUND:                -0.206
REMARK SMILES CCCCCCC(=O)[O-]
REMARK SMILES IDX 5 1 6 2 7 3 8 4 9 5 4 6 3 7 2 8 1 9
REMARK H PARENT
REMARK Flexibility Score: inf
ROOT
ATOM      1  C   UNL     1      57.964  28.331  49.971  1.00  0.00     0.006 C 
ENDROOT
BRANCH   1   2
ATOM      2  C   UNL     1      56.452  28.299  49.708  1.00  0.00     0.053 C 
BRANCH   2   3
ATOM      3  C   UNL     1      55.773  29.536  50.209  1.00  0.00     0.041 C 
ATOM      4  O   UNL     1      54.634  29.855  49.776  1.00  0.00    -0.550 OA
ATOM      5  O   UNL     1      56.411  30.357  51.131  1.00  0.00    -0.550 OA
ENDBRANCH   2   3
ENDBRANCH   1   2
BRANCH   1   6
ATOM      6  C   UNL     1      58.779  28.399  48.671  1.00  0.00     0.000 C 
BRANCH   6   7
ATOM      7  C   UNL     1      59.888  27.336  48.661  1.00  0.00    -0.000 C 
BRANCH   7   8
ATOM      8  C   UNL     1      59.359  25.929  48.979  1.00  0.00    -0.003 C 
ATOM      9  C   UNL     1      60.458  24.979  49.455  1.00  0.00     0.004 C 
ENDBRANCH   7   8
ENDBRANCH   6   7
ENDBRANCH   1   6
TORSDOF 5
ENDMDL
MODEL 3
REMARK VINA RESULT:    -2.920     10.351     11.689
REMARK INTER + INTRA:          -3.979
REMARK INTER:                  -3.607
REMARK INTRA:                  -0.372
REMARK UNBOUND:                -0.206
REMARK SMILES CCCCCCC(=O)[O-]
REMARK SMILES IDX 5 1 6 2 7 3 8 4 9 5 4 6 3 7 2 8 1 9
REMARK H PARENT
REMARK Flexibility Score: inf
ROOT
ATOM      1  C   UNL     1      58.428  18.052  49.432  1.00  0.00     0.006 C 
ENDROOT
BRANCH   1   2
ATOM      2  C   UNL     1      57.061  17.405  49.692  1.00  0.00     0.053 C 
BRANCH   2   3
ATOM      3  C   UNL     1      56.089  18.376  50.288  1.00  0.00     0.041 C 
ATOM      4  O   UNL     1      56.321  18.898  51.411  1.00  0.00    -0.550 OA
ATOM      5  O   UNL     1      54.909  18.681  49.620  1.00  0.00    -0.550 OA
ENDBRANCH   2   3
ENDBRANCH   1   2
BRANCH   1   6
ATOM      6  C   UNL     1      59.556  17.365  50.217  1.00  0.00     0.000 C 
BRANCH   6   7
ATOM      7  C   UNL     1      59.033  16.125  50.957  1.00  0.00    -0.000 C 
BRANCH   7   8
ATOM      8  C   UNL     1      59.438  16.107  52.439  1.00  0.00    -0.003 C 
ATOM      9  C   UNL     1      58.406  16.782  53.342  1.00  0.00     0.004 C 
ENDBRANCH   7   8
ENDBRANCH   6   7
ENDBRANCH   1   6
TORSDOF 5
ENDMDL
MODEL 4
REMARK VINA RESULT:    -2.909      1.374      2.061
REMARK INTER + INTRA:          -3.965
REMARK INTER:                  -3.783
REMARK INTRA:                  -0.182
REMARK UNBOUND:                -0.206
REMARK SMILES CCCCCCC(=O)[O-]
REMARK SMILES IDX 5 1 6 2 7 3 8 4 9 5 4 6 3 7 2 8 1 9
REMARK H PARENT
REMARK Flexibility Score: inf
ROOT
ATOM      1  C   UNL     1      59.482  27.475  48.653  1.00  0.00     0.006 C 
ENDROOT
BRANCH   1   2
ATOM      2  C   UNL     1      59.210  25.997  48.966  1.00  0.00     0.053 C 
BRANCH   2   3
ATOM      3  C   UNL     1      60.473  25.249  49.261  1.00  0.00     0.041 C 
ATOM      4  O   UNL     1      61.566  25.866  49.368  1.00  0.00    -0.550 OA
ATOM      5  O   UNL     1      60.451  23.865  49.384  1.00  0.00    -0.550 OA
ENDBRANCH   2   3
ENDBRANCH   1   2
BRANCH   1   6
ATOM      6  C   UNL     1      58.308  28.381  49.055  1.00  0.00     0.000 C 
BRANCH   6   7
ATOM      7  C   UNL     1      57.154  27.555  49.643  1.00  0.00    -0.000 C 
BRANCH   7   8
ATOM      8  C   UNL     1      56.164  28.412  50.446  1.00  0.00    -0.003 C 
ATOM      9  C   UNL     1      55.840  29.740  49.760  1.00  0.00     0.004 C 
ENDBRANCH   7   8
ENDBRANCH   6   7
ENDBRANCH   1   6
TORSDOF 5
ENDMDL
MODEL 5
REMARK VINA RESULT:    -2.905     16.263     17.610
REMARK INTER + INTRA:          -3.960
REMARK INTER:                  -3.648
REMARK INTRA:                  -0.312
REMARK UNBOUND:                -0.206
REMARK SMILES CCCCCCC(=O)[O-]
REMARK SMILES IDX 5 1 6 2 7 3 8 4 9 5 4 6 3 7 2 8 1 9
REMARK H PARENT
REMARK Flexibility Score: inf
ROOT
ATOM      1  C   UNL     1      72.475  30.618  59.906  1.00  0.00     0.006 C 
ENDROOT
BRANCH   1   2
ATOM      2  C   UNL     1      71.573  31.860  59.911  1.00  0.00     0.053 C 
BRANCH   2   3
ATOM      3  C   UNL     1      70.698  31.916  58.696  1.00  0.00     0.041 C 
ATOM      4  O   UNL     1      70.023  30.910  58.354  1.00  0.00    -0.550 OA
ATOM      5  O   UNL     1      70.655  33.069  57.922  1.00  0.00    -0.550 OA
ENDBRANCH   2   3
ENDBRANCH   1   2
BRANCH   1   6
ATOM      6  C   UNL     1      72.730  30.079  61.322  1.00  0.00     0.000 C 
BRANCH   6   7
ATOM      7  C   UNL     1      72.398  28.582  61.408  1.00  0.00    -0.000 C 
BRANCH   7   8
ATOM      8  C   UNL     1      71.190  28.195  60.542  1.00  0.00    -0.003 C 
ATOM      9  C   UNL     1      69.854  28.496  61.222  1.00  0.00     0.004 C 
ENDBRANCH   7   8
ENDBRANCH   6   7
ENDBRANCH   1   6
TORSDOF 5
ENDMDL
MODEL 6
REMARK VINA RESULT:    -2.891     12.967     13.498
REMARK INTER + INTRA:          -3.942
REMARK INTER:                  -3.782
REMARK INTRA:                  -0.161
REMARK UNBOUND:                -0.206
REMARK SMILES CCCCCCC(=O)[O-]
REMARK SMILES IDX 5 1 6 2 7 3 8 4 9 5 4 6 3 7 2 8 1 9
REMARK H PARENT
REMARK Flexibility Score: inf
ROOT
ATOM      1  C   UNL     1      64.169  32.055  60.306  1.00  0.00     0.006 C 
ENDROOT
BRANCH   1   2
ATOM      2  C   UNL     1      64.520  30.773  59.539  1.00  0.00     0.053 C 
BRANCH   2   3
ATOM      3  C   UNL     1      64.244  29.545  60.351  1.00  0.00     0.041 C 
ATOM      4  O   UNL     1      63.357  29.563  61.245  1.00  0.00    -0.550 OA
ATOM      5  O   UNL     1      64.989  28.391  60.145  1.00  0.00    -0.550 OA
ENDBRANCH   2   3
ENDBRANCH   1   2
BRANCH   1   6
ATOM      6  C   UNL     1      63.821  33.219  59.365  1.00  0.00     0.000 C 
BRANCH   6   7
ATOM      7  C   UNL     1      63.577  34.512  60.158  1.00  0.00    -0.000 C 
BRANCH   7   8
ATOM      8  C   UNL     1      64.465  34.616  61.407  1.00  0.00    -0.003 C 
ATOM      9  C   UNL     1      63.971  35.669  62.398  1.00  0.00     0.004 C 
ENDBRANCH   7   8
ENDBRANCH   6   7
ENDBRANCH   1   6
TORSDOF 5
ENDMDL
MODEL 7
REMARK VINA RESULT:    -2.885      2.197      3.433
REMARK INTER + INTRA:          -3.934
REMARK INTER:                  -3.572
REMARK INTRA:                  -0.362
REMARK UNBOUND:                -0.206
REMARK SMILES CCCCCCC(=O)[O-]
REMARK SMILES IDX 5 1 6 2 7 3 8 4 9 5 4 6 3 7 2 8 1 9
REMARK H PARENT
REMARK Flexibility Score: inf
ROOT
ATOM      1  C   UNL     1      60.122  26.551  49.795  1.00  0.00     0.006 C 
ENDROOT
BRANCH   1   2
ATOM      2  C   UNL     1      59.569  25.195  49.334  1.00  0.00     0.053 C 
BRANCH   2   3
ATOM      3  C   UNL     1      58.340  24.808  50.097  1.00  0.00     0.041 C 
ATOM      4  O   UNL     1      58.430  24.067  51.112  1.00  0.00    -0.550 OA
ATOM      5  O   UNL     1      57.089  25.236  49.668  1.00  0.00    -0.550 OA
ENDBRANCH   2   3
ENDBRANCH   1   2
BRANCH   1   6
ATOM      6  C   UNL     1      60.162  27.580  48.655  1.00  0.00     0.000 C 
BRANCH   6   7
ATOM      7  C   UNL     1      58.832  28.343  48.557  1.00  0.00    -0.000 C 
BRANCH   7   8
ATOM      8  C   UNL     1      58.181  28.574  49.929  1.00  0.00    -0.003 C 
ATOM      9  C   UNL     1      56.664  28.737  49.843  1.00  0.00     0.004 C 
ENDBRANCH   7   8
ENDBRANCH   6   7
ENDBRANCH   1   6
TORSDOF 5
ENDMDL
MODEL 8
REMARK VINA RESULT:    -2.855     16.791     17.787
REMARK INTER + INTRA:          -3.896
REMARK INTER:                  -3.712
REMARK INTRA:                  -0.183
REMARK UNBOUND:                -0.206
REMARK SMILES CCCCCCC(=O)[O-]
REMARK SMILES IDX 5 1 6 2 7 3 8 4 9 5 4 6 3 7 2 8 1 9
REMARK H PARENT
REMARK Flexibility Score: inf
ROOT
ATOM      1  C   UNL     1      71.651  30.281  59.013  1.00  0.00     0.006 C 
ENDROOT
BRANCH   1   2
ATOM      2  C   UNL     1      72.762  30.111  60.059  1.00  0.00     0.053 C 
BRANCH   2   3
ATOM      3  C   UNL     1      72.299  29.313  61.238  1.00  0.00     0.041 C 
ATOM      4  O   UNL     1      73.125  28.933  62.110  1.00  0.00    -0.550 OA
ATOM      5  O   UNL     1      70.961  28.958  61.358  1.00  0.00    -0.550 OA
ENDBRANCH   2   3
ENDBRANCH   1   2
BRANCH   1   6
ATOM      6  C   UNL     1      71.307  31.757  58.763  1.00  0.00     0.000 C 
BRANCH   6   7
ATOM      7  C   UNL     1      71.317  32.553  60.077  1.00  0.00    -0.000 C 
BRANCH   7   8
ATOM      8  C   UNL     1      70.695  33.949  59.927  1.00  0.00    -0.003 C 
ATOM      9  C   UNL     1      70.196  34.224  58.508  1.00  0.00     0.004 C 
ENDBRANCH   7   8
ENDBRANCH   6   7
ENDBRANCH   1   6
TORSDOF 5
ENDMDL
MODEL 9
REMARK VINA RESULT:    -0.786     16.760     18.195
REMARK INTER + INTRA:          -1.221
REMARK INTER:                  -1.044
REMARK INTRA:                  -0.178
REMARK UNBOUND:                -0.206
REMARK SMILES CCCCCCC(=O)[O-]
REMARK SMILES IDX 5 1 6 2 7 3 8 4 9 5 4 6 3 7 2 8 1 9
REMARK H PARENT
REMARK Flexibility Score: inf
ROOT
ATOM      1  C   UNL     1      71.098  31.088  59.672  1.00  0.00     0.006 C 
ENDROOT
BRANCH   1   2
ATOM      2  C   UNL     1      71.095  32.141  58.555  1.00  0.00     0.053 C 
BRANCH   2   3
ATOM      3  C   UNL     1      70.704  33.493  59.065  1.00  0.00     0.041 C 
ATOM      4  O   UNL     1      70.930  33.808  60.264  1.00  0.00    -0.550 OA
ATOM      5  O   UNL     1      70.057  34.394  58.228  1.00  0.00    -0.550 OA
ENDBRANCH   2   3
ENDBRANCH   1   2
BRANCH   1   6
ATOM      6  C   UNL     1      72.488  30.466  59.881  1.00  0.00     0.000 C 
BRANCH   6   7
ATOM      7  C   UNL     1      72.740  30.175  61.368  1.00  0.00    -0.000 C 
BRANCH   7   8
ATOM      8  C   UNL     1      73.125  28.710  61.626  1.00  0.00    -0.003 C 
ATOM      9  C   UNL     1      72.697  27.778  60.492  1.00  0.00     0.004 C 
ENDBRANCH   7   8
ENDBRANCH   6   7
ENDBRANCH   1   6
TORSDOF 5
ENDMDL
