MODEL 1
REMARK VINA RESULT:    -3.530      0.000      0.000
REMARK INTER + INTRA:          -5.470
REMARK INTER:                  -4.974
REMARK INTRA:                  -0.495
REMARK UNBOUND:                -0.495
REMARK SMILES C=CCCCCCCC(=O)[O-]
REMARK SMILES IDX 6 1 7 2 8 3 9 4 10 5 11 6 5 7 4 8 3 9 2 10 1 11
REMARK H PARENT
REMARK Flexibility Score: inf
ROOT
ATOM      1  C   UNL     1       4.921  29.747  21.243  1.00  0.00     0.000 C 
ENDROOT
BRANCH   1   2
ATOM      2  C   UNL     1       4.528  28.577  20.326  1.00  0.00     0.006 C 
BRANCH   2   3
ATOM      3  C   UNL     1       5.754  27.848  19.760  1.00  0.00     0.053 C 
BRANCH   3   4
ATOM      4  C   UNL     1       5.979  26.529  20.433  1.00  0.00     0.041 C 
ATOM      5  O   UNL     1       6.274  25.512  19.753  1.00  0.00    -0.550 OA
ATOM      6  O   UNL     1       5.834  26.416  21.811  1.00  0.00    -0.550 OA
ENDBRANCH   3   4
ENDBRANCH   2   3
ENDBRANCH   1   2
BRANCH   1   7
ATOM      7  C   UNL     1       4.259  31.072  20.829  1.00  0.00     0.000 C 
BRANCH   7   8
ATOM      8  C   UNL     1       5.285  32.147  20.428  1.00  0.00     0.004 C 
BRANCH   8   9
ATOM      9  C   UNL     1       6.665  31.544  20.137  1.00  0.00     0.027 C 
BRANCH   9  10
ATOM     10  C   UNL     1       6.997  31.602  18.670  1.00  0.00    -0.035 C 
ATOM     11  C   UNL     1       7.414  32.728  18.084  1.00  0.00     0.004 C 
ENDBRANCH   9  10
ENDBRANCH   8   9
ENDBRANCH   7   8
ENDBRANCH   1   7
TORSDOF 7
ENDMDL
MODEL 2
REMARK VINA RESULT:    -3.529     10.556     11.856
REMARK INTER + INTRA:          -5.469
REMARK INTER:                  -4.773
REMARK INTRA:                  -0.695
REMARK UNBOUND:                -0.495
REMARK SMILES C=CCCCCCCC(=O)[O-]
REMARK SMILES IDX 6 1 7 2 8 3 9 4 10 5 11 6 5 7 4 8 3 9 2 10 1 11
REMARK H PARENT
REMARK Flexibility Score: inf
ROOT
ATOM      1  C   UNL     1      11.289  26.801   8.924  1.00  0.00     0.000 C 
ENDROOT
BRANCH   1   2
ATOM      2  C   UNL     1      10.524  25.529   9.323  1.00  0.00     0.006 C 
BRANCH   2   3
ATOM      3  C   UNL     1      10.454  25.350  10.846  1.00  0.00     0.053 C 
BRANCH   3   4
ATOM      4  C   UNL     1      10.998  24.024  11.279  1.00  0.00     0.041 C 
ATOM      5  O   UNL     1      11.112  23.754  12.503  1.00  0.00    -0.550 OA
ATOM      6  O   UNL     1      11.409  23.096  10.328  1.00  0.00    -0.550 OA
ENDBRANCH   3   4
ENDBRANCH   2   3
ENDBRANCH   1   2
BRANCH   1   7
ATOM      7  C   UNL     1      10.356  27.991   8.645  1.00  0.00     0.000 C 
BRANCH   7   8
ATOM      8  C   UNL     1       9.028  27.562   7.997  1.00  0.00     0.004 C 
BRANCH   8   9
ATOM      9  C   UNL     1       7.818  28.211   8.682  1.00  0.00     0.027 C 
BRANCH   9  10
ATOM     10  C   UNL     1       7.237  27.318   9.744  1.00  0.00    -0.035 C 
ATOM     11  C   UNL     1       7.440  27.543  11.045  1.00  0.00     0.004 C 
ENDBRANCH   9  10
ENDBRANCH   8   9
ENDBRANCH   7   8
ENDBRANCH   1   7
TORSDOF 7
ENDMDL
MODEL 3
REMARK VINA RESULT:    -3.506      9.571     10.923
REMARK INTER + INTRA:          -5.436
REMARK INTER:                  -5.076
REMARK INTRA:                  -0.361
REMARK UNBOUND:                -0.495
REMARK SMILES C=CCCCCCCC(=O)[O-]
REMARK SMILES IDX 6 1 7 2 8 3 9 4 10 5 11 6 5 7 4 8 3 9 2 10 1 11
REMARK H PARENT
REMARK Flexibility Score: inf
ROOT
ATOM      1  C   UNL     1      10.233  27.434  10.174  1.00  0.00     0.000 C 
ENDROOT
BRANCH   1   2
ATOM      2  C   UNL     1      10.191  25.897  10.172  1.00  0.00     0.006 C 
BRANCH   2   3
ATOM      3  C   UNL     1      10.448  25.310  11.567  1.00  0.00     0.053 C 
BRANCH   3   4
ATOM      4  C   UNL     1      11.003  23.921  11.494  1.00  0.00     0.041 C 
ATOM      5  O   UNL     1      11.277  23.406  10.379  1.00  0.00    -0.550 OA
ATOM      6  O   UNL     1      11.189  23.183  12.658  1.00  0.00    -0.550 OA
ENDBRANCH   3   4
ENDBRANCH   2   3
ENDBRANCH   1   2
BRANCH   1   7
ATOM      7  C   UNL     1      11.497  27.992   9.498  1.00  0.00     0.000 C 
BRANCH   7   8
ATOM      8  C   UNL     1      12.402  28.761  10.477  1.00  0.00     0.004 C 
BRANCH   8   9
ATOM      9  C   UNL     1      11.662  29.140  11.766  1.00  0.00     0.027 C 
BRANCH   9  10
ATOM     10  C   UNL     1      12.535  29.948  12.688  1.00  0.00    -0.035 C 
ATOM     11  C   UNL     1      12.026  30.674  13.687  1.00  0.00     0.004 C 
ENDBRANCH   9  10
ENDBRANCH   8   9
ENDBRANCH   7   8
ENDBRANCH   1   7
TORSDOF 7
ENDMDL
MODEL 4
REMARK VINA RESULT:    -3.497     10.549     11.699
REMARK INTER + INTRA:          -5.424
REMARK INTER:                  -4.734
REMARK INTRA:                  -0.690
REMARK UNBOUND:                -0.495
REMARK SMILES C=CCCCCCCC(=O)[O-]
REMARK SMILES IDX 6 1 7 2 8 3 9 4 10 5 11 6 5 7 4 8 3 9 2 10 1 11
REMARK H PARENT
REMARK Flexibility Score: inf
ROOT
ATOM      1  C   UNL     1       9.199  27.756  10.892  1.00  0.00     0.000 C 
ENDROOT
BRANCH   1   2
ATOM      2  C   UNL     1      10.495  26.970  11.150  1.00  0.00     0.006 C 
BRANCH   2   3
ATOM      3  C   UNL     1      10.219  25.575  11.728  1.00  0.00     0.053 C 
BRANCH   3   4
ATOM      4  C   UNL     1      10.799  24.491  10.873  1.00  0.00     0.041 C 
ATOM      5  O   UNL     1      11.174  23.407  11.391  1.00  0.00    -0.550 OA
ATOM      6  O   UNL     1      10.953  24.690   9.506  1.00  0.00    -0.550 OA
ENDBRANCH   3   4
ENDBRANCH   2   3
ENDBRANCH   1   2
BRANCH   1   7
ATOM      7  C   UNL     1       8.080  26.879  10.307  1.00  0.00     0.000 C 
BRANCH   7   8
ATOM      8  C   UNL     1       8.136  26.792   8.772  1.00  0.00     0.004 C 
BRANCH   8   9
ATOM      9  C   UNL     1       8.136  28.179   8.117  1.00  0.00     0.027 C 
BRANCH   9  10
ATOM     10  C   UNL     1       9.343  28.379   7.241  1.00  0.00    -0.035 C 
ATOM     11  C   UNL     1      10.507  27.772   7.493  1.00  0.00     0.004 C 
ENDBRANCH   9  10
ENDBRANCH   8   9
ENDBRANCH   7   8
ENDBRANCH   1   7
TORSDOF 7
ENDMDL
MODEL 5
REMARK VINA RESULT:    -3.474      1.161      1.949
REMARK INTER + INTRA:          -5.391
REMARK INTER:                  -4.725
REMARK INTRA:                  -0.667
REMARK UNBOUND:                -0.495
REMARK SMILES C=CCCCCCCC(=O)[O-]
REMARK SMILES IDX 6 1 7 2 8 3 9 4 10 5 11 6 5 7 4 8 3 9 2 10 1 11
REMARK H PARENT
REMARK Flexibility Score: inf
ROOT
ATOM      1  C   UNL     1       3.759  28.918  18.730  1.00  0.00     0.000 C 
ENDROOT
BRANCH   1   2
ATOM      2  C   UNL     1       5.008  28.038  18.556  1.00  0.00     0.006 C 
BRANCH   2   3
ATOM      3  C   UNL     1       5.888  28.026  19.814  1.00  0.00     0.053 C 
BRANCH   3   4
ATOM      4  C   UNL     1       5.950  26.666  20.439  1.00  0.00     0.041 C 
ATOM      5  O   UNL     1       6.247  25.662  19.742  1.00  0.00    -0.550 OA
ATOM      6  O   UNL     1       5.649  26.505  21.786  1.00  0.00    -0.550 OA
ENDBRANCH   3   4
ENDBRANCH   2   3
ENDBRANCH   1   2
BRANCH   1   7
ATOM      7  C   UNL     1       3.654  29.524  20.139  1.00  0.00     0.000 C 
BRANCH   7   8
ATOM      8  C   UNL     1       3.020  30.925  20.135  1.00  0.00     0.004 C 
BRANCH   8   9
ATOM      9  C   UNL     1       4.075  32.034  20.031  1.00  0.00     0.027 C 
BRANCH   9  10
ATOM     10  C   UNL     1       5.355  31.646  20.719  1.00  0.00    -0.035 C 
ATOM     11  C   UNL     1       6.543  31.760  20.118  1.00  0.00     0.004 C 
ENDBRANCH   9  10
ENDBRANCH   8   9
ENDBRANCH   7   8
ENDBRANCH   1   7
TORSDOF 7
ENDMDL
MODEL 6
REMARK VINA RESULT:    -3.401      1.403      1.967
REMARK INTER + INTRA:          -5.288
REMARK INTER:                  -4.960
REMARK INTRA:                  -0.327
REMARK UNBOUND:                -0.495
REMARK SMILES C=CCCCCCCC(=O)[O-]
REMARK SMILES IDX 6 1 7 2 8 3 9 4 10 5 11 6 5 7 4 8 3 9 2 10 1 11
REMARK H PARENT
REMARK Flexibility Score: inf
ROOT
ATOM      1  C   UNL     1       4.540  29.131  19.087  1.00  0.00     0.000 C 
ENDROOT
BRANCH   1   2
ATOM      2  C   UNL     1       5.494  28.367  20.020  1.00  0.00     0.006 C 
BRANCH   2   3
ATOM      3  C   UNL     1       5.985  27.054  19.396  1.00  0.00     0.053 C 
BRANCH   3   4
ATOM      4  C   UNL     1       6.084  25.956  20.410  1.00  0.00     0.041 C 
ATOM      5  O   UNL     1       5.966  26.214  21.636  1.00  0.00    -0.550 OA
ATOM      6  O   UNL     1       6.337  24.652  20.002  1.00  0.00    -0.550 OA
ENDBRANCH   3   4
ENDBRANCH   2   3
ENDBRANCH   1   2
BRANCH   1   7
ATOM      7  C   UNL     1       5.126  30.470  18.608  1.00  0.00     0.000 C 
BRANCH   7   8
ATOM      8  C   UNL     1       6.538  30.730  19.161  1.00  0.00     0.004 C 
BRANCH   8   9
ATOM      9  C   UNL     1       7.609  30.644  18.067  1.00  0.00     0.027 C 
BRANCH   9  10
ATOM     10  C   UNL     1       7.914  31.996  17.482  1.00  0.00    -0.035 C 
ATOM     11  C   UNL     1       8.787  32.154  16.483  1.00  0.00     0.004 C 
ENDBRANCH   9  10
ENDBRANCH   8   9
ENDBRANCH   7   8
ENDBRANCH   1   7
TORSDOF 7
ENDMDL
MODEL 7
REMARK VINA RESULT:    -3.376      1.270      2.637
REMARK INTER + INTRA:          -5.253
REMARK INTER:                  -4.421
REMARK INTRA:                  -0.831
REMARK UNBOUND:                -0.495
REMARK SMILES C=CCCCCCCC(=O)[O-]
REMARK SMILES IDX 6 1 7 2 8 3 9 4 10 5 11 6 5 7 4 8 3 9 2 10 1 11
REMARK H PARENT
REMARK Flexibility Score: inf
ROOT
ATOM      1  C   UNL     1       7.101  29.765  18.267  1.00  0.00     0.000 C 
ENDROOT
BRANCH   1   2
ATOM      2  C   UNL     1       6.302  28.584  17.690  1.00  0.00     0.006 C 
BRANCH   2   3
ATOM      3  C   UNL     1       5.177  28.132  18.632  1.00  0.00     0.053 C 
BRANCH   3   4
ATOM      4  C   UNL     1       5.712  27.450  19.854  1.00  0.00     0.041 C 
ATOM      5  O   UNL     1       6.423  26.417  19.743  1.00  0.00    -0.550 OA
ATOM      6  O   UNL     1       5.399  27.938  21.117  1.00  0.00    -0.550 OA
ENDBRANCH   3   4
ENDBRANCH   2   3
ENDBRANCH   1   2
BRANCH   1   7
ATOM      7  C   UNL     1       6.608  31.124  17.744  1.00  0.00     0.000 C 
BRANCH   7   8
ATOM      8  C   UNL     1       6.321  32.126  18.876  1.00  0.00     0.004 C 
BRANCH   8   9
ATOM      9  C   UNL     1       6.406  31.469  20.259  1.00  0.00     0.027 C 
BRANCH   9  10
ATOM     10  C   UNL     1       5.051  31.357  20.904  1.00  0.00    -0.035 C 
ATOM     11  C   UNL     1       3.927  31.314  20.183  1.00  0.00     0.004 C 
ENDBRANCH   9  10
ENDBRANCH   8   9
ENDBRANCH   7   8
ENDBRANCH   1   7
TORSDOF 7
ENDMDL
MODEL 8
REMARK VINA RESULT:    -3.345      2.616      4.001
REMARK INTER + INTRA:          -5.209
REMARK INTER:                  -4.861
REMARK INTRA:                  -0.348
REMARK UNBOUND:                -0.495
REMARK SMILES C=CCCCCCCC(=O)[O-]
REMARK SMILES IDX 6 1 7 2 8 3 9 4 10 5 11 6 5 7 4 8 3 9 2 10 1 11
REMARK H PARENT
REMARK Flexibility Score: inf
ROOT
ATOM      1  C   UNL     1       5.072  29.295  18.637  1.00  0.00     0.000 C 
ENDROOT
BRANCH   1   2
ATOM      2  C   UNL     1       5.178  28.256  19.766  1.00  0.00     0.006 C 
BRANCH   2   3
ATOM      3  C   UNL     1       6.028  27.044  19.358  1.00  0.00     0.053 C 
BRANCH   3   4
ATOM      4  C   UNL     1       6.109  26.025  20.452  1.00  0.00     0.041 C 
ATOM      5  O   UNL     1       5.949  26.370  21.652  1.00  0.00    -0.550 OA
ATOM      6  O   UNL     1       6.391  24.698  20.149  1.00  0.00    -0.550 OA
ENDBRANCH   3   4
ENDBRANCH   2   3
ENDBRANCH   1   2
BRANCH   1   7
ATOM      7  C   UNL     1       3.782  30.129  18.720  1.00  0.00     0.000 C 
BRANCH   7   8
ATOM      8  C   UNL     1       2.609  29.346  19.335  1.00  0.00     0.004 C 
BRANCH   8   9
ATOM      9  C   UNL     1       1.503  29.067  18.308  1.00  0.00     0.027 C 
BRANCH   9  10
ATOM     10  C   UNL     1       2.074  28.694  16.967  1.00  0.00    -0.035 C 
ATOM     11  C   UNL     1       1.449  27.847  16.143  1.00  0.00     0.004 C 
ENDBRANCH   9  10
ENDBRANCH   8   9
ENDBRANCH   7   8
ENDBRANCH   1   7
TORSDOF 7
ENDMDL
MODEL 9
REMARK VINA RESULT:    -3.338      2.358      3.079
REMARK INTER + INTRA:          -5.200
REMARK INTER:                  -4.558
REMARK INTRA:                  -0.642
REMARK UNBOUND:                -0.495
REMARK SMILES C=CCCCCCCC(=O)[O-]
REMARK SMILES IDX 6 1 7 2 8 3 9 4 10 5 11 6 5 7 4 8 3 9 2 10 1 11
REMARK H PARENT
REMARK Flexibility Score: inf
ROOT
ATOM      1  C   UNL     1       4.660  29.339  19.153  1.00  0.00     0.000 C 
ENDROOT
BRANCH   1   2
ATOM      2  C   UNL     1       5.614  28.491  20.011  1.00  0.00     0.006 C 
BRANCH   2   3
ATOM      3  C   UNL     1       5.998  27.175  19.320  1.00  0.00     0.053 C 
BRANCH   3   4
ATOM      4  C   UNL     1       6.140  26.051  20.299  1.00  0.00     0.041 C 
ATOM      5  O   UNL     1       5.977  26.259  21.530  1.00  0.00    -0.550 OA
ATOM      6  O   UNL     1       6.481  24.779  19.855  1.00  0.00    -0.550 OA
ENDBRANCH   3   4
ENDBRANCH   2   3
ENDBRANCH   1   2
BRANCH   1   7
ATOM      7  C   UNL     1       4.158  28.589  17.909  1.00  0.00     0.000 C 
BRANCH   7   8
ATOM      8  C   UNL     1       4.315  29.411  16.618  1.00  0.00     0.004 C 
BRANCH   8   9
ATOM      9  C   UNL     1       5.420  28.853  15.712  1.00  0.00     0.027 C 
BRANCH   9  10
ATOM     10  C   UNL     1       6.789  29.128  16.274  1.00  0.00    -0.035 C 
ATOM     11  C   UNL     1       7.304  30.360  16.308  1.00  0.00     0.004 C 
ENDBRANCH   9  10
ENDBRANCH   8   9
ENDBRANCH   7   8
ENDBRANCH   1   7
TORSDOF 7
ENDMDL
