MODEL 1
REMARK VINA RESULT:    -2.810      0.000      0.000
REMARK INTER + INTRA:          -4.800
REMARK INTER:                  -4.289
REMARK INTRA:                  -0.511
REMARK UNBOUND:                -0.511
REMARK SMILES CCCCCCCCCCC(=O)[O-]
REMARK SMILES IDX 7 1 8 2 9 3 10 4 11 5 12 6 13 7 6 8 5 9 4 10 3 11 2 12 1 13
REMARK H PARENT
REMARK Flexibility Score: inf
ROOT
ATOM      1  C   UNL     1     -20.027   4.993   1.205  1.00  0.00     0.000 C 
ENDROOT
BRANCH   1   2
ATOM      2  C   UNL     1     -20.720   6.034   2.101  1.00  0.00     0.000 C 
BRANCH   2   3
ATOM      3  C   UNL     1     -21.080   5.477   3.490  1.00  0.00     0.006 C 
BRANCH   3   4
ATOM      4  C   UNL     1     -20.901   6.483   4.638  1.00  0.00     0.053 C 
BRANCH   4   5
ATOM      5  C   UNL     1     -20.460   5.817   5.905  1.00  0.00     0.041 C 
ATOM      6  O   UNL     1     -20.922   4.689   6.222  1.00  0.00    -0.550 OA
ATOM      7  O   UNL     1     -19.513   6.425   6.718  1.00  0.00    -0.550 OA
ENDBRANCH   4   5
ENDBRANCH   3   4
ENDBRANCH   2   3
ENDBRANCH   1   2
BRANCH   1   8
ATOM      8  C   UNL     1     -20.384   3.549   1.595  1.00  0.00     0.000 C 
BRANCH   8   9
ATOM      9  C   UNL     1     -20.738   2.680   0.376  1.00  0.00    -0.000 C 
BRANCH   9  10
ATOM     10  C   UNL     1     -20.000   3.117  -0.899  1.00  0.00    -0.000 C 
BRANCH  10  11
ATOM     11  C   UNL     1     -20.957   3.376  -2.075  1.00  0.00    -0.000 C 
BRANCH  11  12
ATOM     12  C   UNL     1     -21.113   4.873  -2.388  1.00  0.00    -0.003 C 
ATOM     13  C   UNL     1     -21.117   5.167  -3.888  1.00  0.00     0.004 C 
ENDBRANCH  11  12
ENDBRANCH  10  11
ENDBRANCH   9  10
ENDBRANCH   8   9
ENDBRANCH   1   8
TORSDOF 9
ENDMDL
MODEL 2
REMARK VINA RESULT:    -2.532      3.707      7.196
REMARK INTER + INTRA:          -4.375
REMARK INTER:                  -3.915
REMARK INTRA:                  -0.460
REMARK UNBOUND:                -0.511
REMARK SMILES CCCCCCCCCCC(=O)[O-]
REMARK SMILES IDX 7 1 8 2 9 3 10 4 11 5 12 6 13 7 6 8 5 9 4 10 3 11 2 12 1 13
REMARK H PARENT
REMARK Flexibility Score: inf
ROOT
ATOM      1  C   UNL     1     -20.335   4.590   2.563  1.00  0.00     0.000 C 
ENDROOT
BRANCH   1   2
ATOM      2  C   UNL     1     -20.602   3.124   2.180  1.00  0.00     0.000 C 
BRANCH   2   3
ATOM      3  C   UNL     1     -20.867   2.942   0.675  1.00  0.00     0.006 C 
BRANCH   3   4
ATOM      4  C   UNL     1     -20.285   4.059  -0.207  1.00  0.00     0.053 C 
BRANCH   4   5
ATOM      5  C   UNL     1     -20.626   3.868  -1.653  1.00  0.00     0.041 C 
ATOM      6  O   UNL     1     -21.091   2.768  -2.055  1.00  0.00    -0.550 OA
ATOM      7  O   UNL     1     -20.464   4.916  -2.550  1.00  0.00    -0.550 OA
ENDBRANCH   4   5
ENDBRANCH   3   4
ENDBRANCH   2   3
ENDBRANCH   1   2
BRANCH   1   8
ATOM      8  C   UNL     1     -20.763   4.910   4.005  1.00  0.00     0.000 C 
BRANCH   8   9
ATOM      9  C   UNL     1     -20.978   6.415   4.236  1.00  0.00    -0.000 C 
BRANCH   9  10
ATOM     10  C   UNL     1     -20.785   6.824   5.705  1.00  0.00    -0.000 C 
BRANCH  10  11
ATOM     11  C   UNL     1     -20.322   5.651   6.586  1.00  0.00    -0.000 C 
BRANCH  11  12
ATOM     12  C   UNL     1     -18.940   5.896   7.214  1.00  0.00    -0.003 C 
ATOM     13  C   UNL     1     -18.237   7.125   6.638  1.00  0.00     0.004 C 
ENDBRANCH  11  12
ENDBRANCH  10  11
ENDBRANCH   9  10
ENDBRANCH   8   9
ENDBRANCH   1   8
TORSDOF 9
ENDMDL
MODEL 3
REMARK VINA RESULT:    -2.411     17.756     20.132
REMARK INTER + INTRA:          -4.190
REMARK INTER:                  -3.541
REMARK INTRA:                  -0.649
REMARK UNBOUND:                -0.511
REMARK SMILES CCCCCCCCCCC(=O)[O-]
REMARK SMILES IDX 7 1 8 2 9 3 10 4 11 5 12 6 13 7 6 8 5 9 4 10 3 11 2 12 1 13
REMARK H PARENT
REMARK Flexibility Score: inf
ROOT
ATOM      1  C   UNL     1     -13.646  -9.188 -11.717  1.00  0.00     0.000 C 
ENDROOT
BRANCH   1   2
ATOM      2  C   UNL     1     -13.410  -7.669 -11.644  1.00  0.00     0.000 C 
BRANCH   2   3
ATOM      3  C   UNL     1     -14.689  -6.856 -11.914  1.00  0.00     0.006 C 
BRANCH   3   4
ATOM      4  C   UNL     1     -14.558  -5.355 -11.607  1.00  0.00     0.053 C 
BRANCH   4   5
ATOM      5  C   UNL     1     -15.859  -4.632 -11.773  1.00  0.00     0.041 C 
ATOM      6  O   UNL     1     -15.878  -3.376 -11.869  1.00  0.00    -0.550 OA
ATOM      7  O   UNL     1     -17.047  -5.347 -11.858  1.00  0.00    -0.550 OA
ENDBRANCH   4   5
ENDBRANCH   3   4
ENDBRANCH   2   3
ENDBRANCH   1   2
BRANCH   1   8
ATOM      8  C   UNL     1     -12.663  -9.978 -10.838  1.00  0.00     0.000 C 
BRANCH   8   9
ATOM      9  C   UNL     1     -13.128 -11.424 -10.587  1.00  0.00    -0.000 C 
BRANCH   9  10
ATOM     10  C   UNL     1     -13.989 -11.977 -11.734  1.00  0.00    -0.000 C 
BRANCH  10  11
ATOM     11  C   UNL     1     -15.312 -12.584 -11.237  1.00  0.00    -0.000 C 
BRANCH  11  12
ATOM     12  C   UNL     1     -15.876 -11.845 -10.012  1.00  0.00    -0.003 C 
ATOM     13  C   UNL     1     -16.877 -10.753 -10.387  1.00  0.00     0.004 C 
ENDBRANCH  11  12
ENDBRANCH  10  11
ENDBRANCH   9  10
ENDBRANCH   8   9
ENDBRANCH   1   8
TORSDOF 9
ENDMDL
MODEL 4
REMARK VINA RESULT:    -2.316     18.442     20.063
REMARK INTER + INTRA:          -4.046
REMARK INTER:                  -3.599
REMARK INTRA:                  -0.448
REMARK UNBOUND:                -0.511
REMARK SMILES CCCCCCCCCCC(=O)[O-]
REMARK SMILES IDX 7 1 8 2 9 3 10 4 11 5 12 6 13 7 6 8 5 9 4 10 3 11 2 12 1 13
REMARK H PARENT
REMARK Flexibility Score: inf
ROOT
ATOM      1  C   UNL     1     -17.480 -10.925  -9.865  1.00  0.00     0.000 C 
ENDROOT
BRANCH   1   2
ATOM      2  C   UNL     1     -17.727 -12.384  -9.441  1.00  0.00     0.000 C 
BRANCH   2   3
ATOM      3  C   UNL     1     -18.856 -12.517  -8.403  1.00  0.00     0.006 C 
BRANCH   3   4
ATOM      4  C   UNL     1     -19.780 -11.292  -8.316  1.00  0.00     0.053 C 
BRANCH   4   5
ATOM      5  C   UNL     1     -20.497 -11.221  -7.002  1.00  0.00     0.041 C 
ATOM      6  O   UNL     1     -20.932 -10.118  -6.577  1.00  0.00    -0.550 OA
ATOM      7  O   UNL     1     -20.715 -12.377  -6.265  1.00  0.00    -0.550 OA
ENDBRANCH   4   5
ENDBRANCH   3   4
ENDBRANCH   2   3
ENDBRANCH   1   2
BRANCH   1   8
ATOM      8  C   UNL     1     -16.236 -10.775 -10.756  1.00  0.00     0.000 C 
BRANCH   8   9
ATOM      9  C   UNL     1     -15.035 -11.581 -10.232  1.00  0.00    -0.000 C 
BRANCH   9  10
ATOM     10  C   UNL     1     -13.737 -11.277 -10.998  1.00  0.00    -0.000 C 
BRANCH  10  11
ATOM     11  C   UNL     1     -12.761 -10.410 -10.184  1.00  0.00    -0.000 C 
BRANCH  11  12
ATOM     12  C   UNL     1     -12.124  -9.293 -11.026  1.00  0.00    -0.003 C 
ATOM     13  C   UNL     1     -13.126  -8.212 -11.432  1.00  0.00     0.004 C 
ENDBRANCH  11  12
ENDBRANCH  10  11
ENDBRANCH   9  10
ENDBRANCH   8   9
ENDBRANCH   1   8
TORSDOF 9
ENDMDL
MODEL 5
REMARK VINA RESULT:    -2.298     18.909     20.477
REMARK INTER + INTRA:          -4.019
REMARK INTER:                  -3.393
REMARK INTRA:                  -0.626
REMARK UNBOUND:                -0.511
REMARK SMILES CCCCCCCCCCC(=O)[O-]
REMARK SMILES IDX 7 1 8 2 9 3 10 4 11 5 12 6 13 7 6 8 5 9 4 10 3 11 2 12 1 13
REMARK H PARENT
REMARK Flexibility Score: inf
ROOT
ATOM      1  C   UNL     1     -15.517 -11.449 -10.155  1.00  0.00     0.000 C 
ENDROOT
BRANCH   1   2
ATOM      2  C   UNL     1     -16.337 -12.698  -9.786  1.00  0.00     0.000 C 
BRANCH   2   3
ATOM      3  C   UNL     1     -17.848 -12.415  -9.711  1.00  0.00     0.006 C 
BRANCH   3   4
ATOM      4  C   UNL     1     -18.204 -11.043  -9.118  1.00  0.00     0.053 C 
BRANCH   4   5
ATOM      5  C   UNL     1     -19.115 -11.161  -7.934  1.00  0.00     0.041 C 
ATOM      6  O   UNL     1     -19.872 -10.205  -7.620  1.00  0.00    -0.550 OA
ATOM      7  O   UNL     1     -19.153 -12.339  -7.200  1.00  0.00    -0.550 OA
ENDBRANCH   4   5
ENDBRANCH   3   4
ENDBRANCH   2   3
ENDBRANCH   1   2
BRANCH   1   8
ATOM      8  C   UNL     1     -15.011 -11.486 -11.606  1.00  0.00     0.000 C 
BRANCH   8   9
ATOM      9  C   UNL     1     -13.514 -11.146 -11.717  1.00  0.00    -0.000 C 
BRANCH   9  10
ATOM     10  C   UNL     1     -12.925 -10.625 -10.396  1.00  0.00    -0.000 C 
BRANCH  10  11
ATOM     11  C   UNL     1     -12.302  -9.226 -10.539  1.00  0.00    -0.000 C 
BRANCH  11  12
ATOM     12  C   UNL     1     -12.674  -8.549 -11.868  1.00  0.00    -0.003 C 
ATOM     13  C   UNL     1     -13.712  -7.440 -11.698  1.00  0.00     0.004 C 
ENDBRANCH  11  12
ENDBRANCH  10  11
ENDBRANCH   9  10
ENDBRANCH   8   9
ENDBRANCH   1   8
TORSDOF 9
ENDMDL
MODEL 6
REMARK VINA RESULT:    -2.280      4.044      7.257
REMARK INTER + INTRA:          -3.991
REMARK INTER:                  -3.561
REMARK INTRA:                  -0.430
REMARK UNBOUND:                -0.511
REMARK SMILES CCCCCCCCCCC(=O)[O-]
REMARK SMILES IDX 7 1 8 2 9 3 10 4 11 5 12 6 13 7 6 8 5 9 4 10 3 11 2 12 1 13
REMARK H PARENT
REMARK Flexibility Score: inf
ROOT
ATOM      1  C   UNL     1     -20.008   3.722   1.003  1.00  0.00     0.000 C 
ENDROOT
BRANCH   1   2
ATOM      2  C   UNL     1     -20.741   2.604   0.241  1.00  0.00     0.000 C 
BRANCH   2   3
ATOM      3  C   UNL     1     -21.118   3.012  -1.195  1.00  0.00     0.006 C 
BRANCH   3   4
ATOM      4  C   UNL     1     -20.429   4.296  -1.686  1.00  0.00     0.053 C 
BRANCH   4   5
ATOM      5  C   UNL     1     -20.755   4.596  -3.117  1.00  0.00     0.041 C 
ATOM      6  O   UNL     1     -20.663   5.774  -3.553  1.00  0.00    -0.550 OA
ATOM      7  O   UNL     1     -21.125   3.570  -3.976  1.00  0.00    -0.550 OA
ENDBRANCH   4   5
ENDBRANCH   3   4
ENDBRANCH   2   3
ENDBRANCH   1   2
BRANCH   1   8
ATOM      8  C   UNL     1     -20.825   4.259   2.190  1.00  0.00     0.000 C 
BRANCH   8   9
ATOM      9  C   UNL     1     -20.683   5.781   2.362  1.00  0.00    -0.000 C 
BRANCH   9  10
ATOM     10  C   UNL     1     -20.812   6.226   3.828  1.00  0.00    -0.000 C 
BRANCH  10  11
ATOM     11  C   UNL     1     -20.657   5.057   4.815  1.00  0.00    -0.000 C 
BRANCH  11  12
ATOM     12  C   UNL     1     -19.784   5.421   6.027  1.00  0.00    -0.003 C 
ATOM     13  C   UNL     1     -20.431   6.470   6.931  1.00  0.00     0.004 C 
ENDBRANCH  11  12
ENDBRANCH  10  11
ENDBRANCH   9  10
ENDBRANCH   8   9
ENDBRANCH   1   8
TORSDOF 9
ENDMDL
MODEL 7
REMARK VINA RESULT:    -2.266     18.667     20.124
REMARK INTER + INTRA:          -3.970
REMARK INTER:                  -3.554
REMARK INTRA:                  -0.416
REMARK UNBOUND:                -0.511
REMARK SMILES CCCCCCCCCCC(=O)[O-]
REMARK SMILES IDX 7 1 8 2 9 3 10 4 11 5 12 6 13 7 6 8 5 9 4 10 3 11 2 12 1 13
REMARK H PARENT
REMARK Flexibility Score: inf
ROOT
ATOM      1  C   UNL     1     -18.040 -11.094  -9.122  1.00  0.00     0.000 C 
ENDROOT
BRANCH   1   2
ATOM      2  C   UNL     1     -18.726 -12.471  -9.120  1.00  0.00     0.000 C 
BRANCH   2   3
ATOM      3  C   UNL     1     -19.082 -12.954  -7.703  1.00  0.00     0.006 C 
BRANCH   3   4
ATOM      4  C   UNL     1     -20.572 -12.821  -7.348  1.00  0.00     0.053 C 
BRANCH   4   5
ATOM      5  C   UNL     1     -20.807 -11.786  -6.290  1.00  0.00     0.041 C 
ATOM      6  O   UNL     1     -20.780 -12.107  -5.072  1.00  0.00    -0.550 OA
ATOM      7  O   UNL     1     -21.021 -10.462  -6.648  1.00  0.00    -0.550 OA
ENDBRANCH   4   5
ENDBRANCH   3   4
ENDBRANCH   2   3
ENDBRANCH   1   2
BRANCH   1   8
ATOM      8  C   UNL     1     -16.963 -10.975 -10.213  1.00  0.00     0.000 C 
BRANCH   8   9
ATOM      9  C   UNL     1     -15.929 -12.113 -10.147  1.00  0.00    -0.000 C 
BRANCH   9  10
ATOM     10  C   UNL     1     -14.855 -12.004 -11.241  1.00  0.00    -0.000 C 
BRANCH  10  11
ATOM     11  C   UNL     1     -14.170 -10.627 -11.258  1.00  0.00    -0.000 C 
BRANCH  11  12
ATOM     12  C   UNL     1     -12.968 -10.555 -10.302  1.00  0.00    -0.003 C 
ATOM     13  C   UNL     1     -12.145  -9.280 -10.479  1.00  0.00     0.004 C 
ENDBRANCH  11  12
ENDBRANCH  10  11
ENDBRANCH   9  10
ENDBRANCH   8   9
ENDBRANCH   1   8
TORSDOF 9
ENDMDL
MODEL 8
REMARK VINA RESULT:    -2.208     18.898     20.634
REMARK INTER + INTRA:          -3.881
REMARK INTER:                  -3.374
REMARK INTRA:                  -0.506
REMARK UNBOUND:                -0.511
REMARK SMILES CCCCCCCCCCC(=O)[O-]
REMARK SMILES IDX 7 1 8 2 9 3 10 4 11 5 12 6 13 7 6 8 5 9 4 10 3 11 2 12 1 13
REMARK H PARENT
REMARK Flexibility Score: inf
ROOT
ATOM      1  C   UNL     1     -16.158 -11.311 -10.174  1.00  0.00     0.000 C 
ENDROOT
BRANCH   1   2
ATOM      2  C   UNL     1     -16.521 -10.338 -11.309  1.00  0.00     0.000 C 
BRANCH   2   3
ATOM      3  C   UNL     1     -15.297  -9.581 -11.856  1.00  0.00     0.006 C 
BRANCH   3   4
ATOM      4  C   UNL     1     -13.946 -10.180 -11.434  1.00  0.00     0.053 C 
BRANCH   4   5
ATOM      5  C   UNL     1     -12.902  -9.125 -11.234  1.00  0.00     0.041 C 
ATOM      6  O   UNL     1     -11.721  -9.450 -10.937  1.00  0.00    -0.550 OA
ATOM      7  O   UNL     1     -13.223  -7.786 -11.410  1.00  0.00    -0.550 OA
ENDBRANCH   4   5
ENDBRANCH   3   4
ENDBRANCH   2   3
ENDBRANCH   1   2
BRANCH   1   8
ATOM      8  C   UNL     1     -17.301 -12.287  -9.848  1.00  0.00     0.000 C 
BRANCH   8   9
ATOM      9  C   UNL     1     -18.665 -11.787 -10.356  1.00  0.00    -0.000 C 
BRANCH   9  10
ATOM     10  C   UNL     1     -19.760 -11.854  -9.279  1.00  0.00    -0.000 C 
BRANCH  10  11
ATOM     11  C   UNL     1     -19.436 -10.981  -8.054  1.00  0.00    -0.000 C 
BRANCH  11  12
ATOM     12  C   UNL     1     -20.464 -11.148  -6.924  1.00  0.00    -0.003 C 
ATOM     13  C   UNL     1     -20.423 -12.535  -6.284  1.00  0.00     0.004 C 
ENDBRANCH  11  12
ENDBRANCH  10  11
ENDBRANCH   9  10
ENDBRANCH   8   9
ENDBRANCH   1   8
TORSDOF 9
ENDMDL
MODEL 9
REMARK VINA RESULT:    -2.045     17.792     18.585
REMARK INTER + INTRA:          -3.633
REMARK INTER:                  -2.916
REMARK INTRA:                  -0.717
REMARK UNBOUND:                -0.511
REMARK SMILES CCCCCCCCCCC(=O)[O-]
REMARK SMILES IDX 7 1 8 2 9 3 10 4 11 5 12 6 13 7 6 8 5 9 4 10 3 11 2 12 1 13
REMARK H PARENT
REMARK Flexibility Score: inf
ROOT
ATOM      1  C   UNL     1      -1.955   4.132   4.379  1.00  0.00     0.000 C 
ENDROOT
BRANCH   1   2
ATOM      2  C   UNL     1      -1.239   3.497   5.583  1.00  0.00     0.000 C 
BRANCH   2   3
ATOM      3  C   UNL     1      -1.051   4.484   6.750  1.00  0.00     0.006 C 
BRANCH   3   4
ATOM      4  C   UNL     1      -2.293   4.651   7.640  1.00  0.00     0.053 C 
BRANCH   4   5
ATOM      5  C   UNL     1      -2.917   6.003   7.486  1.00  0.00     0.041 C 
ATOM      6  O   UNL     1      -4.154   6.156   7.673  1.00  0.00    -0.550 OA
ATOM      7  O   UNL     1      -2.128   7.102   7.171  1.00  0.00    -0.550 OA
ENDBRANCH   4   5
ENDBRANCH   3   4
ENDBRANCH   2   3
ENDBRANCH   1   2
BRANCH   1   8
ATOM      8  C   UNL     1      -1.339   5.481   3.972  1.00  0.00     0.000 C 
BRANCH   8   9
ATOM      9  C   UNL     1      -1.231   5.643   2.446  1.00  0.00    -0.000 C 
BRANCH   9  10
ATOM     10  C   UNL     1      -1.803   6.981   1.949  1.00  0.00    -0.000 C 
BRANCH  10  11
ATOM     11  C   UNL     1      -2.865   6.797   0.853  1.00  0.00    -0.000 C 
BRANCH  11  12
ATOM     12  C   UNL     1      -4.168   6.184   1.391  1.00  0.00    -0.003 C 
ATOM     13  C   UNL     1      -4.723   6.938   2.599  1.00  0.00     0.004 C 
ENDBRANCH  11  12
ENDBRANCH  10  11
ENDBRANCH   9  10
ENDBRANCH   8   9
ENDBRANCH   1   8
TORSDOF 9
ENDMDL
