MODEL 1
REMARK VINA RESULT:    -4.449      0.000      0.000
REMARK INTER + INTRA:          -8.316
REMARK INTER:                  -6.790
REMARK INTRA:                  -1.526
REMARK UNBOUND:                -1.526
REMARK SMILES OC[C@@H]1O[C@@](CO)(O[C@H]2O[C@@H](CO)[C@@H](O)[C@H](O)[C@@H]2O)[C@@H](O)[C@@H]1O
REMARK SMILES IDX 8 1 9 2 11 3 14 4 10 5 16 6 18 7 12 8 13 9 15 11 17 13 19 15
REMARK SMILES IDX 5 17 20 18 4 19 22 20 3 21 6 22 7 23 21 25 23 27 2 29 1 30
REMARK H PARENT 13 10 15 12 17 14 19 16 7 24 21 26 23 28 1 31
REMARK Flexibility Score: inf
ROOT
ATOM      1  O   UNL     1      -3.276 -22.188 -10.883  1.00  0.00    -0.313 OA
ENDROOT
BRANCH   1   2
ATOM      2  C   UNL     1      -2.243 -22.179 -11.860  1.00  0.00     0.285 C 
ATOM      3  C   UNL     1      -0.399 -22.074 -10.328  1.00  0.00     0.178 C 
ATOM      4  C   UNL     1       0.023 -23.527 -10.660  1.00  0.00     0.177 C 
ATOM      5  O   UNL     1      -1.110 -21.450 -11.397  1.00  0.00    -0.341 OA
ATOM      6  C   UNL     1      -1.183 -24.355 -11.127  1.00  0.00     0.179 C 
ATOM      7  C   UNL     1      -1.886 -23.624 -12.271  1.00  0.00     0.202 C 
BRANCH   3   8
ATOM      8  C   UNL     1      -1.119 -21.910  -8.968  1.00  0.00     0.191 C 
BRANCH   8   9
ATOM      9  O   UNL     1      -1.740 -20.656  -8.876  1.00  0.00    -0.394 OA
ATOM     10  H   UNL     1      -2.716 -20.823  -8.806  1.00  0.00     0.210 HD
ENDBRANCH   8   9
ENDBRANCH   3   8
BRANCH   4  11
ATOM     11  O   UNL     1       0.624 -24.127  -9.539  1.00  0.00    -0.387 OA
ATOM     12  H   UNL     1       0.653 -23.442  -8.821  1.00  0.00     0.211 HD
ENDBRANCH   4  11
BRANCH   6  13
ATOM     13  O   UNL     1      -0.762 -25.618 -11.574  1.00  0.00    -0.387 OA
ATOM     14  H   UNL     1      -1.403 -26.284 -11.212  1.00  0.00     0.211 HD
ENDBRANCH   6  13
BRANCH   7  15
ATOM     15  O   UNL     1      -1.055 -23.608 -13.405  1.00  0.00    -0.385 OA
ATOM     16  H   UNL     1      -0.260 -24.162 -13.187  1.00  0.00     0.211 HD
ENDBRANCH   7  15
ENDBRANCH   1   2
BRANCH   1  17
ATOM     17  C   UNL     1      -4.549 -21.723 -11.339  1.00  0.00     0.224 C 
ATOM     18  C   UNL     1      -5.300 -20.895 -10.261  1.00  0.00     0.208 C 
ATOM     19  O   UNL     1      -4.292 -20.855 -12.429  1.00  0.00    -0.337 OA
ATOM     20  C   UNL     1      -5.951 -19.790 -11.057  1.00  0.00     0.180 C 
ATOM     21  C   UNL     1      -4.985 -19.640 -12.233  1.00  0.00     0.179 C 
BRANCH  17  22
ATOM     22  C   UNL     1      -5.423 -22.875 -11.916  1.00  0.00     0.225 C 
BRANCH  22  23
ATOM     23  O   UNL     1      -6.731 -22.857 -11.415  1.00  0.00    -0.391 OA
ATOM     24  H   UNL     1      -7.324 -23.081 -12.178  1.00  0.00     0.210 HD
ENDBRANCH  22  23
ENDBRANCH  17  22
BRANCH  18  25
ATOM     25  O   UNL     1      -4.427 -20.357  -9.294  1.00  0.00    -0.385 OA
ATOM     26  H   UNL     1      -4.184 -19.434  -9.569  1.00  0.00     0.211 HD
ENDBRANCH  18  25
BRANCH  20  27
ATOM     27  O   UNL     1      -7.228 -20.191 -11.488  1.00  0.00    -0.387 OA
ATOM     28  H   UNL     1      -7.480 -20.977 -10.934  1.00  0.00     0.211 HD
ENDBRANCH  20  27
BRANCH  21  29
ATOM     29  C   UNL     1      -5.656 -19.206 -13.546  1.00  0.00     0.191 C 
BRANCH  29  30
ATOM     30  O   UNL     1      -6.408 -20.254 -14.094  1.00  0.00    -0.394 OA
ATOM     31  H   UNL     1      -7.362 -20.009 -13.977  1.00  0.00     0.210 HD
ENDBRANCH  29  30
ENDBRANCH  21  29
ENDBRANCH   1  17
TORSDOF 13
ENDMDL
MODEL 2
REMARK VINA RESULT:    -4.370      7.235     10.986
REMARK INTER + INTRA:          -8.195
REMARK INTER:                  -6.703
REMARK INTRA:                  -1.491
REMARK UNBOUND:                -1.526
REMARK SMILES OC[C@@H]1O[C@@](CO)(O[C@H]2O[C@@H](CO)[C@@H](O)[C@H](O)[C@@H]2O)[C@@H](O)[C@@H]1O
REMARK SMILES IDX 8 1 9 2 11 3 14 4 10 5 16 6 18 7 12 8 13 9 15 11 17 13 19 15
REMARK SMILES IDX 5 17 20 18 4 19 22 20 3 21 6 22 7 23 21 25 23 27 2 29 1 30
REMARK H PARENT 13 10 15 12 17 14 19 16 7 24 21 26 23 28 1 31
REMARK Flexibility Score: inf
ROOT
ATOM      1  O   UNL     1       4.255 -29.521 -11.073  1.00  0.00    -0.313 OA
ENDROOT
BRANCH   1   2
ATOM      2  C   UNL     1       4.552 -30.399  -9.994  1.00  0.00     0.285 C 
ATOM      3  C   UNL     1       3.464 -32.339 -10.896  1.00  0.00     0.178 C 
ATOM      4  C   UNL     1       4.820 -33.043 -11.149  1.00  0.00     0.177 C 
ATOM      5  O   UNL     1       3.530 -31.381  -9.841  1.00  0.00    -0.341 OA
ATOM      6  C   UNL     1       5.940 -32.014 -11.359  1.00  0.00     0.179 C 
ATOM      7  C   UNL     1       5.948 -31.028 -10.189  1.00  0.00     0.202 C 
BRANCH   3   8
ATOM      8  C   UNL     1       2.790 -31.769 -12.167  1.00  0.00     0.191 C 
BRANCH   8   9
ATOM      9  O   UNL     1       1.866 -30.766 -11.840  1.00  0.00    -0.394 OA
ATOM     10  H   UNL     1       2.315 -30.164 -11.190  1.00  0.00     0.210 HD
ENDBRANCH   8   9
ENDBRANCH   3   8
BRANCH   4  11
ATOM     11  O   UNL     1       4.725 -33.896 -12.262  1.00  0.00    -0.387 OA
ATOM     12  H   UNL     1       5.396 -33.586 -12.926  1.00  0.00     0.211 HD
ENDBRANCH   4  11
BRANCH   6  13
ATOM     13  O   UNL     1       7.187 -32.659 -11.428  1.00  0.00    -0.387 OA
ATOM     14  H   UNL     1       7.859 -31.968 -11.662  1.00  0.00     0.211 HD
ENDBRANCH   6  13
BRANCH   7  15
ATOM     15  O   UNL     1       6.342 -31.691  -9.013  1.00  0.00    -0.385 OA
ATOM     16  H   UNL     1       5.986 -31.164  -8.252  1.00  0.00     0.211 HD
ENDBRANCH   7  15
ENDBRANCH   1   2
BRANCH   1  17
ATOM     17  C   UNL     1       3.854 -28.203 -10.692  1.00  0.00     0.224 C 
ATOM     18  C   UNL     1       3.265 -27.394 -11.880  1.00  0.00     0.208 C 
ATOM     19  O   UNL     1       2.818 -28.359  -9.739  1.00  0.00    -0.337 OA
ATOM     20  C   UNL     1       2.124 -26.630 -11.254  1.00  0.00     0.180 C 
ATOM     21  C   UNL     1       1.716 -27.557 -10.110  1.00  0.00     0.179 C 
BRANCH  17  22
ATOM     22  C   UNL     1       4.989 -27.432  -9.957  1.00  0.00     0.225 C 
BRANCH  22  23
ATOM     23  O   UNL     1       5.528 -26.400 -10.735  1.00  0.00    -0.391 OA
ATOM     24  H   UNL     1       6.330 -26.076 -10.251  1.00  0.00     0.210 HD
ENDBRANCH  22  23
ENDBRANCH  17  22
BRANCH  18  25
ATOM     25  O   UNL     1       2.790 -28.228 -12.913  1.00  0.00    -0.385 OA
ATOM     26  H   UNL     1       2.363 -27.657 -13.605  1.00  0.00     0.211 HD
ENDBRANCH  18  25
BRANCH  20  27
ATOM     27  O   UNL     1       2.580 -25.389 -10.772  1.00  0.00    -0.387 OA
ATOM     28  H   UNL     1       2.229 -24.698 -11.393  1.00  0.00     0.211 HD
ENDBRANCH  20  27
BRANCH  21  29
ATOM     29  C   UNL     1       1.163 -26.828  -8.875  1.00  0.00     0.191 C 
BRANCH  29  30
ATOM     30  O   UNL     1       0.439 -25.687  -9.250  1.00  0.00    -0.394 OA
ATOM     31  H   UNL     1      -0.465 -26.000  -9.515  1.00  0.00     0.210 HD
ENDBRANCH  29  30
ENDBRANCH  21  29
ENDBRANCH   1  17
TORSDOF 13
ENDMDL
MODEL 3
REMARK VINA RESULT:    -4.229      7.922     12.560
REMARK INTER + INTRA:          -7.980
REMARK INTER:                  -6.247
REMARK INTRA:                  -1.732
REMARK UNBOUND:                -1.526
REMARK SMILES OC[C@@H]1O[C@@](CO)(O[C@H]2O[C@@H](CO)[C@@H](O)[C@H](O)[C@@H]2O)[C@@H](O)[C@@H]1O
REMARK SMILES IDX 8 1 9 2 11 3 14 4 10 5 16 6 18 7 12 8 13 9 15 11 17 13 19 15
REMARK SMILES IDX 5 17 20 18 4 19 22 20 3 21 6 22 7 23 21 25 23 27 2 29 1 30
REMARK H PARENT 13 10 15 12 17 14 19 16 7 24 21 26 23 28 1 31
REMARK Flexibility Score: inf
ROOT
ATOM      1  O   UNL     1       3.505 -30.403 -10.287  1.00  0.00    -0.313 OA
ENDROOT
BRANCH   1   2
ATOM      2  C   UNL     1       3.967 -29.063 -10.164  1.00  0.00     0.285 C 
ATOM      3  C   UNL     1       2.810 -28.182 -12.073  1.00  0.00     0.178 C 
ATOM      4  C   UNL     1       1.841 -27.374 -11.174  1.00  0.00     0.177 C 
ATOM      5  O   UNL     1       4.063 -28.438 -11.440  1.00  0.00    -0.341 OA
ATOM      6  C   UNL     1       1.682 -28.041  -9.801  1.00  0.00     0.179 C 
ATOM      7  C   UNL     1       3.064 -28.277  -9.189  1.00  0.00     0.202 C 
BRANCH   3   8
ATOM      8  C   UNL     1       2.193 -29.460 -12.693  1.00  0.00     0.191 C 
BRANCH   8   9
ATOM      9  O   UNL     1       3.166 -30.211 -13.368  1.00  0.00    -0.394 OA
ATOM     10  H   UNL     1       3.047 -31.155 -13.085  1.00  0.00     0.210 HD
ENDBRANCH   8   9
ENDBRANCH   3   8
BRANCH   4  11
ATOM     11  O   UNL     1       0.590 -27.242 -11.802  1.00  0.00    -0.387 OA
ATOM     12  H   UNL     1       0.590 -27.853 -12.585  1.00  0.00     0.211 HD
ENDBRANCH   4  11
BRANCH   6  13
ATOM     13  O   UNL     1       0.932 -27.218  -8.944  1.00  0.00    -0.387 OA
ATOM     14  H   UNL     1       0.557 -26.485  -9.499  1.00  0.00     0.211 HD
ENDBRANCH   6  13
BRANCH   7  15
ATOM     15  O   UNL     1       3.660 -27.042  -8.875  1.00  0.00    -0.385 OA
ATOM     16  H   UNL     1       4.139 -27.164  -8.014  1.00  0.00     0.211 HD
ENDBRANCH   7  15
ENDBRANCH   1   2
BRANCH   1  17
ATOM     17  C   UNL     1       4.526 -31.402 -10.270  1.00  0.00     0.224 C 
ATOM     18  C   UNL     1       4.082 -32.692  -9.527  1.00  0.00     0.208 C 
ATOM     19  O   UNL     1       4.762 -31.759 -11.620  1.00  0.00    -0.337 OA
ATOM     20  C   UNL     1       4.680 -33.800 -10.359  1.00  0.00     0.180 C 
ATOM     21  C   UNL     1       4.716 -33.164 -11.749  1.00  0.00     0.179 C 
BRANCH  17  22
ATOM     22  C   UNL     1       5.881 -30.850  -9.738  1.00  0.00     0.225 C 
BRANCH  22  23
ATOM     23  O   UNL     1       6.860 -30.779 -10.738  1.00  0.00    -0.391 OA
ATOM     24  H   UNL     1       7.733 -30.882 -10.279  1.00  0.00     0.210 HD
ENDBRANCH  22  23
ENDBRANCH  17  22
BRANCH  18  25
ATOM     25  O   UNL     1       2.680 -32.822  -9.469  1.00  0.00    -0.385 OA
ATOM     26  H   UNL     1       2.422 -33.027  -8.532  1.00  0.00     0.211 HD
ENDBRANCH  18  25
BRANCH  20  27
ATOM     27  O   UNL     1       5.973 -34.107  -9.899  1.00  0.00    -0.387 OA
ATOM     28  H   UNL     1       5.884 -34.346  -8.940  1.00  0.00     0.211 HD
ENDBRANCH  20  27
BRANCH  21  29
ATOM     29  C   UNL     1       5.880 -33.645 -12.630  1.00  0.00     0.191 C 
BRANCH  29  30
ATOM     30  O   UNL     1       7.067 -32.973 -12.302  1.00  0.00    -0.394 OA
ATOM     31  H   UNL     1       7.248 -32.340 -13.044  1.00  0.00     0.210 HD
ENDBRANCH  29  30
ENDBRANCH  21  29
ENDBRANCH   1  17
TORSDOF 13
ENDMDL
MODEL 4
REMARK VINA RESULT:    -4.038      2.532      7.508
REMARK INTER + INTRA:          -7.688
REMARK INTER:                  -6.636
REMARK INTRA:                  -1.052
REMARK UNBOUND:                -1.526
REMARK SMILES OC[C@@H]1O[C@@](CO)(O[C@H]2O[C@@H](CO)[C@@H](O)[C@H](O)[C@@H]2O)[C@@H](O)[C@@H]1O
REMARK SMILES IDX 8 1 9 2 11 3 14 4 10 5 16 6 18 7 12 8 13 9 15 11 17 13 19 15
REMARK SMILES IDX 5 17 20 18 4 19 22 20 3 21 6 22 7 23 21 25 23 27 2 29 1 30
REMARK H PARENT 13 10 15 12 17 14 19 16 7 24 21 26 23 28 1 31
REMARK Flexibility Score: inf
ROOT
ATOM      1  O   UNL     1      -0.203 -24.674 -10.639  1.00  0.00    -0.313 OA
ENDROOT
BRANCH   1   2
ATOM      2  C   UNL     1      -0.070 -23.322 -11.060  1.00  0.00     0.285 C 
ATOM      3  C   UNL     1      -2.124 -23.202 -12.295  1.00  0.00     0.178 C 
ATOM      4  C   UNL     1      -2.759 -22.259 -11.243  1.00  0.00     0.177 C 
ATOM      5  O   UNL     1      -0.700 -23.117 -12.321  1.00  0.00    -0.341 OA
ATOM      6  C   UNL     1      -2.131 -22.480  -9.860  1.00  0.00     0.179 C 
ATOM      7  C   UNL     1      -0.610 -22.370  -9.971  1.00  0.00     0.202 C 
BRANCH   3   8
ATOM      8  C   UNL     1      -2.625 -24.665 -12.230  1.00  0.00     0.191 C 
BRANCH   8   9
ATOM      9  O   UNL     1      -1.805 -25.512 -12.991  1.00  0.00    -0.394 OA
ATOM     10  H   UNL     1      -1.013 -25.724 -12.431  1.00  0.00     0.210 HD
ENDBRANCH   8   9
ENDBRANCH   3   8
BRANCH   4  11
ATOM     11  O   UNL     1      -4.150 -22.459 -11.187  1.00  0.00    -0.387 OA
ATOM     12  H   UNL     1      -4.306 -23.439 -11.234  1.00  0.00     0.211 HD
ENDBRANCH   4  11
BRANCH   6  13
ATOM     13  O   UNL     1      -2.600 -21.514  -8.953  1.00  0.00    -0.387 OA
ATOM     14  H   UNL     1      -2.952 -20.757  -9.491  1.00  0.00     0.211 HD
ENDBRANCH   6  13
BRANCH   7  15
ATOM     15  O   UNL     1      -0.251 -21.044 -10.274  1.00  0.00    -0.385 OA
ATOM     16  H   UNL     1      -0.952 -20.460  -9.882  1.00  0.00     0.211 HD
ENDBRANCH   7  15
ENDBRANCH   1   2
BRANCH   1  17
ATOM     17  C   UNL     1       0.964 -25.244 -10.044  1.00  0.00     0.224 C 
ATOM     18  C   UNL     1       0.757 -26.726  -9.629  1.00  0.00     0.208 C 
ATOM     19  O   UNL     1       1.972 -25.226 -11.040  1.00  0.00    -0.337 OA
ATOM     20  C   UNL     1       2.075 -27.376  -9.974  1.00  0.00     0.180 C 
ATOM     21  C   UNL     1       2.557 -26.508 -11.136  1.00  0.00     0.179 C 
BRANCH  17  22
ATOM     22  C   UNL     1       1.513 -24.374  -8.875  1.00  0.00     0.225 C 
BRANCH  22  23
ATOM     23  O   UNL     1       2.767 -23.820  -9.163  1.00  0.00    -0.391 OA
ATOM     24  H   UNL     1       3.355 -24.577  -9.418  1.00  0.00     0.210 HD
ENDBRANCH  22  23
ENDBRANCH  17  22
BRANCH  18  25
ATOM     25  O   UNL     1      -0.295 -27.340 -10.339  1.00  0.00    -0.385 OA
ATOM     26  H   UNL     1       0.098 -27.930 -11.034  1.00  0.00     0.211 HD
ENDBRANCH  18  25
BRANCH  20  27
ATOM     27  O   UNL     1       2.953 -27.302  -8.878  1.00  0.00    -0.387 OA
ATOM     28  H   UNL     1       2.515 -26.720  -8.203  1.00  0.00     0.211 HD
ENDBRANCH  20  27
BRANCH  21  29
ATOM     29  C   UNL     1       4.085 -26.376 -11.231  1.00  0.00     0.191 C 
BRANCH  29  30
ATOM     30  O   UNL     1       4.589 -25.612 -10.169  1.00  0.00    -0.394 OA
ATOM     31  H   UNL     1       3.814 -25.136  -9.771  1.00  0.00     0.210 HD
ENDBRANCH  29  30
ENDBRANCH  21  29
ENDBRANCH   1  17
TORSDOF 13
ENDMDL
MODEL 5
REMARK VINA RESULT:    -4.030      1.682      5.762
REMARK INTER + INTRA:          -7.676
REMARK INTER:                  -6.409
REMARK INTRA:                  -1.267
REMARK UNBOUND:                -1.526
REMARK SMILES OC[C@@H]1O[C@@](CO)(O[C@H]2O[C@@H](CO)[C@@H](O)[C@H](O)[C@@H]2O)[C@@H](O)[C@@H]1O
REMARK SMILES IDX 8 1 9 2 11 3 14 4 10 5 16 6 18 7 12 8 13 9 15 11 17 13 19 15
REMARK SMILES IDX 5 17 20 18 4 19 22 20 3 21 6 22 7 23 21 25 23 27 2 29 1 30
REMARK H PARENT 13 10 15 12 17 14 19 16 7 24 21 26 23 28 1 31
REMARK Flexibility Score: inf
ROOT
ATOM      1  O   UNL     1      -2.677 -21.632 -10.797  1.00  0.00    -0.313 OA
ENDROOT
BRANCH   1   2
ATOM      2  C   UNL     1      -3.524 -22.773 -10.851  1.00  0.00     0.285 C 
ATOM      3  C   UNL     1      -5.247 -21.922  -9.413  1.00  0.00     0.178 C 
ATOM      4  C   UNL     1      -6.236 -21.786 -10.598  1.00  0.00     0.177 C 
ATOM      5  O   UNL     1      -4.255 -22.923  -9.637  1.00  0.00    -0.341 OA
ATOM      6  C   UNL     1      -5.483 -21.583 -11.920  1.00  0.00     0.179 C 
ATOM      7  C   UNL     1      -4.445 -22.694 -12.087  1.00  0.00     0.202 C 
BRANCH   3   8
ATOM      8  C   UNL     1      -4.634 -20.584  -8.934  1.00  0.00     0.191 C 
BRANCH   8   9
ATOM      9  O   UNL     1      -4.773 -19.588  -9.912  1.00  0.00    -0.394 OA
ATOM     10  H   UNL     1      -4.820 -20.052 -10.789  1.00  0.00     0.210 HD
ENDBRANCH   8   9
ENDBRANCH   3   8
BRANCH   4  11
ATOM     11  O   UNL     1      -7.123 -20.719 -10.371  1.00  0.00    -0.387 OA
ATOM     12  H   UNL     1      -7.027 -20.457  -9.418  1.00  0.00     0.211 HD
ENDBRANCH   4  11
BRANCH   6  13
ATOM     13  O   UNL     1      -6.380 -21.622 -13.001  1.00  0.00    -0.387 OA
ATOM     14  H   UNL     1      -6.250 -20.783 -13.516  1.00  0.00     0.211 HD
ENDBRANCH   6  13
BRANCH   7  15
ATOM     15  O   UNL     1      -5.097 -23.926 -12.279  1.00  0.00    -0.385 OA
ATOM     16  H   UNL     1      -4.448 -24.636 -12.031  1.00  0.00     0.211 HD
ENDBRANCH   7  15
ENDBRANCH   1   2
BRANCH   1  17
ATOM     17  C   UNL     1      -1.276 -21.914 -10.798  1.00  0.00     0.224 C 
ATOM     18  C   UNL     1      -0.477 -20.958  -9.870  1.00  0.00     0.208 C 
ATOM     19  O   UNL     1      -1.129 -23.222 -10.276  1.00  0.00    -0.337 OA
ATOM     20  C   UNL     1       0.558 -21.860  -9.244  1.00  0.00     0.180 C 
ATOM     21  C   UNL     1      -0.158 -23.211  -9.251  1.00  0.00     0.179 C 
BRANCH  17  22
ATOM     22  C   UNL     1      -0.688 -21.967 -12.239  1.00  0.00     0.225 C 
BRANCH  22  23
ATOM     23  O   UNL     1      -0.753 -23.250 -12.797  1.00  0.00    -0.391 OA
ATOM     24  H   UNL     1      -0.951 -23.125 -13.760  1.00  0.00     0.210 HD
ENDBRANCH  22  23
ENDBRANCH  17  22
BRANCH  18  25
ATOM     25  O   UNL     1      -1.288 -20.375  -8.875  1.00  0.00    -0.385 OA
ATOM     26  H   UNL     1      -0.700 -20.037  -8.150  1.00  0.00     0.211 HD
ENDBRANCH  18  25
BRANCH  20  27
ATOM     27  O   UNL     1       1.719 -21.889 -10.038  1.00  0.00    -0.387 OA
ATOM     28  H   UNL     1       2.255 -21.093  -9.784  1.00  0.00     0.211 HD
ENDBRANCH  20  27
BRANCH  21  29
ATOM     29  C   UNL     1       0.779 -24.419  -9.409  1.00  0.00     0.191 C 
BRANCH  29  30
ATOM     30  O   UNL     1       1.167 -24.580 -10.747  1.00  0.00    -0.394 OA
ATOM     31  H   UNL     1       0.682 -25.376 -11.088  1.00  0.00     0.210 HD
ENDBRANCH  29  30
ENDBRANCH  21  29
ENDBRANCH   1  17
TORSDOF 13
ENDMDL
MODEL 6
REMARK VINA RESULT:    -3.937      2.798      5.594
REMARK INTER + INTRA:          -7.534
REMARK INTER:                  -6.621
REMARK INTRA:                  -0.913
REMARK UNBOUND:                -1.526
REMARK SMILES OC[C@@H]1O[C@@](CO)(O[C@H]2O[C@@H](CO)[C@@H](O)[C@H](O)[C@@H]2O)[C@@H](O)[C@@H]1O
REMARK SMILES IDX 8 1 9 2 11 3 14 4 10 5 16 6 18 7 12 8 13 9 15 11 17 13 19 15
REMARK SMILES IDX 5 17 20 18 4 19 22 20 3 21 6 22 7 23 21 25 23 27 2 29 1 30
REMARK H PARENT 13 10 15 12 17 14 19 16 7 24 21 26 23 28 1 31
REMARK Flexibility Score: inf
ROOT
ATOM      1  O   UNL     1       0.972 -24.397 -10.735  1.00  0.00    -0.313 OA
ENDROOT
BRANCH   1   2
ATOM      2  C   UNL     1       1.768 -24.696  -9.595  1.00  0.00     0.285 C 
ATOM      3  C   UNL     1       1.332 -27.055  -9.550  1.00  0.00     0.178 C 
ATOM      4  C   UNL     1       2.781 -27.381  -9.991  1.00  0.00     0.177 C 
ATOM      5  O   UNL     1       1.231 -25.802  -8.875  1.00  0.00    -0.341 OA
ATOM      6  C   UNL     1       3.379 -26.225 -10.804  1.00  0.00     0.179 C 
ATOM      7  C   UNL     1       3.236 -24.923 -10.015  1.00  0.00     0.202 C 
BRANCH   3   8
ATOM      8  C   UNL     1       0.273 -27.209 -10.668  1.00  0.00     0.191 C 
BRANCH   8   9
ATOM      9  O   UNL     1       0.879 -27.266 -11.931  1.00  0.00    -0.394 OA
ATOM     10  H   UNL     1       1.420 -26.439 -12.027  1.00  0.00     0.210 HD
ENDBRANCH   8   9
ENDBRANCH   3   8
BRANCH   4  11
ATOM     11  O   UNL     1       2.806 -28.571 -10.740  1.00  0.00    -0.387 OA
ATOM     12  H   UNL     1       3.710 -28.967 -10.629  1.00  0.00     0.211 HD
ENDBRANCH   4  11
BRANCH   6  13
ATOM     13  O   UNL     1       4.740 -26.463 -11.060  1.00  0.00    -0.387 OA
ATOM     14  H   UNL     1       4.787 -27.051 -11.859  1.00  0.00     0.211 HD
ENDBRANCH   6  13
BRANCH   7  15
ATOM     15  O   UNL     1       4.058 -24.967  -8.875  1.00  0.00    -0.385 OA
ATOM     16  H   UNL     1       4.784 -25.617  -9.068  1.00  0.00     0.211 HD
ENDBRANCH   7  15
ENDBRANCH   1   2
BRANCH   1  17
ATOM     17  C   UNL     1      -0.057 -23.429 -10.522  1.00  0.00     0.224 C 
ATOM     18  C   UNL     1       0.039 -22.233 -11.508  1.00  0.00     0.208 C 
ATOM     19  O   UNL     1      -1.286 -24.085 -10.782  1.00  0.00    -0.337 OA
ATOM     20  C   UNL     1      -1.402 -21.932 -11.840  1.00  0.00     0.180 C 
ATOM     21  C   UNL     1      -2.054 -23.305 -11.674  1.00  0.00     0.179 C 
BRANCH  17  22
ATOM     22  C   UNL     1      -0.133 -22.967  -9.038  1.00  0.00     0.225 C 
BRANCH  22  23
ATOM     23  O   UNL     1       0.221 -21.622  -8.876  1.00  0.00    -0.391 OA
ATOM     24  H   UNL     1      -0.120 -21.146  -9.676  1.00  0.00     0.210 HD
ENDBRANCH  22  23
ENDBRANCH  17  22
BRANCH  18  25
ATOM     25  O   UNL     1       0.756 -22.558 -12.678  1.00  0.00    -0.385 OA
ATOM     26  H   UNL     1       1.199 -23.436 -12.540  1.00  0.00     0.211 HD
ENDBRANCH  18  25
BRANCH  20  27
ATOM     27  O   UNL     1      -1.925 -21.000 -10.925  1.00  0.00    -0.387 OA
ATOM     28  H   UNL     1      -1.225 -20.856 -10.236  1.00  0.00     0.211 HD
ENDBRANCH  20  27
BRANCH  21  29
ATOM     29  C   UNL     1      -3.514 -23.254 -11.196  1.00  0.00     0.191 C 
BRANCH  29  30
ATOM     30  O   UNL     1      -4.201 -22.191 -11.800  1.00  0.00    -0.394 OA
ATOM     31  H   UNL     1      -3.510 -21.577 -12.161  1.00  0.00     0.210 HD
ENDBRANCH  29  30
ENDBRANCH  21  29
ENDBRANCH   1  17
TORSDOF 13
ENDMDL
MODEL 7
REMARK VINA RESULT:    -3.932      7.323     11.101
REMARK INTER + INTRA:          -7.526
REMARK INTER:                  -6.466
REMARK INTRA:                  -1.060
REMARK UNBOUND:                -1.526
REMARK SMILES OC[C@@H]1O[C@@](CO)(O[C@H]2O[C@@H](CO)[C@@H](O)[C@H](O)[C@@H]2O)[C@@H](O)[C@@H]1O
REMARK SMILES IDX 8 1 9 2 11 3 14 4 10 5 16 6 18 7 12 8 13 9 15 11 17 13 19 15
REMARK SMILES IDX 5 17 20 18 4 19 22 20 3 21 6 22 7 23 21 25 23 27 2 29 1 30
REMARK H PARENT 13 10 15 12 17 14 19 16 7 24 21 26 23 28 1 31
REMARK Flexibility Score: inf
ROOT
ATOM      1  O   UNL     1       3.669 -28.910 -11.203  1.00  0.00    -0.313 OA
ENDROOT
BRANCH   1   2
ATOM      2  C   UNL     1       2.650 -28.640 -10.248  1.00  0.00     0.285 C 
ATOM      3  C   UNL     1       3.932 -27.147  -8.875  1.00  0.00     0.178 C 
ATOM      4  C   UNL     1       3.093 -25.927  -9.332  1.00  0.00     0.177 C 
ATOM      5  O   UNL     1       3.212 -28.375  -8.966  1.00  0.00    -0.341 OA
ATOM      6  C   UNL     1       2.503 -26.161 -10.730  1.00  0.00     0.179 C 
ATOM      7  C   UNL     1       1.747 -27.491 -10.744  1.00  0.00     0.202 C 
BRANCH   3   8
ATOM      8  C   UNL     1       5.335 -27.238  -9.522  1.00  0.00     0.191 C 
BRANCH   8   9
ATOM      9  O   UNL     1       5.364 -26.570 -10.755  1.00  0.00    -0.394 OA
ATOM     10  H   UNL     1       5.213 -25.608 -10.563  1.00  0.00     0.210 HD
ENDBRANCH   8   9
ENDBRANCH   3   8
BRANCH   4  11
ATOM     11  O   UNL     1       3.881 -24.763  -9.322  1.00  0.00    -0.387 OA
ATOM     12  H   UNL     1       4.553 -24.859 -10.047  1.00  0.00     0.211 HD
ENDBRANCH   4  11
BRANCH   6  13
ATOM     13  O   UNL     1       1.619 -25.122 -11.065  1.00  0.00    -0.387 OA
ATOM     14  H   UNL     1       0.735 -25.357 -10.678  1.00  0.00     0.211 HD
ENDBRANCH   6  13
BRANCH   7  15
ATOM     15  O   UNL     1       0.604 -27.394  -9.930  1.00  0.00    -0.385 OA
ATOM     16  H   UNL     1      -0.131 -27.053 -10.504  1.00  0.00     0.211 HD
ENDBRANCH   7  15
ENDBRANCH   1   2
BRANCH   1  17
ATOM     17  C   UNL     1       3.685 -30.244 -11.715  1.00  0.00     0.224 C 
ATOM     18  C   UNL     1       5.027 -30.973 -11.432  1.00  0.00     0.208 C 
ATOM     19  O   UNL     1       2.672 -30.952 -11.022  1.00  0.00    -0.337 OA
ATOM     20  C   UNL     1       4.600 -32.382 -11.101  1.00  0.00     0.180 C 
ATOM     21  C   UNL     1       3.206 -32.157 -10.515  1.00  0.00     0.179 C 
BRANCH  17  22
ATOM     22  C   UNL     1       3.286 -30.303 -13.218  1.00  0.00     0.225 C 
BRANCH  22  23
ATOM     23  O   UNL     1       3.041 -29.034 -13.758  1.00  0.00    -0.391 OA
ATOM     24  H   UNL     1       2.300 -29.146 -14.408  1.00  0.00     0.210 HD
ENDBRANCH  22  23
ENDBRANCH  17  22
BRANCH  18  25
ATOM     25  O   UNL     1       5.729 -30.404 -10.350  1.00  0.00    -0.385 OA
ATOM     26  H   UNL     1       5.903 -29.449 -10.556  1.00  0.00     0.211 HD
ENDBRANCH  18  25
BRANCH  20  27
ATOM     27  O   UNL     1       4.546 -33.159 -12.272  1.00  0.00    -0.387 OA
ATOM     28  H   UNL     1       4.964 -34.033 -12.051  1.00  0.00     0.211 HD
ENDBRANCH  20  27
BRANCH  21  29
ATOM     29  C   UNL     1       2.223 -33.310 -10.769  1.00  0.00     0.191 C 
BRANCH  29  30
ATOM     30  O   UNL     1       1.459 -33.072 -11.921  1.00  0.00    -0.394 OA
ATOM     31  H   UNL     1       2.096 -33.037 -12.680  1.00  0.00     0.210 HD
ENDBRANCH  29  30
ENDBRANCH  21  29
ENDBRANCH   1  17
TORSDOF 13
ENDMDL
MODEL 8
REMARK VINA RESULT:    -3.740      7.395     11.502
REMARK INTER + INTRA:          -7.234
REMARK INTER:                  -6.045
REMARK INTRA:                  -1.189
REMARK UNBOUND:                -1.526
REMARK SMILES OC[C@@H]1O[C@@](CO)(O[C@H]2O[C@@H](CO)[C@@H](O)[C@H](O)[C@@H]2O)[C@@H](O)[C@@H]1O
REMARK SMILES IDX 8 1 9 2 11 3 14 4 10 5 16 6 18 7 12 8 13 9 15 11 17 13 19 15
REMARK SMILES IDX 5 17 20 18 4 19 22 20 3 21 6 22 7 23 21 25 23 27 2 29 1 30
REMARK H PARENT 13 10 15 12 17 14 19 16 7 24 21 26 23 28 1 31
REMARK Flexibility Score: inf
ROOT
ATOM      1  O   UNL     1       3.818 -29.250 -10.169  1.00  0.00    -0.313 OA
ENDROOT
BRANCH   1   2
ATOM      2  C   UNL     1       4.366 -28.260 -11.030  1.00  0.00     0.285 C 
ATOM      3  C   UNL     1       2.331 -27.045 -11.404  1.00  0.00     0.178 C 
ATOM      4  C   UNL     1       2.836 -25.843 -10.568  1.00  0.00     0.177 C 
ATOM      5  O   UNL     1       3.395 -27.808 -11.970  1.00  0.00    -0.341 OA
ATOM      6  C   UNL     1       3.858 -26.298  -9.517  1.00  0.00     0.179 C 
ATOM      7  C   UNL     1       4.964 -27.104 -10.200  1.00  0.00     0.202 C 
BRANCH   3   8
ATOM      8  C   UNL     1       1.288 -27.933 -10.684  1.00  0.00     0.191 C 
BRANCH   8   9
ATOM      9  O   UNL     1      -0.000 -27.391 -10.800  1.00  0.00    -0.394 OA
ATOM     10  H   UNL     1      -0.168 -27.256 -11.769  1.00  0.00     0.210 HD
ENDBRANCH   8   9
ENDBRANCH   3   8
BRANCH   4  11
ATOM     11  O   UNL     1       1.755 -25.190  -9.951  1.00  0.00    -0.387 OA
ATOM     12  H   UNL     1       2.111 -24.359  -9.541  1.00  0.00     0.211 HD
ENDBRANCH   4  11
BRANCH   6  13
ATOM     13  O   UNL     1       4.425 -25.184  -8.875  1.00  0.00    -0.387 OA
ATOM     14  H   UNL     1       3.675 -24.644  -8.513  1.00  0.00     0.211 HD
ENDBRANCH   6  13
BRANCH   7  15
ATOM     15  O   UNL     1       5.721 -26.259 -11.031  1.00  0.00    -0.385 OA
ATOM     16  H   UNL     1       5.922 -26.772 -11.857  1.00  0.00     0.211 HD
ENDBRANCH   7  15
ENDBRANCH   1   2
BRANCH   1  17
ATOM     17  C   UNL     1       3.941 -30.596 -10.633  1.00  0.00     0.224 C 
ATOM     18  C   UNL     1       5.349 -31.193 -10.356  1.00  0.00     0.208 C 
ATOM     19  O   UNL     1       3.010 -31.363  -9.891  1.00  0.00    -0.337 OA
ATOM     20  C   UNL     1       5.055 -32.620  -9.965  1.00  0.00     0.180 C 
ATOM     21  C   UNL     1       3.659 -32.496  -9.353  1.00  0.00     0.179 C 
BRANCH  17  22
ATOM     22  C   UNL     1       3.518 -30.746 -12.123  1.00  0.00     0.225 C 
BRANCH  22  23
ATOM     23  O   UNL     1       2.149 -31.008 -12.267  1.00  0.00    -0.391 OA
ATOM     24  H   UNL     1       1.864 -30.550 -13.099  1.00  0.00     0.210 HD
ENDBRANCH  22  23
ENDBRANCH  17  22
BRANCH  18  25
ATOM     25  O   UNL     1       6.019 -30.524  -9.312  1.00  0.00    -0.385 OA
ATOM     26  H   UNL     1       5.587 -30.771  -8.453  1.00  0.00     0.211 HD
ENDBRANCH  18  25
BRANCH  20  27
ATOM     27  O   UNL     1       5.045 -33.443 -11.106  1.00  0.00    -0.387 OA
ATOM     28  H   UNL     1       4.274 -33.151 -11.659  1.00  0.00     0.211 HD
ENDBRANCH  20  27
BRANCH  21  29
ATOM     29  C   UNL     1       2.777 -33.740  -9.543  1.00  0.00     0.191 C 
BRANCH  29  30
ATOM     30  O   UNL     1       2.092 -33.687 -10.766  1.00  0.00    -0.394 OA
ATOM     31  H   UNL     1       1.689 -32.782 -10.825  1.00  0.00     0.210 HD
ENDBRANCH  29  30
ENDBRANCH  21  29
ENDBRANCH   1  17
TORSDOF 13
ENDMDL
MODEL 9
REMARK VINA RESULT:    -3.732      7.948     12.118
REMARK INTER + INTRA:          -7.221
REMARK INTER:                  -5.905
REMARK INTRA:                  -1.316
REMARK UNBOUND:                -1.526
REMARK SMILES OC[C@@H]1O[C@@](CO)(O[C@H]2O[C@@H](CO)[C@@H](O)[C@H](O)[C@@H]2O)[C@@H](O)[C@@H]1O
REMARK SMILES IDX 8 1 9 2 11 3 14 4 10 5 16 6 18 7 12 8 13 9 15 11 17 13 19 15
REMARK SMILES IDX 5 17 20 18 4 19 22 20 3 21 6 22 7 23 21 25 23 27 2 29 1 30
REMARK H PARENT 13 10 15 12 17 14 19 16 7 24 21 26 23 28 1 31
REMARK Flexibility Score: inf
ROOT
ATOM      1  O   UNL     1       3.919 -29.461 -11.066  1.00  0.00    -0.313 OA
ENDROOT
BRANCH   1   2
ATOM      2  C   UNL     1       2.977 -29.001 -10.105  1.00  0.00     0.285 C 
ATOM      3  C   UNL     1       4.462 -27.528  -8.928  1.00  0.00     0.178 C 
ATOM      4  C   UNL     1       3.729 -26.276  -9.470  1.00  0.00     0.177 C 
ATOM      5  O   UNL     1       3.619 -28.678  -8.875  1.00  0.00    -0.341 OA
ATOM      6  C   UNL     1       3.056 -26.575 -10.817  1.00  0.00     0.179 C 
ATOM      7  C   UNL     1       2.171 -27.814 -10.677  1.00  0.00     0.202 C 
BRANCH   3   8
ATOM      8  C   UNL     1       5.818 -27.824  -9.613  1.00  0.00     0.191 C 
BRANCH   8   9
ATOM      9  O   UNL     1       6.382 -29.009  -9.120  1.00  0.00    -0.394 OA
ATOM     10  H   UNL     1       7.365 -28.928  -9.232  1.00  0.00     0.210 HD
ENDBRANCH   8   9
ENDBRANCH   3   8
BRANCH   4  11
ATOM     11  O   UNL     1       4.629 -25.203  -9.600  1.00  0.00    -0.387 OA
ATOM     12  H   UNL     1       4.217 -24.550 -10.224  1.00  0.00     0.211 HD
ENDBRANCH   4  11
BRANCH   6  13
ATOM     13  O   UNL     1       2.265 -25.485 -11.219  1.00  0.00    -0.387 OA
ATOM     14  H   UNL     1       2.111 -25.582 -12.195  1.00  0.00     0.211 HD
ENDBRANCH   6  13
BRANCH   7  15
ATOM     15  O   UNL     1       1.082 -27.526  -9.836  1.00  0.00    -0.385 OA
ATOM     16  H   UNL     1       0.303 -28.030 -10.190  1.00  0.00     0.211 HD
ENDBRANCH   7  15
ENDBRANCH   1   2
BRANCH   1  17
ATOM     17  C   UNL     1       4.203 -30.861 -11.017  1.00  0.00     0.224 C 
ATOM     18  C   UNL     1       3.816 -31.591 -12.332  1.00  0.00     0.208 C 
ATOM     19  O   UNL     1       5.606 -30.982 -10.870  1.00  0.00    -0.337 OA
ATOM     20  C   UNL     1       4.933 -32.589 -12.522  1.00  0.00     0.180 C 
ATOM     21  C   UNL     1       6.103 -31.884 -11.836  1.00  0.00     0.179 C 
BRANCH  17  22
ATOM     22  C   UNL     1       3.588 -31.543  -9.760  1.00  0.00     0.225 C 
BRANCH  22  23
ATOM     23  O   UNL     1       2.722 -32.593 -10.089  1.00  0.00    -0.391 OA
ATOM     24  H   UNL     1       2.546 -32.515 -11.062  1.00  0.00     0.210 HD
ENDBRANCH  22  23
ENDBRANCH  17  22
BRANCH  18  25
ATOM     25  O   UNL     1       3.749 -30.714 -13.433  1.00  0.00    -0.385 OA
ATOM     26  H   UNL     1       4.618 -30.742 -13.912  1.00  0.00     0.211 HD
ENDBRANCH  18  25
BRANCH  20  27
ATOM     27  O   UNL     1       4.615 -33.800 -11.880  1.00  0.00    -0.387 OA
ATOM     28  H   UNL     1       5.333 -34.443 -12.117  1.00  0.00     0.211 HD
ENDBRANCH  20  27
BRANCH  21  29
ATOM     29  C   UNL     1       7.118 -32.836 -11.186  1.00  0.00     0.191 C 
BRANCH  29  30
ATOM     30  O   UNL     1       6.639 -33.317  -9.959  1.00  0.00    -0.394 OA
ATOM     31  H   UNL     1       6.753 -32.581  -9.303  1.00  0.00     0.210 HD
ENDBRANCH  29  30
ENDBRANCH  21  29
ENDBRANCH   1  17
TORSDOF 13
ENDMDL
