MODEL 1
REMARK VINA RESULT:    -5.228      0.000      0.000
REMARK INTER + INTRA:          -5.861
REMARK INTER:                  -5.534
REMARK INTRA:                  -0.327
REMARK UNBOUND:                -0.327
REMARK SMILES CC1=C[C@H]2C(=C(C)CC[C@@H]2C(C)C)CC1
REMARK SMILES IDX 1 1 2 2 3 3 4 4 10 5 9 6 8 7 6 8 5 9 14 10 15 11 7 12 11 13
REMARK SMILES IDX 12 14 13 15
REMARK H PARENT
REMARK Flexibility Score: inf
ROOT
ATOM      1  C   UNL     1       2.394   6.247  15.293  1.00  0.00     0.039 C 
ATOM      2  C   UNL     1       1.122   5.871  14.586  1.00  0.00    -0.076 C 
ATOM      3  C   UNL     1       0.848   4.579  14.326  1.00  0.00    -0.020 C 
ATOM      4  C   UNL     1      -0.421   4.220  13.577  1.00  0.00     0.041 C 
ATOM      5  C   UNL     1      -0.521   2.687  13.267  1.00  0.00     0.003 C 
ATOM      6  C   UNL     1      -1.404   2.468  12.021  1.00  0.00     0.009 C 
ATOM      7  C   UNL     1      -0.867   3.244  10.827  1.00  0.00     0.031 C 
ATOM      8  C   UNL     1      -0.772   4.719  11.116  1.00  0.00    -0.073 C 
ATOM      9  C   UNL     1      -0.504   5.164  12.371  1.00  0.00    -0.064 C 
ATOM     10  C   UNL     1      -0.248   6.649  12.635  1.00  0.00     0.036 C 
ATOM     11  C   UNL     1       0.156   6.929  14.095  1.00  0.00     0.035 C 
ATOM     12  C   UNL     1      -0.871   5.672   9.947  1.00  0.00     0.039 C 
ENDROOT
BRANCH   5  13
ATOM     13  C   UNL     1      -1.093   1.864  14.481  1.00  0.00    -0.013 C 
ATOM     14  C   UNL     1      -2.226   2.616  15.208  1.00  0.00     0.007 C 
ATOM     15  C   UNL     1      -1.616   0.474  14.078  1.00  0.00     0.007 C 
ENDBRANCH   5  13
TORSDOF 1
ENDMDL
MODEL 2
REMARK VINA RESULT:    -5.221      1.309      3.760
REMARK INTER + INTRA:          -5.854
REMARK INTER:                  -5.555
REMARK INTRA:                  -0.299
REMARK UNBOUND:                -0.327
REMARK SMILES CC1=C[C@H]2C(=C(C)CC[C@@H]2C(C)C)CC1
REMARK SMILES IDX 1 1 2 2 3 3 4 4 10 5 9 6 8 7 6 8 5 9 14 10 15 11 7 12 11 13
REMARK SMILES IDX 12 14 13 15
REMARK H PARENT
REMARK Flexibility Score: inf
ROOT
ATOM      1  C   UNL     1      -3.257   5.501  10.029  1.00  0.00     0.039 C 
ATOM      2  C   UNL     1      -2.136   4.924  10.847  1.00  0.00    -0.076 C 
ATOM      3  C   UNL     1      -2.388   3.976  11.769  1.00  0.00    -0.020 C 
ATOM      4  C   UNL     1      -1.251   3.433  12.613  1.00  0.00     0.041 C 
ATOM      5  C   UNL     1      -1.745   2.422  13.704  1.00  0.00     0.003 C 
ATOM      6  C   UNL     1      -0.752   2.410  14.885  1.00  0.00     0.009 C 
ATOM      7  C   UNL     1      -0.571   3.807  15.461  1.00  0.00     0.031 C 
ATOM      8  C   UNL     1      -0.093   4.783  14.419  1.00  0.00    -0.073 C 
ATOM      9  C   UNL     1      -0.459   4.645  13.119  1.00  0.00    -0.064 C 
ATOM     10  C   UNL     1      -0.109   5.722  12.090  1.00  0.00     0.036 C 
ATOM     11  C   UNL     1      -0.718   5.436  10.704  1.00  0.00     0.035 C 
ATOM     12  C   UNL     1       0.707   5.977  14.890  1.00  0.00     0.039 C 
ENDROOT
BRANCH   5  13
ATOM     13  C   UNL     1      -1.920   0.964  13.137  1.00  0.00    -0.013 C 
ATOM     14  C   UNL     1      -0.987   0.692  11.940  1.00  0.00     0.007 C 
ATOM     15  C   UNL     1      -1.685  -0.130  14.193  1.00  0.00     0.007 C 
ENDBRANCH   5  13
TORSDOF 1
ENDMDL
MODEL 3
REMARK VINA RESULT:    -5.201     12.237     14.160
REMARK INTER + INTRA:          -5.833
REMARK INTER:                  -5.544
REMARK INTRA:                  -0.288
REMARK UNBOUND:                -0.327
REMARK SMILES CC1=C[C@H]2C(=C(C)CC[C@@H]2C(C)C)CC1
REMARK SMILES IDX 1 1 2 2 3 3 4 4 10 5 9 6 8 7 6 8 5 9 14 10 15 11 7 12 11 13
REMARK SMILES IDX 12 14 13 15
REMARK H PARENT
REMARK Flexibility Score: inf
ROOT
ATOM      1  C   UNL     1       3.359 -10.086  12.137  1.00  0.00     0.039 C 
ATOM      2  C   UNL     1       1.952  -9.579  11.992  1.00  0.00    -0.076 C 
ATOM      3  C   UNL     1       1.032  -9.853  12.938  1.00  0.00    -0.020 C 
ATOM      4  C   UNL     1      -0.394  -9.367  12.757  1.00  0.00     0.041 C 
ATOM      5  C   UNL     1      -1.346  -9.869  13.894  1.00  0.00     0.003 C 
ATOM      6  C   UNL     1      -2.795  -9.927  13.367  1.00  0.00     0.009 C 
ATOM      7  C   UNL     1      -2.892 -10.809  12.131  1.00  0.00     0.031 C 
ATOM      8  C   UNL     1      -1.982 -10.329  11.031  1.00  0.00    -0.073 C 
ATOM      9  C   UNL     1      -0.802  -9.722  11.321  1.00  0.00    -0.064 C 
ATOM     10  C   UNL     1       0.196  -9.381  10.212  1.00  0.00     0.036 C 
ATOM     11  C   UNL     1       1.518  -8.812  10.761  1.00  0.00     0.035 C 
ATOM     12  C   UNL     1      -2.372 -10.650   9.605  1.00  0.00     0.039 C 
ENDROOT
BRANCH   5  13
ATOM     13  C   UNL     1      -1.279  -8.961  15.179  1.00  0.00    -0.013 C 
ATOM     14  C   UNL     1      -1.725  -7.514  14.889  1.00  0.00     0.007 C 
ATOM     15  C   UNL     1      -2.121  -9.502  16.348  1.00  0.00     0.007 C 
ENDBRANCH   5  13
TORSDOF 1
ENDMDL
MODEL 4
REMARK VINA RESULT:    -5.141     12.664     14.736
REMARK INTER + INTRA:          -5.768
REMARK INTER:                  -5.492
REMARK INTRA:                  -0.276
REMARK UNBOUND:                -0.327
REMARK SMILES CC1=C[C@H]2C(=C(C)CC[C@@H]2C(C)C)CC1
REMARK SMILES IDX 1 1 2 2 3 3 4 4 10 5 9 6 8 7 6 8 5 9 14 10 15 11 7 12 11 13
REMARK SMILES IDX 12 14 13 15
REMARK H PARENT
REMARK Flexibility Score: inf
ROOT
ATOM      1  C   UNL     1      -1.881  -7.949  14.821  1.00  0.00     0.039 C 
ATOM      2  C   UNL     1      -1.823  -9.075  13.828  1.00  0.00    -0.076 C 
ATOM      3  C   UNL     1      -1.050  -8.971  12.730  1.00  0.00    -0.020 C 
ATOM      4  C   UNL     1      -1.034 -10.100  11.717  1.00  0.00     0.041 C 
ATOM      5  C   UNL     1      -0.169  -9.760  10.455  1.00  0.00     0.003 C 
ATOM      6  C   UNL     1      -0.678 -10.571   9.246  1.00  0.00     0.009 C 
ATOM      7  C   UNL     1      -2.155 -10.308   8.994  1.00  0.00     0.031 C 
ATOM      8  C   UNL     1      -2.994 -10.636  10.201  1.00  0.00    -0.073 C 
ATOM      9  C   UNL     1      -2.497 -10.479  11.456  1.00  0.00    -0.064 C 
ATOM     10  C   UNL     1      -3.396 -10.656  12.681  1.00  0.00     0.036 C 
ATOM     11  C   UNL     1      -2.674 -10.316  13.998  1.00  0.00     0.035 C 
ATOM     12  C   UNL     1      -4.435 -11.033   9.970  1.00  0.00     0.039 C 
ENDROOT
BRANCH   5  13
ATOM     13  C   UNL     1       1.363 -10.043  10.683  1.00  0.00    -0.013 C 
ATOM     14  C   UNL     1       2.133  -8.771  11.091  1.00  0.00     0.007 C 
ATOM     15  C   UNL     1       1.628 -11.129  11.740  1.00  0.00     0.007 C 
ENDBRANCH   5  13
TORSDOF 1
ENDMDL
MODEL 5
REMARK VINA RESULT:    -5.123      1.605      4.747
REMARK INTER + INTRA:          -5.749
REMARK INTER:                  -5.424
REMARK INTRA:                  -0.325
REMARK UNBOUND:                -0.327
REMARK SMILES CC1=C[C@H]2C(=C(C)CC[C@@H]2C(C)C)CC1
REMARK SMILES IDX 1 1 2 2 3 3 4 4 10 5 9 6 8 7 6 8 5 9 14 10 15 11 7 12 11 13
REMARK SMILES IDX 12 14 13 15
REMARK H PARENT
REMARK Flexibility Score: inf
ROOT
ATOM      1  C   UNL     1      -1.030   0.211  11.841  1.00  0.00     0.039 C 
ATOM      2  C   UNL     1      -1.173   1.614  12.361  1.00  0.00    -0.076 C 
ATOM      3  C   UNL     1      -1.348   2.639  11.505  1.00  0.00    -0.020 C 
ATOM      4  C   UNL     1      -1.450   4.053  12.044  1.00  0.00     0.041 C 
ATOM      5  C   UNL     1      -1.539   5.124  10.903  1.00  0.00     0.003 C 
ATOM      6  C   UNL     1      -1.001   6.474  11.419  1.00  0.00     0.009 C 
ATOM      7  C   UNL     1       0.423   6.333  11.939  1.00  0.00     0.031 C 
ATOM      8  C   UNL     1       0.515   5.308  13.039  1.00  0.00    -0.073 C 
ATOM      9  C   UNL     1      -0.306   4.226  13.051  1.00  0.00    -0.064 C 
ATOM     10  C   UNL     1      -0.106   3.105  14.072  1.00  0.00     0.036 C 
ATOM     11  C   UNL     1      -1.059   1.917  13.840  1.00  0.00     0.035 C 
ATOM     12  C   UNL     1       1.623   5.467  14.056  1.00  0.00     0.039 C 
ENDROOT
BRANCH   5  13
ATOM     13  C   UNL     1      -3.006   5.304  10.362  1.00  0.00    -0.013 C 
ATOM     14  C   UNL     1      -4.059   5.155  11.478  1.00  0.00     0.007 C 
ATOM     15  C   UNL     1      -3.232   6.654   9.660  1.00  0.00     0.007 C 
ENDBRANCH   5  13
TORSDOF 1
ENDMDL
MODEL 6
REMARK VINA RESULT:    -5.102     13.608     14.628
REMARK INTER + INTRA:          -5.728
REMARK INTER:                  -5.412
REMARK INTRA:                  -0.316
REMARK UNBOUND:                -0.327
REMARK SMILES CC1=C[C@H]2C(=C(C)CC[C@@H]2C(C)C)CC1
REMARK SMILES IDX 1 1 2 2 3 3 4 4 10 5 9 6 8 7 6 8 5 9 14 10 15 11 7 12 11 13
REMARK SMILES IDX 12 14 13 15
REMARK H PARENT
REMARK Flexibility Score: inf
ROOT
ATOM      1  C   UNL     1       4.259  -8.365  11.496  1.00  0.00     0.039 C 
ATOM      2  C   UNL     1       3.088  -9.246  11.829  1.00  0.00    -0.076 C 
ATOM      3  C   UNL     1       1.900  -9.049  11.227  1.00  0.00    -0.020 C 
ATOM      4  C   UNL     1       0.717  -9.921  11.603  1.00  0.00     0.041 C 
ATOM      5  C   UNL     1      -0.605  -9.479  10.887  1.00  0.00     0.003 C 
ATOM      6  C   UNL     1      -1.820  -9.912  11.733  1.00  0.00     0.009 C 
ATOM      7  C   UNL     1      -1.734  -9.345  13.143  1.00  0.00     0.031 C 
ATOM      8  C   UNL     1      -0.468  -9.769  13.839  1.00  0.00    -0.073 C 
ATOM      9  C   UNL     1       0.676  -9.973  13.135  1.00  0.00    -0.064 C 
ATOM     10  C   UNL     1       1.999 -10.244  13.855  1.00  0.00     0.036 C 
ATOM     11  C   UNL     1       3.194 -10.325  12.886  1.00  0.00     0.035 C 
ATOM     12  C   UNL     1      -0.487  -9.846  15.349  1.00  0.00     0.039 C 
ENDROOT
BRANCH   5  13
ATOM     13  C   UNL     1      -0.727 -10.070   9.433  1.00  0.00    -0.013 C 
ATOM     14  C   UNL     1      -0.041 -11.445   9.306  1.00  0.00     0.007 C 
ATOM     15  C   UNL     1      -2.183 -10.210   8.956  1.00  0.00     0.007 C 
ENDBRANCH   5  13
TORSDOF 1
ENDMDL
MODEL 7
REMARK VINA RESULT:    -5.040      1.879      3.531
REMARK INTER + INTRA:          -5.662
REMARK INTER:                  -5.456
REMARK INTRA:                  -0.206
REMARK UNBOUND:                -0.327
REMARK SMILES CC1=C[C@H]2C(=C(C)CC[C@@H]2C(C)C)CC1
REMARK SMILES IDX 1 1 2 2 3 3 4 4 10 5 9 6 8 7 6 8 5 9 14 10 15 11 7 12 11 13
REMARK SMILES IDX 12 14 13 15
REMARK H PARENT
REMARK Flexibility Score: inf
ROOT
ATOM      1  C   UNL     1      -4.965   5.414  12.205  1.00  0.00     0.039 C 
ATOM      2  C   UNL     1      -3.537   4.960  12.080  1.00  0.00    -0.076 C 
ATOM      3  C   UNL     1      -2.963   4.251  13.070  1.00  0.00    -0.020 C 
ATOM      4  C   UNL     1      -1.509   3.835  12.946  1.00  0.00     0.041 C 
ATOM      5  C   UNL     1      -0.979   3.116  14.233  1.00  0.00     0.003 C 
ATOM      6  C   UNL     1       0.549   3.299  14.336  1.00  0.00     0.009 C 
ATOM      7  C   UNL     1       0.924   4.774  14.328  1.00  0.00     0.031 C 
ATOM      8  C   UNL     1       0.422   5.471  13.091  1.00  0.00    -0.073 C 
ATOM      9  C   UNL     1      -0.732   5.078  12.493  1.00  0.00    -0.064 C 
ATOM     10  C   UNL     1      -1.327   5.884  11.336  1.00  0.00     0.036 C 
ATOM     11  C   UNL     1      -2.695   5.342  10.881  1.00  0.00     0.035 C 
ATOM     12  C   UNL     1       1.182   6.688  12.612  1.00  0.00     0.039 C 
ENDROOT
BRANCH   5  13
ATOM     13  C   UNL     1      -1.338   1.583  14.256  1.00  0.00    -0.013 C 
ATOM     14  C   UNL     1      -2.766   1.330  14.778  1.00  0.00     0.007 C 
ATOM     15  C   UNL     1      -1.198   0.908  12.880  1.00  0.00     0.007 C 
ENDBRANCH   5  13
TORSDOF 1
ENDMDL
MODEL 8
REMARK VINA RESULT:    -4.916      2.340      3.913
REMARK INTER + INTRA:          -5.531
REMARK INTER:                  -5.207
REMARK INTRA:                  -0.324
REMARK UNBOUND:                -0.327
REMARK SMILES CC1=C[C@H]2C(=C(C)CC[C@@H]2C(C)C)CC1
REMARK SMILES IDX 1 1 2 2 3 3 4 4 10 5 9 6 8 7 6 8 5 9 14 10 15 11 7 12 11 13
REMARK SMILES IDX 12 14 13 15
REMARK H PARENT
REMARK Flexibility Score: inf
ROOT
ATOM      1  C   UNL     1      -1.295   2.238  15.228  1.00  0.00     0.039 C 
ATOM      2  C   UNL     1      -1.497   3.585  14.594  1.00  0.00    -0.076 C 
ATOM      3  C   UNL     1      -2.137   3.689  13.414  1.00  0.00    -0.020 C 
ATOM      4  C   UNL     1      -2.298   5.052  12.768  1.00  0.00     0.041 C 
ATOM      5  C   UNL     1      -2.965   4.969  11.352  1.00  0.00     0.003 C 
ATOM      6  C   UNL     1      -2.532   6.184  10.505  1.00  0.00     0.009 C 
ATOM      7  C   UNL     1      -1.016   6.265  10.401  1.00  0.00     0.031 C 
ATOM      8  C   UNL     1      -0.367   6.349  11.758  1.00  0.00    -0.073 C 
ATOM      9  C   UNL     1      -0.926   5.737  12.834  1.00  0.00    -0.064 C 
ATOM     10  C   UNL     1      -0.189   5.684  14.174  1.00  0.00     0.036 C 
ATOM     11  C   UNL     1      -0.936   4.842  15.226  1.00  0.00     0.035 C 
ATOM     12  C   UNL     1       0.977   7.036  11.854  1.00  0.00     0.039 C 
ENDROOT
BRANCH   5  13
ATOM     13  C   UNL     1      -4.536   4.904  11.432  1.00  0.00    -0.013 C 
ATOM     14  C   UNL     1      -5.103   5.875  12.486  1.00  0.00     0.007 C 
ATOM     15  C   UNL     1      -5.223   5.195  10.086  1.00  0.00     0.007 C 
ENDBRANCH   5  13
TORSDOF 1
ENDMDL
MODEL 9
REMARK VINA RESULT:    -4.799      1.495      4.490
REMARK INTER + INTRA:          -5.407
REMARK INTER:                  -5.150
REMARK INTRA:                  -0.257
REMARK UNBOUND:                -0.327
REMARK SMILES CC1=C[C@H]2C(=C(C)CC[C@@H]2C(C)C)CC1
REMARK SMILES IDX 1 1 2 2 3 3 4 4 10 5 9 6 8 7 6 8 5 9 14 10 15 11 7 12 11 13
REMARK SMILES IDX 12 14 13 15
REMARK H PARENT
REMARK Flexibility Score: inf
ROOT
ATOM      1  C   UNL     1      -0.992   0.422  13.058  1.00  0.00     0.039 C 
ATOM      2  C   UNL     1      -0.898   1.710  12.290  1.00  0.00    -0.076 C 
ATOM      3  C   UNL     1      -0.655   2.867  12.935  1.00  0.00    -0.020 C 
ATOM      4  C   UNL     1      -0.602   4.164  12.149  1.00  0.00     0.041 C 
ATOM      5  C   UNL     1      -0.420   5.417  13.073  1.00  0.00     0.003 C 
ATOM      6  C   UNL     1      -1.004   6.663  12.376  1.00  0.00     0.009 C 
ATOM      7  C   UNL     1      -2.466   6.449  12.011  1.00  0.00     0.031 C 
ATOM      8  C   UNL     1      -2.649   5.249  11.119  1.00  0.00    -0.073 C 
ATOM      9  C   UNL     1      -1.829   4.172  11.228  1.00  0.00    -0.064 C 
ATOM     10  C   UNL     1      -2.112   2.892  10.440  1.00  0.00     0.036 C 
ATOM     11  C   UNL     1      -1.138   1.751  10.796  1.00  0.00     0.035 C 
ATOM     12  C   UNL     1      -3.840   5.241  10.187  1.00  0.00     0.039 C 
ENDROOT
BRANCH   5  13
ATOM     13  C   UNL     1       1.088   5.671  13.449  1.00  0.00    -0.013 C 
ATOM     14  C   UNL     1       1.655   6.923  12.753  1.00  0.00     0.007 C 
ATOM     15  C   UNL     1       1.319   5.812  14.964  1.00  0.00     0.007 C 
ENDBRANCH   5  13
TORSDOF 1
ENDMDL
