MODEL 1
REMARK VINA RESULT:    -1.101      0.000      0.000
REMARK INTER + INTRA:          -1.241
REMARK INTER:                  -1.359
REMARK INTRA:                   0.118
REMARK UNBOUND:                 0.118
REMARK SMILES O=c1c(O)c(-c2cc(O)c(O)c(O)c2)oc2cc(O)cc(O)c12
REMARK SMILES IDX 5 1 3 2 2 3 1 4 23 5 21 6 20 7 18 8 17 9 16 10 15 11 6 12
REMARK SMILES IDX 7 13 8 14 14 15 10 16 12 17 9 18 11 20 13 22 4 24 22 26
REMARK SMILES IDX 19 28
REMARK H PARENT 9 19 11 21 13 23 4 25 22 27 19 29
REMARK Flexibility Score: inf
ROOT
ATOM      1  C   UNL     1     -11.766 -15.878  31.227  1.00  0.00     0.180 A 
ATOM      2  C   UNL     1     -10.807 -16.883  31.001  1.00  0.00     0.208 A 
ATOM      3  C   UNL     1     -10.697 -17.441  29.718  1.00  0.00     0.238 A 
ATOM      4  O   UNL     1      -9.875 -18.377  29.535  1.00  0.00    -0.285 OA
ATOM      5  C   UNL     1     -11.532 -16.979  28.673  1.00  0.00     0.111 A 
ATOM      6  C   UNL     1     -11.479 -17.445  27.325  1.00  0.00     0.134 A 
ATOM      7  C   UNL     1     -12.441 -17.011  26.404  1.00  0.00     0.093 A 
ATOM      8  C   UNL     1     -13.415 -16.078  26.768  1.00  0.00     0.123 A 
ATOM      9  C   UNL     1     -13.439 -15.572  28.066  1.00  0.00     0.094 A 
ATOM     10  C   UNL     1     -12.514 -16.013  29.015  1.00  0.00     0.146 A 
ATOM     11  O   UNL     1     -12.580 -15.513  30.243  1.00  0.00    -0.452 OA
ENDROOT
BRANCH   1  12
ATOM     12  C   UNL     1     -11.925 -15.225  32.546  1.00  0.00     0.029 A 
ATOM     13  C   UNL     1     -10.816 -14.934  33.356  1.00  0.00     0.062 A 
ATOM     14  C   UNL     1     -10.984 -14.293  34.592  1.00  0.00     0.162 A 
ATOM     15  C   UNL     1     -13.204 -14.834  32.973  1.00  0.00     0.062 A 
ATOM     16  C   UNL     1     -12.270 -13.926  35.021  1.00  0.00     0.200 A 
ATOM     17  C   UNL     1     -13.382 -14.196  34.204  1.00  0.00     0.162 A 
BRANCH  14  18
ATOM     18  O   UNL     1      -9.875 -14.015  35.391  1.00  0.00    -0.504 OA
ATOM     19  H   UNL     1      -9.974 -13.607  36.313  1.00  0.00     0.293 HD
ENDBRANCH  14  18
BRANCH  16  20
ATOM     20  O   UNL     1     -12.457 -13.291  36.251  1.00  0.00    -0.502 OA
ATOM     21  H   UNL     1     -11.743 -13.286  36.969  1.00  0.00     0.293 HD
ENDBRANCH  16  20
BRANCH  17  22
ATOM     22  O   UNL     1     -14.670 -13.837  34.599  1.00  0.00    -0.504 OA
ATOM     23  H   UNL     1     -15.016 -12.890  34.512  1.00  0.00     0.293 HD
ENDBRANCH  17  22
ENDBRANCH   1  12
BRANCH   2  24
ATOM     24  O   UNL     1     -10.007 -17.339  32.052  1.00  0.00    -0.502 OA
ATOM     25  H   UNL     1      -9.134 -17.828  31.897  1.00  0.00     0.293 HD
ENDBRANCH   2  24
BRANCH   6  26
ATOM     26  O   UNL     1     -10.492 -18.306  26.837  1.00  0.00    -0.507 OA
ATOM     27  H   UNL     1      -9.561 -18.022  26.569  1.00  0.00     0.293 HD
ENDBRANCH   6  26
BRANCH   8  28
ATOM     28  O   UNL     1     -14.359 -15.639  25.842  1.00  0.00    -0.508 OA
ATOM     29  H   UNL     1     -14.933 -14.822  26.017  1.00  0.00     0.293 HD
ENDBRANCH   8  28
TORSDOF 7
ENDMDL
MODEL 2
REMARK VINA RESULT:    -0.764      0.140      1.755
REMARK INTER + INTRA:          -0.825
REMARK INTER:                  -1.113
REMARK INTRA:                   0.288
REMARK UNBOUND:                 0.118
REMARK SMILES O=c1c(O)c(-c2cc(O)c(O)c(O)c2)oc2cc(O)cc(O)c12
REMARK SMILES IDX 5 1 3 2 2 3 1 4 23 5 21 6 20 7 18 8 17 9 16 10 15 11 6 12
REMARK SMILES IDX 7 13 8 14 14 15 10 16 12 17 9 18 11 20 13 22 4 24 22 26
REMARK SMILES IDX 19 28
REMARK H PARENT 9 19 11 21 13 23 4 25 22 27 19 29
REMARK Flexibility Score: inf
ROOT
ATOM      1  C   UNL     1     -11.782 -15.814  31.291  1.00  0.00     0.180 A 
ATOM      2  C   UNL     1     -10.824 -16.825  31.093  1.00  0.00     0.208 A 
ATOM      3  C   UNL     1     -10.701 -17.406  29.821  1.00  0.00     0.238 A 
ATOM      4  O   UNL     1      -9.881 -18.347  29.664  1.00  0.00    -0.285 OA
ATOM      5  C   UNL     1     -11.524 -16.959  28.759  1.00  0.00     0.111 A 
ATOM      6  C   UNL     1     -11.457 -17.448  27.420  1.00  0.00     0.134 A 
ATOM      7  C   UNL     1     -12.407 -17.027  26.481  1.00  0.00     0.093 A 
ATOM      8  C   UNL     1     -13.382 -16.085  26.818  1.00  0.00     0.123 A 
ATOM      9  C   UNL     1     -13.418 -15.557  28.107  1.00  0.00     0.094 A 
ATOM     10  C   UNL     1     -12.506 -15.984  29.074  1.00  0.00     0.146 A 
ATOM     11  O   UNL     1     -12.583 -15.463  30.292  1.00  0.00    -0.452 OA
ENDROOT
BRANCH   1  12
ATOM     12  C   UNL     1     -11.954 -15.137  32.597  1.00  0.00     0.029 A 
ATOM     13  C   UNL     1     -13.208 -14.662  33.014  1.00  0.00     0.062 A 
ATOM     14  C   UNL     1     -13.357 -14.046  34.264  1.00  0.00     0.162 A 
ATOM     15  C   UNL     1     -10.856 -15.019  33.463  1.00  0.00     0.062 A 
ATOM     16  C   UNL     1     -12.246 -13.912  35.116  1.00  0.00     0.200 A 
ATOM     17  C   UNL     1     -10.994 -14.405  34.711  1.00  0.00     0.162 A 
BRANCH  14  18
ATOM     18  O   UNL     1     -14.605 -13.571  34.665  1.00  0.00    -0.504 OA
ATOM     19  H   UNL     1     -14.711 -12.976  35.478  1.00  0.00     0.293 HD
ENDBRANCH  14  18
BRANCH  16  20
ATOM     20  O   UNL     1     -12.375 -13.296  36.362  1.00  0.00    -0.502 OA
ATOM     21  H   UNL     1     -13.219 -13.371  36.916  1.00  0.00     0.293 HD
ENDBRANCH  16  20
BRANCH  17  22
ATOM     22  O   UNL     1      -9.875 -14.294  35.537  1.00  0.00    -0.504 OA
ATOM     23  H   UNL     1      -8.962 -14.048  35.177  1.00  0.00     0.293 HD
ENDBRANCH  17  22
ENDBRANCH   1  12
BRANCH   2  24
ATOM     24  O   UNL     1     -10.038 -17.267  32.160  1.00  0.00    -0.502 OA
ATOM     25  H   UNL     1     -10.216 -16.989  33.118  1.00  0.00     0.293 HD
ENDBRANCH   2  24
BRANCH   6  26
ATOM     26  O   UNL     1     -10.467 -18.321  26.958  1.00  0.00    -0.507 OA
ATOM     27  H   UNL     1     -10.565 -19.324  26.903  1.00  0.00     0.293 HD
ENDBRANCH   6  26
BRANCH   8  28
ATOM     28  O   UNL     1     -14.314 -15.659  25.874  1.00  0.00    -0.508 OA
ATOM     29  H   UNL     1     -14.644 -14.700  25.850  1.00  0.00     0.293 HD
ENDBRANCH   8  28
TORSDOF 7
ENDMDL
MODEL 3
REMARK VINA RESULT:    -0.165      1.793      2.040
REMARK INTER + INTRA:          -0.086
REMARK INTER:                  -0.049
REMARK INTRA:                  -0.037
REMARK UNBOUND:                 0.118
REMARK SMILES O=c1c(O)c(-c2cc(O)c(O)c(O)c2)oc2cc(O)cc(O)c12
REMARK SMILES IDX 5 1 3 2 2 3 1 4 23 5 21 6 20 7 18 8 17 9 16 10 15 11 6 12
REMARK SMILES IDX 7 13 8 14 14 15 10 16 12 17 9 18 11 20 13 22 4 24 22 26
REMARK SMILES IDX 19 28
REMARK H PARENT 9 19 11 21 13 23 4 25 22 27 19 29
REMARK Flexibility Score: inf
ROOT
ATOM      1  C   UNL     1     -11.818 -16.026  31.299  1.00  0.00     0.180 A 
ATOM      2  C   UNL     1     -10.836 -15.693  30.349  1.00  0.00     0.208 A 
ATOM      3  C   UNL     1     -10.790 -16.406  29.141  1.00  0.00     0.238 A 
ATOM      4  O   UNL     1      -9.875 -16.141  28.318  1.00  0.00    -0.285 OA
ATOM      5  C   UNL     1     -11.734 -17.431  28.890  1.00  0.00     0.111 A 
ATOM      6  C   UNL     1     -11.805 -18.190  27.684  1.00  0.00     0.134 A 
ATOM      7  C   UNL     1     -12.697 -19.267  27.596  1.00  0.00     0.093 A 
ATOM      8  C   UNL     1     -13.565 -19.569  28.648  1.00  0.00     0.123 A 
ATOM      9  C   UNL     1     -13.544 -18.797  29.807  1.00  0.00     0.094 A 
ATOM     10  C   UNL     1     -12.641 -17.739  29.937  1.00  0.00     0.146 A 
ATOM     11  O   UNL     1     -12.648 -17.035  31.062  1.00  0.00    -0.452 OA
ENDROOT
BRANCH   1  12
ATOM     12  C   UNL     1     -11.945 -15.303  32.586  1.00  0.00     0.029 A 
ATOM     13  C   UNL     1     -10.842 -15.128  33.437  1.00  0.00     0.062 A 
ATOM     14  C   UNL     1     -10.975 -14.420  34.640  1.00  0.00     0.162 A 
ATOM     15  C   UNL     1     -13.177 -14.730  32.937  1.00  0.00     0.062 A 
ATOM     16  C   UNL     1     -12.219 -13.868  34.994  1.00  0.00     0.200 A 
ATOM     17  C   UNL     1     -13.320 -14.023  34.135  1.00  0.00     0.162 A 
BRANCH  14  18
ATOM     18  O   UNL     1      -9.875 -14.258  35.481  1.00  0.00    -0.504 OA
ATOM     19  H   UNL     1      -9.584 -13.344  35.806  1.00  0.00     0.293 HD
ENDBRANCH  14  18
BRANCH  16  20
ATOM     20  O   UNL     1     -12.371 -13.165  36.191  1.00  0.00    -0.502 OA
ATOM     21  H   UNL     1     -12.703 -12.209  36.216  1.00  0.00     0.293 HD
ENDBRANCH  16  20
BRANCH  17  22
ATOM     22  O   UNL     1     -14.565 -13.481  34.454  1.00  0.00    -0.504 OA
ATOM     23  H   UNL     1     -14.787 -13.153  35.386  1.00  0.00     0.293 HD
ENDBRANCH  17  22
ENDBRANCH   1  12
BRANCH   2  24
ATOM     24  O   UNL     1      -9.900 -14.693  30.626  1.00  0.00    -0.502 OA
ATOM     25  H   UNL     1      -8.999 -14.893  31.043  1.00  0.00     0.293 HD
ENDBRANCH   2  24
BRANCH   6  26
ATOM     26  O   UNL     1     -11.048 -17.913  26.542  1.00  0.00    -0.507 OA
ATOM     27  H   UNL     1     -10.215 -17.344  26.528  1.00  0.00     0.293 HD
ENDBRANCH   6  26
BRANCH   8  28
ATOM     28  O   UNL     1     -14.460 -20.633  28.547  1.00  0.00    -0.508 OA
ATOM     29  H   UNL     1     -14.151 -21.562  28.285  1.00  0.00     0.293 HD
ENDBRANCH   8  28
TORSDOF 7
ENDMDL
MODEL 4
REMARK VINA RESULT:     0.041      1.811      2.687
REMARK INTER + INTRA:           0.169
REMARK INTER:                   0.224
REMARK INTRA:                  -0.055
REMARK UNBOUND:                 0.118
REMARK SMILES O=c1c(O)c(-c2cc(O)c(O)c(O)c2)oc2cc(O)cc(O)c12
REMARK SMILES IDX 5 1 3 2 2 3 1 4 23 5 21 6 20 7 18 8 17 9 16 10 15 11 6 12
REMARK SMILES IDX 7 13 8 14 14 15 10 16 12 17 9 18 11 20 13 22 4 24 22 26
REMARK SMILES IDX 19 28
REMARK H PARENT 9 19 11 21 13 23 4 25 22 27 19 29
REMARK Flexibility Score: inf
ROOT
ATOM      1  C   UNL     1     -11.859 -15.997  31.280  1.00  0.00     0.180 A 
ATOM      2  C   UNL     1     -10.862 -15.699  30.333  1.00  0.00     0.208 A 
ATOM      3  C   UNL     1     -10.813 -16.440  29.142  1.00  0.00     0.238 A 
ATOM      4  O   UNL     1      -9.886 -16.206  28.324  1.00  0.00    -0.285 OA
ATOM      5  C   UNL     1     -11.769 -17.457  28.903  1.00  0.00     0.111 A 
ATOM      6  C   UNL     1     -11.837 -18.242  27.714  1.00  0.00     0.134 A 
ATOM      7  C   UNL     1     -12.742 -19.309  27.641  1.00  0.00     0.093 A 
ATOM      8  C   UNL     1     -13.626 -19.575  28.689  1.00  0.00     0.123 A 
ATOM      9  C   UNL     1     -13.607 -18.777  29.831  1.00  0.00     0.094 A 
ATOM     10  C   UNL     1     -12.691 -17.729  29.947  1.00  0.00     0.146 A 
ATOM     11  O   UNL     1     -12.700 -17.000  31.056  1.00  0.00    -0.452 OA
ENDROOT
BRANCH   1  12
ATOM     12  C   UNL     1     -11.990 -15.243  32.548  1.00  0.00     0.029 A 
ATOM     13  C   UNL     1     -13.210 -14.659  32.928  1.00  0.00     0.062 A 
ATOM     14  C   UNL     1     -13.322 -13.971  34.144  1.00  0.00     0.162 A 
ATOM     15  C   UNL     1     -10.892 -15.159  33.418  1.00  0.00     0.062 A 
ATOM     16  C   UNL     1     -12.210 -13.872  34.998  1.00  0.00     0.200 A 
ATOM     17  C   UNL     1     -10.994 -14.473  34.631  1.00  0.00     0.162 A 
BRANCH  14  18
ATOM     18  O   UNL     1     -14.535 -13.389  34.508  1.00  0.00    -0.504 OA
ATOM     19  H   UNL     1     -14.723 -13.103  35.462  1.00  0.00     0.293 HD
ENDBRANCH  14  18
BRANCH  16  20
ATOM     20  O   UNL     1     -12.302 -13.185  36.211  1.00  0.00    -0.502 OA
ATOM     21  H   UNL     1     -11.652 -13.343  36.971  1.00  0.00     0.293 HD
ENDBRANCH  16  20
BRANCH  17  22
ATOM     22  O   UNL     1      -9.875 -14.400  35.461  1.00  0.00    -0.504 OA
ATOM     23  H   UNL     1      -9.590 -15.172  36.051  1.00  0.00     0.293 HD
ENDBRANCH  17  22
ENDBRANCH   1  12
BRANCH   2  24
ATOM     24  O   UNL     1      -9.916 -14.706  30.599  1.00  0.00    -0.502 OA
ATOM     25  H   UNL     1     -10.129 -13.886  31.151  1.00  0.00     0.293 HD
ENDBRANCH   2  24
BRANCH   6  26
ATOM     26  O   UNL     1     -11.063 -18.001  26.575  1.00  0.00    -0.507 OA
ATOM     27  H   UNL     1     -11.086 -18.561  25.735  1.00  0.00     0.293 HD
ENDBRANCH   6  26
BRANCH   8  28
ATOM     28  O   UNL     1     -14.534 -20.628  28.602  1.00  0.00    -0.508 OA
ATOM     29  H   UNL     1     -15.244 -20.775  29.311  1.00  0.00     0.293 HD
ENDBRANCH   8  28
TORSDOF 7
ENDMDL
MODEL 5
REMARK VINA RESULT:     0.814      1.890      7.077
REMARK INTER + INTRA:           1.122
REMARK INTER:                   1.171
REMARK INTRA:                  -0.050
REMARK UNBOUND:                 0.118
REMARK SMILES O=c1c(O)c(-c2cc(O)c(O)c(O)c2)oc2cc(O)cc(O)c12
REMARK SMILES IDX 5 1 3 2 2 3 1 4 23 5 21 6 20 7 18 8 17 9 16 10 15 11 6 12
REMARK SMILES IDX 7 13 8 14 14 15 10 16 12 17 9 18 11 20 13 22 4 24 22 26
REMARK SMILES IDX 19 28
REMARK H PARENT 9 19 11 21 13 23 4 25 22 27 19 29
REMARK Flexibility Score: inf
ROOT
ATOM      1  C   UNL     1     -10.916 -16.741  30.956  1.00  0.00     0.180 A 
ATOM      2  C   UNL     1     -10.638 -17.897  31.708  1.00  0.00     0.208 A 
ATOM      3  C   UNL     1     -10.311 -17.763  33.066  1.00  0.00     0.238 A 
ATOM      4  O   UNL     1     -10.010 -18.795  33.720  1.00  0.00    -0.285 OA
ATOM      5  C   UNL     1     -10.283 -16.479  33.662  1.00  0.00     0.111 A 
ATOM      6  C   UNL     1     -10.005 -16.229  35.038  1.00  0.00     0.134 A 
ATOM      7  C   UNL     1      -9.875 -14.909  35.490  1.00  0.00     0.093 A 
ATOM      8  C   UNL     1     -10.079 -13.830  34.626  1.00  0.00     0.123 A 
ATOM      9  C   UNL     1     -10.409 -14.064  33.293  1.00  0.00     0.094 A 
ATOM     10  C   UNL     1     -10.510 -15.369  32.806  1.00  0.00     0.146 A 
ATOM     11  O   UNL     1     -10.817 -15.546  31.527  1.00  0.00    -0.452 OA
ENDROOT
BRANCH   1  12
ATOM     12  C   UNL     1     -11.291 -16.805  29.525  1.00  0.00     0.029 A 
ATOM     13  C   UNL     1     -12.453 -16.177  29.046  1.00  0.00     0.062 A 
ATOM     14  C   UNL     1     -12.780 -16.227  27.684  1.00  0.00     0.162 A 
ATOM     15  C   UNL     1     -10.441 -17.454  28.617  1.00  0.00     0.062 A 
ATOM     16  C   UNL     1     -11.934 -16.899  26.785  1.00  0.00     0.200 A 
ATOM     17  C   UNL     1     -10.760 -17.510  27.257  1.00  0.00     0.162 A 
BRANCH  14  18
ATOM     18  O   UNL     1     -13.939 -15.607  27.220  1.00  0.00    -0.504 OA
ATOM     19  H   UNL     1     -14.276 -15.747  26.275  1.00  0.00     0.293 HD
ENDBRANCH  14  18
BRANCH  16  20
ATOM     20  O   UNL     1     -12.246 -16.963  25.425  1.00  0.00    -0.502 OA
ATOM     21  H   UNL     1     -11.751 -17.571  24.786  1.00  0.00     0.293 HD
ENDBRANCH  16  20
BRANCH  17  22
ATOM     22  O   UNL     1      -9.896 -18.177  26.388  1.00  0.00    -0.504 OA
ATOM     23  H   UNL     1      -9.733 -19.174  26.450  1.00  0.00     0.293 HD
ENDBRANCH  17  22
ENDBRANCH   1  12
BRANCH   2  24
ATOM     24  O   UNL     1     -10.650 -19.153  31.096  1.00  0.00    -0.502 OA
ATOM     25  H   UNL     1     -11.398 -19.820  31.238  1.00  0.00     0.293 HD
ENDBRANCH   2  24
BRANCH   6  26
ATOM     26  O   UNL     1      -9.875 -17.233  36.003  1.00  0.00    -0.507 OA
ATOM     27  H   UNL     1     -10.592 -17.906  36.233  1.00  0.00     0.293 HD
ENDBRANCH   6  26
BRANCH   8  28
ATOM     28  O   UNL     1      -9.963 -12.520  35.086  1.00  0.00    -0.508 OA
ATOM     29  H   UNL     1      -9.523 -11.799  34.525  1.00  0.00     0.293 HD
ENDBRANCH   8  28
TORSDOF 7
ENDMDL
MODEL 6
REMARK VINA RESULT:     0.996      1.361      7.346
REMARK INTER + INTRA:           1.347
REMARK INTER:                   1.220
REMARK INTRA:                   0.127
REMARK UNBOUND:                 0.118
REMARK SMILES O=c1c(O)c(-c2cc(O)c(O)c(O)c2)oc2cc(O)cc(O)c12
REMARK SMILES IDX 5 1 3 2 2 3 1 4 23 5 21 6 20 7 18 8 17 9 16 10 15 11 6 12
REMARK SMILES IDX 7 13 8 14 14 15 10 16 12 17 9 18 11 20 13 22 4 24 22 26
REMARK SMILES IDX 19 28
REMARK H PARENT 9 19 11 21 13 23 4 25 22 27 19 29
REMARK Flexibility Score: inf
ROOT
ATOM      1  C   UNL     1     -12.392 -15.476  31.763  1.00  0.00     0.180 A 
ATOM      2  C   UNL     1     -13.719 -15.062  31.975  1.00  0.00     0.208 A 
ATOM      3  C   UNL     1     -14.037 -14.372  33.155  1.00  0.00     0.238 A 
ATOM      4  O   UNL     1     -15.236 -14.053  33.364  1.00  0.00    -0.285 OA
ATOM      5  C   UNL     1     -13.022 -14.089  34.102  1.00  0.00     0.111 A 
ATOM      6  C   UNL     1     -13.223 -13.362  35.312  1.00  0.00     0.134 A 
ATOM      7  C   UNL     1     -12.176 -13.254  36.237  1.00  0.00     0.093 A 
ATOM      8  C   UNL     1     -10.916 -13.792  35.962  1.00  0.00     0.123 A 
ATOM      9  C   UNL     1     -10.694 -14.453  34.756  1.00  0.00     0.094 A 
ATOM     10  C   UNL     1     -11.729 -14.608  33.831  1.00  0.00     0.146 A 
ATOM     11  O   UNL     1     -11.476 -15.253  32.699  1.00  0.00    -0.452 OA
ENDROOT
BRANCH   1  12
ATOM     12  C   UNL     1     -11.975 -16.186  30.533  1.00  0.00     0.029 A 
ATOM     13  C   UNL     1     -11.110 -17.291  30.585  1.00  0.00     0.062 A 
ATOM     14  C   UNL     1     -10.746 -17.967  29.411  1.00  0.00     0.162 A 
ATOM     15  C   UNL     1     -12.500 -15.787  29.294  1.00  0.00     0.062 A 
ATOM     16  C   UNL     1     -11.259 -17.546  28.173  1.00  0.00     0.200 A 
ATOM     17  C   UNL     1     -12.142 -16.454  28.119  1.00  0.00     0.162 A 
BRANCH  14  18
ATOM     18  O   UNL     1      -9.880 -19.058  29.474  1.00  0.00    -0.504 OA
ATOM     19  H   UNL     1     -10.084 -19.927  28.993  1.00  0.00     0.293 HD
ENDBRANCH  14  18
BRANCH  16  20
ATOM     20  O   UNL     1     -10.903 -18.204  26.993  1.00  0.00    -0.502 OA
ATOM     21  H   UNL     1     -10.052 -18.749  26.915  1.00  0.00     0.293 HD
ENDBRANCH  16  20
BRANCH  17  22
ATOM     22  O   UNL     1     -12.674 -16.017  26.905  1.00  0.00    -0.504 OA
ATOM     23  H   UNL     1     -12.569 -15.063  26.583  1.00  0.00     0.293 HD
ENDBRANCH  17  22
ENDBRANCH   1  12
BRANCH   2  24
ATOM     24  O   UNL     1     -14.709 -15.371  31.038  1.00  0.00    -0.502 OA
ATOM     25  H   UNL     1     -15.277 -16.207  31.103  1.00  0.00     0.293 HD
ENDBRANCH   2  24
BRANCH   6  26
ATOM     26  O   UNL     1     -14.414 -12.707  35.641  1.00  0.00    -0.507 OA
ATOM     27  H   UNL     1     -14.810 -11.938  35.121  1.00  0.00     0.293 HD
ENDBRANCH   6  26
BRANCH   8  28
ATOM     28  O   UNL     1      -9.875 -13.667  36.879  1.00  0.00    -0.508 OA
ATOM     29  H   UNL     1      -8.906 -13.655  36.582  1.00  0.00     0.293 HD
ENDBRANCH   8  28
TORSDOF 7
ENDMDL
MODEL 7
REMARK VINA RESULT:     1.098      2.852      4.839
REMARK INTER + INTRA:           1.472
REMARK INTER:                   1.335
REMARK INTRA:                   0.137
REMARK UNBOUND:                 0.118
REMARK SMILES O=c1c(O)c(-c2cc(O)c(O)c(O)c2)oc2cc(O)cc(O)c12
REMARK SMILES IDX 5 1 3 2 2 3 1 4 23 5 21 6 20 7 18 8 17 9 16 10 15 11 6 12
REMARK SMILES IDX 7 13 8 14 14 15 10 16 12 17 9 18 11 20 13 22 4 24 22 26
REMARK SMILES IDX 19 28
REMARK H PARENT 9 19 11 21 13 23 4 25 22 27 19 29
REMARK Flexibility Score: inf
ROOT
ATOM      1  C   UNL     1     -12.750 -16.737  29.468  1.00  0.00     0.180 A 
ATOM      2  C   UNL     1     -12.817 -17.069  28.103  1.00  0.00     0.208 A 
ATOM      3  C   UNL     1     -13.471 -16.195  27.221  1.00  0.00     0.238 A 
ATOM      4  O   UNL     1     -13.574 -16.524  26.011  1.00  0.00    -0.285 OA
ATOM      5  C   UNL     1     -14.036 -14.992  27.710  1.00  0.00     0.111 A 
ATOM      6  C   UNL     1     -14.686 -14.014  26.900  1.00  0.00     0.134 A 
ATOM      7  C   UNL     1     -15.323 -12.925  27.508  1.00  0.00     0.093 A 
ATOM      8  C   UNL     1     -15.276 -12.745  28.892  1.00  0.00     0.123 A 
ATOM      9  C   UNL     1     -14.593 -13.664  29.686  1.00  0.00     0.094 A 
ATOM     10  C   UNL     1     -13.978 -14.779  29.111  1.00  0.00     0.146 A 
ATOM     11  O   UNL     1     -13.347 -15.634  29.906  1.00  0.00    -0.452 OA
ENDROOT
BRANCH   1  12
ATOM     12  C   UNL     1     -12.057 -17.596  30.454  1.00  0.00     0.029 A 
ATOM     13  C   UNL     1     -11.282 -17.044  31.488  1.00  0.00     0.062 A 
ATOM     14  C   UNL     1     -10.652 -17.872  32.427  1.00  0.00     0.162 A 
ATOM     15  C   UNL     1     -12.222 -18.988  30.394  1.00  0.00     0.062 A 
ATOM     16  C   UNL     1     -10.806 -19.267  32.345  1.00  0.00     0.200 A 
ATOM     17  C   UNL     1     -11.597 -19.822  31.326  1.00  0.00     0.162 A 
BRANCH  14  18
ATOM     18  O   UNL     1      -9.880 -17.313  33.445  1.00  0.00    -0.504 OA
ATOM     19  H   UNL     1      -9.054 -17.778  33.801  1.00  0.00     0.293 HD
ENDBRANCH  14  18
BRANCH  16  20
ATOM     20  O   UNL     1     -10.181 -20.107  33.270  1.00  0.00    -0.502 OA
ATOM     21  H   UNL     1      -9.221 -20.409  33.162  1.00  0.00     0.293 HD
ENDBRANCH  16  20
BRANCH  17  22
ATOM     22  O   UNL     1     -11.774 -21.202  31.223  1.00  0.00    -0.504 OA
ATOM     23  H   UNL     1     -11.020 -21.825  30.960  1.00  0.00     0.293 HD
ENDBRANCH  17  22
ENDBRANCH   1  12
BRANCH   2  24
ATOM     24  O   UNL     1     -12.271 -18.272  27.645  1.00  0.00    -0.502 OA
ATOM     25  H   UNL     1     -12.767 -19.152  27.708  1.00  0.00     0.293 HD
ENDBRANCH   2  24
BRANCH   6  26
ATOM     26  O   UNL     1     -14.712 -14.051  25.502  1.00  0.00    -0.507 OA
ATOM     27  H   UNL     1     -15.344 -13.517  24.924  1.00  0.00     0.293 HD
ENDBRANCH   6  26
BRANCH   8  28
ATOM     28  O   UNL     1     -15.898 -11.651  29.489  1.00  0.00    -0.508 OA
ATOM     29  H   UNL     1     -16.585 -11.095  28.991  1.00  0.00     0.293 HD
ENDBRANCH   8  28
TORSDOF 7
ENDMDL
MODEL 8
REMARK VINA RESULT:     1.393      2.514      3.525
REMARK INTER + INTRA:           1.837
REMARK INTER:                   1.551
REMARK INTRA:                   0.286
REMARK UNBOUND:                 0.118
REMARK SMILES O=c1c(O)c(-c2cc(O)c(O)c(O)c2)oc2cc(O)cc(O)c12
REMARK SMILES IDX 5 1 3 2 2 3 1 4 23 5 21 6 20 7 18 8 17 9 16 10 15 11 6 12
REMARK SMILES IDX 7 13 8 14 14 15 10 16 12 17 9 18 11 20 13 22 4 24 22 26
REMARK SMILES IDX 19 28
REMARK H PARENT 9 19 11 21 13 23 4 25 22 27 19 29
REMARK Flexibility Score: inf
ROOT
ATOM      1  C   UNL     1     -10.663 -16.184  32.285  1.00  0.00     0.180 A 
ATOM      2  C   UNL     1     -10.403 -15.644  31.012  1.00  0.00     0.208 A 
ATOM      3  C   UNL     1     -10.645 -16.432  29.876  1.00  0.00     0.238 A 
ATOM      4  O   UNL     1     -10.360 -15.964  28.744  1.00  0.00    -0.285 OA
ATOM      5  C   UNL     1     -11.159 -17.743  30.024  1.00  0.00     0.111 A 
ATOM      6  C   UNL     1     -11.479 -18.616  28.942  1.00  0.00     0.134 A 
ATOM      7  C   UNL     1     -11.857 -19.938  29.207  1.00  0.00     0.093 A 
ATOM      8  C   UNL     1     -11.989 -20.399  30.519  1.00  0.00     0.123 A 
ATOM      9  C   UNL     1     -11.735 -19.537  31.584  1.00  0.00     0.094 A 
ATOM     10  C   UNL     1     -11.322 -18.223  31.350  1.00  0.00     0.146 A 
ATOM     11  O   UNL     1     -11.082 -17.439  32.394  1.00  0.00    -0.452 OA
ENDROOT
BRANCH   1  12
ATOM     12  C   UNL     1     -10.456 -15.405  33.527  1.00  0.00     0.029 A 
ATOM     13  C   UNL     1     -10.482 -14.001  33.522  1.00  0.00     0.062 A 
ATOM     14  C   UNL     1     -10.308 -13.281  34.713  1.00  0.00     0.162 A 
ATOM     15  C   UNL     1     -10.287 -16.081  34.745  1.00  0.00     0.062 A 
ATOM     16  C   UNL     1     -10.118 -13.966  35.925  1.00  0.00     0.200 A 
ATOM     17  C   UNL     1     -10.111 -15.372  35.937  1.00  0.00     0.162 A 
BRANCH  14  18
ATOM     18  O   UNL     1     -10.330 -11.887  34.695  1.00  0.00    -0.504 OA
ATOM     19  H   UNL     1     -10.571 -11.348  35.519  1.00  0.00     0.293 HD
ENDBRANCH  14  18
BRANCH  16  20
ATOM     20  O   UNL     1      -9.938 -13.265  37.119  1.00  0.00    -0.502 OA
ATOM     21  H   UNL     1     -10.631 -13.269  37.856  1.00  0.00     0.293 HD
ENDBRANCH  16  20
BRANCH  17  22
ATOM     22  O   UNL     1      -9.933 -16.081  37.125  1.00  0.00    -0.504 OA
ATOM     23  H   UNL     1     -10.675 -16.190  37.804  1.00  0.00     0.293 HD
ENDBRANCH  17  22
ENDBRANCH   1  12
BRANCH   2  24
ATOM     24  O   UNL     1      -9.876 -14.355  30.890  1.00  0.00    -0.502 OA
ATOM     25  H   UNL     1     -10.391 -13.596  30.461  1.00  0.00     0.293 HD
ENDBRANCH   2  24
BRANCH   6  26
ATOM     26  O   UNL     1     -11.469 -18.228  27.598  1.00  0.00    -0.507 OA
ATOM     27  H   UNL     1     -10.957 -18.699  26.867  1.00  0.00     0.293 HD
ENDBRANCH   6  26
BRANCH   8  28
ATOM     28  O   UNL     1     -12.381 -21.711  30.776  1.00  0.00    -0.508 OA
ATOM     29  H   UNL     1     -11.833 -22.320  31.374  1.00  0.00     0.293 HD
ENDBRANCH   8  28
TORSDOF 7
ENDMDL
