MODEL 1
REMARK VINA RESULT:    -3.640      0.000      0.000
REMARK INTER + INTRA:          -4.728
REMARK INTER:                  -4.491
REMARK INTRA:                  -0.237
REMARK UNBOUND:                -0.237
REMARK SMILES C=CC[C@H](C)C(=O)CC
REMARK SMILES IDX 4 1 5 2 6 3 7 4 8 5 9 6 3 7 2 8 1 9
REMARK H PARENT
REMARK Flexibility Score: inf
ROOT
ATOM      1  C   UNL     1      20.447  25.480  28.573  1.00  0.00     0.057 C 
ATOM      2  C   UNL     1      19.166  25.942  27.869  1.00  0.00     0.016 C 
ENDROOT
BRANCH   1   3
ATOM      3  C   UNL     1      21.228  26.682  29.066  1.00  0.00     0.135 C 
ATOM      4  O   UNL     1      20.840  27.295  30.051  1.00  0.00    -0.299 OA
BRANCH   3   5
ATOM      5  C   UNL     1      22.488  27.130  28.373  1.00  0.00     0.072 C 
ATOM      6  C   UNL     1      23.063  28.378  29.035  1.00  0.00     0.012 C 
ENDBRANCH   3   5
ENDBRANCH   1   3
BRANCH   1   7
ATOM      7  C   UNL     1      21.298  24.608  27.628  1.00  0.00     0.038 C 
BRANCH   7   8
ATOM      8  C   UNL     1      20.506  24.102  26.451  1.00  0.00    -0.034 C 
ATOM      9  C   UNL     1      21.078  23.861  25.268  1.00  0.00     0.004 C 
ENDBRANCH   7   8
ENDBRANCH   1   7
TORSDOF 4
ENDMDL
MODEL 2
REMARK VINA RESULT:    -3.602      1.730      3.704
REMARK INTER + INTRA:          -4.682
REMARK INTER:                  -4.191
REMARK INTRA:                  -0.491
REMARK UNBOUND:                -0.237
REMARK SMILES C=CC[C@H](C)C(=O)CC
REMARK SMILES IDX 4 1 5 2 6 3 7 4 8 5 9 6 3 7 2 8 1 9
REMARK H PARENT
REMARK Flexibility Score: inf
ROOT
ATOM      1  C   UNL     1      21.188  27.599  29.314  1.00  0.00     0.057 C 
ATOM      2  C   UNL     1      21.679  28.994  28.911  1.00  0.00     0.016 C 
ENDROOT
BRANCH   1   3
ATOM      3  C   UNL     1      21.729  26.562  28.350  1.00  0.00     0.135 C 
ATOM      4  O   UNL     1      22.533  26.895  27.490  1.00  0.00    -0.299 OA
BRANCH   3   5
ATOM      5  C   UNL     1      21.305  25.119  28.438  1.00  0.00     0.072 C 
ATOM      6  C   UNL     1      20.641  24.663  27.144  1.00  0.00     0.012 C 
ENDBRANCH   3   5
ENDBRANCH   1   3
BRANCH   1   7
ATOM      7  C   UNL     1      19.647  27.563  29.368  1.00  0.00     0.038 C 
BRANCH   7   8
ATOM      8  C   UNL     1      19.020  28.124  28.118  1.00  0.00    -0.034 C 
ATOM      9  C   UNL     1      18.094  27.449  27.432  1.00  0.00     0.004 C 
ENDBRANCH   7   8
ENDBRANCH   1   7
TORSDOF 4
ENDMDL
MODEL 3
REMARK VINA RESULT:    -3.543      6.841      8.329
REMARK INTER + INTRA:          -4.609
REMARK INTER:                  -4.156
REMARK INTRA:                  -0.453
REMARK UNBOUND:                -0.237
REMARK SMILES C=CC[C@H](C)C(=O)CC
REMARK SMILES IDX 4 1 5 2 6 3 7 4 8 5 9 6 3 7 2 8 1 9
REMARK H PARENT
REMARK Flexibility Score: inf
ROOT
ATOM      1  C   UNL     1      14.715  31.461  30.447  1.00  0.00     0.057 C 
ATOM      2  C   UNL     1      14.103  31.255  31.837  1.00  0.00     0.016 C 
ENDROOT
BRANCH   1   3
ATOM      3  C   UNL     1      15.177  30.132  29.884  1.00  0.00     0.135 C 
ATOM      4  O   UNL     1      14.561  29.617  28.961  1.00  0.00    -0.299 OA
BRANCH   3   5
ATOM      5  C   UNL     1      16.396  29.435  30.430  1.00  0.00     0.072 C 
ATOM      6  C   UNL     1      17.354  29.050  29.308  1.00  0.00     0.012 C 
ENDBRANCH   3   5
ENDBRANCH   1   3
BRANCH   1   7
ATOM      7  C   UNL     1      15.876  32.475  30.513  1.00  0.00     0.038 C 
BRANCH   7   8
ATOM      8  C   UNL     1      16.297  32.948  29.146  1.00  0.00    -0.034 C 
ATOM      9  C   UNL     1      17.557  32.834  28.718  1.00  0.00     0.004 C 
ENDBRANCH   7   8
ENDBRANCH   1   7
TORSDOF 4
ENDMDL
MODEL 4
REMARK VINA RESULT:    -3.518      6.070      7.700
REMARK INTER + INTRA:          -4.577
REMARK INTER:                  -4.166
REMARK INTRA:                  -0.412
REMARK UNBOUND:                -0.237
REMARK SMILES C=CC[C@H](C)C(=O)CC
REMARK SMILES IDX 4 1 5 2 6 3 7 4 8 5 9 6 3 7 2 8 1 9
REMARK H PARENT
REMARK Flexibility Score: inf
ROOT
ATOM      1  C   UNL     1      14.490  21.427  28.773  1.00  0.00     0.057 C 
ATOM      2  C   UNL     1      15.328  20.158  28.967  1.00  0.00     0.016 C 
ENDROOT
BRANCH   1   3
ATOM      3  C   UNL     1      15.205  22.379  27.836  1.00  0.00     0.135 C 
ATOM      4  O   UNL     1      16.067  21.953  27.080  1.00  0.00    -0.299 OA
BRANCH   3   5
ATOM      5  C   UNL     1      14.862  23.846  27.804  1.00  0.00     0.072 C 
ATOM      6  C   UNL     1      16.102  24.692  27.533  1.00  0.00     0.012 C 
ENDBRANCH   3   5
ENDBRANCH   1   3
BRANCH   1   7
ATOM      7  C   UNL     1      14.198  22.094  30.133  1.00  0.00     0.038 C 
BRANCH   7   8
ATOM      8  C   UNL     1      15.369  22.002  31.076  1.00  0.00    -0.034 C 
ATOM      9  C   UNL     1      15.940  23.090  31.599  1.00  0.00     0.004 C 
ENDBRANCH   7   8
ENDBRANCH   1   7
TORSDOF 4
ENDMDL
MODEL 5
REMARK VINA RESULT:    -3.506      8.093      8.835
REMARK INTER + INTRA:          -4.563
REMARK INTER:                  -4.100
REMARK INTRA:                  -0.462
REMARK UNBOUND:                -0.237
REMARK SMILES C=CC[C@H](C)C(=O)CC
REMARK SMILES IDX 4 1 5 2 6 3 7 4 8 5 9 6 3 7 2 8 1 9
REMARK H PARENT
REMARK Flexibility Score: inf
ROOT
ATOM      1  C   UNL     1      15.935  31.626  30.151  1.00  0.00     0.057 C 
ATOM      2  C   UNL     1      14.998  30.520  29.651  1.00  0.00     0.016 C 
ENDROOT
BRANCH   1   3
ATOM      3  C   UNL     1      15.364  32.259  31.405  1.00  0.00     0.135 C 
ATOM      4  O   UNL     1      14.164  32.183  31.629  1.00  0.00    -0.299 OA
BRANCH   3   5
ATOM      5  C   UNL     1      16.252  32.968  32.393  1.00  0.00     0.072 C 
ATOM      6  C   UNL     1      17.526  32.173  32.655  1.00  0.00     0.012 C 
ENDBRANCH   3   5
ENDBRANCH   1   3
BRANCH   1   7
ATOM      7  C   UNL     1      16.165  32.679  29.048  1.00  0.00     0.038 C 
BRANCH   7   8
ATOM      8  C   UNL     1      17.629  32.928  28.795  1.00  0.00    -0.034 C 
ATOM      9  C   UNL     1      18.289  33.920  29.399  1.00  0.00     0.004 C 
ENDBRANCH   7   8
ENDBRANCH   1   7
TORSDOF 4
ENDMDL
MODEL 6
REMARK VINA RESULT:    -3.466      1.229      2.605
REMARK INTER + INTRA:          -4.514
REMARK INTER:                  -4.145
REMARK INTRA:                  -0.370
REMARK UNBOUND:                -0.237
REMARK SMILES C=CC[C@H](C)C(=O)CC
REMARK SMILES IDX 4 1 5 2 6 3 7 4 8 5 9 6 3 7 2 8 1 9
REMARK H PARENT
REMARK Flexibility Score: inf
ROOT
ATOM      1  C   UNL     1      21.543  26.807  28.288  1.00  0.00     0.057 C 
ATOM      2  C   UNL     1      23.007  27.249  28.396  1.00  0.00     0.016 C 
ENDROOT
BRANCH   1   3
ATOM      3  C   UNL     1      20.666  27.713  29.130  1.00  0.00     0.135 C 
ATOM      4  O   UNL     1      20.868  27.804  30.333  1.00  0.00    -0.299 OA
BRANCH   3   5
ATOM      5  C   UNL     1      19.557  28.520  28.509  1.00  0.00     0.072 C 
ATOM      6  C   UNL     1      18.571  27.620  27.772  1.00  0.00     0.012 C 
ENDBRANCH   3   5
ENDBRANCH   1   3
BRANCH   1   7
ATOM      7  C   UNL     1      21.393  25.331  28.712  1.00  0.00     0.038 C 
BRANCH   7   8
ATOM      8  C   UNL     1      21.301  24.405  27.527  1.00  0.00    -0.034 C 
ATOM      9  C   UNL     1      20.243  24.408  26.711  1.00  0.00     0.004 C 
ENDBRANCH   7   8
ENDBRANCH   1   7
TORSDOF 4
ENDMDL
MODEL 7
REMARK VINA RESULT:    -3.446      1.893      3.803
REMARK INTER + INTRA:          -4.489
REMARK INTER:                  -4.226
REMARK INTRA:                  -0.263
REMARK UNBOUND:                -0.237
REMARK SMILES C=CC[C@H](C)C(=O)CC
REMARK SMILES IDX 4 1 5 2 6 3 7 4 8 5 9 6 3 7 2 8 1 9
REMARK H PARENT
REMARK Flexibility Score: inf
ROOT
ATOM      1  C   UNL     1      20.084  25.421  28.280  1.00  0.00     0.057 C 
ATOM      2  C   UNL     1      20.840  24.624  27.210  1.00  0.00     0.016 C 
ENDROOT
BRANCH   1   3
ATOM      3  C   UNL     1      18.721  25.827  27.756  1.00  0.00     0.135 C 
ATOM      4  O   UNL     1      17.877  24.969  27.536  1.00  0.00    -0.299 OA
BRANCH   3   5
ATOM      5  C   UNL     1      18.377  27.273  27.514  1.00  0.00     0.072 C 
ATOM      6  C   UNL     1      17.349  27.768  28.525  1.00  0.00     0.012 C 
ENDBRANCH   3   5
ENDBRANCH   1   3
BRANCH   1   7
ATOM      7  C   UNL     1      20.905  26.653  28.716  1.00  0.00     0.038 C 
BRANCH   7   8
ATOM      8  C   UNL     1      22.312  26.619  28.178  1.00  0.00    -0.034 C 
ATOM      9  C   UNL     1      23.052  27.726  28.072  1.00  0.00     0.004 C 
ENDBRANCH   7   8
ENDBRANCH   1   7
TORSDOF 4
ENDMDL
MODEL 8
REMARK VINA RESULT:    -3.429      7.095      8.442
REMARK INTER + INTRA:          -4.468
REMARK INTER:                  -4.078
REMARK INTRA:                  -0.389
REMARK UNBOUND:                -0.237
REMARK SMILES C=CC[C@H](C)C(=O)CC
REMARK SMILES IDX 4 1 5 2 6 3 7 4 8 5 9 6 3 7 2 8 1 9
REMARK H PARENT
REMARK Flexibility Score: inf
ROOT
ATOM      1  C   UNL     1      17.565  32.700  28.868  1.00  0.00     0.057 C 
ATOM      2  C   UNL     1      17.982  31.234  29.037  1.00  0.00     0.016 C 
ENDROOT
BRANCH   1   3
ATOM      3  C   UNL     1      18.533  33.601  29.608  1.00  0.00     0.135 C 
ATOM      4  O   UNL     1      19.457  34.125  29.001  1.00  0.00    -0.299 OA
BRANCH   3   5
ATOM      5  C   UNL     1      18.371  33.879  31.079  1.00  0.00     0.072 C 
ATOM      6  C   UNL     1      19.377  33.081  31.901  1.00  0.00     0.012 C 
ENDBRANCH   3   5
ENDBRANCH   1   3
BRANCH   1   7
ATOM      7  C   UNL     1      16.118  32.910  29.360  1.00  0.00     0.038 C 
BRANCH   7   8
ATOM      8  C   UNL     1      15.588  31.709  30.099  1.00  0.00    -0.034 C 
ATOM      9  C   UNL     1      14.926  31.828  31.253  1.00  0.00     0.004 C 
ENDBRANCH   7   8
ENDBRANCH   1   7
TORSDOF 4
ENDMDL
MODEL 9
REMARK VINA RESULT:    -3.399      6.442      7.443
REMARK INTER + INTRA:          -4.431
REMARK INTER:                  -3.964
REMARK INTRA:                  -0.467
REMARK UNBOUND:                -0.237
REMARK SMILES C=CC[C@H](C)C(=O)CC
REMARK SMILES IDX 4 1 5 2 6 3 7 4 8 5 9 6 3 7 2 8 1 9
REMARK H PARENT
REMARK Flexibility Score: inf
ROOT
ATOM      1  C   UNL     1      15.748  30.696  30.575  1.00  0.00     0.057 C 
ATOM      2  C   UNL     1      15.023  30.014  29.409  1.00  0.00     0.016 C 
ENDROOT
BRANCH   1   3
ATOM      3  C   UNL     1      15.765  32.197  30.365  1.00  0.00     0.135 C 
ATOM      4  O   UNL     1      15.414  32.940  31.271  1.00  0.00    -0.299 OA
BRANCH   3   5
ATOM      5  C   UNL     1      16.222  32.797  29.061  1.00  0.00     0.072 C 
ATOM      6  C   UNL     1      17.588  33.456  29.211  1.00  0.00     0.012 C 
ENDBRANCH   3   5
ENDBRANCH   1   3
BRANCH   1   7
ATOM      7  C   UNL     1      17.178  30.136  30.724  1.00  0.00     0.038 C 
BRANCH   7   8
ATOM      8  C   UNL     1      17.649  29.438  29.475  1.00  0.00    -0.034 C 
ATOM      9  C   UNL     1      18.722  29.854  28.798  1.00  0.00     0.004 C 
ENDBRANCH   7   8
ENDBRANCH   1   7
TORSDOF 4
ENDMDL
