MODEL 1
REMARK VINA RESULT:    -6.608      0.000      0.000
REMARK INTER + INTRA:          -8.370
REMARK INTER:                  -7.960
REMARK INTRA:                  -0.411
REMARK UNBOUND:                -0.411
REMARK SMILES O=c1c(O)c(-c2ccc(O)cc2O)oc2cc(O)cc(O)c12
REMARK SMILES IDX 5 1 3 2 2 3 1 4 22 5 20 6 19 7 17 8 16 9 15 10 14 11 6 12
REMARK SMILES IDX 8 13 7 14 9 15 11 16 12 17 10 18 13 20 4 22 21 24 18 26
REMARK H PARENT 10 19 13 21 4 23 21 25 18 27
REMARK Flexibility Score: inf
ROOT
ATOM      1  C   UNL     1       7.588  14.512  -8.991  1.00  0.00     0.184 A 
ATOM      2  C   UNL     1       7.413  14.555 -10.383  1.00  0.00     0.208 A 
ATOM      3  C   UNL     1       8.256  13.783 -11.198  1.00  0.00     0.238 A 
ATOM      4  O   UNL     1       8.047  13.770 -12.440  1.00  0.00    -0.285 OA
ATOM      5  C   UNL     1       9.298  13.021 -10.614  1.00  0.00     0.111 A 
ATOM      6  C   UNL     1      10.240  12.237 -11.346  1.00  0.00     0.134 A 
ATOM      7  C   UNL     1      11.160  11.441 -10.654  1.00  0.00     0.093 A 
ATOM      8  C   UNL     1      11.217  11.450  -9.259  1.00  0.00     0.123 A 
ATOM      9  C   UNL     1      10.339  12.254  -8.537  1.00  0.00     0.094 A 
ATOM     10  C   UNL     1       9.382  13.030  -9.196  1.00  0.00     0.146 A 
ATOM     11  O   UNL     1       8.551  13.765  -8.467  1.00  0.00    -0.451 OA
ENDROOT
BRANCH   1  12
ATOM     12  C   UNL     1       6.730  15.293  -8.076  1.00  0.00     0.063 A 
ATOM     13  C   UNL     1       4.563  15.599  -7.016  1.00  0.00     0.047 A 
ATOM     14  C   UNL     1       5.404  14.881  -7.870  1.00  0.00     0.020 A 
ATOM     15  C   UNL     1       5.032  16.745  -6.369  1.00  0.00     0.119 A 
ATOM     16  C   UNL     1       6.345  17.179  -6.586  1.00  0.00     0.093 A 
ATOM     17  C   UNL     1       7.195  16.467  -7.447  1.00  0.00     0.130 A 
BRANCH  15  18
ATOM     18  O   UNL     1       4.183  17.449  -5.517  1.00  0.00    -0.508 OA
ATOM     19  H   UNL     1       4.515  17.840  -4.644  1.00  0.00     0.293 HD
ENDBRANCH  15  18
BRANCH  17  20
ATOM     20  O   UNL     1       8.486  16.935  -7.693  1.00  0.00    -0.507 OA
ATOM     21  H   UNL     1       9.220  16.320  -8.025  1.00  0.00     0.293 HD
ENDBRANCH  17  20
ENDBRANCH   1  12
BRANCH   2  22
ATOM     22  O   UNL     1       6.424  15.370 -10.939  1.00  0.00    -0.502 OA
ATOM     23  H   UNL     1       6.235  15.393 -11.934  1.00  0.00     0.293 HD
ENDBRANCH   2  22
BRANCH   6  24
ATOM     24  O   UNL     1      10.330  12.222 -12.742  1.00  0.00    -0.507 OA
ATOM     25  H   UNL     1      10.561  11.412 -13.297  1.00  0.00     0.293 HD
ENDBRANCH   6  24
BRANCH   8  26
ATOM     26  O   UNL     1      12.149  10.667  -8.579  1.00  0.00    -0.508 OA
ATOM     27  H   UNL     1      11.865  10.001  -7.870  1.00  0.00     0.293 HD
ENDBRANCH   8  26
TORSDOF 6
ENDMDL
MODEL 2
REMARK VINA RESULT:    -6.375      7.502      9.145
REMARK INTER + INTRA:          -8.090
REMARK INTER:                  -7.934
REMARK INTRA:                  -0.157
REMARK UNBOUND:                -0.411
REMARK SMILES O=c1c(O)c(-c2ccc(O)cc2O)oc2cc(O)cc(O)c12
REMARK SMILES IDX 5 1 3 2 2 3 1 4 22 5 20 6 19 7 17 8 16 9 15 10 14 11 6 12
REMARK SMILES IDX 8 13 7 14 9 15 11 16 12 17 10 18 13 20 4 22 21 24 18 26
REMARK H PARENT 10 19 13 21 4 23 21 25 18 27
REMARK Flexibility Score: inf
ROOT
ATOM      1  C   UNL     1      12.056  11.818  -2.515  1.00  0.00     0.184 A 
ATOM      2  C   UNL     1      12.349  12.262  -3.814  1.00  0.00     0.208 A 
ATOM      3  C   UNL     1      13.599  12.849  -4.067  1.00  0.00     0.238 A 
ATOM      4  O   UNL     1      13.882  13.177  -5.249  1.00  0.00    -0.285 OA
ATOM      5  C   UNL     1      14.519  13.033  -3.005  1.00  0.00     0.111 A 
ATOM      6  C   UNL     1      15.797  13.656  -3.137  1.00  0.00     0.134 A 
ATOM      7  C   UNL     1      16.665  13.687  -2.039  1.00  0.00     0.093 A 
ATOM      8  C   UNL     1      16.278  13.177  -0.798  1.00  0.00     0.123 A 
ATOM      9  C   UNL     1      15.012  12.617  -0.645  1.00  0.00     0.094 A 
ATOM     10  C   UNL     1      14.137  12.535  -1.731  1.00  0.00     0.146 A 
ATOM     11  O   UNL     1      12.948  11.974  -1.545  1.00  0.00    -0.451 OA
ENDROOT
BRANCH   1  12
ATOM     12  C   UNL     1      10.763  11.185  -2.183  1.00  0.00     0.063 A 
ATOM     13  C   UNL     1       9.048   9.553  -2.737  1.00  0.00     0.047 A 
ATOM     14  C   UNL     1      10.270  10.170  -3.017  1.00  0.00     0.020 A 
ATOM     15  C   UNL     1       8.298   9.953  -1.629  1.00  0.00     0.119 A 
ATOM     16  C   UNL     1       8.769  10.981  -0.803  1.00  0.00     0.093 A 
ATOM     17  C   UNL     1       9.992  11.610  -1.081  1.00  0.00     0.130 A 
BRANCH  15  18
ATOM     18  O   UNL     1       7.082   9.326  -1.359  1.00  0.00    -0.508 OA
ATOM     19  H   UNL     1       6.382   9.198  -2.079  1.00  0.00     0.293 HD
ENDBRANCH  15  18
BRANCH  17  20
ATOM     20  O   UNL     1      10.429  12.666  -0.280  1.00  0.00    -0.507 OA
ATOM     21  H   UNL     1      11.052  13.381  -0.637  1.00  0.00     0.293 HD
ENDBRANCH  17  20
ENDBRANCH   1  12
BRANCH   2  22
ATOM     22  O   UNL     1      11.396  12.134  -4.828  1.00  0.00    -0.502 OA
ATOM     23  H   UNL     1      10.554  12.696  -4.857  1.00  0.00     0.293 HD
ENDBRANCH   2  22
BRANCH   6  24
ATOM     24  O   UNL     1      16.250  14.276  -4.306  1.00  0.00    -0.507 OA
ATOM     25  H   UNL     1      17.189  14.211  -4.667  1.00  0.00     0.293 HD
ENDBRANCH   6  24
BRANCH   8  26
ATOM     26  O   UNL     1      17.143  13.229   0.294  1.00  0.00    -0.508 OA
ATOM     27  H   UNL     1      17.113  13.994   0.958  1.00  0.00     0.293 HD
ENDBRANCH   8  26
TORSDOF 6
ENDMDL
MODEL 3
REMARK VINA RESULT:    -6.315      6.228      9.496
REMARK INTER + INTRA:          -8.018
REMARK INTER:                  -7.909
REMARK INTRA:                  -0.109
REMARK UNBOUND:                -0.411
REMARK SMILES O=c1c(O)c(-c2ccc(O)cc2O)oc2cc(O)cc(O)c12
REMARK SMILES IDX 5 1 3 2 2 3 1 4 22 5 20 6 19 7 17 8 16 9 15 10 14 11 6 12
REMARK SMILES IDX 8 13 7 14 9 15 11 16 12 17 10 18 13 20 4 22 21 24 18 26
REMARK H PARENT 10 19 13 21 4 23 21 25 18 27
REMARK Flexibility Score: inf
ROOT
ATOM      1  C   UNL     1      14.826  12.268  -6.979  1.00  0.00     0.184 A 
ATOM      2  C   UNL     1      16.074  12.793  -6.611  1.00  0.00     0.208 A 
ATOM      3  C   UNL     1      16.279  13.190  -5.280  1.00  0.00     0.238 A 
ATOM      4  O   UNL     1      17.423  13.593  -4.941  1.00  0.00    -0.285 OA
ATOM      5  C   UNL     1      15.215  13.107  -4.348  1.00  0.00     0.111 A 
ATOM      6  C   UNL     1      15.296  13.522  -2.984  1.00  0.00     0.134 A 
ATOM      7  C   UNL     1      14.212  13.293  -2.128  1.00  0.00     0.093 A 
ATOM      8  C   UNL     1      13.027  12.725  -2.601  1.00  0.00     0.123 A 
ATOM      9  C   UNL     1      12.919  12.367  -3.942  1.00  0.00     0.094 A 
ATOM     10  C   UNL     1      13.996  12.546  -4.813  1.00  0.00     0.146 A 
ATOM     11  O   UNL     1      13.856  12.171  -6.079  1.00  0.00    -0.451 OA
ENDROOT
BRANCH   1  12
ATOM     12  C   UNL     1      14.548  11.824  -8.361  1.00  0.00     0.063 A 
ATOM     13  C   UNL     1      15.279  10.618 -10.341  1.00  0.00     0.047 A 
ATOM     14  C   UNL     1      15.506  11.050  -9.032  1.00  0.00     0.020 A 
ATOM     15  C   UNL     1      14.097  10.965 -11.000  1.00  0.00     0.119 A 
ATOM     16  C   UNL     1      13.143  11.756 -10.348  1.00  0.00     0.093 A 
ATOM     17  C   UNL     1      13.367  12.199  -9.035  1.00  0.00     0.130 A 
BRANCH  15  18
ATOM     18  O   UNL     1      13.881  10.523 -12.304  1.00  0.00    -0.508 OA
ATOM     19  H   UNL     1      13.675  11.171 -13.055  1.00  0.00     0.293 HD
ENDBRANCH  15  18
BRANCH  17  20
ATOM     20  O   UNL     1      12.432  13.027  -8.413  1.00  0.00    -0.507 OA
ATOM     21  H   UNL     1      11.439  12.939  -8.595  1.00  0.00     0.293 HD
ENDBRANCH  17  20
ENDBRANCH   1  12
BRANCH   2  22
ATOM     22  O   UNL     1      17.084  12.932  -7.566  1.00  0.00    -0.502 OA
ATOM     23  H   UNL     1      17.351  12.179  -8.189  1.00  0.00     0.293 HD
ENDBRANCH   2  22
BRANCH   6  24
ATOM     24  O   UNL     1      16.398  14.180  -2.429  1.00  0.00    -0.507 OA
ATOM     25  H   UNL     1      17.016  13.788  -1.736  1.00  0.00     0.293 HD
ENDBRANCH   6  24
BRANCH   8  26
ATOM     26  O   UNL     1      11.947  12.517  -1.745  1.00  0.00    -0.508 OA
ATOM     27  H   UNL     1      11.035  12.915  -1.937  1.00  0.00     0.293 HD
ENDBRANCH   8  26
TORSDOF 6
ENDMDL
MODEL 4
REMARK VINA RESULT:    -6.280     11.420     12.855
REMARK INTER + INTRA:          -7.976
REMARK INTER:                  -7.566
REMARK INTRA:                  -0.410
REMARK UNBOUND:                -0.411
REMARK SMILES O=c1c(O)c(-c2ccc(O)cc2O)oc2cc(O)cc(O)c12
REMARK SMILES IDX 5 1 3 2 2 3 1 4 22 5 20 6 19 7 17 8 16 9 15 10 14 11 6 12
REMARK SMILES IDX 8 13 7 14 9 15 11 16 12 17 10 18 13 20 4 22 21 24 18 26
REMARK H PARENT 10 19 13 21 4 23 21 25 18 27
REMARK Flexibility Score: inf
ROOT
ATOM      1  C   UNL     1      19.688  17.488 -11.390  1.00  0.00     0.184 A 
ATOM      2  C   UNL     1      20.714  17.682 -10.453  1.00  0.00     0.208 A 
ATOM      3  C   UNL     1      21.378  16.560  -9.929  1.00  0.00     0.238 A 
ATOM      4  O   UNL     1      22.345  16.745  -9.145  1.00  0.00    -0.285 OA
ATOM      5  C   UNL     1      20.968  15.258 -10.309  1.00  0.00     0.111 A 
ATOM      6  C   UNL     1      21.539  14.049  -9.809  1.00  0.00     0.134 A 
ATOM      7  C   UNL     1      21.125  12.820 -10.337  1.00  0.00     0.093 A 
ATOM      8  C   UNL     1      20.116  12.753 -11.300  1.00  0.00     0.123 A 
ATOM      9  C   UNL     1      19.514  13.923 -11.755  1.00  0.00     0.094 A 
ATOM     10  C   UNL     1      19.932  15.167 -11.276  1.00  0.00     0.146 A 
ATOM     11  O   UNL     1      19.346  16.259 -11.754  1.00  0.00    -0.451 OA
ENDROOT
BRANCH   1  12
ATOM     12  C   UNL     1      18.956  18.625 -11.985  1.00  0.00     0.063 A 
ATOM     13  C   UNL     1      16.999  20.068 -11.977  1.00  0.00     0.047 A 
ATOM     14  C   UNL     1      17.721  19.001 -11.435  1.00  0.00     0.020 A 
ATOM     15  C   UNL     1      17.495  20.762 -13.082  1.00  0.00     0.119 A 
ATOM     16  C   UNL     1      18.715  20.381 -13.654  1.00  0.00     0.093 A 
ATOM     17  C   UNL     1      19.444  19.307 -13.120  1.00  0.00     0.130 A 
BRANCH  15  18
ATOM     18  O   UNL     1      16.766  21.827 -13.609  1.00  0.00    -0.508 OA
ATOM     19  H   UNL     1      17.211  22.555 -14.155  1.00  0.00     0.293 HD
ENDBRANCH  15  18
BRANCH  17  20
ATOM     20  O   UNL     1      20.634  18.905 -13.727  1.00  0.00    -0.507 OA
ATOM     21  H   UNL     1      20.825  19.098 -14.703  1.00  0.00     0.293 HD
ENDBRANCH  17  20
ENDBRANCH   1  12
BRANCH   2  22
ATOM     22  O   UNL     1      21.050  18.973 -10.040  1.00  0.00    -0.502 OA
ATOM     23  H   UNL     1      20.521  19.474  -9.337  1.00  0.00     0.293 HD
ENDBRANCH   2  22
BRANCH   6  24
ATOM     24  O   UNL     1      22.490  13.997  -8.785  1.00  0.00    -0.507 OA
ATOM     25  H   UNL     1      23.486  13.920  -8.925  1.00  0.00     0.293 HD
ENDBRANCH   6  24
BRANCH   8  26
ATOM     26  O   UNL     1      19.698  11.523 -11.807  1.00  0.00    -0.508 OA
ATOM     27  H   UNL     1      20.002  10.649 -11.395  1.00  0.00     0.293 HD
ENDBRANCH   8  26
TORSDOF 6
ENDMDL
MODEL 5
REMARK VINA RESULT:    -6.230     10.809     13.121
REMARK INTER + INTRA:          -7.915
REMARK INTER:                  -7.752
REMARK INTRA:                  -0.163
REMARK UNBOUND:                -0.411
REMARK SMILES O=c1c(O)c(-c2ccc(O)cc2O)oc2cc(O)cc(O)c12
REMARK SMILES IDX 5 1 3 2 2 3 1 4 22 5 20 6 19 7 17 8 16 9 15 10 14 11 6 12
REMARK SMILES IDX 8 13 7 14 9 15 11 16 12 17 10 18 13 20 4 22 21 24 18 26
REMARK H PARENT 10 19 13 21 4 23 21 25 18 27
REMARK Flexibility Score: inf
ROOT
ATOM      1  C   UNL     1      16.628  12.537   0.215  1.00  0.00     0.184 A 
ATOM      2  C   UNL     1      15.276  12.734  -0.105  1.00  0.00     0.208 A 
ATOM      3  C   UNL     1      14.930  13.051  -1.429  1.00  0.00     0.238 A 
ATOM      4  O   UNL     1      13.711  13.155  -1.724  1.00  0.00    -0.285 OA
ATOM      5  C   UNL     1      15.946  13.219  -2.402  1.00  0.00     0.111 A 
ATOM      6  C   UNL     1      15.715  13.583  -3.763  1.00  0.00     0.134 A 
ATOM      7  C   UNL     1      16.789  13.616  -4.660  1.00  0.00     0.093 A 
ATOM      8  C   UNL     1      18.094  13.362  -4.233  1.00  0.00     0.123 A 
ATOM      9  C   UNL     1      18.337  13.060  -2.896  1.00  0.00     0.094 A 
ATOM     10  C   UNL     1      17.282  12.981  -1.984  1.00  0.00     0.146 A 
ATOM     11  O   UNL     1      17.557  12.668  -0.722  1.00  0.00    -0.451 OA
ENDROOT
BRANCH   1  12
ATOM     12  C   UNL     1      17.059  12.193   1.586  1.00  0.00     0.063 A 
ATOM     13  C   UNL     1      16.767  10.820   3.571  1.00  0.00     0.047 A 
ATOM     14  C   UNL     1      16.390  11.167   2.272  1.00  0.00     0.020 A 
ATOM     15  C   UNL     1      17.807  11.503   4.207  1.00  0.00     0.119 A 
ATOM     16  C   UNL     1      18.466  12.544   3.541  1.00  0.00     0.093 A 
ATOM     17  C   UNL     1      18.089  12.903   2.238  1.00  0.00     0.130 A 
BRANCH  15  18
ATOM     18  O   UNL     1      18.175  11.143   5.502  1.00  0.00    -0.508 OA
ATOM     19  H   UNL     1      18.744  11.751   6.079  1.00  0.00     0.293 HD
ENDBRANCH  15  18
BRANCH  17  20
ATOM     20  O   UNL     1      18.719  13.973   1.602  1.00  0.00    -0.507 OA
ATOM     21  H   UNL     1      19.240  13.849   0.742  1.00  0.00     0.293 HD
ENDBRANCH  17  20
ENDBRANCH   1  12
BRANCH   2  22
ATOM     22  O   UNL     1      14.300  12.634   0.889  1.00  0.00    -0.502 OA
ATOM     23  H   UNL     1      14.489  12.229   1.798  1.00  0.00     0.293 HD
ENDBRANCH   2  22
BRANCH   6  24
ATOM     24  O   UNL     1      14.464  13.943  -4.276  1.00  0.00    -0.507 OA
ATOM     25  H   UNL     1      13.848  14.629  -3.868  1.00  0.00     0.293 HD
ENDBRANCH   6  24
BRANCH   8  26
ATOM     26  O   UNL     1      19.159  13.415  -5.130  1.00  0.00    -0.508 OA
ATOM     27  H   UNL     1      19.149  12.888  -5.996  1.00  0.00     0.293 HD
ENDBRANCH   8  26
TORSDOF 6
ENDMDL
MODEL 6
REMARK VINA RESULT:    -6.162      9.189     11.951
REMARK INTER + INTRA:          -7.833
REMARK INTER:                  -7.422
REMARK INTRA:                  -0.411
REMARK UNBOUND:                -0.411
REMARK SMILES O=c1c(O)c(-c2ccc(O)cc2O)oc2cc(O)cc(O)c12
REMARK SMILES IDX 5 1 3 2 2 3 1 4 22 5 20 6 19 7 17 8 16 9 15 10 14 11 6 12
REMARK SMILES IDX 8 13 7 14 9 15 11 16 12 17 10 18 13 20 4 22 21 24 18 26
REMARK H PARENT 10 19 13 21 4 23 21 25 18 27
REMARK Flexibility Score: inf
ROOT
ATOM      1  C   UNL     1      14.832  12.370  -1.699  1.00  0.00     0.184 A 
ATOM      2  C   UNL     1      15.354  12.432  -0.398  1.00  0.00     0.208 A 
ATOM      3  C   UNL     1      14.475  12.341   0.693  1.00  0.00     0.238 A 
ATOM      4  O   UNL     1      14.957  12.324   1.855  1.00  0.00    -0.285 OA
ATOM      5  C   UNL     1      13.079  12.245   0.467  1.00  0.00     0.111 A 
ATOM      6  C   UNL     1      12.092  12.192   1.497  1.00  0.00     0.134 A 
ATOM      7  C   UNL     1      10.749  11.990   1.155  1.00  0.00     0.093 A 
ATOM      8  C   UNL     1      10.349  11.904  -0.180  1.00  0.00     0.123 A 
ATOM      9  C   UNL     1      11.298  12.010  -1.194  1.00  0.00     0.094 A 
ATOM     10  C   UNL     1      12.651  12.173  -0.885  1.00  0.00     0.146 A 
ATOM     11  O   UNL     1      13.524  12.247  -1.883  1.00  0.00    -0.451 OA
ENDROOT
BRANCH   1  12
ATOM     12  C   UNL     1      15.702  12.451  -2.890  1.00  0.00     0.063 A 
ATOM     13  C   UNL     1      17.309  11.375  -4.365  1.00  0.00     0.047 A 
ATOM     14  C   UNL     1      16.470  11.332  -3.248  1.00  0.00     0.020 A 
ATOM     15  C   UNL     1      17.401  12.541  -5.129  1.00  0.00     0.119 A 
ATOM     16  C   UNL     1      16.658  13.671  -4.767  1.00  0.00     0.093 A 
ATOM     17  C   UNL     1      15.817  13.638  -3.644  1.00  0.00     0.130 A 
BRANCH  15  18
ATOM     18  O   UNL     1      18.239  12.568  -6.243  1.00  0.00    -0.508 OA
ATOM     19  H   UNL     1      18.715  11.735  -6.567  1.00  0.00     0.293 HD
ENDBRANCH  15  18
BRANCH  17  20
ATOM     20  O   UNL     1      15.119  14.785  -3.264  1.00  0.00    -0.507 OA
ATOM     21  H   UNL     1      14.212  14.730  -2.815  1.00  0.00     0.293 HD
ENDBRANCH  17  20
ENDBRANCH   1  12
BRANCH   2  22
ATOM     22  O   UNL     1      16.727  12.600  -0.203  1.00  0.00    -0.502 OA
ATOM     23  H   UNL     1      17.140  13.500   0.008  1.00  0.00     0.293 HD
ENDBRANCH   2  22
BRANCH   6  24
ATOM     24  O   UNL     1      12.369  12.355   2.858  1.00  0.00    -0.507 OA
ATOM     25  H   UNL     1      12.871  11.692   3.428  1.00  0.00     0.293 HD
ENDBRANCH   6  24
BRANCH   8  26
ATOM     26  O   UNL     1       9.008  11.721  -0.510  1.00  0.00    -0.508 OA
ATOM     27  H   UNL     1       8.679  10.861  -0.934  1.00  0.00     0.293 HD
ENDBRANCH   8  26
TORSDOF 6
ENDMDL
MODEL 7
REMARK VINA RESULT:    -6.127      8.537     10.004
REMARK INTER + INTRA:          -7.792
REMARK INTER:                  -7.504
REMARK INTRA:                  -0.288
REMARK UNBOUND:                -0.411
REMARK SMILES O=c1c(O)c(-c2ccc(O)cc2O)oc2cc(O)cc(O)c12
REMARK SMILES IDX 5 1 3 2 2 3 1 4 22 5 20 6 19 7 17 8 16 9 15 10 14 11 6 12
REMARK SMILES IDX 8 13 7 14 9 15 11 16 12 17 10 18 13 20 4 22 21 24 18 26
REMARK H PARENT 10 19 13 21 4 23 21 25 18 27
REMARK Flexibility Score: inf
ROOT
ATOM      1  C   UNL     1      12.081  11.697  -0.787  1.00  0.00     0.184 A 
ATOM      2  C   UNL     1      11.518  11.769  -2.070  1.00  0.00     0.208 A 
ATOM      3  C   UNL     1      12.300  12.258  -3.129  1.00  0.00     0.238 A 
ATOM      4  O   UNL     1      11.814  12.251  -4.290  1.00  0.00    -0.285 OA
ATOM      5  C   UNL     1      13.615  12.721  -2.878  1.00  0.00     0.111 A 
ATOM      6  C   UNL     1      14.483  13.279  -3.867  1.00  0.00     0.134 A 
ATOM      7  C   UNL     1      15.800  13.604  -3.523  1.00  0.00     0.093 A 
ATOM      8  C   UNL     1      16.263  13.454  -2.214  1.00  0.00     0.123 A 
ATOM      9  C   UNL     1      15.408  12.963  -1.231  1.00  0.00     0.094 A 
ATOM     10  C   UNL     1      14.100  12.592  -1.550  1.00  0.00     0.146 A 
ATOM     11  O   UNL     1      13.326  12.107  -0.585  1.00  0.00    -0.451 OA
ENDROOT
BRANCH   1  12
ATOM     12  C   UNL     1      11.315  11.185   0.368  1.00  0.00     0.063 A 
ATOM     13  C   UNL     1      10.989   9.446   2.036  1.00  0.00     0.047 A 
ATOM     14  C   UNL     1      11.694   9.963   0.946  1.00  0.00     0.020 A 
ATOM     15  C   UNL     1       9.890  10.135   2.553  1.00  0.00     0.119 A 
ATOM     16  C   UNL     1       9.489  11.344   1.970  1.00  0.00     0.093 A 
ATOM     17  C   UNL     1      10.188  11.867   0.871  1.00  0.00     0.130 A 
BRANCH  15  18
ATOM     18  O   UNL     1       9.199   9.609   3.643  1.00  0.00    -0.508 OA
ATOM     19  H   UNL     1       9.657   9.448   4.532  1.00  0.00     0.293 HD
ENDBRANCH  15  18
BRANCH  17  20
ATOM     20  O   UNL     1       9.750  13.047   0.267  1.00  0.00    -0.507 OA
ATOM     21  H   UNL     1      10.052  13.956   0.597  1.00  0.00     0.293 HD
ENDBRANCH  17  20
ENDBRANCH   1  12
BRANCH   2  22
ATOM     22  O   UNL     1      10.195  11.373  -2.277  1.00  0.00    -0.502 OA
ATOM     23  H   UNL     1       9.780  11.324  -3.200  1.00  0.00     0.293 HD
ENDBRANCH   2  22
BRANCH   6  24
ATOM     24  O   UNL     1      14.097  13.554  -5.182  1.00  0.00    -0.507 OA
ATOM     25  H   UNL     1      14.302  12.971  -5.978  1.00  0.00     0.293 HD
ENDBRANCH   6  24
BRANCH   8  26
ATOM     26  O   UNL     1      17.572  13.797  -1.879  1.00  0.00    -0.508 OA
ATOM     27  H   UNL     1      17.855  14.764  -1.773  1.00  0.00     0.293 HD
ENDBRANCH   8  26
TORSDOF 6
ENDMDL
MODEL 8
REMARK VINA RESULT:    -6.080     10.010     12.803
REMARK INTER + INTRA:          -7.734
REMARK INTER:                  -7.323
REMARK INTRA:                  -0.411
REMARK UNBOUND:                -0.411
REMARK SMILES O=c1c(O)c(-c2ccc(O)cc2O)oc2cc(O)cc(O)c12
REMARK SMILES IDX 5 1 3 2 2 3 1 4 22 5 20 6 19 7 17 8 16 9 15 10 14 11 6 12
REMARK SMILES IDX 8 13 7 14 9 15 11 16 12 17 10 18 13 20 4 22 21 24 18 26
REMARK H PARENT 10 19 13 21 4 23 21 25 18 27
REMARK Flexibility Score: inf
ROOT
ATOM      1  C   UNL     1      17.356  12.772  -2.625  1.00  0.00     0.184 A 
ATOM      2  C   UNL     1      18.667  13.016  -3.062  1.00  0.00     0.208 A 
ATOM      3  C   UNL     1      19.678  13.209  -2.107  1.00  0.00     0.238 A 
ATOM      4  O   UNL     1      20.863  13.355  -2.505  1.00  0.00    -0.285 OA
ATOM      5  C   UNL     1      19.353  13.210  -0.728  1.00  0.00     0.111 A 
ATOM      6  C   UNL     1      20.288  13.440   0.327  1.00  0.00     0.134 A 
ATOM      7  C   UNL     1      19.873  13.312   1.657  1.00  0.00     0.093 A 
ATOM      8  C   UNL     1      18.542  13.026   1.973  1.00  0.00     0.123 A 
ATOM      9  C   UNL     1      17.611  12.855   0.953  1.00  0.00     0.094 A 
ATOM     10  C   UNL     1      18.002  12.938  -0.386  1.00  0.00     0.146 A 
ATOM     11  O   UNL     1      17.085  12.746  -1.327  1.00  0.00    -0.451 OA
ENDROOT
BRANCH   1  12
ATOM     12  C   UNL     1      16.249  12.552  -3.577  1.00  0.00     0.063 A 
ATOM     13  C   UNL     1      15.127  11.078  -5.153  1.00  0.00     0.047 A 
ATOM     14  C   UNL     1      16.158  11.319  -4.241  1.00  0.00     0.020 A 
ATOM     15  C   UNL     1      14.182  12.071  -5.423  1.00  0.00     0.119 A 
ATOM     16  C   UNL     1      14.276  13.314  -4.784  1.00  0.00     0.093 A 
ATOM     17  C   UNL     1      15.312  13.565  -3.871  1.00  0.00     0.130 A 
BRANCH  15  18
ATOM     18  O   UNL     1      13.156  11.816  -6.331  1.00  0.00    -0.508 OA
ATOM     19  H   UNL     1      12.468  12.521  -6.564  1.00  0.00     0.293 HD
ENDBRANCH  15  18
BRANCH  17  20
ATOM     20  O   UNL     1      15.425  14.823  -3.277  1.00  0.00    -0.507 OA
ATOM     21  H   UNL     1      14.721  15.173  -2.638  1.00  0.00     0.293 HD
ENDBRANCH  17  20
ENDBRANCH   1  12
BRANCH   2  22
ATOM     22  O   UNL     1      18.948  13.081  -4.429  1.00  0.00    -0.502 OA
ATOM     23  H   UNL     1      19.731  12.594  -4.847  1.00  0.00     0.293 HD
ENDBRANCH   2  22
BRANCH   6  24
ATOM     24  O   UNL     1      21.620  13.818   0.125  1.00  0.00    -0.507 OA
ATOM     25  H   UNL     1      22.176  14.346   0.780  1.00  0.00     0.293 HD
ENDBRANCH   6  24
BRANCH   8  26
ATOM     26  O   UNL     1      18.135  12.918   3.302  1.00  0.00    -0.508 OA
ATOM     27  H   UNL     1      18.246  13.685   3.954  1.00  0.00     0.293 HD
ENDBRANCH   8  26
TORSDOF 6
ENDMDL
MODEL 9
REMARK VINA RESULT:    -6.043      9.961     12.639
REMARK INTER + INTRA:          -7.690
REMARK INTER:                  -7.254
REMARK INTRA:                  -0.437
REMARK UNBOUND:                -0.411
REMARK SMILES O=c1c(O)c(-c2ccc(O)cc2O)oc2cc(O)cc(O)c12
REMARK SMILES IDX 5 1 3 2 2 3 1 4 22 5 20 6 19 7 17 8 16 9 15 10 14 11 6 12
REMARK SMILES IDX 8 13 7 14 9 15 11 16 12 17 10 18 13 20 4 22 21 24 18 26
REMARK H PARENT 10 19 13 21 4 23 21 25 18 27
REMARK Flexibility Score: inf
ROOT
ATOM      1  C   UNL     1      16.081  12.570  -1.608  1.00  0.00     0.184 A 
ATOM      2  C   UNL     1      15.489  12.478  -0.339  1.00  0.00     0.208 A 
ATOM      3  C   UNL     1      16.293  12.654   0.800  1.00  0.00     0.238 A 
ATOM      4  O   UNL     1      15.743  12.643   1.932  1.00  0.00    -0.285 OA
ATOM      5  C   UNL     1      17.686  12.864   0.653  1.00  0.00     0.111 A 
ATOM      6  C   UNL     1      18.604  13.010   1.738  1.00  0.00     0.134 A 
ATOM      7  C   UNL     1      19.943  13.320   1.471  1.00  0.00     0.093 A 
ATOM      8  C   UNL     1      20.412  13.424   0.160  1.00  0.00     0.123 A 
ATOM      9  C   UNL     1      19.537  13.229  -0.905  1.00  0.00     0.094 A 
ATOM     10  C   UNL     1      18.186  12.957  -0.672  1.00  0.00     0.146 A 
ATOM     11  O   UNL     1      17.383  12.799  -1.718  1.00  0.00    -0.451 OA
ENDROOT
BRANCH   1  12
ATOM     12  C   UNL     1      15.291  12.403  -2.846  1.00  0.00     0.063 A 
ATOM     13  C   UNL     1      14.166  10.917  -4.407  1.00  0.00     0.047 A 
ATOM     14  C   UNL     1      14.908  11.112  -3.240  1.00  0.00     0.020 A 
ATOM     15  C   UNL     1      13.809  12.009  -5.203  1.00  0.00     0.119 A 
ATOM     16  C   UNL     1      14.206  13.300  -4.832  1.00  0.00     0.093 A 
ATOM     17  C   UNL     1      14.956  13.503  -3.664  1.00  0.00     0.130 A 
BRANCH  15  18
ATOM     18  O   UNL     1      13.065  11.800  -6.362  1.00  0.00    -0.508 OA
ATOM     19  H   UNL     1      12.419  11.024  -6.444  1.00  0.00     0.293 HD
ENDBRANCH  15  18
BRANCH  17  20
ATOM     20  O   UNL     1      15.388  14.787  -3.330  1.00  0.00    -0.507 OA
ATOM     21  H   UNL     1      16.365  15.050  -3.381  1.00  0.00     0.293 HD
ENDBRANCH  17  20
ENDBRANCH   1  12
BRANCH   2  22
ATOM     22  O   UNL     1      14.126  12.199  -0.220  1.00  0.00    -0.502 OA
ATOM     23  H   UNL     1      13.756  11.258  -0.290  1.00  0.00     0.293 HD
ENDBRANCH   2  22
BRANCH   6  24
ATOM     24  O   UNL     1      18.261  12.839   3.083  1.00  0.00    -0.507 OA
ATOM     25  H   UNL     1      17.392  12.447   3.412  1.00  0.00     0.293 HD
ENDBRANCH   6  24
BRANCH   8  26
ATOM     26  O   UNL     1      21.751  13.716  -0.096  1.00  0.00    -0.508 OA
ATOM     27  H   UNL     1      22.489  13.395   0.519  1.00  0.00     0.293 HD
ENDBRANCH   8  26
TORSDOF 6
ENDMDL
