MODEL 1
REMARK VINA RESULT:    -3.094      0.000      0.000
REMARK INTER + INTRA:          -8.023
REMARK INTER:                  -5.626
REMARK INTRA:                  -2.397
REMARK UNBOUND:                -2.397
REMARK SMILES CCCCCCCCCCCCCCCC(=O)[O-]
REMARK SMILES IDX 9 1 10 2 11 3 12 4 13 5 14 6 15 7 16 8 17 9 18 10 8 11 7 12
REMARK SMILES IDX 6 13 5 14 4 15 3 16 2 17 1 18
REMARK H PARENT
REMARK Flexibility Score: inf
ROOT
ATOM      1  C   UNL     1      62.700  32.729  59.451  1.00  0.00     0.000 C 
ENDROOT
BRANCH   1   2
ATOM      2  C   UNL     1      63.998  33.514  59.672  1.00  0.00     0.000 C 
BRANCH   2   3
ATOM      3  C   UNL     1      64.429  33.462  61.143  1.00  0.00     0.000 C 
BRANCH   3   4
ATOM      4  C   UNL     1      64.728  34.868  61.680  1.00  0.00     0.000 C 
BRANCH   4   5
ATOM      5  C   UNL     1      64.961  35.899  60.562  1.00  0.00     0.000 C 
BRANCH   5   6
ATOM      6  C   UNL     1      64.027  37.124  60.646  1.00  0.00     0.006 C 
BRANCH   6   7
ATOM      7  C   UNL     1      62.637  36.758  61.184  1.00  0.00     0.053 C 
BRANCH   7   8
ATOM      8  C   UNL     1      61.689  36.501  60.055  1.00  0.00     0.041 C 
ATOM      9  O   UNL     1      60.536  36.052  60.286  1.00  0.00    -0.550 OA
ATOM     10  O   UNL     1      62.097  36.711  58.744  1.00  0.00    -0.550 OA
ENDBRANCH   7   8
ENDBRANCH   6   7
ENDBRANCH   5   6
ENDBRANCH   4   5
ENDBRANCH   3   4
ENDBRANCH   2   3
ENDBRANCH   1   2
BRANCH   1  11
ATOM     11  C   UNL     1      61.809  32.775  60.698  1.00  0.00     0.000 C 
BRANCH  11  12
ATOM     12  C   UNL     1      61.175  31.402  60.971  1.00  0.00    -0.000 C 
BRANCH  12  13
ATOM     13  C   UNL     1      62.025  30.530  61.908  1.00  0.00    -0.000 C 
BRANCH  13  14
ATOM     14  C   UNL     1      62.088  29.061  61.454  1.00  0.00    -0.000 C 
BRANCH  14  15
ATOM     15  C   UNL     1      63.497  28.643  61.006  1.00  0.00    -0.000 C 
BRANCH  15  16
ATOM     16  C   UNL     1      64.530  29.773  61.159  1.00  0.00    -0.000 C 
BRANCH  16  17
ATOM     17  C   UNL     1      65.333  30.016  59.873  1.00  0.00    -0.003 C 
ATOM     18  C   UNL     1      64.545  29.664  58.611  1.00  0.00     0.004 C 
ENDBRANCH  16  17
ENDBRANCH  15  16
ENDBRANCH  14  15
ENDBRANCH  13  14
ENDBRANCH  12  13
ENDBRANCH  11  12
ENDBRANCH   1  11
TORSDOF 14
ENDMDL
MODEL 2
REMARK VINA RESULT:    -3.086      3.070      6.302
REMARK INTER + INTRA:          -8.010
REMARK INTER:                  -6.206
REMARK INTRA:                  -1.804
REMARK UNBOUND:                -2.397
REMARK SMILES CCCCCCCCCCCCCCCC(=O)[O-]
REMARK SMILES IDX 9 1 10 2 11 3 12 4 13 5 14 6 15 7 16 8 17 9 18 10 8 11 7 12
REMARK SMILES IDX 6 13 5 14 4 15 3 16 2 17 1 18
REMARK H PARENT
REMARK Flexibility Score: inf
ROOT
ATOM      1  C   UNL     1      61.683  32.416  58.297  1.00  0.00     0.000 C 
ENDROOT
BRANCH   1   2
ATOM      2  C   UNL     1      60.748  32.355  59.510  1.00  0.00     0.000 C 
BRANCH   2   3
ATOM      3  C   UNL     1      61.546  32.321  60.819  1.00  0.00     0.000 C 
BRANCH   3   4
ATOM      4  C   UNL     1      61.071  31.178  61.726  1.00  0.00     0.000 C 
BRANCH   4   5
ATOM      5  C   UNL     1      62.089  30.030  61.825  1.00  0.00     0.000 C 
BRANCH   5   6
ATOM      6  C   UNL     1      63.428  30.327  61.119  1.00  0.00     0.006 C 
BRANCH   6   7
ATOM      7  C   UNL     1      64.315  29.080  61.008  1.00  0.00     0.053 C 
BRANCH   7   8
ATOM      8  C   UNL     1      65.722  29.465  60.676  1.00  0.00     0.041 C 
ATOM      9  O   UNL     1      66.685  28.942  61.297  1.00  0.00    -0.550 OA
ATOM     10  O   UNL     1      65.968  30.438  59.717  1.00  0.00    -0.550 OA
ENDBRANCH   7   8
ENDBRANCH   6   7
ENDBRANCH   5   6
ENDBRANCH   4   5
ENDBRANCH   3   4
ENDBRANCH   2   3
ENDBRANCH   1   2
BRANCH   1  11
ATOM     11  C   UNL     1      61.665  33.810  57.658  1.00  0.00     0.000 C 
BRANCH  11  12
ATOM     12  C   UNL     1      62.880  34.635  58.109  1.00  0.00    -0.000 C 
BRANCH  12  13
ATOM     13  C   UNL     1      62.498  36.050  58.573  1.00  0.00    -0.000 C 
BRANCH  13  14
ATOM     14  C   UNL     1      61.504  36.038  59.748  1.00  0.00    -0.000 C 
BRANCH  14  15
ATOM     15  C   UNL     1      62.199  35.866  61.107  1.00  0.00    -0.000 C 
BRANCH  15  16
ATOM     16  C   UNL     1      63.433  36.772  61.264  1.00  0.00    -0.000 C 
BRANCH  16  17
ATOM     17  C   UNL     1      64.696  35.986  61.645  1.00  0.00    -0.003 C 
ATOM     18  C   UNL     1      64.537  34.480  61.443  1.00  0.00     0.004 C 
ENDBRANCH  16  17
ENDBRANCH  15  16
ENDBRANCH  14  15
ENDBRANCH  13  14
ENDBRANCH  12  13
ENDBRANCH  11  12
ENDBRANCH   1  11
TORSDOF 14
ENDMDL
MODEL 3
REMARK VINA RESULT:    -3.057      3.452      6.660
REMARK INTER + INTRA:          -7.956
REMARK INTER:                  -5.785
REMARK INTRA:                  -2.171
REMARK UNBOUND:                -2.397
REMARK SMILES CCCCCCCCCCCCCCCC(=O)[O-]
REMARK SMILES IDX 9 1 10 2 11 3 12 4 13 5 14 6 15 7 16 8 17 9 18 10 8 11 7 12
REMARK SMILES IDX 6 13 5 14 4 15 3 16 2 17 1 18
REMARK H PARENT
REMARK Flexibility Score: inf
ROOT
ATOM      1  C   UNL     1      62.218  32.149  58.831  1.00  0.00     0.000 C 
ENDROOT
BRANCH   1   2
ATOM      2  C   UNL     1      61.007  32.305  59.759  1.00  0.00     0.000 C 
BRANCH   2   3
ATOM      3  C   UNL     1      60.609  30.958  60.375  1.00  0.00     0.000 C 
BRANCH   3   4
ATOM      4  C   UNL     1      61.268  30.763  61.747  1.00  0.00     0.000 C 
BRANCH   4   5
ATOM      5  C   UNL     1      62.249  29.580  61.778  1.00  0.00     0.000 C 
BRANCH   5   6
ATOM      6  C   UNL     1      63.710  29.979  61.480  1.00  0.00     0.006 C 
BRANCH   6   7
ATOM      7  C   UNL     1      64.302  29.181  60.311  1.00  0.00     0.053 C 
BRANCH   7   8
ATOM      8  C   UNL     1      65.659  28.659  60.667  1.00  0.00     0.041 C 
ATOM      9  O   UNL     1      66.581  29.456  60.982  1.00  0.00    -0.550 OA
ATOM     10  O   UNL     1      65.918  27.297  60.601  1.00  0.00    -0.550 OA
ENDBRANCH   7   8
ENDBRANCH   6   7
ENDBRANCH   5   6
ENDBRANCH   4   5
ENDBRANCH   3   4
ENDBRANCH   2   3
ENDBRANCH   1   2
BRANCH   1  11
ATOM     11  C   UNL     1      63.366  33.069  59.264  1.00  0.00     0.000 C 
BRANCH  11  12
ATOM     12  C   UNL     1      63.104  33.653  60.661  1.00  0.00    -0.000 C 
BRANCH  12  13
ATOM     13  C   UNL     1      63.858  34.969  60.907  1.00  0.00    -0.000 C 
BRANCH  13  14
ATOM     14  C   UNL     1      62.914  36.142  61.222  1.00  0.00    -0.000 C 
BRANCH  14  15
ATOM     15  C   UNL     1      61.486  35.905  60.706  1.00  0.00    -0.000 C 
BRANCH  15  16
ATOM     16  C   UNL     1      61.254  36.496  59.304  1.00  0.00    -0.000 C 
BRANCH  16  17
ATOM     17  C   UNL     1      60.251  35.677  58.479  1.00  0.00    -0.003 C 
ATOM     18  C   UNL     1      60.850  35.153  57.174  1.00  0.00     0.004 C 
ENDBRANCH  16  17
ENDBRANCH  15  16
ENDBRANCH  14  15
ENDBRANCH  13  14
ENDBRANCH  12  13
ENDBRANCH  11  12
ENDBRANCH   1  11
TORSDOF 14
ENDMDL
MODEL 4
REMARK VINA RESULT:    -3.053     11.564     13.444
REMARK INTER + INTRA:          -7.948
REMARK INTER:                  -5.583
REMARK INTRA:                  -2.365
REMARK UNBOUND:                -2.397
REMARK SMILES CCCCCCCCCCCCCCCC(=O)[O-]
REMARK SMILES IDX 9 1 10 2 11 3 12 4 13 5 14 6 15 7 16 8 17 9 18 10 8 11 7 12
REMARK SMILES IDX 6 13 5 14 4 15 3 16 2 17 1 18
REMARK H PARENT
REMARK Flexibility Score: inf
ROOT
ATOM      1  C   UNL     1      59.320  28.954  49.502  1.00  0.00     0.000 C 
ENDROOT
BRANCH   1   2
ATOM      2  C   UNL     1      57.901  28.505  49.871  1.00  0.00     0.000 C 
BRANCH   2   3
ATOM      3  C   UNL     1      57.489  29.053  51.242  1.00  0.00     0.000 C 
BRANCH   3   4
ATOM      4  C   UNL     1      56.092  28.556  51.638  1.00  0.00     0.000 C 
BRANCH   4   5
ATOM      5  C   UNL     1      54.971  29.191  50.800  1.00  0.00     0.000 C 
BRANCH   5   6
ATOM      6  C   UNL     1      54.130  28.165  50.011  1.00  0.00     0.006 C 
BRANCH   6   7
ATOM      7  C   UNL     1      54.048  26.810  50.727  1.00  0.00     0.053 C 
BRANCH   7   8
ATOM      8  C   UNL     1      54.547  25.716  49.836  1.00  0.00     0.041 C 
ATOM      9  O   UNL     1      55.713  25.767  49.362  1.00  0.00    -0.550 OA
ATOM     10  O   UNL     1      53.708  24.666  49.490  1.00  0.00    -0.550 OA
ENDBRANCH   7   8
ENDBRANCH   6   7
ENDBRANCH   5   6
ENDBRANCH   4   5
ENDBRANCH   3   4
ENDBRANCH   2   3
ENDBRANCH   1   2
BRANCH   1  11
ATOM     11  C   UNL     1      60.282  27.760  49.459  1.00  0.00     0.000 C 
BRANCH  11  12
ATOM     12  C   UNL     1      59.509  26.436  49.358  1.00  0.00    -0.000 C 
BRANCH  12  13
ATOM     13  C   UNL     1      59.988  25.389  50.377  1.00  0.00    -0.000 C 
BRANCH  13  14
ATOM     14  C   UNL     1      58.826  24.737  51.146  1.00  0.00    -0.000 C 
BRANCH  14  15
ATOM     15  C   UNL     1      58.348  25.593  52.329  1.00  0.00    -0.000 C 
BRANCH  15  16
ATOM     16  C   UNL     1      59.476  25.914  53.325  1.00  0.00    -0.000 C 
BRANCH  16  17
ATOM     17  C   UNL     1      59.527  27.404  53.696  1.00  0.00    -0.003 C 
ATOM     18  C   UNL     1      60.701  28.134  53.045  1.00  0.00     0.004 C 
ENDBRANCH  16  17
ENDBRANCH  15  16
ENDBRANCH  14  15
ENDBRANCH  13  14
ENDBRANCH  12  13
ENDBRANCH  11  12
ENDBRANCH   1  11
TORSDOF 14
ENDMDL
MODEL 5
REMARK VINA RESULT:    -3.039      1.775      4.851
REMARK INTER + INTRA:          -7.923
REMARK INTER:                  -5.926
REMARK INTRA:                  -1.997
REMARK UNBOUND:                -2.397
REMARK SMILES CCCCCCCCCCCCCCCC(=O)[O-]
REMARK SMILES IDX 9 1 10 2 11 3 12 4 13 5 14 6 15 7 16 8 17 9 18 10 8 11 7 12
REMARK SMILES IDX 6 13 5 14 4 15 3 16 2 17 1 18
REMARK H PARENT
REMARK Flexibility Score: inf
ROOT
ATOM      1  C   UNL     1      62.046  29.989  61.755  1.00  0.00     0.000 C 
ENDROOT
BRANCH   1   2
ATOM      2  C   UNL     1      62.734  29.624  60.435  1.00  0.00     0.000 C 
BRANCH   2   3
ATOM      3  C   UNL     1      64.177  29.163  60.676  1.00  0.00     0.000 C 
BRANCH   3   4
ATOM      4  C   UNL     1      65.117  30.363  60.854  1.00  0.00     0.000 C 
BRANCH   4   5
ATOM      5  C   UNL     1      64.713  31.573  59.995  1.00  0.00     0.000 C 
BRANCH   5   6
ATOM      6  C   UNL     1      65.257  31.517  58.552  1.00  0.00     0.006 C 
BRANCH   6   7
ATOM      7  C   UNL     1      65.548  32.914  57.987  1.00  0.00     0.053 C 
BRANCH   7   8
ATOM      8  C   UNL     1      64.279  33.576  57.549  1.00  0.00     0.041 C 
ATOM      9  O   UNL     1      64.021  34.753  57.913  1.00  0.00    -0.550 OA
ATOM     10  O   UNL     1      63.360  32.875  56.779  1.00  0.00    -0.550 OA
ENDBRANCH   7   8
ENDBRANCH   6   7
ENDBRANCH   5   6
ENDBRANCH   4   5
ENDBRANCH   3   4
ENDBRANCH   2   3
ENDBRANCH   1   2
BRANCH   1  11
ATOM     11  C   UNL     1      61.126  31.204  61.579  1.00  0.00     0.000 C 
BRANCH  11  12
ATOM     12  C   UNL     1      60.816  31.447  60.094  1.00  0.00    -0.000 C 
BRANCH  12  13
ATOM     13  C   UNL     1      61.198  32.862  59.631  1.00  0.00    -0.000 C 
BRANCH  13  14
ATOM     14  C   UNL     1      61.935  33.661  60.721  1.00  0.00    -0.000 C 
BRANCH  14  15
ATOM     15  C   UNL     1      61.778  35.180  60.545  1.00  0.00    -0.000 C 
BRANCH  15  16
ATOM     16  C   UNL     1      62.942  35.974  61.163  1.00  0.00    -0.000 C 
BRANCH  16  17
ATOM     17  C   UNL     1      64.187  35.106  61.398  1.00  0.00    -0.003 C 
ATOM     18  C   UNL     1      65.479  35.923  61.426  1.00  0.00     0.004 C 
ENDBRANCH  16  17
ENDBRANCH  15  16
ENDBRANCH  14  15
ENDBRANCH  13  14
ENDBRANCH  12  13
ENDBRANCH  11  12
ENDBRANCH   1  11
TORSDOF 14
ENDMDL
MODEL 6
REMARK VINA RESULT:    -3.011     12.428     14.377
REMARK INTER + INTRA:          -7.873
REMARK INTER:                  -6.035
REMARK INTRA:                  -1.838
REMARK UNBOUND:                -2.397
REMARK SMILES CCCCCCCCCCCCCCCC(=O)[O-]
REMARK SMILES IDX 9 1 10 2 11 3 12 4 13 5 14 6 15 7 16 8 17 9 18 10 8 11 7 12
REMARK SMILES IDX 6 13 5 14 4 15 3 16 2 17 1 18
REMARK H PARENT
REMARK Flexibility Score: inf
ROOT
ATOM      1  C   UNL     1      57.606  28.772  50.313  1.00  0.00     0.000 C 
ENDROOT
BRANCH   1   2
ATOM      2  C   UNL     1      58.812  29.148  49.444  1.00  0.00     0.000 C 
BRANCH   2   3
ATOM      3  C   UNL     1      60.128  28.788  50.144  1.00  0.00     0.000 C 
BRANCH   3   4
ATOM      4  C   UNL     1      60.867  27.675  49.388  1.00  0.00     0.000 C 
BRANCH   4   5
ATOM      5  C   UNL     1      61.024  26.390  50.218  1.00  0.00     0.000 C 
BRANCH   5   6
ATOM      6  C   UNL     1      60.073  25.254  49.787  1.00  0.00     0.006 C 
BRANCH   6   7
ATOM      7  C   UNL     1      59.545  24.453  50.984  1.00  0.00     0.053 C 
BRANCH   7   8
ATOM      8  C   UNL     1      60.444  23.293  51.277  1.00  0.00     0.041 C 
ATOM      9  O   UNL     1      60.289  22.202  50.669  1.00  0.00    -0.550 OA
ATOM     10  O   UNL     1      61.422  23.403  52.257  1.00  0.00    -0.550 OA
ENDBRANCH   7   8
ENDBRANCH   6   7
ENDBRANCH   5   6
ENDBRANCH   4   5
ENDBRANCH   3   4
ENDBRANCH   2   3
ENDBRANCH   1   2
BRANCH   1  11
ATOM     11  C   UNL     1      57.175  27.322  50.058  1.00  0.00     0.000 C 
BRANCH  11  12
ATOM     12  C   UNL     1      56.647  26.672  51.346  1.00  0.00    -0.000 C 
BRANCH  12  13
ATOM     13  C   UNL     1      55.355  25.871  51.121  1.00  0.00    -0.000 C 
BRANCH  13  14
ATOM     14  C   UNL     1      54.885  25.906  49.656  1.00  0.00    -0.000 C 
BRANCH  14  15
ATOM     15  C   UNL     1      53.527  26.605  49.489  1.00  0.00    -0.000 C 
BRANCH  15  16
ATOM     16  C   UNL     1      53.276  27.681  50.560  1.00  0.00    -0.000 C 
BRANCH  16  17
ATOM     17  C   UNL     1      53.865  29.046  50.172  1.00  0.00    -0.003 C 
ATOM     18  C   UNL     1      53.880  30.034  51.337  1.00  0.00     0.004 C 
ENDBRANCH  16  17
ENDBRANCH  15  16
ENDBRANCH  14  15
ENDBRANCH  13  14
ENDBRANCH  12  13
ENDBRANCH  11  12
ENDBRANCH   1  11
TORSDOF 14
ENDMDL
MODEL 7
REMARK VINA RESULT:    -3.001      4.113      7.075
REMARK INTER + INTRA:          -7.854
REMARK INTER:                  -6.210
REMARK INTRA:                  -1.644
REMARK UNBOUND:                -2.397
REMARK SMILES CCCCCCCCCCCCCCCC(=O)[O-]
REMARK SMILES IDX 9 1 10 2 11 3 12 4 13 5 14 6 15 7 16 8 17 9 18 10 8 11 7 12
REMARK SMILES IDX 6 13 5 14 4 15 3 16 2 17 1 18
REMARK H PARENT
REMARK Flexibility Score: inf
ROOT
ATOM      1  C   UNL     1      62.124  30.194  61.863  1.00  0.00     0.000 C 
ENDROOT
BRANCH   1   2
ATOM      2  C   UNL     1      62.352  28.770  61.341  1.00  0.00     0.000 C 
BRANCH   2   3
ATOM      3  C   UNL     1      63.606  28.700  60.461  1.00  0.00     0.000 C 
BRANCH   3   4
ATOM      4  C   UNL     1      64.727  29.582  61.028  1.00  0.00     0.000 C 
BRANCH   4   5
ATOM      5  C   UNL     1      66.077  29.358  60.327  1.00  0.00     0.000 C 
BRANCH   5   6
ATOM      6  C   UNL     1      67.165  28.770  61.250  1.00  0.00     0.006 C 
BRANCH   6   7
ATOM      7  C   UNL     1      67.968  27.657  60.565  1.00  0.00     0.053 C 
BRANCH   7   8
ATOM      8  C   UNL     1      69.272  28.187  60.059  1.00  0.00     0.041 C 
ATOM      9  O   UNL     1      70.237  27.405  59.854  1.00  0.00    -0.550 OA
ATOM     10  O   UNL     1      69.438  29.552  59.862  1.00  0.00    -0.550 OA
ENDBRANCH   7   8
ENDBRANCH   6   7
ENDBRANCH   5   6
ENDBRANCH   4   5
ENDBRANCH   3   4
ENDBRANCH   2   3
ENDBRANCH   1   2
BRANCH   1  11
ATOM     11  C   UNL     1      61.113  30.945  60.988  1.00  0.00     0.000 C 
BRANCH  11  12
ATOM     12  C   UNL     1      61.596  32.374  60.694  1.00  0.00    -0.000 C 
BRANCH  12  13
ATOM     13  C   UNL     1      62.395  32.473  59.384  1.00  0.00    -0.000 C 
BRANCH  13  14
ATOM     14  C   UNL     1      63.828  32.989  59.604  1.00  0.00    -0.000 C 
BRANCH  14  15
ATOM     15  C   UNL     1      64.148  33.229  61.087  1.00  0.00    -0.000 C 
BRANCH  15  16
ATOM     16  C   UNL     1      64.478  34.701  61.394  1.00  0.00    -0.000 C 
BRANCH  16  17
ATOM     17  C   UNL     1      63.694  35.677  60.505  1.00  0.00    -0.003 C 
ATOM     18  C   UNL     1      62.347  36.074  61.110  1.00  0.00     0.004 C 
ENDBRANCH  16  17
ENDBRANCH  15  16
ENDBRANCH  14  15
ENDBRANCH  13  14
ENDBRANCH  12  13
ENDBRANCH  11  12
ENDBRANCH   1  11
TORSDOF 14
ENDMDL
MODEL 8
REMARK VINA RESULT:    -2.993     11.806     13.734
REMARK INTER + INTRA:          -7.840
REMARK INTER:                  -5.737
REMARK INTRA:                  -2.103
REMARK UNBOUND:                -2.397
REMARK SMILES CCCCCCCCCCCCCCCC(=O)[O-]
REMARK SMILES IDX 9 1 10 2 11 3 12 4 13 5 14 6 15 7 16 8 17 9 18 10 8 11 7 12
REMARK SMILES IDX 6 13 5 14 4 15 3 16 2 17 1 18
REMARK H PARENT
REMARK Flexibility Score: inf
ROOT
ATOM      1  C   UNL     1      57.291  26.340  51.018  1.00  0.00     0.000 C 
ENDROOT
BRANCH   1   2
ATOM      2  C   UNL     1      57.649  27.265  52.187  1.00  0.00     0.000 C 
BRANCH   2   3
ATOM      3  C   UNL     1      57.996  28.673  51.689  1.00  0.00     0.000 C 
BRANCH   3   4
ATOM      4  C   UNL     1      57.988  28.733  50.155  1.00  0.00     0.000 C 
BRANCH   4   5
ATOM      5  C   UNL     1      59.386  28.963  49.558  1.00  0.00     0.000 C 
BRANCH   5   6
ATOM      6  C   UNL     1      60.072  27.670  49.070  1.00  0.00     0.006 C 
BRANCH   6   7
ATOM      7  C   UNL     1      61.514  27.551  49.580  1.00  0.00     0.053 C 
BRANCH   7   8
ATOM      8  C   UNL     1      61.695  26.278  50.347  1.00  0.00     0.041 C 
ATOM      9  O   UNL     1      60.866  25.952  51.236  1.00  0.00    -0.550 OA
ATOM     10  O   UNL     1      62.805  25.478  50.112  1.00  0.00    -0.550 OA
ENDBRANCH   7   8
ENDBRANCH   6   7
ENDBRANCH   5   6
ENDBRANCH   4   5
ENDBRANCH   3   4
ENDBRANCH   2   3
ENDBRANCH   1   2
BRANCH   1  11
ATOM     11  C   UNL     1      55.816  25.925  51.075  1.00  0.00     0.000 C 
BRANCH  11  12
ATOM     12  C   UNL     1      55.149  26.079  49.700  1.00  0.00    -0.000 C 
BRANCH  12  13
ATOM     13  C   UNL     1      53.971  27.067  49.717  1.00  0.00    -0.000 C 
BRANCH  13  14
ATOM     14  C   UNL     1      54.396  28.485  50.138  1.00  0.00    -0.000 C 
BRANCH  14  15
ATOM     15  C   UNL     1      53.207  29.343  50.600  1.00  0.00    -0.000 C 
BRANCH  15  16
ATOM     16  C   UNL     1      53.112  29.451  52.132  1.00  0.00    -0.000 C 
BRANCH  16  17
ATOM     17  C   UNL     1      54.448  29.154  52.827  1.00  0.00    -0.003 C 
ATOM     18  C   UNL     1      54.348  28.009  53.835  1.00  0.00     0.004 C 
ENDBRANCH  16  17
ENDBRANCH  15  16
ENDBRANCH  14  15
ENDBRANCH  13  14
ENDBRANCH  12  13
ENDBRANCH  11  12
ENDBRANCH   1  11
TORSDOF 14
ENDMDL
MODEL 9
REMARK VINA RESULT:    -2.984      1.898      3.272
REMARK INTER + INTRA:          -7.824
REMARK INTER:                  -5.931
REMARK INTRA:                  -1.892
REMARK UNBOUND:                -2.397
REMARK SMILES CCCCCCCCCCCCCCCC(=O)[O-]
REMARK SMILES IDX 9 1 10 2 11 3 12 4 13 5 14 6 15 7 16 8 17 9 18 10 8 11 7 12
REMARK SMILES IDX 6 13 5 14 4 15 3 16 2 17 1 18
REMARK H PARENT
REMARK Flexibility Score: inf
ROOT
ATOM      1  C   UNL     1      64.597  33.870  59.739  1.00  0.00     0.000 C 
ENDROOT
BRANCH   1   2
ATOM      2  C   UNL     1      63.802  34.203  61.007  1.00  0.00     0.000 C 
BRANCH   2   3
ATOM      3  C   UNL     1      63.970  35.678  61.391  1.00  0.00     0.000 C 
BRANCH   3   4
ATOM      4  C   UNL     1      62.743  36.500  60.974  1.00  0.00     0.000 C 
BRANCH   4   5
ATOM      5  C   UNL     1      61.518  35.627  60.653  1.00  0.00     0.000 C 
BRANCH   5   6
ATOM      6  C   UNL     1      60.997  35.796  59.211  1.00  0.00     0.006 C 
BRANCH   6   7
ATOM      7  C   UNL     1      59.659  36.545  59.162  1.00  0.00     0.053 C 
BRANCH   7   8
ATOM      8  C   UNL     1      58.814  36.036  58.037  1.00  0.00     0.041 C 
ATOM      9  O   UNL     1      57.560  36.009  58.148  1.00  0.00    -0.550 OA
ATOM     10  O   UNL     1      59.414  35.545  56.885  1.00  0.00    -0.550 OA
ENDBRANCH   7   8
ENDBRANCH   6   7
ENDBRANCH   5   6
ENDBRANCH   4   5
ENDBRANCH   3   4
ENDBRANCH   2   3
ENDBRANCH   1   2
BRANCH   1  11
ATOM     11  C   UNL     1      64.443  32.390  59.366  1.00  0.00     0.000 C 
BRANCH  11  12
ATOM     12  C   UNL     1      64.635  31.491  60.597  1.00  0.00    -0.000 C 
BRANCH  12  13
ATOM     13  C   UNL     1      63.741  30.241  60.565  1.00  0.00    -0.000 C 
BRANCH  13  14
ATOM     14  C   UNL     1      62.774  30.175  61.760  1.00  0.00    -0.000 C 
BRANCH  14  15
ATOM     15  C   UNL     1      61.316  30.439  61.353  1.00  0.00    -0.000 C 
BRANCH  15  16
ATOM     16  C   UNL     1      61.050  31.918  61.019  1.00  0.00    -0.000 C 
BRANCH  16  17
ATOM     17  C   UNL     1      60.717  32.136  59.536  1.00  0.00    -0.003 C 
ATOM     18  C   UNL     1      60.365  30.836  58.814  1.00  0.00     0.004 C 
ENDBRANCH  16  17
ENDBRANCH  15  16
ENDBRANCH  14  15
ENDBRANCH  13  14
ENDBRANCH  12  13
ENDBRANCH  11  12
ENDBRANCH   1  11
TORSDOF 14
ENDMDL
