MODEL 1
REMARK VINA RESULT:    -4.284      0.000      0.000
REMARK INTER + INTRA:         -10.590
REMARK INTER:                  -7.791
REMARK INTRA:                  -2.799
REMARK UNBOUND:                -2.799
REMARK SMILES CCCCCCCCCCCCCC[C@H](C)C(=O)[O-]
REMARK SMILES IDX 9 1 10 2 11 3 12 4 13 5 14 6 15 7 16 8 17 9 18 10 19 11 8 12
REMARK SMILES IDX 7 13 6 14 5 15 4 16 3 17 2 18 1 19
REMARK H PARENT
REMARK Flexibility Score: inf
ROOT
ATOM      1  C   UNL     1      15.040   0.529  -2.055  1.00  0.00     0.000 C 
ENDROOT
BRANCH   1   2
ATOM      2  C   UNL     1      13.964  -0.187  -1.223  1.00  0.00     0.000 C 
BRANCH   2   3
ATOM      3  C   UNL     1      12.912   0.782  -0.651  1.00  0.00     0.000 C 
BRANCH   3   4
ATOM      4  C   UNL     1      12.695   2.014  -1.545  1.00  0.00     0.000 C 
BRANCH   4   5
ATOM      5  C   UNL     1      11.583   2.937  -1.015  1.00  0.00     0.001 C 
BRANCH   5   6
ATOM      6  C   UNL     1      11.591   3.063   0.523  1.00  0.00     0.009 C 
BRANCH   6   7
ATOM      7  C   UNL     1      11.466   4.518   1.029  1.00  0.00     0.032 C 
ATOM      8  C   UNL     1      11.724   4.585   2.539  1.00  0.00     0.014 C 
BRANCH   7   9
ATOM      9  C   UNL     1      10.114   5.100   0.728  1.00  0.00     0.044 C 
ATOM     10  O   UNL     1       9.070   4.455   1.010  1.00  0.00    -0.550 OA
ATOM     11  O   UNL     1      10.005   6.353   0.135  1.00  0.00    -0.550 OA
ENDBRANCH   7   9
ENDBRANCH   6   7
ENDBRANCH   5   6
ENDBRANCH   4   5
ENDBRANCH   3   4
ENDBRANCH   2   3
ENDBRANCH   1   2
BRANCH   1  12
ATOM     12  C   UNL     1      16.423   0.497  -1.381  1.00  0.00     0.000 C 
BRANCH  12  13
ATOM     13  C   UNL     1      17.119   1.869  -1.393  1.00  0.00    -0.000 C 
BRANCH  13  14
ATOM     14  C   UNL     1      16.137   3.030  -1.604  1.00  0.00    -0.000 C 
BRANCH  14  15
ATOM     15  C   UNL     1      16.195   4.017  -0.428  1.00  0.00    -0.000 C 
BRANCH  15  16
ATOM     16  C   UNL     1      15.121   3.736   0.636  1.00  0.00    -0.000 C 
BRANCH  16  17
ATOM     17  C   UNL     1      15.695   3.052   1.889  1.00  0.00    -0.000 C 
BRANCH  17  18
ATOM     18  C   UNL     1      14.802   1.910   2.398  1.00  0.00    -0.003 C 
ATOM     19  C   UNL     1      15.446   0.533   2.231  1.00  0.00     0.004 C 
ENDBRANCH  17  18
ENDBRANCH  16  17
ENDBRANCH  15  16
ENDBRANCH  14  15
ENDBRANCH  13  14
ENDBRANCH  12  13
ENDBRANCH   1  12
TORSDOF 14
ENDMDL
MODEL 2
REMARK VINA RESULT:    -4.268      1.119      3.415
REMARK INTER + INTRA:         -10.560
REMARK INTER:                  -8.194
REMARK INTRA:                  -2.366
REMARK UNBOUND:                -2.799
REMARK SMILES CCCCCCCCCCCCCC[C@H](C)C(=O)[O-]
REMARK SMILES IDX 9 1 10 2 11 3 12 4 13 5 14 6 15 7 16 8 17 9 18 10 19 11 8 12
REMARK SMILES IDX 7 13 6 14 5 15 4 16 3 17 2 18 1 19
REMARK H PARENT
REMARK Flexibility Score: inf
ROOT
ATOM      1  C   UNL     1      16.205   2.607  -1.627  1.00  0.00     0.000 C 
ENDROOT
BRANCH   1   2
ATOM      2  C   UNL     1      16.220   3.206  -0.212  1.00  0.00     0.000 C 
BRANCH   2   3
ATOM      3  C   UNL     1      15.730   2.213   0.859  1.00  0.00     0.000 C 
BRANCH   3   4
ATOM      4  C   UNL     1      15.177   2.916   2.110  1.00  0.00     0.000 C 
BRANCH   4   5
ATOM      5  C   UNL     1      13.649   3.097   2.056  1.00  0.00     0.001 C 
BRANCH   5   6
ATOM      6  C   UNL     1      13.229   4.510   1.598  1.00  0.00     0.009 C 
BRANCH   6   7
ATOM      7  C   UNL     1      11.873   4.974   2.178  1.00  0.00     0.032 C 
ATOM      8  C   UNL     1      11.539   4.193   3.454  1.00  0.00     0.014 C 
BRANCH   7   9
ATOM      9  C   UNL     1      10.757   4.810   1.185  1.00  0.00     0.044 C 
ATOM     10  O   UNL     1      10.086   3.745   1.159  1.00  0.00    -0.550 OA
ATOM     11  O   UNL     1      10.457   5.831   0.291  1.00  0.00    -0.550 OA
ENDBRANCH   7   9
ENDBRANCH   6   7
ENDBRANCH   5   6
ENDBRANCH   4   5
ENDBRANCH   3   4
ENDBRANCH   2   3
ENDBRANCH   1   2
BRANCH   1  12
ATOM     12  C   UNL     1      17.164   1.412  -1.772  1.00  0.00     0.000 C 
BRANCH  12  13
ATOM     13  C   UNL     1      16.641   0.350  -2.753  1.00  0.00    -0.000 C 
BRANCH  13  14
ATOM     14  C   UNL     1      15.125   0.133  -2.641  1.00  0.00    -0.000 C 
BRANCH  14  15
ATOM     15  C   UNL     1      14.787  -0.775  -1.449  1.00  0.00    -0.000 C 
BRANCH  15  16
ATOM     16  C   UNL     1      13.487  -0.362  -0.737  1.00  0.00    -0.000 C 
BRANCH  16  17
ATOM     17  C   UNL     1      12.540   0.432  -1.653  1.00  0.00    -0.000 C 
BRANCH  17  18
ATOM     18  C   UNL     1      12.014   1.713  -0.987  1.00  0.00    -0.003 C 
ATOM     19  C   UNL     1      12.663   2.981  -1.541  1.00  0.00     0.004 C 
ENDBRANCH  17  18
ENDBRANCH  16  17
ENDBRANCH  15  16
ENDBRANCH  14  15
ENDBRANCH  13  14
ENDBRANCH  12  13
ENDBRANCH   1  12
TORSDOF 14
ENDMDL
MODEL 3
REMARK VINA RESULT:    -4.242      1.798      3.253
REMARK INTER + INTRA:         -10.513
REMARK INTER:                  -8.047
REMARK INTRA:                  -2.467
REMARK UNBOUND:                -2.799
REMARK SMILES CCCCCCCCCCCCCC[C@H](C)C(=O)[O-]
REMARK SMILES IDX 9 1 10 2 11 3 12 4 13 5 14 6 15 7 16 8 17 9 18 10 19 11 8 12
REMARK SMILES IDX 7 13 6 14 5 15 4 16 3 17 2 18 1 19
REMARK H PARENT
REMARK Flexibility Score: inf
ROOT
ATOM      1  C   UNL     1      12.390   1.997  -0.235  1.00  0.00     0.000 C 
ENDROOT
BRANCH   1   2
ATOM      2  C   UNL     1      12.272   2.512   1.209  1.00  0.00     0.000 C 
BRANCH   2   3
ATOM      3  C   UNL     1      12.784   3.956   1.368  1.00  0.00     0.000 C 
BRANCH   3   4
ATOM      4  C   UNL     1      11.765   4.873   2.064  1.00  0.00     0.000 C 
BRANCH   4   5
ATOM      5  C   UNL     1      10.361   4.775   1.438  1.00  0.00     0.001 C 
BRANCH   5   6
ATOM      6  C   UNL     1      10.094   5.879   0.393  1.00  0.00     0.009 C 
BRANCH   6   7
ATOM      7  C   UNL     1       9.071   5.473  -0.693  1.00  0.00     0.032 C 
ATOM      8  C   UNL     1       9.004   3.946  -0.823  1.00  0.00     0.014 C 
BRANCH   7   9
ATOM      9  C   UNL     1       9.406   6.073  -2.028  1.00  0.00     0.044 C 
ATOM     10  O   UNL     1      10.474   5.756  -2.614  1.00  0.00    -0.550 OA
ATOM     11  O   UNL     1       8.541   6.982  -2.626  1.00  0.00    -0.550 OA
ENDBRANCH   7   9
ENDBRANCH   6   7
ENDBRANCH   5   6
ENDBRANCH   4   5
ENDBRANCH   3   4
ENDBRANCH   2   3
ENDBRANCH   1   2
BRANCH   1  12
ATOM     12  C   UNL     1      12.623   3.131  -1.248  1.00  0.00     0.000 C 
BRANCH  12  13
ATOM     13  C   UNL     1      13.801   2.846  -2.194  1.00  0.00    -0.000 C 
BRANCH  13  14
ATOM     14  C   UNL     1      14.991   3.789  -1.962  1.00  0.00    -0.000 C 
BRANCH  14  15
ATOM     15  C   UNL     1      16.204   3.018  -1.420  1.00  0.00    -0.000 C 
BRANCH  15  16
ATOM     16  C   UNL     1      16.110   2.748   0.091  1.00  0.00    -0.000 C 
BRANCH  16  17
ATOM     17  C   UNL     1      15.997   1.249   0.417  1.00  0.00    -0.000 C 
BRANCH  17  18
ATOM     18  C   UNL     1      15.503   0.993   1.850  1.00  0.00    -0.003 C 
ATOM     19  C   UNL     1      15.766   2.171   2.788  1.00  0.00     0.004 C 
ENDBRANCH  17  18
ENDBRANCH  16  17
ENDBRANCH  15  16
ENDBRANCH  14  15
ENDBRANCH  13  14
ENDBRANCH  12  13
ENDBRANCH   1  12
TORSDOF 14
ENDMDL
MODEL 4
REMARK VINA RESULT:    -4.112      1.267      3.643
REMARK INTER + INTRA:         -10.277
REMARK INTER:                  -7.819
REMARK INTRA:                  -2.459
REMARK UNBOUND:                -2.799
REMARK SMILES CCCCCCCCCCCCCC[C@H](C)C(=O)[O-]
REMARK SMILES IDX 9 1 10 2 11 3 12 4 13 5 14 6 15 7 16 8 17 9 18 10 19 11 8 12
REMARK SMILES IDX 7 13 6 14 5 15 4 16 3 17 2 18 1 19
REMARK H PARENT
REMARK Flexibility Score: inf
ROOT
ATOM      1  C   UNL     1      15.385   0.672   1.449  1.00  0.00     0.000 C 
ENDROOT
BRANCH   1   2
ATOM      2  C   UNL     1      15.517   2.072   2.070  1.00  0.00     0.000 C 
BRANCH   2   3
ATOM      3  C   UNL     1      15.808   3.162   1.022  1.00  0.00     0.000 C 
BRANCH   3   4
ATOM      4  C   UNL     1      14.632   4.135   0.839  1.00  0.00     0.000 C 
BRANCH   4   5
ATOM      5  C   UNL     1      13.482   3.861   1.824  1.00  0.00     0.001 C 
BRANCH   5   6
ATOM      6  C   UNL     1      12.404   4.967   1.809  1.00  0.00     0.009 C 
BRANCH   6   7
ATOM      7  C   UNL     1      10.968   4.439   2.030  1.00  0.00     0.032 C 
ATOM      8  C   UNL     1      10.999   2.975   2.487  1.00  0.00     0.014 C 
BRANCH   7   9
ATOM      9  C   UNL     1      10.132   4.556   0.787  1.00  0.00     0.044 C 
ATOM     10  O   UNL     1      10.677   4.520  -0.347  1.00  0.00    -0.550 OA
ATOM     11  O   UNL     1       8.753   4.704   0.880  1.00  0.00    -0.550 OA
ENDBRANCH   7   9
ENDBRANCH   6   7
ENDBRANCH   5   6
ENDBRANCH   4   5
ENDBRANCH   3   4
ENDBRANCH   2   3
ENDBRANCH   1   2
BRANCH   1  12
ATOM     12  C   UNL     1      13.925   0.187   1.395  1.00  0.00     0.000 C 
BRANCH  12  13
ATOM     13  C   UNL     1      13.449  -0.097  -0.040  1.00  0.00    -0.000 C 
BRANCH  13  14
ATOM     14  C   UNL     1      12.992   1.171  -0.776  1.00  0.00    -0.000 C 
BRANCH  14  15
ATOM     15  C   UNL     1      13.974   1.538  -1.899  1.00  0.00    -0.000 C 
BRANCH  15  16
ATOM     16  C   UNL     1      14.505   0.305  -2.648  1.00  0.00    -0.000 C 
BRANCH  16  17
ATOM     17  C   UNL     1      16.040   0.209  -2.614  1.00  0.00    -0.000 C 
BRANCH  17  18
ATOM     18  C   UNL     1      16.696   1.463  -2.014  1.00  0.00    -0.003 C 
ATOM     19  C   UNL     1      18.166   1.251  -1.654  1.00  0.00     0.004 C 
ENDBRANCH  17  18
ENDBRANCH  16  17
ENDBRANCH  15  16
ENDBRANCH  14  15
ENDBRANCH  13  14
ENDBRANCH  12  13
ENDBRANCH   1  12
TORSDOF 14
ENDMDL
MODEL 5
REMARK VINA RESULT:    -4.111      2.276      5.221
REMARK INTER + INTRA:         -10.274
REMARK INTER:                  -8.224
REMARK INTRA:                  -2.050
REMARK UNBOUND:                -2.799
REMARK SMILES CCCCCCCCCCCCCC[C@H](C)C(=O)[O-]
REMARK SMILES IDX 9 1 10 2 11 3 12 4 13 5 14 6 15 7 16 8 17 9 18 10 19 11 8 12
REMARK SMILES IDX 7 13 6 14 5 15 4 16 3 17 2 18 1 19
REMARK H PARENT
REMARK Flexibility Score: inf
ROOT
ATOM      1  C   UNL     1      11.843   2.081  -0.885  1.00  0.00     0.000 C 
ENDROOT
BRANCH   1   2
ATOM      2  C   UNL     1      12.516   0.887  -1.581  1.00  0.00     0.000 C 
BRANCH   2   3
ATOM      3  C   UNL     1      13.575   1.320  -2.612  1.00  0.00     0.000 C 
BRANCH   3   4
ATOM      4  C   UNL     1      14.669   0.259  -2.817  1.00  0.00     0.000 C 
BRANCH   4   5
ATOM      5  C   UNL     1      15.741   0.297  -1.713  1.00  0.00     0.001 C 
BRANCH   5   6
ATOM      6  C   UNL     1      16.588   1.587  -1.744  1.00  0.00     0.009 C 
BRANCH   6   7
ATOM      7  C   UNL     1      16.478   2.435  -0.455  1.00  0.00     0.032 C 
ATOM      8  C   UNL     1      15.799   1.630   0.660  1.00  0.00     0.014 C 
BRANCH   7   9
ATOM      9  C   UNL     1      15.714   3.708  -0.688  1.00  0.00     0.044 C 
ATOM     10  O   UNL     1      15.498   4.110  -1.861  1.00  0.00    -0.550 OA
ATOM     11  O   UNL     1      15.242   4.449   0.389  1.00  0.00    -0.550 OA
ENDBRANCH   7   9
ENDBRANCH   6   7
ENDBRANCH   5   6
ENDBRANCH   4   5
ENDBRANCH   3   4
ENDBRANCH   2   3
ENDBRANCH   1   2
BRANCH   1  12
ATOM     12  C   UNL     1      10.331   1.872  -0.688  1.00  0.00     0.000 C 
BRANCH  12  13
ATOM     13  C   UNL     1       9.523   3.163  -0.897  1.00  0.00    -0.000 C 
BRANCH  13  14
ATOM     14  C   UNL     1      10.413   4.378  -1.200  1.00  0.00    -0.000 C 
BRANCH  14  15
ATOM     15  C   UNL     1       9.947   5.609  -0.408  1.00  0.00    -0.000 C 
BRANCH  15  16
ATOM     16  C   UNL     1      10.133   5.444   1.109  1.00  0.00    -0.000 C 
BRANCH  16  17
ATOM     17  C   UNL     1      11.587   5.126   1.496  1.00  0.00    -0.000 C 
BRANCH  17  18
ATOM     18  C   UNL     1      11.682   4.184   2.707  1.00  0.00    -0.003 C 
ATOM     19  C   UNL     1      12.744   3.098   2.534  1.00  0.00     0.004 C 
ENDBRANCH  17  18
ENDBRANCH  16  17
ENDBRANCH  15  16
ENDBRANCH  14  15
ENDBRANCH  13  14
ENDBRANCH  12  13
ENDBRANCH   1  12
TORSDOF 14
ENDMDL
MODEL 6
REMARK VINA RESULT:    -4.094      1.779      2.493
REMARK INTER + INTRA:         -10.245
REMARK INTER:                  -7.918
REMARK INTRA:                  -2.326
REMARK UNBOUND:                -2.799
REMARK SMILES CCCCCCCCCCCCCC[C@H](C)C(=O)[O-]
REMARK SMILES IDX 9 1 10 2 11 3 12 4 13 5 14 6 15 7 16 8 17 9 18 10 19 11 8 12
REMARK SMILES IDX 7 13 6 14 5 15 4 16 3 17 2 18 1 19
REMARK H PARENT
REMARK Flexibility Score: inf
ROOT
ATOM      1  C   UNL     1      13.817   1.677  -2.350  1.00  0.00     0.000 C 
ENDROOT
BRANCH   1   2
ATOM      2  C   UNL     1      12.952   0.866  -1.371  1.00  0.00     0.000 C 
BRANCH   2   3
ATOM      3  C   UNL     1      11.912   1.734  -0.639  1.00  0.00     0.000 C 
BRANCH   3   4
ATOM      4  C   UNL     1      10.501   1.596  -1.234  1.00  0.00     0.000 C 
BRANCH   4   5
ATOM      5  C   UNL     1       9.691   2.902  -1.140  1.00  0.00     0.001 C 
BRANCH   5   6
ATOM      6  C   UNL     1      10.578   4.162  -1.219  1.00  0.00     0.009 C 
BRANCH   6   7
ATOM      7  C   UNL     1      10.066   5.338  -0.354  1.00  0.00     0.032 C 
ATOM      8  C   UNL     1       8.966   4.861   0.602  1.00  0.00     0.014 C 
BRANCH   7   9
ATOM      9  C   UNL     1       9.539   6.464  -1.199  1.00  0.00     0.044 C 
ATOM     10  O   UNL     1       9.772   6.489  -2.435  1.00  0.00    -0.550 OA
ATOM     11  O   UNL     1       8.791   7.483  -0.621  1.00  0.00    -0.550 OA
ENDBRANCH   7   9
ENDBRANCH   6   7
ENDBRANCH   5   6
ENDBRANCH   4   5
ENDBRANCH   3   4
ENDBRANCH   2   3
ENDBRANCH   1   2
BRANCH   1  12
ATOM     12  C   UNL     1      14.091   3.106  -1.849  1.00  0.00     0.000 C 
BRANCH  12  13
ATOM     13  C   UNL     1      15.579   3.487  -1.933  1.00  0.00    -0.000 C 
BRANCH  13  14
ATOM     14  C   UNL     1      16.198   3.768  -0.556  1.00  0.00    -0.000 C 
BRANCH  14  15
ATOM     15  C   UNL     1      15.741   2.724   0.474  1.00  0.00    -0.000 C 
BRANCH  15  16
ATOM     16  C   UNL     1      15.155   3.361   1.745  1.00  0.00    -0.000 C 
BRANCH  16  17
ATOM     17  C   UNL     1      14.404   4.672   1.456  1.00  0.00    -0.000 C 
BRANCH  17  18
ATOM     18  C   UNL     1      12.903   4.572   1.771  1.00  0.00    -0.003 C 
ATOM     19  C   UNL     1      12.550   3.342   2.607  1.00  0.00     0.004 C 
ENDBRANCH  17  18
ENDBRANCH  16  17
ENDBRANCH  15  16
ENDBRANCH  14  15
ENDBRANCH  13  14
ENDBRANCH  12  13
ENDBRANCH   1  12
TORSDOF 14
ENDMDL
MODEL 7
REMARK VINA RESULT:    -4.089      1.464      2.546
REMARK INTER + INTRA:         -10.234
REMARK INTER:                  -8.214
REMARK INTRA:                  -2.020
REMARK UNBOUND:                -2.799
REMARK SMILES CCCCCCCCCCCCCC[C@H](C)C(=O)[O-]
REMARK SMILES IDX 9 1 10 2 11 3 12 4 13 5 14 6 15 7 16 8 17 9 18 10 19 11 8 12
REMARK SMILES IDX 7 13 6 14 5 15 4 16 3 17 2 18 1 19
REMARK H PARENT
REMARK Flexibility Score: inf
ROOT
ATOM      1  C   UNL     1      15.477   3.747  -2.039  1.00  0.00     0.000 C 
ENDROOT
BRANCH   1   2
ATOM      2  C   UNL     1      14.017   3.266  -2.021  1.00  0.00     0.000 C 
BRANCH   2   3
ATOM      3  C   UNL     1      13.897   1.740  -1.855  1.00  0.00     0.000 C 
BRANCH   3   4
ATOM      4  C   UNL     1      12.560   1.316  -1.224  1.00  0.00     0.000 C 
BRANCH   4   5
ATOM      5  C   UNL     1      11.636   2.515  -0.942  1.00  0.00     0.001 C 
BRANCH   5   6
ATOM      6  C   UNL     1      11.490   2.816   0.565  1.00  0.00     0.009 C 
BRANCH   6   7
ATOM      7  C   UNL     1      11.305   4.318   0.884  1.00  0.00     0.032 C 
ATOM      8  C   UNL     1      11.936   4.659   2.239  1.00  0.00     0.014 C 
BRANCH   7   9
ATOM      9  C   UNL     1       9.855   4.712   0.895  1.00  0.00     0.044 C 
ATOM     10  O   UNL     1       8.969   3.873   0.587  1.00  0.00    -0.550 OA
ATOM     11  O   UNL     1       9.482   6.004   1.245  1.00  0.00    -0.550 OA
ENDBRANCH   7   9
ENDBRANCH   6   7
ENDBRANCH   5   6
ENDBRANCH   4   5
ENDBRANCH   3   4
ENDBRANCH   2   3
ENDBRANCH   1   2
BRANCH   1  12
ATOM     12  C   UNL     1      16.138   3.676  -0.651  1.00  0.00     0.000 C 
BRANCH  12  13
ATOM     13  C   UNL     1      15.197   4.134   0.476  1.00  0.00    -0.000 C 
BRANCH  13  14
ATOM     14  C   UNL     1      15.414   3.358   1.783  1.00  0.00    -0.000 C 
BRANCH  14  15
ATOM     15  C   UNL     1      15.000   1.887   1.622  1.00  0.00    -0.000 C 
BRANCH  15  16
ATOM     16  C   UNL     1      15.584   0.982   2.720  1.00  0.00    -0.000 C 
BRANCH  16  17
ATOM     17  C   UNL     1      15.384   1.562   4.131  1.00  0.00    -0.000 C 
BRANCH  17  18
ATOM     18  C   UNL     1      16.533   1.199   5.086  1.00  0.00    -0.003 C 
ATOM     19  C   UNL     1      17.399   2.402   5.459  1.00  0.00     0.004 C 
ENDBRANCH  17  18
ENDBRANCH  16  17
ENDBRANCH  15  16
ENDBRANCH  14  15
ENDBRANCH  13  14
ENDBRANCH  12  13
ENDBRANCH   1  12
TORSDOF 14
ENDMDL
MODEL 8
REMARK VINA RESULT:    -4.045      1.811      3.887
REMARK INTER + INTRA:         -10.155
REMARK INTER:                  -7.296
REMARK INTRA:                  -2.860
REMARK UNBOUND:                -2.799
REMARK SMILES CCCCCCCCCCCCCC[C@H](C)C(=O)[O-]
REMARK SMILES IDX 9 1 10 2 11 3 12 4 13 5 14 6 15 7 16 8 17 9 18 10 19 11 8 12
REMARK SMILES IDX 7 13 6 14 5 15 4 16 3 17 2 18 1 19
REMARK H PARENT
REMARK Flexibility Score: inf
ROOT
ATOM      1  C   UNL     1      16.460   2.679  -1.661  1.00  0.00     0.000 C 
ENDROOT
BRANCH   1   2
ATOM      2  C   UNL     1      16.634   1.188  -1.330  1.00  0.00     0.000 C 
BRANCH   2   3
ATOM      3  C   UNL     1      16.011   0.267  -2.395  1.00  0.00     0.000 C 
BRANCH   3   4
ATOM      4  C   UNL     1      14.593  -0.196  -2.021  1.00  0.00     0.000 C 
BRANCH   4   5
ATOM      5  C   UNL     1      14.310  -0.066  -0.513  1.00  0.00     0.001 C 
BRANCH   5   6
ATOM      6  C   UNL     1      12.989   0.674  -0.214  1.00  0.00     0.009 C 
BRANCH   6   7
ATOM      7  C   UNL     1      12.385   1.392  -1.444  1.00  0.00     0.032 C 
ATOM      8  C   UNL     1      12.611   2.905  -1.346  1.00  0.00     0.014 C 
BRANCH   7   9
ATOM      9  C   UNL     1      10.915   1.115  -1.586  1.00  0.00     0.044 C 
ATOM     10  O   UNL     1      10.519  -0.017  -1.967  1.00  0.00    -0.550 OA
ATOM     11  O   UNL     1       9.984   2.106  -1.298  1.00  0.00    -0.550 OA
ENDBRANCH   7   9
ENDBRANCH   6   7
ENDBRANCH   5   6
ENDBRANCH   4   5
ENDBRANCH   3   4
ENDBRANCH   2   3
ENDBRANCH   1   2
BRANCH   1  12
ATOM     12  C   UNL     1      16.089   3.518  -0.425  1.00  0.00     0.000 C 
BRANCH  12  13
ATOM     13  C   UNL     1      15.998   2.673   0.857  1.00  0.00    -0.000 C 
BRANCH  13  14
ATOM     14  C   UNL     1      14.941   3.198   1.840  1.00  0.00    -0.000 C 
BRANCH  14  15
ATOM     15  C   UNL     1      14.327   4.512   1.334  1.00  0.00    -0.000 C 
BRANCH  15  16
ATOM     16  C   UNL     1      12.882   4.719   1.819  1.00  0.00    -0.000 C 
BRANCH  16  17
ATOM     17  C   UNL     1      12.299   3.462   2.488  1.00  0.00    -0.000 C 
BRANCH  17  18
ATOM     18  C   UNL     1      10.893   3.118   1.971  1.00  0.00    -0.003 C 
ATOM     19  C   UNL     1      10.187   4.313   1.329  1.00  0.00     0.004 C 
ENDBRANCH  17  18
ENDBRANCH  16  17
ENDBRANCH  15  16
ENDBRANCH  14  15
ENDBRANCH  13  14
ENDBRANCH  12  13
ENDBRANCH   1  12
TORSDOF 14
ENDMDL
MODEL 9
REMARK VINA RESULT:    -4.040      1.383      3.635
REMARK INTER + INTRA:         -10.146
REMARK INTER:                  -8.270
REMARK INTRA:                  -1.876
REMARK UNBOUND:                -2.799
REMARK SMILES CCCCCCCCCCCCCC[C@H](C)C(=O)[O-]
REMARK SMILES IDX 9 1 10 2 11 3 12 4 13 5 14 6 15 7 16 8 17 9 18 10 19 11 8 12
REMARK SMILES IDX 7 13 6 14 5 15 4 16 3 17 2 18 1 19
REMARK H PARENT
REMARK Flexibility Score: inf
ROOT
ATOM      1  C   UNL     1      15.071   4.111   0.437  1.00  0.00     0.000 C 
ENDROOT
BRANCH   1   2
ATOM      2  C   UNL     1      14.678   3.172   1.588  1.00  0.00     0.000 C 
BRANCH   2   3
ATOM      3  C   UNL     1      13.249   3.426   2.101  1.00  0.00     0.000 C 
BRANCH   3   4
ATOM      4  C   UNL     1      12.736   4.833   1.750  1.00  0.00     0.000 C 
BRANCH   4   5
ATOM      5  C   UNL     1      11.222   4.984   1.989  1.00  0.00     0.001 C 
BRANCH   5   6
ATOM      6  C   UNL     1      10.386   4.725   0.718  1.00  0.00     0.009 C 
BRANCH   6   7
ATOM      7  C   UNL     1       9.154   5.649   0.585  1.00  0.00     0.032 C 
ATOM      8  C   UNL     1       7.894   4.825   0.296  1.00  0.00     0.014 C 
BRANCH   7   9
ATOM      9  C   UNL     1       9.339   6.673  -0.499  1.00  0.00     0.044 C 
ATOM     10  O   UNL     1       9.764   6.326  -1.631  1.00  0.00    -0.550 OA
ATOM     11  O   UNL     1       9.042   8.010  -0.259  1.00  0.00    -0.550 OA
ENDBRANCH   7   9
ENDBRANCH   6   7
ENDBRANCH   5   6
ENDBRANCH   4   5
ENDBRANCH   3   4
ENDBRANCH   2   3
ENDBRANCH   1   2
BRANCH   1  12
ATOM     12  C   UNL     1      16.305   3.612  -0.335  1.00  0.00     0.000 C 
BRANCH  12  13
ATOM     13  C   UNL     1      15.933   2.866  -1.627  1.00  0.00    -0.000 C 
BRANCH  13  14
ATOM     14  C   UNL     1      16.758   1.588  -1.834  1.00  0.00    -0.000 C 
BRANCH  14  15
ATOM     15  C   UNL     1      15.876   0.444  -2.357  1.00  0.00    -0.000 C 
BRANCH  15  16
ATOM     16  C   UNL     1      14.383   0.811  -2.383  1.00  0.00    -0.000 C 
BRANCH  16  17
ATOM     17  C   UNL     1      13.570   0.055  -1.318  1.00  0.00    -0.000 C 
BRANCH  17  18
ATOM     18  C   UNL     1      12.525   0.949  -0.631  1.00  0.00    -0.003 C 
ATOM     19  C   UNL     1      12.319   2.283  -1.349  1.00  0.00     0.004 C 
ENDBRANCH  17  18
ENDBRANCH  16  17
ENDBRANCH  15  16
ENDBRANCH  14  15
ENDBRANCH  13  14
ENDBRANCH  12  13
ENDBRANCH   1  12
TORSDOF 14
ENDMDL
