MODEL 1
REMARK VINA RESULT:    -4.954      0.000      0.000
REMARK INTER + INTRA:          -6.111
REMARK INTER:                  -5.967
REMARK INTRA:                  -0.143
REMARK UNBOUND:                -0.143
REMARK SMILES [NH3+][C@@H](Cc1cnc[nH]1)C(=O)[O-]
REMARK SMILES IDX 3 1 2 2 1 3 9 7 10 8 11 9 4 10 5 11 8 12 6 13 7 14
REMARK H PARENT 1 4 1 5 1 6 8 15
REMARK Flexibility Score: inf
ROOT
ATOM      1  C   UNL     1     -16.550 -36.651 -15.066  1.00  0.00     0.127 C 
ENDROOT
BRANCH   1   2
ATOM      2  C   UNL     1     -15.403 -35.719 -14.626  1.00  0.00     0.233 C 
BRANCH   2   3
ATOM      3  N   UNL     1     -15.810 -34.313 -14.742  1.00  0.00    -0.350 N 
ATOM      4  H   UNL     1     -16.821 -34.214 -14.493  1.00  0.00     0.345 HD
ATOM      5  H   UNL     1     -15.683 -33.988 -15.728  1.00  0.00     0.345 HD
ATOM      6  H   UNL     1     -15.237 -33.709 -14.107  1.00  0.00     0.345 HD
ENDBRANCH   2   3
BRANCH   2   7
ATOM      7  C   UNL     1     -14.158 -35.972 -15.436  1.00  0.00     0.099 C 
ATOM      8  O   UNL     1     -13.085 -35.371 -15.165  1.00  0.00    -0.544 OA
ATOM      9  O   UNL     1     -14.193 -36.859 -16.504  1.00  0.00    -0.544 OA
ENDBRANCH   2   7
ENDBRANCH   1   2
BRANCH   1  10
ATOM     10  C   UNL     1     -17.527 -36.889 -13.952  1.00  0.00     0.041 A 
ATOM     11  C   UNL     1     -17.235 -36.972 -12.610  1.00  0.00     0.134 A 
ATOM     12  N   UNL     1     -18.856 -36.975 -14.109  1.00  0.00    -0.348 N 
ATOM     13  N   UNL     1     -18.382 -37.125 -11.918  1.00  0.00    -0.245 NA
ATOM     14  C   UNL     1     -19.346 -37.124 -12.864  1.00  0.00     0.196 A 
ATOM     15  H   UNL     1     -19.397 -36.928 -15.000  1.00  0.00     0.167 HD
ENDBRANCH   1  10
TORSDOF 4
ENDMDL
MODEL 2
REMARK VINA RESULT:    -4.833      2.876      4.572
REMARK INTER + INTRA:          -5.966
REMARK INTER:                  -5.792
REMARK INTRA:                  -0.174
REMARK UNBOUND:                -0.143
REMARK SMILES [NH3+][C@@H](Cc1cnc[nH]1)C(=O)[O-]
REMARK SMILES IDX 3 1 2 2 1 3 9 7 10 8 11 9 4 10 5 11 8 12 6 13 7 14
REMARK H PARENT 1 4 1 5 1 6 8 15
REMARK Flexibility Score: inf
ROOT
ATOM      1  C   UNL     1     -16.979 -35.754 -14.391  1.00  0.00     0.127 C 
ENDROOT
BRANCH   1   2
ATOM      2  C   UNL     1     -17.620 -37.017 -13.782  1.00  0.00     0.233 C 
BRANCH   2   3
ATOM      3  N   UNL     1     -19.062 -37.045 -14.057  1.00  0.00    -0.350 N 
ATOM      4  H   UNL     1     -19.304 -36.312 -14.764  1.00  0.00     0.345 HD
ATOM      5  H   UNL     1     -19.594 -36.841 -13.180  1.00  0.00     0.345 HD
ATOM      6  H   UNL     1     -19.351 -37.983 -14.421  1.00  0.00     0.345 HD
ENDBRANCH   2   3
BRANCH   2   7
ATOM      7  C   UNL     1     -17.370 -37.090 -12.297  1.00  0.00     0.099 C 
ATOM      8  O   UNL     1     -18.334 -37.107 -11.486  1.00  0.00    -0.544 OA
ATOM      9  O   UNL     1     -16.069 -37.119 -11.814  1.00  0.00    -0.544 OA
ENDBRANCH   2   7
ENDBRANCH   1   2
BRANCH   1  10
ATOM     10  C   UNL     1     -15.873 -36.102 -15.344  1.00  0.00     0.041 A 
ATOM     11  C   UNL     1     -14.752 -36.849 -15.062  1.00  0.00     0.134 A 
ATOM     12  N   UNL     1     -15.866 -35.792 -16.649  1.00  0.00    -0.348 N 
ATOM     13  N   UNL     1     -14.028 -36.999 -16.190  1.00  0.00    -0.245 NA
ATOM     14  C   UNL     1     -14.737 -36.341 -17.133  1.00  0.00     0.196 A 
ATOM     15  H   UNL     1     -16.584 -35.251 -17.180  1.00  0.00     0.167 HD
ENDBRANCH   1  10
TORSDOF 4
ENDMDL
MODEL 3
REMARK VINA RESULT:    -4.828      1.912      2.529
REMARK INTER + INTRA:          -5.960
REMARK INTER:                  -5.664
REMARK INTRA:                  -0.296
REMARK UNBOUND:                -0.143
REMARK SMILES [NH3+][C@@H](Cc1cnc[nH]1)C(=O)[O-]
REMARK SMILES IDX 3 1 2 2 1 3 9 7 10 8 11 9 4 10 5 11 8 12 6 13 7 14
REMARK H PARENT 1 4 1 5 1 6 8 15
REMARK Flexibility Score: inf
ROOT
ATOM      1  C   UNL     1     -16.975 -37.125 -13.258  1.00  0.00     0.127 C 
ENDROOT
BRANCH   1   2
ATOM      2  C   UNL     1     -16.289 -36.006 -14.067  1.00  0.00     0.233 C 
BRANCH   2   3
ATOM      3  N   UNL     1     -17.119 -35.618 -15.214  1.00  0.00    -0.350 N 
ATOM      4  H   UNL     1     -16.608 -34.921 -15.803  1.00  0.00     0.345 HD
ATOM      5  H   UNL     1     -18.005 -35.175 -14.878  1.00  0.00     0.345 HD
ATOM      6  H   UNL     1     -17.356 -36.455 -15.798  1.00  0.00     0.345 HD
ENDBRANCH   2   3
BRANCH   2   7
ATOM      7  C   UNL     1     -14.921 -36.434 -14.533  1.00  0.00     0.099 C 
ATOM      8  O   UNL     1     -14.111 -36.970 -13.732  1.00  0.00    -0.544 OA
ATOM      9  O   UNL     1     -14.539 -36.219 -15.851  1.00  0.00    -0.544 OA
ENDBRANCH   2   7
ENDBRANCH   1   2
BRANCH   1  10
ATOM     10  C   UNL     1     -16.889 -36.870 -11.781  1.00  0.00     0.041 A 
ATOM     11  C   UNL     1     -17.940 -36.834 -10.893  1.00  0.00     0.134 A 
ATOM     12  N   UNL     1     -15.744 -36.719 -11.100  1.00  0.00    -0.348 N 
ATOM     13  N   UNL     1     -17.458 -36.645  -9.648  1.00  0.00    -0.245 NA
ATOM     14  C   UNL     1     -16.119 -36.578  -9.814  1.00  0.00     0.196 A 
ATOM     15  H   UNL     1     -14.772 -36.719 -11.478  1.00  0.00     0.167 HD
ENDBRANCH   1  10
TORSDOF 4
ENDMDL
MODEL 4
REMARK VINA RESULT:    -4.718      3.172      4.921
REMARK INTER + INTRA:          -5.827
REMARK INTER:                  -5.797
REMARK INTRA:                  -0.030
REMARK UNBOUND:                -0.143
REMARK SMILES [NH3+][C@@H](Cc1cnc[nH]1)C(=O)[O-]
REMARK SMILES IDX 3 1 2 2 1 3 9 7 10 8 11 9 4 10 5 11 8 12 6 13 7 14
REMARK H PARENT 1 4 1 5 1 6 8 15
REMARK Flexibility Score: inf
ROOT
ATOM      1  C   UNL     1     -16.027 -36.353 -12.658  1.00  0.00     0.127 C 
ENDROOT
BRANCH   1   2
ATOM      2  C   UNL     1     -17.190 -37.088 -13.355  1.00  0.00     0.233 C 
BRANCH   2   3
ATOM      3  N   UNL     1     -17.501 -36.454 -14.642  1.00  0.00    -0.350 N 
ATOM      4  H   UNL     1     -18.469 -36.714 -14.942  1.00  0.00     0.345 HD
ATOM      5  H   UNL     1     -16.832 -36.788 -15.373  1.00  0.00     0.345 HD
ATOM      6  H   UNL     1     -17.433 -35.411 -14.567  1.00  0.00     0.345 HD
ENDBRANCH   2   3
BRANCH   2   7
ATOM      7  C   UNL     1     -18.416 -37.118 -12.478  1.00  0.00     0.099 C 
ATOM      8  O   UNL     1     -19.567 -37.122 -12.988  1.00  0.00    -0.544 OA
ATOM      9  O   UNL     1     -18.280 -37.122 -11.096  1.00  0.00    -0.544 OA
ENDBRANCH   2   7
ENDBRANCH   1   2
BRANCH   1  10
ATOM     10  C   UNL     1     -15.025 -35.840 -13.650  1.00  0.00     0.041 A 
ATOM     11  C   UNL     1     -14.747 -34.521 -13.927  1.00  0.00     0.134 A 
ATOM     12  N   UNL     1     -14.192 -36.613 -14.361  1.00  0.00    -0.348 N 
ATOM     13  N   UNL     1     -13.743 -34.461 -14.825  1.00  0.00    -0.245 NA
ATOM     14  C   UNL     1     -13.433 -35.754 -15.066  1.00  0.00     0.196 A 
ATOM     15  H   UNL     1     -14.134 -37.655 -14.362  1.00  0.00     0.167 HD
ENDBRANCH   1  10
TORSDOF 4
ENDMDL
MODEL 5
REMARK VINA RESULT:    -4.682      2.583      3.527
REMARK INTER + INTRA:          -5.784
REMARK INTER:                  -5.669
REMARK INTRA:                  -0.115
REMARK UNBOUND:                -0.143
REMARK SMILES [NH3+][C@@H](Cc1cnc[nH]1)C(=O)[O-]
REMARK SMILES IDX 3 1 2 2 1 3 9 7 10 8 11 9 4 10 5 11 8 12 6 13 7 14
REMARK H PARENT 1 4 1 5 1 6 8 15
REMARK Flexibility Score: inf
ROOT
ATOM      1  C   UNL     1     -15.615 -37.075 -11.736  1.00  0.00     0.127 C 
ENDROOT
BRANCH   1   2
ATOM      2  C   UNL     1     -16.158 -36.237 -12.911  1.00  0.00     0.233 C 
BRANCH   2   3
ATOM      3  N   UNL     1     -16.991 -37.065 -13.792  1.00  0.00    -0.350 N 
ATOM      4  H   UNL     1     -18.003 -36.870 -13.611  1.00  0.00     0.345 HD
ATOM      5  H   UNL     1     -16.814 -38.077 -13.600  1.00  0.00     0.345 HD
ATOM      6  H   UNL     1     -16.777 -36.865 -14.798  1.00  0.00     0.345 HD
ENDBRANCH   2   3
BRANCH   2   7
ATOM      7  C   UNL     1     -15.034 -35.609 -13.694  1.00  0.00     0.099 C 
ATOM      8  O   UNL     1     -14.040 -36.295 -14.050  1.00  0.00    -0.544 OA
ATOM      9  O   UNL     1     -15.081 -34.257 -14.012  1.00  0.00    -0.544 OA
ENDBRANCH   2   7
ENDBRANCH   1   2
BRANCH   1  10
ATOM     10  C   UNL     1     -16.314 -36.742 -10.451  1.00  0.00     0.041 A 
ATOM     11  C   UNL     1     -17.674 -36.730 -10.237  1.00  0.00     0.134 A 
ATOM     12  N   UNL     1     -15.694 -36.481  -9.291  1.00  0.00    -0.348 N 
ATOM     13  N   UNL     1     -17.912 -36.448  -8.940  1.00  0.00    -0.245 NA
ATOM     14  C   UNL     1     -16.684 -36.301  -8.398  1.00  0.00     0.196 A 
ATOM     15  H   UNL     1     -14.666 -36.437  -9.114  1.00  0.00     0.167 HD
ENDBRANCH   1  10
TORSDOF 4
ENDMDL
MODEL 6
REMARK VINA RESULT:    -4.621      2.116      2.659
REMARK INTER + INTRA:          -5.710
REMARK INTER:                  -5.401
REMARK INTRA:                  -0.309
REMARK UNBOUND:                -0.143
REMARK SMILES [NH3+][C@@H](Cc1cnc[nH]1)C(=O)[O-]
REMARK SMILES IDX 3 1 2 2 1 3 9 7 10 8 11 9 4 10 5 11 8 12 6 13 7 14
REMARK H PARENT 1 4 1 5 1 6 8 15
REMARK Flexibility Score: inf
ROOT
ATOM      1  C   UNL     1     -15.258 -35.966 -12.987  1.00  0.00     0.127 C 
ENDROOT
BRANCH   1   2
ATOM      2  C   UNL     1     -15.044 -37.038 -14.074  1.00  0.00     0.233 C 
BRANCH   2   3
ATOM      3  N   UNL     1     -13.646 -37.042 -14.524  1.00  0.00    -0.350 N 
ATOM      4  H   UNL     1     -13.045 -36.550 -13.823  1.00  0.00     0.345 HD
ATOM      5  H   UNL     1     -13.566 -36.536 -15.436  1.00  0.00     0.345 HD
ATOM      6  H   UNL     1     -13.300 -38.023 -14.646  1.00  0.00     0.345 HD
ENDBRANCH   2   3
BRANCH   2   7
ATOM      7  C   UNL     1     -15.969 -36.816 -15.244  1.00  0.00     0.099 C 
ATOM      8  O   UNL     1     -17.187 -37.125 -15.164  1.00  0.00    -0.544 OA
ATOM      9  O   UNL     1     -15.474 -36.286 -16.428  1.00  0.00    -0.544 OA
ENDBRANCH   2   7
ENDBRANCH   1   2
BRANCH   1  10
ATOM     10  C   UNL     1     -16.165 -36.458 -11.897  1.00  0.00     0.041 A 
ATOM     11  C   UNL     1     -15.864 -36.546 -10.557  1.00  0.00     0.134 A 
ATOM     12  N   UNL     1     -17.445 -36.814 -12.075  1.00  0.00    -0.348 N 
ATOM     13  N   UNL     1     -16.954 -36.971  -9.888  1.00  0.00    -0.245 NA
ATOM     14  C   UNL     1     -17.895 -37.124 -10.844  1.00  0.00     0.196 A 
ATOM     15  H   UNL     1     -17.983 -36.836 -12.969  1.00  0.00     0.167 HD
ENDBRANCH   1  10
TORSDOF 4
ENDMDL
MODEL 7
REMARK VINA RESULT:    -4.404      2.763      4.553
REMARK INTER + INTRA:          -5.448
REMARK INTER:                  -5.541
REMARK INTRA:                   0.093
REMARK UNBOUND:                -0.143
REMARK SMILES [NH3+][C@@H](Cc1cnc[nH]1)C(=O)[O-]
REMARK SMILES IDX 3 1 2 2 1 3 9 7 10 8 11 9 4 10 5 11 8 12 6 13 7 14
REMARK H PARENT 1 4 1 5 1 6 8 15
REMARK Flexibility Score: inf
ROOT
ATOM      1  C   UNL     1     -15.219 -37.125 -14.516  1.00  0.00     0.127 C 
ENDROOT
BRANCH   1   2
ATOM      2  C   UNL     1     -16.715 -36.927 -14.832  1.00  0.00     0.233 C 
BRANCH   2   3
ATOM      3  N   UNL     1     -16.925 -35.671 -15.564  1.00  0.00    -0.350 N 
ATOM      4  H   UNL     1     -16.545 -35.758 -16.535  1.00  0.00     0.345 HD
ATOM      5  H   UNL     1     -16.418 -34.893 -15.084  1.00  0.00     0.345 HD
ATOM      6  H   UNL     1     -17.944 -35.438 -15.612  1.00  0.00     0.345 HD
ENDBRANCH   2   3
BRANCH   2   7
ATOM      7  C   UNL     1     -17.542 -36.940 -13.571  1.00  0.00     0.099 C 
ATOM      8  O   UNL     1     -18.790 -37.097 -13.627  1.00  0.00    -0.544 OA
ATOM      9  O   UNL     1     -16.929 -36.760 -12.338  1.00  0.00    -0.544 OA
ENDBRANCH   2   7
ENDBRANCH   1   2
BRANCH   1  10
ATOM     10  C   UNL     1     -14.502 -35.812 -14.398  1.00  0.00     0.041 A 
ATOM     11  C   UNL     1     -13.403 -35.411 -15.122  1.00  0.00     0.134 A 
ATOM     12  N   UNL     1     -14.890 -34.800 -13.609  1.00  0.00    -0.348 N 
ATOM     13  N   UNL     1     -13.088 -34.145 -14.780  1.00  0.00    -0.245 NA
ATOM     14  C   UNL     1     -14.014 -33.808 -13.856  1.00  0.00     0.196 A 
ATOM     15  H   UNL     1     -15.701 -34.778 -12.953  1.00  0.00     0.167 HD
ENDBRANCH   1  10
TORSDOF 4
ENDMDL
