MODEL 1
REMARK VINA RESULT:    31.600      0.000      0.000
REMARK INTER + INTRA:          39.422
REMARK INTER:                  38.990
REMARK INTRA:                   0.432
REMARK UNBOUND:                 0.432
REMARK SMILES O=c1c(O)c(-c2cc(O)c(O)c(O)c2)oc2cc(O)cc(O)c12
REMARK SMILES IDX 5 1 3 2 2 3 1 4 23 5 21 6 20 7 18 8 17 9 16 10 15 11 6 12
REMARK SMILES IDX 7 13 8 14 14 15 10 16 12 17 9 18 11 20 13 22 4 24 22 26
REMARK SMILES IDX 19 28
REMARK H PARENT 9 19 11 21 13 23 4 25 22 27 19 29
REMARK Flexibility Score: inf
ROOT
ATOM      1  C   UNL     1      17.305   3.349  13.139  1.00  0.00     0.180 A 
ATOM      2  C   UNL     1      17.585   2.789  14.397  1.00  0.00     0.208 A 
ATOM      3  C   UNL     1      16.625   2.892  15.417  1.00  0.00     0.238 A 
ATOM      4  O   UNL     1      16.904   2.437  16.556  1.00  0.00    -0.285 OA
ATOM      5  C   UNL     1      15.392   3.538  15.161  1.00  0.00     0.111 A 
ATOM      6  C   UNL     1      14.332   3.665  16.108  1.00  0.00     0.134 A 
ATOM      7  C   UNL     1      13.208   4.437  15.788  1.00  0.00     0.093 A 
ATOM      8  C   UNL     1      13.077   5.033  14.535  1.00  0.00     0.123 A 
ATOM      9  C   UNL     1      14.081   4.866  13.579  1.00  0.00     0.094 A 
ATOM     10  C   UNL     1      15.230   4.132  13.882  1.00  0.00     0.146 A 
ATOM     11  O   UNL     1      16.167   4.006  12.949  1.00  0.00    -0.452 OA
ENDROOT
BRANCH   1  12
ATOM     12  C   UNL     1      18.256   3.259  12.007  1.00  0.00     0.029 A 
ATOM     13  C   UNL     1      19.436   2.501  12.102  1.00  0.00     0.062 A 
ATOM     14  C   UNL     1      20.313   2.410  11.012  1.00  0.00     0.162 A 
ATOM     15  C   UNL     1      17.950   3.896  10.796  1.00  0.00     0.062 A 
ATOM     16  C   UNL     1      20.008   3.069   9.809  1.00  0.00     0.200 A 
ATOM     17  C   UNL     1      18.819   3.811   9.704  1.00  0.00     0.162 A 
BRANCH  14  18
ATOM     18  O   UNL     1      21.483   1.659  11.120  1.00  0.00    -0.504 OA
ATOM     19  H   UNL     1      21.989   1.585  11.995  1.00  0.00     0.293 HD
ENDBRANCH  14  18
BRANCH  16  20
ATOM     20  O   UNL     1      20.872   2.991   8.717  1.00  0.00    -0.502 OA
ATOM     21  H   UNL     1      21.544   2.241   8.611  1.00  0.00     0.293 HD
ENDBRANCH  16  20
BRANCH  17  22
ATOM     22  O   UNL     1      18.485   4.470   8.521  1.00  0.00    -0.504 OA
ATOM     23  H   UNL     1      18.300   5.466   8.492  1.00  0.00     0.293 HD
ENDBRANCH  17  22
ENDBRANCH   1  12
BRANCH   2  24
ATOM     24  O   UNL     1      18.818   2.176  14.634  1.00  0.00    -0.502 OA
ATOM     25  H   UNL     1      18.993   1.604  15.452  1.00  0.00     0.293 HD
ENDBRANCH   2  24
BRANCH   6  26
ATOM     26  O   UNL     1      14.320   3.034  17.356  1.00  0.00    -0.507 OA
ATOM     27  H   UNL     1      13.507   2.945  17.946  1.00  0.00     0.293 HD
ENDBRANCH   6  26
BRANCH   8  28
ATOM     28  O   UNL     1      11.938   5.782  14.244  1.00  0.00    -0.508 OA
ATOM     29  H   UNL     1      11.397   5.619  13.404  1.00  0.00     0.293 HD
ENDBRANCH   8  28
TORSDOF 7
ENDMDL
MODEL 2
REMARK VINA RESULT:    32.329      5.358      8.147
REMARK INTER + INTRA:          40.321
REMARK INTER:                  39.899
REMARK INTRA:                   0.423
REMARK UNBOUND:                 0.432
REMARK SMILES O=c1c(O)c(-c2cc(O)c(O)c(O)c2)oc2cc(O)cc(O)c12
REMARK SMILES IDX 5 1 3 2 2 3 1 4 23 5 21 6 20 7 18 8 17 9 16 10 15 11 6 12
REMARK SMILES IDX 7 13 8 14 14 15 10 16 12 17 9 18 11 20 13 22 4 24 22 26
REMARK SMILES IDX 19 28
REMARK H PARENT 9 19 11 21 13 23 4 25 22 27 19 29
REMARK Flexibility Score: inf
ROOT
ATOM      1  C   UNL     1      15.462   8.107  16.489  1.00  0.00     0.180 A 
ATOM      2  C   UNL     1      14.520   8.250  15.456  1.00  0.00     0.208 A 
ATOM      3  C   UNL     1      13.844   7.110  14.989  1.00  0.00     0.238 A 
ATOM      4  O   UNL     1      13.042   7.235  14.028  1.00  0.00    -0.285 OA
ATOM      5  C   UNL     1      14.107   5.847  15.572  1.00  0.00     0.111 A 
ATOM      6  C   UNL     1      13.452   4.634  15.205  1.00  0.00     0.134 A 
ATOM      7  C   UNL     1      13.884   3.421  15.757  1.00  0.00     0.093 A 
ATOM      8  C   UNL     1      14.902   3.386  16.709  1.00  0.00     0.123 A 
ATOM      9  C   UNL     1      15.509   4.574  17.120  1.00  0.00     0.094 A 
ATOM     10  C   UNL     1      15.125   5.794  16.560  1.00  0.00     0.146 A 
ATOM     11  O   UNL     1      15.734   6.901  16.970  1.00  0.00    -0.452 OA
ENDROOT
BRANCH   1  12
ATOM     12  C   UNL     1      16.196   9.265  17.051  1.00  0.00     0.029 A 
ATOM     13  C   UNL     1      15.879  10.583  16.677  1.00  0.00     0.062 A 
ATOM     14  C   UNL     1      16.569  11.667  17.237  1.00  0.00     0.162 A 
ATOM     15  C   UNL     1      17.190   9.049  18.016  1.00  0.00     0.062 A 
ATOM     16  C   UNL     1      17.579  11.440  18.188  1.00  0.00     0.200 A 
ATOM     17  C   UNL     1      17.884  10.125  18.579  1.00  0.00     0.162 A 
BRANCH  14  18
ATOM     18  O   UNL     1      16.250  12.969  16.855  1.00  0.00    -0.504 OA
ATOM     19  H   UNL     1      15.701  13.578  17.450  1.00  0.00     0.293 HD
ENDBRANCH  14  18
BRANCH  16  20
ATOM     20  O   UNL     1      18.278  12.507  18.752  1.00  0.00    -0.502 OA
ATOM     21  H   UNL     1      18.054  12.877  19.668  1.00  0.00     0.293 HD
ENDBRANCH  16  20
BRANCH  17  22
ATOM     22  O   UNL     1      18.875   9.867  19.527  1.00  0.00    -0.504 OA
ATOM     23  H   UNL     1      19.851  10.082  19.358  1.00  0.00     0.293 HD
ENDBRANCH  17  22
ENDBRANCH   1  12
BRANCH   2  24
ATOM     24  O   UNL     1      14.292   9.502  14.880  1.00  0.00    -0.502 OA
ATOM     25  H   UNL     1      13.393   9.967  14.926  1.00  0.00     0.293 HD
ENDBRANCH   2  24
BRANCH   6  26
ATOM     26  O   UNL     1      12.362   4.568  14.332  1.00  0.00    -0.507 OA
ATOM     27  H   UNL     1      12.116   3.759  13.781  1.00  0.00     0.293 HD
ENDBRANCH   6  26
BRANCH   8  28
ATOM     28  O   UNL     1      15.296   2.163  17.250  1.00  0.00    -0.508 OA
ATOM     29  H   UNL     1      16.127   2.081  17.824  1.00  0.00     0.293 HD
ENDBRANCH   8  28
TORSDOF 7
ENDMDL
MODEL 3
REMARK VINA RESULT:    33.365      2.939      5.063
REMARK INTER + INTRA:          41.600
REMARK INTER:                  41.899
REMARK INTRA:                  -0.300
REMARK UNBOUND:                 0.432
REMARK SMILES O=c1c(O)c(-c2cc(O)c(O)c(O)c2)oc2cc(O)cc(O)c12
REMARK SMILES IDX 5 1 3 2 2 3 1 4 23 5 21 6 20 7 18 8 17 9 16 10 15 11 6 12
REMARK SMILES IDX 7 13 8 14 14 15 10 16 12 17 9 18 11 20 13 22 4 24 22 26
REMARK SMILES IDX 19 28
REMARK H PARENT 9 19 11 21 13 23 4 25 22 27 19 29
REMARK Flexibility Score: inf
ROOT
ATOM      1  C   UNL     1      15.412   4.292  15.028  1.00  0.00     0.180 A 
ATOM      2  C   UNL     1      14.210   4.063  14.338  1.00  0.00     0.208 A 
ATOM      3  C   UNL     1      13.317   5.132  14.153  1.00  0.00     0.238 A 
ATOM      4  O   UNL     1      12.218   4.908  13.583  1.00  0.00    -0.285 OA
ATOM      5  C   UNL     1      13.645   6.417  14.647  1.00  0.00     0.111 A 
ATOM      6  C   UNL     1      12.834   7.579  14.482  1.00  0.00     0.134 A 
ATOM      7  C   UNL     1      13.194   8.771  15.124  1.00  0.00     0.093 A 
ATOM      8  C   UNL     1      14.368   8.859  15.870  1.00  0.00     0.123 A 
ATOM      9  C   UNL     1      15.200   7.745  15.988  1.00  0.00     0.094 A 
ATOM     10  C   UNL     1      14.848   6.533  15.390  1.00  0.00     0.146 A 
ATOM     11  O   UNL     1      15.662   5.493  15.536  1.00  0.00    -0.452 OA
ENDROOT
BRANCH   1  12
ATOM     12  C   UNL     1      16.415   3.223  15.240  1.00  0.00     0.029 A 
ATOM     13  C   UNL     1      16.541   2.574  16.481  1.00  0.00     0.062 A 
ATOM     14  C   UNL     1      17.481   1.548  16.656  1.00  0.00     0.162 A 
ATOM     15  C   UNL     1      17.219   2.808  14.168  1.00  0.00     0.062 A 
ATOM     16  C   UNL     1      18.297   1.154  15.582  1.00  0.00     0.200 A 
ATOM     17  C   UNL     1      18.160   1.787  14.334  1.00  0.00     0.162 A 
BRANCH  14  18
ATOM     18  O   UNL     1      17.601   0.916  17.892  1.00  0.00    -0.504 OA
ATOM     19  H   UNL     1      18.241   1.252  18.602  1.00  0.00     0.293 HD
ENDBRANCH  14  18
BRANCH  16  20
ATOM     20  O   UNL     1      19.240   0.138  15.740  1.00  0.00    -0.502 OA
ATOM     21  H   UNL     1      20.212   0.330  15.946  1.00  0.00     0.293 HD
ENDBRANCH  16  20
BRANCH  17  22
ATOM     22  O   UNL     1      18.949   1.412  13.247  1.00  0.00    -0.504 OA
ATOM     23  H   UNL     1      18.956   1.937  12.380  1.00  0.00     0.293 HD
ENDBRANCH  17  22
ENDBRANCH   1  12
BRANCH   2  24
ATOM     24  O   UNL     1      13.896   2.781  13.879  1.00  0.00    -0.502 OA
ATOM     25  H   UNL     1      13.433   2.619  12.993  1.00  0.00     0.293 HD
ENDBRANCH   2  24
BRANCH   6  26
ATOM     26  O   UNL     1      11.688   7.625  13.681  1.00  0.00    -0.507 OA
ATOM     27  H   UNL     1      11.446   6.935  12.986  1.00  0.00     0.293 HD
ENDBRANCH   6  26
BRANCH   8  28
ATOM     28  O   UNL     1      14.705  10.065  16.483  1.00  0.00    -0.508 OA
ATOM     29  H   UNL     1      15.605  10.200  16.927  1.00  0.00     0.293 HD
ENDBRANCH   8  28
TORSDOF 7
ENDMDL
MODEL 4
REMARK VINA RESULT:    34.130      2.723      6.996
REMARK INTER + INTRA:          42.544
REMARK INTER:                  42.841
REMARK INTRA:                  -0.297
REMARK UNBOUND:                 0.432
REMARK SMILES O=c1c(O)c(-c2cc(O)c(O)c(O)c2)oc2cc(O)cc(O)c12
REMARK SMILES IDX 5 1 3 2 2 3 1 4 23 5 21 6 20 7 18 8 17 9 16 10 15 11 6 12
REMARK SMILES IDX 7 13 8 14 14 15 10 16 12 17 9 18 11 20 13 22 4 24 22 26
REMARK SMILES IDX 19 28
REMARK H PARENT 9 19 11 21 13 23 4 25 22 27 19 29
REMARK Flexibility Score: inf
ROOT
ATOM      1  C   UNL     1      14.948   5.488  15.524  1.00  0.00     0.180 A 
ATOM      2  C   UNL     1      14.706   4.794  16.722  1.00  0.00     0.208 A 
ATOM      3  C   UNL     1      15.388   3.588  16.959  1.00  0.00     0.238 A 
ATOM      4  O   UNL     1      15.127   2.944  18.008  1.00  0.00    -0.285 OA
ATOM      5  C   UNL     1      16.312   3.102  16.003  1.00  0.00     0.111 A 
ATOM      6  C   UNL     1      17.087   1.913  16.158  1.00  0.00     0.134 A 
ATOM      7  C   UNL     1      17.874   1.458  15.093  1.00  0.00     0.093 A 
ATOM      8  C   UNL     1      17.964   2.181  13.904  1.00  0.00     0.123 A 
ATOM      9  C   UNL     1      17.257   3.377  13.765  1.00  0.00     0.094 A 
ATOM     10  C   UNL     1      16.435   3.837  14.796  1.00  0.00     0.146 A 
ATOM     11  O   UNL     1      15.771   4.973  14.619  1.00  0.00    -0.452 OA
ENDROOT
BRANCH   1  12
ATOM     12  C   UNL     1      14.287   6.777  15.215  1.00  0.00     0.029 A 
ATOM     13  C   UNL     1      13.211   6.850  14.314  1.00  0.00     0.062 A 
ATOM     14  C   UNL     1      12.584   8.075  14.051  1.00  0.00     0.162 A 
ATOM     15  C   UNL     1      14.706   7.942  15.873  1.00  0.00     0.062 A 
ATOM     16  C   UNL     1      13.024   9.242  14.699  1.00  0.00     0.200 A 
ATOM     17  C   UNL     1      14.087   9.170  15.615  1.00  0.00     0.162 A 
BRANCH  14  18
ATOM     18  O   UNL     1      11.520   8.136  13.151  1.00  0.00    -0.504 OA
ATOM     19  H   UNL     1      11.534   7.626  12.275  1.00  0.00     0.293 HD
ENDBRANCH  14  18
BRANCH  16  20
ATOM     20  O   UNL     1      12.414  10.470  14.445  1.00  0.00    -0.502 OA
ATOM     21  H   UNL     1      11.857  10.951  15.142  1.00  0.00     0.293 HD
ENDBRANCH  16  20
BRANCH  17  22
ATOM     22  O   UNL     1      14.541  10.308  16.282  1.00  0.00    -0.504 OA
ATOM     23  H   UNL     1      15.161  10.979  15.842  1.00  0.00     0.293 HD
ENDBRANCH  17  22
ENDBRANCH   1  12
BRANCH   2  24
ATOM     24  O   UNL     1      13.773   5.280  17.641  1.00  0.00    -0.502 OA
ATOM     25  H   UNL     1      13.990   6.023  18.295  1.00  0.00     0.293 HD
ENDBRANCH   2  24
BRANCH   6  26
ATOM     26  O   UNL     1      17.141   1.164  17.338  1.00  0.00    -0.507 OA
ATOM     27  H   UNL     1      16.343   0.938  17.911  1.00  0.00     0.293 HD
ENDBRANCH   6  26
BRANCH   8  28
ATOM     28  O   UNL     1      18.769   1.707  12.870  1.00  0.00    -0.508 OA
ATOM     29  H   UNL     1      19.123   2.324  12.148  1.00  0.00     0.293 HD
ENDBRANCH   8  28
TORSDOF 7
ENDMDL
