MODEL 1
REMARK VINA RESULT:    -8.564      0.000      0.000
REMARK INTER + INTRA:         -10.409
REMARK INTER:                 -10.316
REMARK INTRA:                  -0.093
REMARK UNBOUND:                -0.093
REMARK SMILES O=c1c(O)c(-c2ccc(O)c(O)c2)oc2cc(O)cc(O)c12
REMARK SMILES IDX 5 1 3 2 2 3 1 4 22 5 20 6 19 7 17 8 16 9 15 10 14 11 6 12
REMARK SMILES IDX 7 13 8 14 9 15 13 16 11 17 10 18 12 20 4 22 21 24 18 26
REMARK H PARENT 10 19 12 21 4 23 21 25 18 27
REMARK Flexibility Score: inf
ROOT
ATOM      1  C   UNL     1     -48.171  26.647 -17.027  1.00  0.00     0.180 A 
ATOM      2  C   UNL     1     -49.072  27.707 -17.235  1.00  0.00     0.208 A 
ATOM      3  C   UNL     1     -50.345  27.642 -16.648  1.00  0.00     0.238 A 
ATOM      4  O   UNL     1     -51.166  28.567 -16.883  1.00  0.00    -0.285 OA
ATOM      5  C   UNL     1     -50.697  26.529 -15.846  1.00  0.00     0.111 A 
ATOM      6  C   UNL     1     -51.945  26.379 -15.170  1.00  0.00     0.134 A 
ATOM      7  C   UNL     1     -52.234  25.178 -14.512  1.00  0.00     0.093 A 
ATOM      8  C   UNL     1     -51.294  24.146 -14.452  1.00  0.00     0.123 A 
ATOM      9  C   UNL     1     -50.051  24.306 -15.058  1.00  0.00     0.094 A 
ATOM     10  C   UNL     1     -49.747  25.479 -15.752  1.00  0.00     0.146 A 
ATOM     11  O   UNL     1     -48.554  25.587 -16.325  1.00  0.00    -0.452 OA
ENDROOT
BRANCH   1  12
ATOM     12  C   UNL     1     -46.803  26.654 -17.593  1.00  0.00     0.025 A 
ATOM     13  C   UNL     1     -45.910  27.711 -17.336  1.00  0.00     0.016 A 
ATOM     14  C   UNL     1     -44.615  27.683 -17.861  1.00  0.00     0.051 A 
ATOM     15  C   UNL     1     -44.189  26.598 -18.636  1.00  0.00     0.157 A 
ATOM     16  C   UNL     1     -46.363  25.558 -18.353  1.00  0.00     0.062 A 
ATOM     17  C   UNL     1     -45.064  25.531 -18.880  1.00  0.00     0.158 A 
BRANCH  15  18
ATOM     18  O   UNL     1     -42.899  26.568 -19.162  1.00  0.00    -0.504 OA
ATOM     19  H   UNL     1     -42.562  27.297 -19.780  1.00  0.00     0.293 HD
ENDBRANCH  15  18
BRANCH  17  20
ATOM     20  O   UNL     1     -44.636  24.449 -19.645  1.00  0.00    -0.504 OA
ATOM     21  H   UNL     1     -45.194  23.607 -19.734  1.00  0.00     0.293 HD
ENDBRANCH  17  20
ENDBRANCH   1  12
BRANCH   2  22
ATOM     22  O   UNL     1     -48.713  28.786 -18.048  1.00  0.00    -0.502 OA
ATOM     23  H   UNL     1     -48.871  29.748 -17.775  1.00  0.00     0.293 HD
ENDBRANCH   2  22
BRANCH   6  24
ATOM     24  O   UNL     1     -52.915  27.382 -15.092  1.00  0.00    -0.507 OA
ATOM     25  H   UNL     1     -53.106  28.056 -15.818  1.00  0.00     0.293 HD
ENDBRANCH   6  24
BRANCH   8  26
ATOM     26  O   UNL     1     -51.584  22.960 -13.781  1.00  0.00    -0.508 OA
ATOM     27  H   UNL     1     -51.400  22.055 -14.200  1.00  0.00     0.293 HD
ENDBRANCH   8  26
TORSDOF 6
ENDMDL
MODEL 2
REMARK VINA RESULT:    -8.210      1.793      6.789
REMARK INTER + INTRA:          -9.982
REMARK INTER:                  -9.941
REMARK INTRA:                  -0.041
REMARK UNBOUND:                -0.093
REMARK SMILES O=c1c(O)c(-c2ccc(O)c(O)c2)oc2cc(O)cc(O)c12
REMARK SMILES IDX 5 1 3 2 2 3 1 4 22 5 20 6 19 7 17 8 16 9 15 10 14 11 6 12
REMARK SMILES IDX 7 13 8 14 9 15 13 16 11 17 10 18 12 20 4 22 21 24 18 26
REMARK H PARENT 10 19 12 21 4 23 21 25 18 27
REMARK Flexibility Score: inf
ROOT
ATOM      1  C   UNL     1     -48.367  26.370 -15.715  1.00  0.00     0.180 A 
ATOM      2  C   UNL     1     -47.763  27.373 -14.936  1.00  0.00     0.208 A 
ATOM      3  C   UNL     1     -46.543  27.921 -15.361  1.00  0.00     0.238 A 
ATOM      4  O   UNL     1     -45.979  28.779 -14.632  1.00  0.00    -0.285 OA
ATOM      5  C   UNL     1     -45.949  27.474 -16.567  1.00  0.00     0.111 A 
ATOM      6  C   UNL     1     -44.736  27.989 -17.113  1.00  0.00     0.134 A 
ATOM      7  C   UNL     1     -44.174  27.382 -18.242  1.00  0.00     0.093 A 
ATOM      8  C   UNL     1     -44.817  26.320 -18.883  1.00  0.00     0.123 A 
ATOM      9  C   UNL     1     -46.032  25.849 -18.393  1.00  0.00     0.094 A 
ATOM     10  C   UNL     1     -46.599  26.411 -17.246  1.00  0.00     0.146 A 
ATOM     11  O   UNL     1     -47.754  25.926 -16.805  1.00  0.00    -0.452 OA
ENDROOT
BRANCH   1  12
ATOM     12  C   UNL     1     -49.665  25.760 -15.346  1.00  0.00     0.025 A 
ATOM     13  C   UNL     1     -50.790  26.554 -15.056  1.00  0.00     0.016 A 
ATOM     14  C   UNL     1     -52.011  25.956 -14.734  1.00  0.00     0.051 A 
ATOM     15  C   UNL     1     -52.130  24.560 -14.708  1.00  0.00     0.157 A 
ATOM     16  C   UNL     1     -49.796  24.362 -15.340  1.00  0.00     0.062 A 
ATOM     17  C   UNL     1     -51.021  23.762 -15.016  1.00  0.00     0.158 A 
BRANCH  15  18
ATOM     18  O   UNL     1     -53.346  23.961 -14.386  1.00  0.00    -0.504 OA
ATOM     19  H   UNL     1     -53.944  24.334 -13.659  1.00  0.00     0.293 HD
ENDBRANCH  15  18
BRANCH  17  20
ATOM     20  O   UNL     1     -51.144  22.374 -14.998  1.00  0.00    -0.504 OA
ATOM     21  H   UNL     1     -50.331  21.771 -14.945  1.00  0.00     0.293 HD
ENDBRANCH  17  20
ENDBRANCH   1  12
BRANCH   2  22
ATOM     22  O   UNL     1     -48.354  27.784 -13.738  1.00  0.00    -0.502 OA
ATOM     23  H   UNL     1     -47.851  27.794 -12.859  1.00  0.00     0.293 HD
ENDBRANCH   2  22
BRANCH   6  24
ATOM     24  O   UNL     1     -44.062  29.103 -16.604  1.00  0.00    -0.507 OA
ATOM     25  H   UNL     1     -44.328  30.062 -16.772  1.00  0.00     0.293 HD
ENDBRANCH   6  24
BRANCH   8  26
ATOM     26  O   UNL     1     -44.260  25.732 -20.016  1.00  0.00    -0.508 OA
ATOM     27  H   UNL     1     -44.791  25.096 -20.600  1.00  0.00     0.293 HD
ENDBRANCH   8  26
TORSDOF 6
ENDMDL
MODEL 3
REMARK VINA RESULT:    -7.562      1.540      2.938
REMARK INTER + INTRA:          -9.201
REMARK INTER:                  -8.916
REMARK INTRA:                  -0.285
REMARK UNBOUND:                -0.093
REMARK SMILES O=c1c(O)c(-c2ccc(O)c(O)c2)oc2cc(O)cc(O)c12
REMARK SMILES IDX 5 1 3 2 2 3 1 4 22 5 20 6 19 7 17 8 16 9 15 10 14 11 6 12
REMARK SMILES IDX 7 13 8 14 9 15 13 16 11 17 10 18 12 20 4 22 21 24 18 26
REMARK H PARENT 10 19 12 21 4 23 21 25 18 27
REMARK Flexibility Score: inf
ROOT
ATOM      1  C   UNL     1     -48.478  26.115 -16.180  1.00  0.00     0.180 A 
ATOM      2  C   UNL     1     -48.893  24.783 -15.999  1.00  0.00     0.208 A 
ATOM      3  C   UNL     1     -50.170  24.533 -15.474  1.00  0.00     0.238 A 
ATOM      4  O   UNL     1     -50.514  23.341 -15.263  1.00  0.00    -0.285 OA
ATOM      5  C   UNL     1     -51.025  25.616 -15.152  1.00  0.00     0.111 A 
ATOM      6  C   UNL     1     -52.354  25.478 -14.652  1.00  0.00     0.134 A 
ATOM      7  C   UNL     1     -53.060  26.616 -14.244  1.00  0.00     0.093 A 
ATOM      8  C   UNL     1     -52.509  27.892 -14.380  1.00  0.00     0.123 A 
ATOM      9  C   UNL     1     -51.235  28.042 -14.922  1.00  0.00     0.094 A 
ATOM     10  C   UNL     1     -50.492  26.922 -15.304  1.00  0.00     0.146 A 
ATOM     11  O   UNL     1     -49.277  27.108 -15.807  1.00  0.00    -0.452 OA
ENDROOT
BRANCH   1  12
ATOM     12  C   UNL     1     -47.156  26.458 -16.751  1.00  0.00     0.025 A 
ATOM     13  C   UNL     1     -46.080  26.839 -15.929  1.00  0.00     0.016 A 
ATOM     14  C   UNL     1     -44.835  27.135 -16.489  1.00  0.00     0.051 A 
ATOM     15  C   UNL     1     -44.642  27.044 -17.873  1.00  0.00     0.157 A 
ATOM     16  C   UNL     1     -46.952  26.347 -18.136  1.00  0.00     0.062 A 
ATOM     17  C   UNL     1     -45.702  26.645 -18.698  1.00  0.00     0.158 A 
BRANCH  15  18
ATOM     18  O   UNL     1     -43.402  27.339 -18.435  1.00  0.00    -0.504 OA
ATOM     19  H   UNL     1     -42.663  27.771 -17.891  1.00  0.00     0.293 HD
ENDBRANCH  15  18
BRANCH  17  20
ATOM     20  O   UNL     1     -45.506  26.547 -20.074  1.00  0.00    -0.504 OA
ATOM     21  H   UNL     1     -45.286  25.663 -20.517  1.00  0.00     0.293 HD
ENDBRANCH  17  20
ENDBRANCH   1  12
BRANCH   2  22
ATOM     22  O   UNL     1     -48.026  23.730 -16.303  1.00  0.00    -0.502 OA
ATOM     23  H   UNL     1     -48.288  22.759 -16.189  1.00  0.00     0.293 HD
ENDBRANCH   2  22
BRANCH   6  24
ATOM     24  O   UNL     1     -53.031  24.258 -14.562  1.00  0.00    -0.507 OA
ATOM     25  H   UNL     1     -53.989  24.153 -14.263  1.00  0.00     0.293 HD
ENDBRANCH   6  24
BRANCH   8  26
ATOM     26  O   UNL     1     -53.224  29.021 -13.987  1.00  0.00    -0.508 OA
ATOM     27  H   UNL     1     -52.760  29.895 -13.770  1.00  0.00     0.293 HD
ENDBRANCH   8  26
TORSDOF 6
ENDMDL
MODEL 4
REMARK VINA RESULT:    -7.554      1.766      2.031
REMARK INTER + INTRA:          -9.192
REMARK INTER:                  -8.936
REMARK INTRA:                  -0.256
REMARK UNBOUND:                -0.093
REMARK SMILES O=c1c(O)c(-c2ccc(O)c(O)c2)oc2cc(O)cc(O)c12
REMARK SMILES IDX 5 1 3 2 2 3 1 4 22 5 20 6 19 7 17 8 16 9 15 10 14 11 6 12
REMARK SMILES IDX 7 13 8 14 9 15 13 16 11 17 10 18 12 20 4 22 21 24 18 26
REMARK H PARENT 10 19 12 21 4 23 21 25 18 27
REMARK Flexibility Score: inf
ROOT
ATOM      1  C   UNL     1     -48.601  26.869 -15.673  1.00  0.00     0.180 A 
ATOM      2  C   UNL     1     -49.601  27.745 -15.215  1.00  0.00     0.208 A 
ATOM      3  C   UNL     1     -50.832  27.215 -14.801  1.00  0.00     0.238 A 
ATOM      4  O   UNL     1     -51.742  28.008 -14.444  1.00  0.00    -0.285 OA
ATOM      5  C   UNL     1     -51.045  25.815 -14.832  1.00  0.00     0.111 A 
ATOM      6  C   UNL     1     -52.239  25.166 -14.398  1.00  0.00     0.134 A 
ATOM      7  C   UNL     1     -52.388  23.788 -14.596  1.00  0.00     0.093 A 
ATOM      8  C   UNL     1     -51.359  23.026 -15.155  1.00  0.00     0.123 A 
ATOM      9  C   UNL     1     -50.166  23.641 -15.528  1.00  0.00     0.094 A 
ATOM     10  C   UNL     1     -50.002  25.019 -15.375  1.00  0.00     0.146 A 
ATOM     11  O   UNL     1     -48.853  25.568 -15.753  1.00  0.00    -0.452 OA
ENDROOT
BRANCH   1  12
ATOM     12  C   UNL     1     -47.268  27.349 -16.104  1.00  0.00     0.025 A 
ATOM     13  C   UNL     1     -46.325  27.822 -15.173  1.00  0.00     0.016 A 
ATOM     14  C   UNL     1     -45.064  28.248 -15.600  1.00  0.00     0.051 A 
ATOM     15  C   UNL     1     -44.723  28.197 -16.958  1.00  0.00     0.157 A 
ATOM     16  C   UNL     1     -46.913  27.281 -17.461  1.00  0.00     0.062 A 
ATOM     17  C   UNL     1     -45.649  27.709 -17.890  1.00  0.00     0.158 A 
BRANCH  15  18
ATOM     18  O   UNL     1     -43.468  28.622 -17.387  1.00  0.00    -0.504 OA
ATOM     19  H   UNL     1     -42.626  28.393 -16.872  1.00  0.00     0.293 HD
ENDBRANCH  15  18
BRANCH  17  20
ATOM     20  O   UNL     1     -45.305  27.652 -19.239  1.00  0.00    -0.504 OA
ATOM     21  H   UNL     1     -45.622  28.354 -19.897  1.00  0.00     0.293 HD
ENDBRANCH  17  20
ENDBRANCH   1  12
BRANCH   2  22
ATOM     22  O   UNL     1     -49.379  29.125 -15.213  1.00  0.00    -0.502 OA
ATOM     23  H   UNL     1     -49.762  29.739 -15.921  1.00  0.00     0.293 HD
ENDBRANCH   2  22
BRANCH   6  24
ATOM     24  O   UNL     1     -53.289  25.819 -13.745  1.00  0.00    -0.507 OA
ATOM     25  H   UNL     1     -53.265  26.128 -12.786  1.00  0.00     0.293 HD
ENDBRANCH   6  24
BRANCH   8  26
ATOM     26  O   UNL     1     -51.509  21.653 -15.334  1.00  0.00    -0.508 OA
ATOM     27  H   UNL     1     -50.720  21.057 -15.554  1.00  0.00     0.293 HD
ENDBRANCH   8  26
TORSDOF 6
ENDMDL
MODEL 5
REMARK VINA RESULT:    -7.136      1.906      3.304
REMARK INTER + INTRA:          -8.688
REMARK INTER:                  -8.918
REMARK INTRA:                   0.230
REMARK UNBOUND:                -0.093
REMARK SMILES O=c1c(O)c(-c2ccc(O)c(O)c2)oc2cc(O)cc(O)c12
REMARK SMILES IDX 5 1 3 2 2 3 1 4 22 5 20 6 19 7 17 8 16 9 15 10 14 11 6 12
REMARK SMILES IDX 7 13 8 14 9 15 13 16 11 17 10 18 12 20 4 22 21 24 18 26
REMARK H PARENT 10 19 12 21 4 23 21 25 18 27
REMARK Flexibility Score: inf
ROOT
ATOM      1  C   UNL     1     -46.370  26.918 -17.581  1.00  0.00     0.180 A 
ATOM      2  C   UNL     1     -46.843  25.600 -17.717  1.00  0.00     0.208 A 
ATOM      3  C   UNL     1     -48.022  25.229 -17.052  1.00  0.00     0.238 A 
ATOM      4  O   UNL     1     -48.411  24.034 -17.133  1.00  0.00    -0.285 OA
ATOM      5  C   UNL     1     -48.724  26.182 -16.274  1.00  0.00     0.111 A 
ATOM      6  C   UNL     1     -49.949  25.926 -15.590  1.00  0.00     0.134 A 
ATOM      7  C   UNL     1     -50.486  26.903 -14.743  1.00  0.00     0.093 A 
ATOM      8  C   UNL     1     -49.874  28.152 -14.607  1.00  0.00     0.123 A 
ATOM      9  C   UNL     1     -48.709  28.432 -15.317  1.00  0.00     0.094 A 
ATOM     10  C   UNL     1     -48.130  27.464 -16.141  1.00  0.00     0.146 A 
ATOM     11  O   UNL     1     -47.014  27.769 -16.792  1.00  0.00    -0.452 OA
ENDROOT
BRANCH   1  12
ATOM     12  C   UNL     1     -45.148  27.391 -18.271  1.00  0.00     0.025 A 
ATOM     13  C   UNL     1     -44.250  28.275 -17.644  1.00  0.00     0.016 A 
ATOM     14  C   UNL     1     -43.091  28.689 -18.306  1.00  0.00     0.051 A 
ATOM     15  C   UNL     1     -42.806  28.219 -19.594  1.00  0.00     0.157 A 
ATOM     16  C   UNL     1     -44.847  26.907 -19.554  1.00  0.00     0.062 A 
ATOM     17  C   UNL     1     -43.684  27.323 -20.218  1.00  0.00     0.158 A 
BRANCH  15  18
ATOM     18  O   UNL     1     -41.652  28.631 -20.257  1.00  0.00    -0.504 OA
ATOM     19  H   UNL     1     -41.464  29.611 -20.434  1.00  0.00     0.293 HD
ENDBRANCH  15  18
BRANCH  17  20
ATOM     20  O   UNL     1     -43.394  26.851 -21.496  1.00  0.00    -0.504 OA
ATOM     21  H   UNL     1     -42.878  25.991 -21.640  1.00  0.00     0.293 HD
ENDBRANCH  17  20
ENDBRANCH   1  12
BRANCH   2  22
ATOM     22  O   UNL     1     -46.124  24.670 -18.473  1.00  0.00    -0.502 OA
ATOM     23  H   UNL     1     -46.348  24.464 -19.439  1.00  0.00     0.293 HD
ENDBRANCH   2  22
BRANCH   6  24
ATOM     24  O   UNL     1     -50.689  24.747 -15.729  1.00  0.00    -0.507 OA
ATOM     25  H   UNL     1     -51.696  24.696 -15.714  1.00  0.00     0.293 HD
ENDBRANCH   6  24
BRANCH   8  26
ATOM     26  O   UNL     1     -50.422  29.125 -13.775  1.00  0.00    -0.508 OA
ATOM     27  H   UNL     1     -49.901  29.953 -13.512  1.00  0.00     0.293 HD
ENDBRANCH   8  26
TORSDOF 6
ENDMDL
MODEL 6
REMARK VINA RESULT:    -7.125      1.719      3.304
REMARK INTER + INTRA:          -8.676
REMARK INTER:                  -8.363
REMARK INTRA:                  -0.313
REMARK UNBOUND:                -0.093
REMARK SMILES O=c1c(O)c(-c2ccc(O)c(O)c2)oc2cc(O)cc(O)c12
REMARK SMILES IDX 5 1 3 2 2 3 1 4 22 5 20 6 19 7 17 8 16 9 15 10 14 11 6 12
REMARK SMILES IDX 7 13 8 14 9 15 13 16 11 17 10 18 12 20 4 22 21 24 18 26
REMARK H PARENT 10 19 12 21 4 23 21 25 18 27
REMARK Flexibility Score: inf
ROOT
ATOM      1  C   UNL     1     -48.638  26.190 -16.058  1.00  0.00     0.180 A 
ATOM      2  C   UNL     1     -48.963  24.836 -15.858  1.00  0.00     0.208 A 
ATOM      3  C   UNL     1     -50.230  24.507 -15.351  1.00  0.00     0.238 A 
ATOM      4  O   UNL     1     -50.494  23.298 -15.123  1.00  0.00    -0.285 OA
ATOM      5  C   UNL     1     -51.164  25.534 -15.067  1.00  0.00     0.111 A 
ATOM      6  C   UNL     1     -52.489  25.313 -14.588  1.00  0.00     0.134 A 
ATOM      7  C   UNL     1     -53.281  26.406 -14.216  1.00  0.00     0.093 A 
ATOM      8  C   UNL     1     -52.817  27.715 -14.368  1.00  0.00     0.123 A 
ATOM      9  C   UNL     1     -51.546  27.943 -14.889  1.00  0.00     0.094 A 
ATOM     10  C   UNL     1     -50.720  26.871 -15.236  1.00  0.00     0.146 A 
ATOM     11  O   UNL     1     -49.511  27.131 -15.720  1.00  0.00    -0.452 OA
ENDROOT
BRANCH   1  12
ATOM     12  C   UNL     1     -47.332  26.614 -16.611  1.00  0.00     0.025 A 
ATOM     13  C   UNL     1     -47.077  26.576 -17.995  1.00  0.00     0.016 A 
ATOM     14  C   UNL     1     -45.845  27.004 -18.496  1.00  0.00     0.051 A 
ATOM     15  C   UNL     1     -44.857  27.487 -17.628  1.00  0.00     0.157 A 
ATOM     16  C   UNL     1     -46.346  27.119 -15.748  1.00  0.00     0.062 A 
ATOM     17  C   UNL     1     -45.110  27.548 -16.252  1.00  0.00     0.158 A 
BRANCH  15  18
ATOM     18  O   UNL     1     -43.627  27.913 -18.125  1.00  0.00    -0.504 OA
ATOM     19  H   UNL     1     -43.562  28.655 -18.813  1.00  0.00     0.293 HD
ENDBRANCH  15  18
BRANCH  17  20
ATOM     20  O   UNL     1     -44.129  28.035 -15.391  1.00  0.00    -0.504 OA
ATOM     21  H   UNL     1     -44.228  27.973 -14.385  1.00  0.00     0.293 HD
ENDBRANCH  17  20
ENDBRANCH   1  12
BRANCH   2  22
ATOM     22  O   UNL     1     -48.019  23.840 -16.125  1.00  0.00    -0.502 OA
ATOM     23  H   UNL     1     -47.023  23.994 -16.027  1.00  0.00     0.293 HD
ENDBRANCH   2  22
BRANCH   6  24
ATOM     24  O   UNL     1     -53.082  24.051 -14.486  1.00  0.00    -0.507 OA
ATOM     25  H   UNL     1     -52.783  23.325 -13.853  1.00  0.00     0.293 HD
ENDBRANCH   6  24
BRANCH   8  26
ATOM     26  O   UNL     1     -53.617  28.798 -14.010  1.00  0.00    -0.508 OA
ATOM     27  H   UNL     1     -54.163  28.795 -13.157  1.00  0.00     0.293 HD
ENDBRANCH   8  26
TORSDOF 6
ENDMDL
MODEL 7
REMARK VINA RESULT:    -6.606      2.786      4.179
REMARK INTER + INTRA:          -8.051
REMARK INTER:                  -8.522
REMARK INTRA:                   0.471
REMARK UNBOUND:                -0.093
REMARK SMILES O=c1c(O)c(-c2ccc(O)c(O)c2)oc2cc(O)cc(O)c12
REMARK SMILES IDX 5 1 3 2 2 3 1 4 22 5 20 6 19 7 17 8 16 9 15 10 14 11 6 12
REMARK SMILES IDX 7 13 8 14 9 15 13 16 11 17 10 18 12 20 4 22 21 24 18 26
REMARK H PARENT 10 19 12 21 4 23 21 25 18 27
REMARK Flexibility Score: inf
ROOT
ATOM      1  C   UNL     1     -44.720  27.645 -16.982  1.00  0.00     0.180 A 
ATOM      2  C   UNL     1     -44.462  28.201 -15.716  1.00  0.00     0.208 A 
ATOM      3  C   UNL     1     -45.297  27.862 -14.641  1.00  0.00     0.238 A 
ATOM      4  O   UNL     1     -45.095  28.405 -13.523  1.00  0.00    -0.285 OA
ATOM      5  C   UNL     1     -46.370  26.957 -14.838  1.00  0.00     0.111 A 
ATOM      6  C   UNL     1     -47.254  26.512 -13.811  1.00  0.00     0.134 A 
ATOM      7  C   UNL     1     -48.358  25.719 -14.145  1.00  0.00     0.093 A 
ATOM      8  C   UNL     1     -48.573  25.303 -15.461  1.00  0.00     0.123 A 
ATOM      9  C   UNL     1     -47.682  25.684 -16.461  1.00  0.00     0.094 A 
ATOM     10  C   UNL     1     -46.591  26.504 -16.164  1.00  0.00     0.146 A 
ATOM     11  O   UNL     1     -45.772  26.852 -17.149  1.00  0.00    -0.452 OA
ENDROOT
BRANCH   1  12
ATOM     12  C   UNL     1     -43.870  27.936 -18.159  1.00  0.00     0.025 A 
ATOM     13  C   UNL     1     -42.822  28.873 -18.091  1.00  0.00     0.016 A 
ATOM     14  C   UNL     1     -42.018  29.113 -19.208  1.00  0.00     0.051 A 
ATOM     15  C   UNL     1     -42.238  28.414 -20.402  1.00  0.00     0.157 A 
ATOM     16  C   UNL     1     -44.073  27.222 -19.351  1.00  0.00     0.062 A 
ATOM     17  C   UNL     1     -43.265  27.464 -20.472  1.00  0.00     0.158 A 
BRANCH  15  18
ATOM     18  O   UNL     1     -41.438  28.651 -21.517  1.00  0.00    -0.504 OA
ATOM     19  H   UNL     1     -40.650  29.287 -21.478  1.00  0.00     0.293 HD
ENDBRANCH  15  18
BRANCH  17  20
ATOM     20  O   UNL     1     -43.477  26.764 -21.658  1.00  0.00    -0.504 OA
ATOM     21  H   UNL     1     -42.761  26.170 -22.059  1.00  0.00     0.293 HD
ENDBRANCH  17  20
ENDBRANCH   1  12
BRANCH   2  22
ATOM     22  O   UNL     1     -43.412  29.109 -15.548  1.00  0.00    -0.502 OA
ATOM     23  H   UNL     1     -42.465  28.904 -15.840  1.00  0.00     0.293 HD
ENDBRANCH   2  22
BRANCH   6  24
ATOM     24  O   UNL     1     -47.077  26.794 -12.453  1.00  0.00    -0.507 OA
ATOM     25  H   UNL     1     -47.503  27.569 -11.967  1.00  0.00     0.293 HD
ENDBRANCH   6  24
BRANCH   8  26
ATOM     26  O   UNL     1     -49.666  24.501 -15.783  1.00  0.00    -0.508 OA
ATOM     27  H   UNL     1     -49.600  23.490 -15.783  1.00  0.00     0.293 HD
ENDBRANCH   8  26
TORSDOF 6
ENDMDL
MODEL 8
REMARK VINA RESULT:    -6.340     14.281     16.233
REMARK INTER + INTRA:          -7.729
REMARK INTER:                  -7.494
REMARK INTRA:                  -0.235
REMARK UNBOUND:                -0.093
REMARK SMILES O=c1c(O)c(-c2ccc(O)c(O)c2)oc2cc(O)cc(O)c12
REMARK SMILES IDX 5 1 3 2 2 3 1 4 22 5 20 6 19 7 17 8 16 9 15 10 14 11 6 12
REMARK SMILES IDX 7 13 8 14 9 15 13 16 11 17 10 18 12 20 4 22 21 24 18 26
REMARK H PARENT 10 19 12 21 4 23 21 25 18 27
REMARK Flexibility Score: inf
ROOT
ATOM      1  C   UNL     1     -47.841  11.111 -18.774  1.00  0.00     0.180 A 
ATOM      2  C   UNL     1     -47.323  10.074 -19.569  1.00  0.00     0.208 A 
ATOM      3  C   UNL     1     -47.886   9.841 -20.834  1.00  0.00     0.238 A 
ATOM      4  O   UNL     1     -47.455   8.876 -21.519  1.00  0.00    -0.285 OA
ATOM      5  C   UNL     1     -48.946  10.658 -21.296  1.00  0.00     0.111 A 
ATOM      6  C   UNL     1     -49.563  10.538 -22.577  1.00  0.00     0.134 A 
ATOM      7  C   UNL     1     -50.690  11.313 -22.876  1.00  0.00     0.093 A 
ATOM      8  C   UNL     1     -51.181  12.252 -21.965  1.00  0.00     0.123 A 
ATOM      9  C   UNL     1     -50.549  12.418 -20.736  1.00  0.00     0.094 A 
ATOM     10  C   UNL     1     -49.445  11.634 -20.394  1.00  0.00     0.146 A 
ATOM     11  O   UNL     1     -48.878  11.817 -19.207  1.00  0.00    -0.452 OA
ENDROOT
BRANCH   1  12
ATOM     12  C   UNL     1     -47.285  11.434 -17.440  1.00  0.00     0.025 A 
ATOM     13  C   UNL     1     -46.543  12.609 -17.220  1.00  0.00     0.016 A 
ATOM     14  C   UNL     1     -46.049  12.904 -15.947  1.00  0.00     0.051 A 
ATOM     15  C   UNL     1     -46.298  12.039 -14.874  1.00  0.00     0.157 A 
ATOM     16  C   UNL     1     -47.550  10.581 -16.355  1.00  0.00     0.062 A 
ATOM     17  C   UNL     1     -47.053  10.877 -15.078  1.00  0.00     0.158 A 
BRANCH  15  18
ATOM     18  O   UNL     1     -45.806  12.330 -13.603  1.00  0.00    -0.504 OA
ATOM     19  H   UNL     1     -46.424  12.431 -12.806  1.00  0.00     0.293 HD
ENDBRANCH  15  18
BRANCH  17  20
ATOM     20  O   UNL     1     -47.306  10.022 -14.007  1.00  0.00    -0.504 OA
ATOM     21  H   UNL     1     -46.695   9.242 -13.796  1.00  0.00     0.293 HD
ENDBRANCH  17  20
ENDBRANCH   1  12
BRANCH   2  22
ATOM     22  O   UNL     1     -46.291   9.265 -19.085  1.00  0.00    -0.502 OA
ATOM     23  H   UNL     1     -46.157   9.086 -18.098  1.00  0.00     0.293 HD
ENDBRANCH   2  22
BRANCH   6  24
ATOM     24  O   UNL     1     -49.096   9.698 -23.592  1.00  0.00    -0.507 OA
ATOM     25  H   UNL     1     -48.157   9.336 -23.653  1.00  0.00     0.293 HD
ENDBRANCH   6  24
BRANCH   8  26
ATOM     26  O   UNL     1     -52.292  13.031 -22.277  1.00  0.00    -0.508 OA
ATOM     27  H   UNL     1     -53.234  12.714 -22.080  1.00  0.00     0.293 HD
ENDBRANCH   8  26
TORSDOF 6
ENDMDL
MODEL 9
REMARK VINA RESULT:    -6.221      2.386      6.786
REMARK INTER + INTRA:          -7.586
REMARK INTER:                  -7.321
REMARK INTRA:                  -0.265
REMARK UNBOUND:                -0.093
REMARK SMILES O=c1c(O)c(-c2ccc(O)c(O)c2)oc2cc(O)cc(O)c12
REMARK SMILES IDX 5 1 3 2 2 3 1 4 22 5 20 6 19 7 17 8 16 9 15 10 14 11 6 12
REMARK SMILES IDX 7 13 8 14 9 15 13 16 11 17 10 18 12 20 4 22 21 24 18 26
REMARK H PARENT 10 19 12 21 4 23 21 25 18 27
REMARK Flexibility Score: inf
ROOT
ATOM      1  C   UNL     1     -48.815  26.240 -15.500  1.00  0.00     0.180 A 
ATOM      2  C   UNL     1     -48.334  26.257 -16.821  1.00  0.00     0.208 A 
ATOM      3  C   UNL     1     -47.076  26.823 -17.081  1.00  0.00     0.238 A 
ATOM      4  O   UNL     1     -46.675  26.885 -18.272  1.00  0.00    -0.285 OA
ATOM      5  C   UNL     1     -46.306  27.350 -16.015  1.00  0.00     0.111 A 
ATOM      6  C   UNL     1     -45.002  27.910 -16.157  1.00  0.00     0.134 A 
ATOM      7  C   UNL     1     -44.388  28.519 -15.056  1.00  0.00     0.093 A 
ATOM      8  C   UNL     1     -45.005  28.530 -13.803  1.00  0.00     0.123 A 
ATOM      9  C   UNL     1     -46.252  27.934 -13.640  1.00  0.00     0.094 A 
ATOM     10  C   UNL     1     -46.905  27.350 -14.728  1.00  0.00     0.146 A 
ATOM     11  O   UNL     1     -48.098  26.801 -14.533  1.00  0.00    -0.452 OA
ENDROOT
BRANCH   1  12
ATOM     12  C   UNL     1     -50.120  25.639 -15.144  1.00  0.00     0.025 A 
ATOM     13  C   UNL     1     -51.250  26.440 -14.890  1.00  0.00     0.016 A 
ATOM     14  C   UNL     1     -52.477  25.849 -14.580  1.00  0.00     0.051 A 
ATOM     15  C   UNL     1     -52.599  24.454 -14.531  1.00  0.00     0.157 A 
ATOM     16  C   UNL     1     -50.253  24.241 -15.114  1.00  0.00     0.062 A 
ATOM     17  C   UNL     1     -51.485  23.649 -14.802  1.00  0.00     0.158 A 
BRANCH  15  18
ATOM     18  O   UNL     1     -53.821  23.862 -14.221  1.00  0.00    -0.504 OA
ATOM     19  H   UNL     1     -54.041  23.565 -13.277  1.00  0.00     0.293 HD
ENDBRANCH  15  18
BRANCH  17  20
ATOM     20  O   UNL     1     -51.610  22.262 -14.760  1.00  0.00    -0.504 OA
ATOM     21  H   UNL     1     -51.271  21.676 -15.515  1.00  0.00     0.293 HD
ENDBRANCH  17  20
ENDBRANCH   1  12
BRANCH   2  22
ATOM     22  O   UNL     1     -49.119  25.752 -17.862  1.00  0.00    -0.502 OA
ATOM     23  H   UNL     1     -48.789  25.702 -18.818  1.00  0.00     0.293 HD
ENDBRANCH   2  22
BRANCH   6  24
ATOM     24  O   UNL     1     -44.260  27.870 -17.341  1.00  0.00    -0.507 OA
ATOM     25  H   UNL     1     -44.561  27.422 -18.193  1.00  0.00     0.293 HD
ENDBRANCH   6  24
BRANCH   8  26
ATOM     26  O   UNL     1     -44.380  29.125 -12.709  1.00  0.00    -0.508 OA
ATOM     27  H   UNL     1     -44.065  28.578 -11.916  1.00  0.00     0.293 HD
ENDBRANCH   8  26
TORSDOF 6
ENDMDL
