MODEL 1
REMARK VINA RESULT:    -3.536      0.000      0.000
REMARK INTER + INTRA:          -5.556
REMARK INTER:                  -4.983
REMARK INTRA:                  -0.572
REMARK UNBOUND:                -0.572
REMARK SMILES CCCCCCCCC(=O)[O-]
REMARK SMILES IDX 6 1 7 2 8 3 9 4 10 5 11 6 5 7 4 8 3 9 2 10 1 11
REMARK H PARENT
REMARK Flexibility Score: inf
ROOT
ATOM      1  C   UNL     1     -48.065 -53.546  38.181  1.00  0.00     0.000 C 
ENDROOT
BRANCH   1   2
ATOM      2  C   UNL     1     -47.362 -52.499  37.299  1.00  0.00     0.006 C 
BRANCH   2   3
ATOM      3  C   UNL     1     -46.728 -51.361  38.108  1.00  0.00     0.053 C 
BRANCH   3   4
ATOM      4  C   UNL     1     -46.537 -50.152  37.249  1.00  0.00     0.041 C 
ATOM      5  O   UNL     1     -47.394 -49.229  37.255  1.00  0.00    -0.550 OA
ATOM      6  O   UNL     1     -45.390 -50.020  36.477  1.00  0.00    -0.550 OA
ENDBRANCH   3   4
ENDBRANCH   2   3
ENDBRANCH   1   2
BRANCH   1   7
ATOM      7  C   UNL     1     -47.269 -54.005  39.417  1.00  0.00     0.000 C 
BRANCH   7   8
ATOM      8  C   UNL     1     -48.156 -54.219  40.656  1.00  0.00    -0.000 C 
BRANCH   8   9
ATOM      9  C   UNL     1     -49.140 -53.059  40.896  1.00  0.00    -0.000 C 
BRANCH   9  10
ATOM     10  C   UNL     1     -48.758 -52.106  42.044  1.00  0.00    -0.003 C 
ATOM     11  C   UNL     1     -47.935 -50.906  41.578  1.00  0.00     0.004 C 
ENDBRANCH   9  10
ENDBRANCH   8   9
ENDBRANCH   7   8
ENDBRANCH   1   7
TORSDOF 7
ENDMDL
MODEL 2
REMARK VINA RESULT:    -3.404      5.718      7.550
REMARK INTER + INTRA:          -5.369
REMARK INTER:                  -5.051
REMARK INTRA:                  -0.318
REMARK UNBOUND:                -0.572
REMARK SMILES CCCCCCCCC(=O)[O-]
REMARK SMILES IDX 6 1 7 2 8 3 9 4 10 5 11 6 5 7 4 8 3 9 2 10 1 11
REMARK H PARENT
REMARK Flexibility Score: inf
ROOT
ATOM      1  C   UNL     1     -43.474 -48.952  38.306  1.00  0.00     0.000 C 
ENDROOT
BRANCH   1   2
ATOM      2  C   UNL     1     -43.801 -48.138  39.571  1.00  0.00     0.006 C 
BRANCH   2   3
ATOM      3  C   UNL     1     -42.824 -46.981  39.810  1.00  0.00     0.053 C 
BRANCH   3   4
ATOM      4  C   UNL     1     -43.454 -45.934  40.673  1.00  0.00     0.041 C 
ATOM      5  O   UNL     1     -44.596 -45.486  40.393  1.00  0.00    -0.550 OA
ATOM      6  O   UNL     1     -42.800 -45.488  41.815  1.00  0.00    -0.550 OA
ENDBRANCH   3   4
ENDBRANCH   2   3
ENDBRANCH   1   2
BRANCH   1   7
ATOM      7  C   UNL     1     -44.249 -48.539  37.041  1.00  0.00     0.000 C 
BRANCH   7   8
ATOM      8  C   UNL     1     -44.439 -49.699  36.048  1.00  0.00    -0.000 C 
BRANCH   8   9
ATOM      9  C   UNL     1     -43.345 -49.746  34.966  1.00  0.00    -0.000 C 
BRANCH   9  10
ATOM     10  C   UNL     1     -42.844 -48.372  34.483  1.00  0.00    -0.003 C 
ATOM     11  C   UNL     1     -41.345 -48.171  34.697  1.00  0.00     0.004 C 
ENDBRANCH   9  10
ENDBRANCH   8   9
ENDBRANCH   7   8
ENDBRANCH   1   7
TORSDOF 7
ENDMDL
MODEL 3
REMARK VINA RESULT:    -3.396      3.893      7.013
REMARK INTER + INTRA:          -5.358
REMARK INTER:                  -4.884
REMARK INTRA:                  -0.474
REMARK UNBOUND:                -0.572
REMARK SMILES CCCCCCCCC(=O)[O-]
REMARK SMILES IDX 6 1 7 2 8 3 9 4 10 5 11 6 5 7 4 8 3 9 2 10 1 11
REMARK H PARENT
REMARK Flexibility Score: inf
ROOT
ATOM      1  C   UNL     1     -44.171 -48.693  36.599  1.00  0.00     0.000 C 
ENDROOT
BRANCH   1   2
ATOM      2  C   UNL     1     -45.441 -48.691  37.470  1.00  0.00     0.006 C 
BRANCH   2   3
ATOM      3  C   UNL     1     -46.444 -49.780  37.070  1.00  0.00     0.053 C 
BRANCH   3   4
ATOM      4  C   UNL     1     -46.584 -50.789  38.166  1.00  0.00     0.041 C 
ATOM      5  O   UNL     1     -47.294 -51.815  37.994  1.00  0.00    -0.550 OA
ATOM      6  O   UNL     1     -45.892 -50.622  39.358  1.00  0.00    -0.550 OA
ENDBRANCH   3   4
ENDBRANCH   2   3
ENDBRANCH   1   2
BRANCH   1   7
ATOM      7  C   UNL     1     -44.083 -49.836  35.571  1.00  0.00     0.000 C 
BRANCH   7   8
ATOM      8  C   UNL     1     -43.295 -49.446  34.308  1.00  0.00    -0.000 C 
BRANCH   8   9
ATOM      9  C   UNL     1     -42.497 -48.140  34.478  1.00  0.00    -0.000 C 
BRANCH   9  10
ATOM     10  C   UNL     1     -40.975 -48.318  34.624  1.00  0.00    -0.003 C 
ATOM     11  C   UNL     1     -40.510 -48.340  36.080  1.00  0.00     0.004 C 
ENDBRANCH   9  10
ENDBRANCH   8   9
ENDBRANCH   7   8
ENDBRANCH   1   7
TORSDOF 7
ENDMDL
MODEL 4
REMARK VINA RESULT:    -3.366      1.394      2.215
REMARK INTER + INTRA:          -5.316
REMARK INTER:                  -4.993
REMARK INTRA:                  -0.323
REMARK UNBOUND:                -0.572
REMARK SMILES CCCCCCCCC(=O)[O-]
REMARK SMILES IDX 6 1 7 2 8 3 9 4 10 5 11 6 5 7 4 8 3 9 2 10 1 11
REMARK H PARENT
REMARK Flexibility Score: inf
ROOT
ATOM      1  C   UNL     1     -46.916 -51.399  37.955  1.00  0.00     0.000 C 
ENDROOT
BRANCH   1   2
ATOM      2  C   UNL     1     -46.737 -50.284  36.908  1.00  0.00     0.006 C 
BRANCH   2   3
ATOM      3  C   UNL     1     -46.717 -48.880  37.525  1.00  0.00     0.053 C 
BRANCH   3   4
ATOM      4  C   UNL     1     -45.310 -48.402  37.692  1.00  0.00     0.041 C 
ATOM      5  O   UNL     1     -44.953 -47.848  38.765  1.00  0.00    -0.550 OA
ATOM      6  O   UNL     1     -44.379 -48.612  36.683  1.00  0.00    -0.550 OA
ENDBRANCH   3   4
ENDBRANCH   2   3
ENDBRANCH   1   2
BRANCH   1   7
ATOM      7  C   UNL     1     -47.397 -52.751  37.397  1.00  0.00     0.000 C 
BRANCH   7   8
ATOM      8  C   UNL     1     -48.079 -53.631  38.460  1.00  0.00    -0.000 C 
BRANCH   8   9
ATOM      9  C   UNL     1     -47.787 -53.165  39.898  1.00  0.00    -0.000 C 
BRANCH   9  10
ATOM     10  C   UNL     1     -49.028 -52.992  40.793  1.00  0.00    -0.003 C 
ATOM     11  C   UNL     1     -48.843 -51.929  41.876  1.00  0.00     0.004 C 
ENDBRANCH   9  10
ENDBRANCH   8   9
ENDBRANCH   7   8
ENDBRANCH   1   7
TORSDOF 7
ENDMDL
MODEL 5
REMARK VINA RESULT:    -3.363      4.225      6.019
REMARK INTER + INTRA:          -5.311
REMARK INTER:                  -4.891
REMARK INTRA:                  -0.420
REMARK UNBOUND:                -0.572
REMARK SMILES CCCCCCCCC(=O)[O-]
REMARK SMILES IDX 6 1 7 2 8 3 9 4 10 5 11 6 5 7 4 8 3 9 2 10 1 11
REMARK H PARENT
REMARK Flexibility Score: inf
ROOT
ATOM      1  C   UNL     1     -43.892 -48.796  38.349  1.00  0.00     0.000 C 
ENDROOT
BRANCH   1   2
ATOM      2  C   UNL     1     -44.246 -47.788  39.457  1.00  0.00     0.006 C 
BRANCH   2   3
ATOM      3  C   UNL     1     -43.022 -47.045  40.006  1.00  0.00     0.053 C 
BRANCH   3   4
ATOM      4  C   UNL     1     -43.436 -45.756  40.643  1.00  0.00     0.041 C 
ATOM      5  O   UNL     1     -44.610 -45.327  40.499  1.00  0.00    -0.550 OA
ATOM      6  O   UNL     1     -42.538 -45.053  41.436  1.00  0.00    -0.550 OA
ENDBRANCH   3   4
ENDBRANCH   2   3
ENDBRANCH   1   2
BRANCH   1   7
ATOM      7  C   UNL     1     -44.830 -48.787  37.128  1.00  0.00     0.000 C 
BRANCH   7   8
ATOM      8  C   UNL     1     -46.295 -48.496  37.500  1.00  0.00    -0.000 C 
BRANCH   8   9
ATOM      9  C   UNL     1     -47.248 -49.646  37.125  1.00  0.00    -0.000 C 
BRANCH   9  10
ATOM     10  C   UNL     1     -46.624 -51.053  37.176  1.00  0.00    -0.003 C 
ATOM     11  C   UNL     1     -46.813 -51.744  38.526  1.00  0.00     0.004 C 
ENDBRANCH   9  10
ENDBRANCH   8   9
ENDBRANCH   7   8
ENDBRANCH   1   7
TORSDOF 7
ENDMDL
MODEL 6
REMARK VINA RESULT:    -3.353      2.571      4.685
REMARK INTER + INTRA:          -5.297
REMARK INTER:                  -4.933
REMARK INTRA:                  -0.364
REMARK UNBOUND:                -0.572
REMARK SMILES CCCCCCCCC(=O)[O-]
REMARK SMILES IDX 6 1 7 2 8 3 9 4 10 5 11 6 5 7 4 8 3 9 2 10 1 11
REMARK H PARENT
REMARK Flexibility Score: inf
ROOT
ATOM      1  C   UNL     1     -47.298 -53.634  39.454  1.00  0.00     0.000 C 
ENDROOT
BRANCH   1   2
ATOM      2  C   UNL     1     -48.199 -54.248  40.540  1.00  0.00     0.006 C 
BRANCH   2   3
ATOM      3  C   UNL     1     -49.283 -53.282  41.036  1.00  0.00     0.053 C 
BRANCH   3   4
ATOM      4  C   UNL     1     -48.683 -52.223  41.905  1.00  0.00     0.041 C 
ATOM      5  O   UNL     1     -48.672 -51.023  41.525  1.00  0.00    -0.550 OA
ATOM      6  O   UNL     1     -48.178 -52.554  43.156  1.00  0.00    -0.550 OA
ENDBRANCH   3   4
ENDBRANCH   2   3
ENDBRANCH   1   2
BRANCH   1   7
ATOM      7  C   UNL     1     -47.982 -53.385  38.097  1.00  0.00     0.000 C 
BRANCH   7   8
ATOM      8  C   UNL     1     -47.242 -52.348  37.233  1.00  0.00    -0.000 C 
BRANCH   8   9
ATOM      9  C   UNL     1     -46.841 -51.088  38.023  1.00  0.00    -0.000 C 
BRANCH   9  10
ATOM     10  C   UNL     1     -47.017 -49.759  37.266  1.00  0.00    -0.003 C 
ATOM     11  C   UNL     1     -45.813 -48.827  37.402  1.00  0.00     0.004 C 
ENDBRANCH   9  10
ENDBRANCH   8   9
ENDBRANCH   7   8
ENDBRANCH   1   7
TORSDOF 7
ENDMDL
MODEL 7
REMARK VINA RESULT:    -3.310      1.559      2.583
REMARK INTER + INTRA:          -5.237
REMARK INTER:                  -4.497
REMARK INTRA:                  -0.740
REMARK UNBOUND:                -0.572
REMARK SMILES CCCCCCCCC(=O)[O-]
REMARK SMILES IDX 6 1 7 2 8 3 9 4 10 5 11 6 5 7 4 8 3 9 2 10 1 11
REMARK H PARENT
REMARK Flexibility Score: inf
ROOT
ATOM      1  C   UNL     1     -47.892 -54.275  40.587  1.00  0.00     0.000 C 
ENDROOT
BRANCH   1   2
ATOM      2  C   UNL     1     -47.600 -54.493  39.092  1.00  0.00     0.006 C 
BRANCH   2   3
ATOM      3  C   UNL     1     -48.117 -53.353  38.207  1.00  0.00     0.053 C 
BRANCH   3   4
ATOM      4  C   UNL     1     -46.984 -52.489  37.750  1.00  0.00     0.041 C 
ATOM      5  O   UNL     1     -47.215 -51.383  37.196  1.00  0.00    -0.550 OA
ATOM      6  O   UNL     1     -45.672 -52.884  37.981  1.00  0.00    -0.550 OA
ENDBRANCH   3   4
ENDBRANCH   2   3
ENDBRANCH   1   2
BRANCH   1   7
ATOM      7  C   UNL     1     -49.005 -53.257  40.896  1.00  0.00     0.000 C 
BRANCH   7   8
ATOM      8  C   UNL     1     -48.585 -52.207  41.941  1.00  0.00    -0.000 C 
BRANCH   8   9
ATOM      9  C   UNL     1     -47.807 -51.029  41.326  1.00  0.00    -0.000 C 
BRANCH   9  10
ATOM     10  C   UNL     1     -46.274 -51.175  41.347  1.00  0.00    -0.003 C 
ATOM     11  C   UNL     1     -45.569 -50.241  40.364  1.00  0.00     0.004 C 
ENDBRANCH   9  10
ENDBRANCH   8   9
ENDBRANCH   7   8
ENDBRANCH   1   7
TORSDOF 7
ENDMDL
MODEL 8
REMARK VINA RESULT:    -3.306      4.794      6.593
REMARK INTER + INTRA:          -5.231
REMARK INTER:                  -5.052
REMARK INTRA:                  -0.179
REMARK UNBOUND:                -0.572
REMARK SMILES CCCCCCCCC(=O)[O-]
REMARK SMILES IDX 6 1 7 2 8 3 9 4 10 5 11 6 5 7 4 8 3 9 2 10 1 11
REMARK H PARENT
REMARK Flexibility Score: inf
ROOT
ATOM      1  C   UNL     1     -43.708 -48.690  38.197  1.00  0.00     0.000 C 
ENDROOT
BRANCH   1   2
ATOM      2  C   UNL     1     -44.682 -48.691  37.006  1.00  0.00     0.006 C 
BRANCH   2   3
ATOM      3  C   UNL     1     -45.234 -50.085  36.683  1.00  0.00     0.053 C 
BRANCH   3   4
ATOM      4  C   UNL     1     -46.664 -50.193  37.109  1.00  0.00     0.041 C 
ATOM      5  O   UNL     1     -47.339 -49.153  37.328  1.00  0.00    -0.550 OA
ATOM      6  O   UNL     1     -47.266 -51.440  37.218  1.00  0.00    -0.550 OA
ENDBRANCH   3   4
ENDBRANCH   2   3
ENDBRANCH   1   2
BRANCH   1   7
ATOM      7  C   UNL     1     -44.083 -47.742  39.351  1.00  0.00     0.000 C 
BRANCH   7   8
ATOM      8  C   UNL     1     -42.891 -46.911  39.857  1.00  0.00    -0.000 C 
BRANCH   8   9
ATOM      9  C   UNL     1     -43.323 -45.670  40.659  1.00  0.00    -0.000 C 
BRANCH   9  10
ATOM     10  C   UNL     1     -42.252 -45.098  41.606  1.00  0.00    -0.003 C 
ATOM     11  C   UNL     1     -41.323 -44.094  40.923  1.00  0.00     0.004 C 
ENDBRANCH   9  10
ENDBRANCH   8   9
ENDBRANCH   7   8
ENDBRANCH   1   7
TORSDOF 7
ENDMDL
MODEL 9
REMARK VINA RESULT:    -3.301      3.639      6.751
REMARK INTER + INTRA:          -5.224
REMARK INTER:                  -4.978
REMARK INTRA:                  -0.246
REMARK UNBOUND:                -0.572
REMARK SMILES CCCCCCCCC(=O)[O-]
REMARK SMILES IDX 6 1 7 2 8 3 9 4 10 5 11 6 5 7 4 8 3 9 2 10 1 11
REMARK H PARENT
REMARK Flexibility Score: inf
ROOT
ATOM      1  C   UNL     1     -45.206 -48.577  37.355  1.00  0.00     0.000 C 
ENDROOT
BRANCH   1   2
ATOM      2  C   UNL     1     -45.723 -49.861  38.029  1.00  0.00     0.006 C 
BRANCH   2   3
ATOM      3  C   UNL     1     -46.928 -50.475  37.306  1.00  0.00     0.053 C 
BRANCH   3   4
ATOM      4  C   UNL     1     -47.175 -51.868  37.792  1.00  0.00     0.041 C 
ATOM      5  O   UNL     1     -46.957 -52.167  38.996  1.00  0.00    -0.550 OA
ATOM      6  O   UNL     1     -47.693 -52.825  36.929  1.00  0.00    -0.550 OA
ENDBRANCH   3   4
ENDBRANCH   2   3
ENDBRANCH   1   2
BRANCH   1   7
ATOM      7  C   UNL     1     -43.861 -48.719  36.619  1.00  0.00     0.000 C 
BRANCH   7   8
ATOM      8  C   UNL     1     -43.906 -49.750  35.478  1.00  0.00    -0.000 C 
BRANCH   8   9
ATOM      9  C   UNL     1     -43.141 -49.290  34.224  1.00  0.00    -0.000 C 
BRANCH   9  10
ATOM     10  C   UNL     1     -42.221 -48.072  34.430  1.00  0.00    -0.003 C 
ATOM     11  C   UNL     1     -40.784 -48.458  34.775  1.00  0.00     0.004 C 
ENDBRANCH   9  10
ENDBRANCH   8   9
ENDBRANCH   7   8
ENDBRANCH   1   7
TORSDOF 7
ENDMDL
