MODEL 1
REMARK VINA RESULT:    -3.419      0.000      0.000
REMARK INTER + INTRA:          -4.036
REMARK INTER:                  -4.019
REMARK INTRA:                  -0.017
REMARK UNBOUND:                -0.017
REMARK SMILES CCCCC(=O)[O-]
REMARK SMILES IDX 4 1 5 2 6 3 7 4 3 5 2 6 1 7
REMARK H PARENT
REMARK Flexibility Score: inf
ROOT
ATOM      1  C   UNL     1     -10.856 -21.042  16.279  1.00  0.00     0.053 C 
ENDROOT
BRANCH   1   2
ATOM      2  C   UNL     1     -10.657 -20.481  14.905  1.00  0.00     0.041 C 
ATOM      3  O   UNL     1      -9.497 -20.374  14.427  1.00  0.00    -0.550 OA
ATOM      4  O   UNL     1     -11.748 -20.029  14.175  1.00  0.00    -0.550 OA
ENDBRANCH   1   2
BRANCH   1   5
ATOM      5  C   UNL     1     -11.742 -20.109  17.114  1.00  0.00     0.006 C 
BRANCH   5   6
ATOM      6  C   UNL     1     -11.504 -20.266  18.624  1.00  0.00    -0.003 C 
ATOM      7  C   UNL     1     -12.732 -19.900  19.457  1.00  0.00     0.004 C 
ENDBRANCH   5   6
ENDBRANCH   1   5
TORSDOF 3
ENDMDL
MODEL 2
REMARK VINA RESULT:    -3.399      0.240      1.241
REMARK INTER + INTRA:          -4.012
REMARK INTER:                  -3.993
REMARK INTRA:                  -0.019
REMARK UNBOUND:                -0.017
REMARK SMILES CCCCC(=O)[O-]
REMARK SMILES IDX 4 1 5 2 6 3 7 4 3 5 2 6 1 7
REMARK H PARENT
REMARK Flexibility Score: inf
ROOT
ATOM      1  C   UNL     1     -10.782 -21.048  16.510  1.00  0.00     0.053 C 
ENDROOT
BRANCH   1   2
ATOM      2  C   UNL     1     -10.632 -20.555  15.105  1.00  0.00     0.041 C 
ATOM      3  O   UNL     1     -11.628 -20.099  14.484  1.00  0.00    -0.550 OA
ATOM      4  O   UNL     1      -9.404 -20.645  14.465  1.00  0.00    -0.550 OA
ENDBRANCH   1   2
BRANCH   1   5
ATOM      5  C   UNL     1     -11.736 -20.140  17.297  1.00  0.00     0.006 C 
BRANCH   5   6
ATOM      6  C   UNL     1     -11.537 -20.250  18.816  1.00  0.00    -0.003 C 
ATOM      7  C   UNL     1     -12.804 -19.918  19.604  1.00  0.00     0.004 C 
ENDBRANCH   5   6
ENDBRANCH   1   5
TORSDOF 3
ENDMDL
MODEL 3
REMARK VINA RESULT:    -3.345     13.814     14.448
REMARK INTER + INTRA:          -3.949
REMARK INTER:                  -3.904
REMARK INTRA:                  -0.045
REMARK UNBOUND:                -0.017
REMARK SMILES CCCCC(=O)[O-]
REMARK SMILES IDX 4 1 5 2 6 3 7 4 3 5 2 6 1 7
REMARK H PARENT
REMARK Flexibility Score: inf
ROOT
ATOM      1  C   UNL     1     -13.904 -10.017   8.262  1.00  0.00     0.053 C 
ENDROOT
BRANCH   1   2
ATOM      2  C   UNL     1     -15.375  -9.758   8.172  1.00  0.00     0.041 C 
ATOM      3  O   UNL     1     -15.975  -9.891   7.073  1.00  0.00    -0.550 OA
ATOM      4  O   UNL     1     -16.073  -9.319   9.289  1.00  0.00    -0.550 OA
ENDBRANCH   1   2
BRANCH   1   5
ATOM      5  C   UNL     1     -13.409 -10.733   6.999  1.00  0.00     0.006 C 
BRANCH   5   6
ATOM      6  C   UNL     1     -12.279  -9.967   6.292  1.00  0.00    -0.003 C 
ATOM      7  C   UNL     1     -11.122 -10.874   5.874  1.00  0.00     0.004 C 
ENDBRANCH   5   6
ENDBRANCH   1   5
TORSDOF 3
ENDMDL
MODEL 4
REMARK VINA RESULT:    -3.157      2.975      4.108
REMARK INTER + INTRA:          -3.727
REMARK INTER:                  -3.691
REMARK INTRA:                  -0.036
REMARK UNBOUND:                -0.017
REMARK SMILES CCCCC(=O)[O-]
REMARK SMILES IDX 4 1 5 2 6 3 7 4 3 5 2 6 1 7
REMARK H PARENT
REMARK Flexibility Score: inf
ROOT
ATOM      1  C   UNL     1     -12.078 -19.816  17.186  1.00  0.00     0.053 C 
ENDROOT
BRANCH   1   2
ATOM      2  C   UNL     1     -12.339 -19.653  18.651  1.00  0.00     0.041 C 
ATOM      3  O   UNL     1     -11.691 -20.333  19.489  1.00  0.00    -0.550 OA
ATOM      4  O   UNL     1     -13.332 -18.786  19.088  1.00  0.00    -0.550 OA
ENDBRANCH   1   2
BRANCH   1   5
ATOM      5  C   UNL     1     -11.009 -20.889  16.950  1.00  0.00     0.006 C 
BRANCH   5   6
ATOM      6  C   UNL     1     -10.679 -21.075  15.461  1.00  0.00    -0.003 C 
ATOM      7  C   UNL     1     -11.496 -20.154  14.555  1.00  0.00     0.004 C 
ENDBRANCH   5   6
ENDBRANCH   1   5
TORSDOF 3
ENDMDL
MODEL 5
REMARK VINA RESULT:    -3.156     13.531     14.313
REMARK INTER + INTRA:          -3.726
REMARK INTER:                  -3.703
REMARK INTRA:                  -0.023
REMARK UNBOUND:                -0.017
REMARK SMILES CCCCC(=O)[O-]
REMARK SMILES IDX 4 1 5 2 6 3 7 4 3 5 2 6 1 7
REMARK H PARENT
REMARK Flexibility Score: inf
ROOT
ATOM      1  C   UNL     1     -13.529 -10.739   6.980  1.00  0.00     0.053 C 
ENDROOT
BRANCH   1   2
ATOM      2  C   UNL     1     -14.593  -9.938   7.662  1.00  0.00     0.041 C 
ATOM      3  O   UNL     1     -14.338  -9.329   8.734  1.00  0.00    -0.550 OA
ATOM      4  O   UNL     1     -15.879  -9.904   7.141  1.00  0.00    -0.550 OA
ENDBRANCH   1   2
BRANCH   1   5
ATOM      5  C   UNL     1     -12.354  -9.838   6.581  1.00  0.00     0.006 C 
BRANCH   5   6
ATOM      6  C   UNL     1     -11.251 -10.604   5.833  1.00  0.00    -0.003 C 
ATOM      7  C   UNL     1     -10.807 -11.868   6.568  1.00  0.00     0.004 C 
ENDBRANCH   5   6
ENDBRANCH   1   5
TORSDOF 3
ENDMDL
MODEL 6
REMARK VINA RESULT:    -3.140     13.537     14.082
REMARK INTER + INTRA:          -3.707
REMARK INTER:                  -3.686
REMARK INTRA:                  -0.021
REMARK UNBOUND:                -0.017
REMARK SMILES CCCCC(=O)[O-]
REMARK SMILES IDX 4 1 5 2 6 3 7 4 3 5 2 6 1 7
REMARK H PARENT
REMARK Flexibility Score: inf
ROOT
ATOM      1  C   UNL     1     -12.736  -9.974   6.198  1.00  0.00     0.053 C 
ENDROOT
BRANCH   1   2
ATOM      2  C   UNL     1     -11.360 -10.550   6.313  1.00  0.00     0.041 C 
ATOM      3  O   UNL     1     -11.205 -11.763   6.616  1.00  0.00    -0.550 OA
ATOM      4  O   UNL     1     -10.249  -9.737   6.137  1.00  0.00    -0.550 OA
ENDBRANCH   1   2
BRANCH   1   5
ATOM      5  C   UNL     1     -13.701 -10.700   7.142  1.00  0.00     0.006 C 
BRANCH   5   6
ATOM      6  C   UNL     1     -15.150 -10.205   7.001  1.00  0.00    -0.003 C 
ATOM      7  C   UNL     1     -15.764  -9.785   8.336  1.00  0.00     0.004 C 
ENDBRANCH   5   6
ENDBRANCH   1   5
TORSDOF 3
ENDMDL
MODEL 7
REMARK VINA RESULT:    -3.085      1.110      1.905
REMARK INTER + INTRA:          -3.642
REMARK INTER:                  -3.595
REMARK INTRA:                  -0.047
REMARK UNBOUND:                -0.017
REMARK SMILES CCCCC(=O)[O-]
REMARK SMILES IDX 4 1 5 2 6 3 7 4 3 5 2 6 1 7
REMARK H PARENT
REMARK Flexibility Score: inf
ROOT
ATOM      1  C   UNL     1      -9.495 -20.917  16.464  1.00  0.00     0.053 C 
ENDROOT
BRANCH   1   2
ATOM      2  C   UNL     1      -9.155 -20.843  15.008  1.00  0.00     0.041 C 
ATOM      3  O   UNL     1      -9.817 -20.098  14.240  1.00  0.00    -0.550 OA
ATOM      4  O   UNL     1      -8.139 -21.636  14.492  1.00  0.00    -0.550 OA
ENDBRANCH   1   2
BRANCH   1   5
ATOM      5  C   UNL     1     -10.996 -21.172  16.649  1.00  0.00     0.006 C 
BRANCH   5   6
ATOM      6  C   UNL     1     -11.688 -20.064  17.459  1.00  0.00    -0.003 C 
ATOM      7  C   UNL     1     -11.503 -20.231  18.967  1.00  0.00     0.004 C 
ENDBRANCH   5   6
ENDBRANCH   1   5
TORSDOF 3
ENDMDL
MODEL 8
REMARK VINA RESULT:    -3.026     13.407     13.875
REMARK INTER + INTRA:          -3.573
REMARK INTER:                  -3.466
REMARK INTRA:                  -0.107
REMARK UNBOUND:                -0.017
REMARK SMILES CCCCC(=O)[O-]
REMARK SMILES IDX 4 1 5 2 6 3 7 4 3 5 2 6 1 7
REMARK H PARENT
REMARK Flexibility Score: inf
ROOT
ATOM      1  C   UNL     1     -12.830  -9.625   6.977  1.00  0.00     0.053 C 
ENDROOT
BRANCH   1   2
ATOM      2  C   UNL     1     -11.977  -9.643   8.206  1.00  0.00     0.041 C 
ATOM      3  O   UNL     1     -10.823  -9.139   8.183  1.00  0.00    -0.550 OA
ATOM      4  O   UNL     1     -12.435 -10.260   9.362  1.00  0.00    -0.550 OA
ENDBRANCH   1   2
BRANCH   1   5
ATOM      5  C   UNL     1     -13.917 -10.705   7.065  1.00  0.00     0.006 C 
BRANCH   5   6
ATOM      6  C   UNL     1     -15.335 -10.113   7.086  1.00  0.00    -0.003 C 
ATOM      7  C   UNL     1     -15.824  -9.798   8.499  1.00  0.00     0.004 C 
ENDBRANCH   5   6
ENDBRANCH   1   5
TORSDOF 3
ENDMDL
MODEL 9
REMARK VINA RESULT:    -2.958     13.293     13.943
REMARK INTER + INTRA:          -3.493
REMARK INTER:                  -3.450
REMARK INTRA:                  -0.043
REMARK UNBOUND:                -0.017
REMARK SMILES CCCCC(=O)[O-]
REMARK SMILES IDX 4 1 5 2 6 3 7 4 3 5 2 6 1 7
REMARK H PARENT
REMARK Flexibility Score: inf
ROOT
ATOM      1  C   UNL     1     -11.684 -10.465   5.918  1.00  0.00     0.053 C 
ENDROOT
BRANCH   1   2
ATOM      2  C   UNL     1     -12.692 -10.393   7.022  1.00  0.00     0.041 C 
ATOM      3  O   UNL     1     -13.920 -10.314   6.753  1.00  0.00    -0.550 OA
ATOM      4  O   UNL     1     -12.274 -10.362   8.345  1.00  0.00    -0.550 OA
ENDBRANCH   1   2
BRANCH   1   5
ATOM      5  C   UNL     1     -10.407 -11.161   6.406  1.00  0.00     0.006 C 
BRANCH   5   6
ATOM      6  C   UNL     1     -10.307 -12.616   5.923  1.00  0.00    -0.003 C 
ATOM      7  C   UNL     1      -8.863 -13.100   5.799  1.00  0.00     0.004 C 
ENDBRANCH   5   6
ENDBRANCH   1   5
TORSDOF 3
ENDMDL
