MODEL 1
REMARK VINA RESULT:     0.399      0.000      0.000
REMARK INTER + INTRA:          -0.032
REMARK INTER:                   0.609
REMARK INTRA:                  -0.641
REMARK UNBOUND:                -0.641
REMARK SMILES CCCCCCCCCCC(=O)[O-]
REMARK SMILES IDX 7 1 8 2 9 3 10 4 11 5 12 6 13 7 6 8 5 9 4 10 3 11 2 12 1 13
REMARK H PARENT
REMARK Flexibility Score: inf
ROOT
ATOM      1  C   UNL     1     104.623 105.691 105.007  1.00  0.00     0.000 C 
ENDROOT
BRANCH   1   2
ATOM      2  C   UNL     1     104.500 106.249 106.434  1.00  0.00     0.000 C 
BRANCH   2   3
ATOM      3  C   UNL     1     104.345 105.144 107.490  1.00  0.00     0.006 C 
BRANCH   3   4
ATOM      4  C   UNL     1     104.521 103.758 106.864  1.00  0.00     0.053 C 
BRANCH   4   5
ATOM      5  C   UNL     1     103.390 102.860 107.252  1.00  0.00     0.041 C 
ATOM      6  O   UNL     1     102.215 103.310 107.314  1.00  0.00    -0.550 OA
ATOM      7  O   UNL     1     103.625 101.513 107.497  1.00  0.00    -0.550 OA
ENDBRANCH   4   5
ENDBRANCH   3   4
ENDBRANCH   2   3
ENDBRANCH   1   2
BRANCH   1   8
ATOM      8  C   UNL     1     104.684 106.800 103.940  1.00  0.00     0.000 C 
BRANCH   8   9
ATOM      9  C   UNL     1     104.306 106.279 102.537  1.00  0.00    -0.000 C 
BRANCH   9  10
ATOM     10  C   UNL     1     104.712 104.816 102.296  1.00  0.00    -0.000 C 
BRANCH  10  11
ATOM     11  C   UNL     1     103.520 103.918 101.927  1.00  0.00    -0.000 C 
BRANCH  11  12
ATOM     12  C   UNL     1     103.284 102.800 102.954  1.00  0.00    -0.003 C 
ATOM     13  C   UNL     1     103.724 101.428 102.443  1.00  0.00     0.004 C 
ENDBRANCH  11  12
ENDBRANCH  10  11
ENDBRANCH   9  10
ENDBRANCH   8   9
ENDBRANCH   1   8
TORSDOF 9
ENDMDL
MODEL 2
REMARK VINA RESULT:     0.463      1.883      3.621
REMARK INTER + INTRA:           0.067
REMARK INTER:                   0.703
REMARK INTRA:                  -0.637
REMARK UNBOUND:                -0.641
REMARK SMILES CCCCCCCCCCC(=O)[O-]
REMARK SMILES IDX 7 1 8 2 9 3 10 4 11 5 12 6 13 7 6 8 5 9 4 10 3 11 2 12 1 13
REMARK H PARENT
REMARK Flexibility Score: inf
ROOT
ATOM      1  C   UNL     1     103.259 102.556 105.023  1.00  0.00     0.000 C 
ENDROOT
BRANCH   1   2
ATOM      2  C   UNL     1     103.503 102.043 106.450  1.00  0.00     0.000 C 
BRANCH   2   3
ATOM      3  C   UNL     1     103.685 103.181 107.466  1.00  0.00     0.006 C 
BRANCH   3   4
ATOM      4  C   UNL     1     103.521 104.547 106.794  1.00  0.00     0.053 C 
BRANCH   4   5
ATOM      5  C   UNL     1     104.617 105.473 107.215  1.00  0.00     0.041 C 
ATOM      6  O   UNL     1     104.355 106.666 107.526  1.00  0.00    -0.550 OA
ATOM      7  O   UNL     1     105.922 105.008 107.313  1.00  0.00    -0.550 OA
ENDBRANCH   4   5
ENDBRANCH   3   4
ENDBRANCH   2   3
ENDBRANCH   1   2
BRANCH   1   8
ATOM      8  C   UNL     1     103.301 101.430 103.972  1.00  0.00     0.000 C 
BRANCH   8   9
ATOM      9  C   UNL     1     103.701 101.952 102.576  1.00  0.00    -0.000 C 
BRANCH   9  10
ATOM     10  C   UNL     1     103.247 103.396 102.306  1.00  0.00    -0.000 C 
BRANCH  10  11
ATOM     11  C   UNL     1     104.385 104.296 101.800  1.00  0.00    -0.000 C 
BRANCH  11  12
ATOM     12  C   UNL     1     104.797 105.362 102.827  1.00  0.00    -0.003 C 
ATOM     13  C   UNL     1     104.266 106.752 102.478  1.00  0.00     0.004 C 
ENDBRANCH  11  12
ENDBRANCH  10  11
ENDBRANCH   9  10
ENDBRANCH   8   9
ENDBRANCH   1   8
TORSDOF 9
ENDMDL
MODEL 3
REMARK VINA RESULT:     0.476      3.918      6.071
REMARK INTER + INTRA:           0.086
REMARK INTER:                   0.746
REMARK INTRA:                  -0.659
REMARK UNBOUND:                -0.641
REMARK SMILES CCCCCCCCCCC(=O)[O-]
REMARK SMILES IDX 7 1 8 2 9 3 10 4 11 5 12 6 13 7 6 8 5 9 4 10 3 11 2 12 1 13
REMARK H PARENT
REMARK Flexibility Score: inf
ROOT
ATOM      1  C   UNL     1     103.268 102.547 100.211  1.00  0.00     0.000 C 
ENDROOT
BRANCH   1   2
ATOM      2  C   UNL     1     103.517 102.013 101.630  1.00  0.00     0.000 C 
BRANCH   2   3
ATOM      3  C   UNL     1     103.701 103.136 102.662  1.00  0.00     0.006 C 
BRANCH   3   4
ATOM      4  C   UNL     1     103.560 104.512 102.005  1.00  0.00     0.053 C 
BRANCH   4   5
ATOM      5  C   UNL     1     104.641 105.432 102.478  1.00  0.00     0.041 C 
ATOM      6  O   UNL     1     105.831 105.026 102.556  1.00  0.00    -0.550 OA
ATOM      7  O   UNL     1     104.343 106.753 102.788  1.00  0.00    -0.550 OA
ENDBRANCH   4   5
ENDBRANCH   3   4
ENDBRANCH   2   3
ENDBRANCH   1   2
BRANCH   1   8
ATOM      8  C   UNL     1     103.352 101.444  99.139  1.00  0.00     0.000 C 
BRANCH   8   9
ATOM      9  C   UNL     1     103.740 102.007  97.754  1.00  0.00    -0.000 C 
BRANCH   9  10
ATOM     10  C   UNL     1     103.252 103.446  97.518  1.00  0.00    -0.000 C 
BRANCH  10  11
ATOM     11  C   UNL     1     104.378 104.393  97.075  1.00  0.00    -0.000 C 
BRANCH  11  12
ATOM     12  C   UNL     1     104.733 105.431  98.151  1.00  0.00    -0.003 C 
ATOM     13  C   UNL     1     104.289 106.844  97.776  1.00  0.00     0.004 C 
ENDBRANCH  11  12
ENDBRANCH  10  11
ENDBRANCH   9  10
ENDBRANCH   8   9
ENDBRANCH   1   8
TORSDOF 9
ENDMDL
MODEL 4
REMARK VINA RESULT:     0.477      2.080      4.449
REMARK INTER + INTRA:           0.088
REMARK INTER:                   0.666
REMARK INTRA:                  -0.578
REMARK UNBOUND:                -0.641
REMARK SMILES CCCCCCCCCCC(=O)[O-]
REMARK SMILES IDX 7 1 8 2 9 3 10 4 11 5 12 6 13 7 6 8 5 9 4 10 3 11 2 12 1 13
REMARK H PARENT
REMARK Flexibility Score: inf
ROOT
ATOM      1  C   UNL     1     104.693 105.854 104.632  1.00  0.00     0.000 C 
ENDROOT
BRANCH   1   2
ATOM      2  C   UNL     1     104.599 106.396 103.198  1.00  0.00     0.000 C 
BRANCH   2   3
ATOM      3  C   UNL     1     104.102 105.342 102.197  1.00  0.00     0.006 C 
BRANCH   3   4
ATOM      4  C   UNL     1     104.605 103.946 102.577  1.00  0.00     0.053 C 
BRANCH   4   5
ATOM      5  C   UNL     1     103.486 102.955 102.528  1.00  0.00     0.041 C 
ATOM      6  O   UNL     1     103.732 101.719 102.537  1.00  0.00    -0.550 OA
ATOM      7  O   UNL     1     102.168 103.393 102.522  1.00  0.00    -0.550 OA
ENDBRANCH   4   5
ENDBRANCH   3   4
ENDBRANCH   2   3
ENDBRANCH   1   2
BRANCH   1   8
ATOM      8  C   UNL     1     104.642 106.970 105.692  1.00  0.00     0.000 C 
BRANCH   8   9
ATOM      9  C   UNL     1     104.348 106.419 107.104  1.00  0.00    -0.000 C 
BRANCH   9  10
ATOM     10  C   UNL     1     104.778 104.955 107.293  1.00  0.00    -0.000 C 
BRANCH  10  11
ATOM     11  C   UNL     1     103.594 104.015 107.572  1.00  0.00    -0.000 C 
BRANCH  11  12
ATOM     12  C   UNL     1     103.593 102.779 106.660  1.00  0.00    -0.003 C 
ATOM     13  C   UNL     1     103.577 101.468 107.445  1.00  0.00     0.004 C 
ENDBRANCH  11  12
ENDBRANCH  10  11
ENDBRANCH   9  10
ENDBRANCH   8   9
ENDBRANCH   1   8
TORSDOF 9
ENDMDL
MODEL 5
REMARK VINA RESULT:     0.503      2.655      5.675
REMARK INTER + INTRA:           0.128
REMARK INTER:                   0.693
REMARK INTRA:                  -0.566
REMARK UNBOUND:                -0.641
REMARK SMILES CCCCCCCCCCC(=O)[O-]
REMARK SMILES IDX 7 1 8 2 9 3 10 4 11 5 12 6 13 7 6 8 5 9 4 10 3 11 2 12 1 13
REMARK H PARENT
REMARK Flexibility Score: inf
ROOT
ATOM      1  C   UNL     1     103.302 102.464 104.650  1.00  0.00     0.000 C 
ENDROOT
BRANCH   1   2
ATOM      2  C   UNL     1     103.378 101.940 103.207  1.00  0.00     0.000 C 
BRANCH   2   3
ATOM      3  C   UNL     1     103.939 102.981 102.227  1.00  0.00     0.006 C 
BRANCH   3   4
ATOM      4  C   UNL     1     103.405 104.380 102.550  1.00  0.00     0.053 C 
BRANCH   4   5
ATOM      5  C   UNL     1     104.517 105.380 102.545  1.00  0.00     0.041 C 
ATOM      6  O   UNL     1     104.262 106.613 102.592  1.00  0.00    -0.550 OA
ATOM      7  O   UNL     1     105.838 104.950 102.537  1.00  0.00    -0.550 OA
ENDBRANCH   4   5
ENDBRANCH   3   4
ENDBRANCH   2   3
ENDBRANCH   1   2
BRANCH   1   8
ATOM      8  C   UNL     1     103.321 101.332 105.694  1.00  0.00     0.000 C 
BRANCH   8   9
ATOM      9  C   UNL     1     103.651 101.851 107.109  1.00  0.00    -0.000 C 
BRANCH   9  10
ATOM     10  C   UNL     1     103.235 103.314 107.340  1.00  0.00    -0.000 C 
BRANCH  10  11
ATOM     11  C   UNL     1     104.435 104.247 107.566  1.00  0.00    -0.000 C 
BRANCH  11  12
ATOM     12  C   UNL     1     104.396 105.489 106.661  1.00  0.00    -0.003 C 
ATOM     13  C   UNL     1     104.337 106.794 107.454  1.00  0.00     0.004 C 
ENDBRANCH  11  12
ENDBRANCH  10  11
ENDBRANCH   9  10
ENDBRANCH   8   9
ENDBRANCH   1   8
TORSDOF 9
ENDMDL
MODEL 6
REMARK VINA RESULT:     0.512      3.912      6.027
REMARK INTER + INTRA:           0.140
REMARK INTER:                   0.773
REMARK INTRA:                  -0.633
REMARK UNBOUND:                -0.641
REMARK SMILES CCCCCCCCCCC(=O)[O-]
REMARK SMILES IDX 7 1 8 2 9 3 10 4 11 5 12 6 13 7 6 8 5 9 4 10 3 11 2 12 1 13
REMARK H PARENT
REMARK Flexibility Score: inf
ROOT
ATOM      1  C   UNL     1     103.305 102.578 109.704  1.00  0.00     0.000 C 
ENDROOT
BRANCH   1   2
ATOM      2  C   UNL     1     103.399 102.009 111.127  1.00  0.00     0.000 C 
BRANCH   2   3
ATOM      3  C   UNL     1     103.689 103.089 112.180  1.00  0.00     0.006 C 
BRANCH   3   4
ATOM      4  C   UNL     1     103.460 104.490 111.605  1.00  0.00     0.053 C 
BRANCH   4   5
ATOM      5  C   UNL     1     104.585 105.401 111.980  1.00  0.00     0.041 C 
ATOM      6  O   UNL     1     105.763 104.960 112.050  1.00  0.00    -0.550 OA
ATOM      7  O   UNL     1     104.341 106.750 112.206  1.00  0.00    -0.550 OA
ENDBRANCH   4   5
ENDBRANCH   3   4
ENDBRANCH   2   3
ENDBRANCH   1   2
BRANCH   1   8
ATOM      8  C   UNL     1     103.315 101.480 108.624  1.00  0.00     0.000 C 
BRANCH   8   9
ATOM      9  C   UNL     1     103.640 102.044 107.224  1.00  0.00    -0.000 C 
BRANCH   9  10
ATOM     10  C   UNL     1     103.277 103.529 107.060  1.00  0.00    -0.000 C 
BRANCH  10  11
ATOM     11  C   UNL     1     104.498 104.411 106.753  1.00  0.00    -0.000 C 
BRANCH  11  12
ATOM     12  C   UNL     1     104.658 105.566 107.754  1.00  0.00    -0.003 C 
ATOM     13  C   UNL     1     104.290 106.922 107.154  1.00  0.00     0.004 C 
ENDBRANCH  11  12
ENDBRANCH  10  11
ENDBRANCH   9  10
ENDBRANCH   8   9
ENDBRANCH   1   8
TORSDOF 9
ENDMDL
MODEL 7
REMARK VINA RESULT:     0.514      3.612      4.774
REMARK INTER + INTRA:           0.143
REMARK INTER:                   0.790
REMARK INTRA:                  -0.646
REMARK UNBOUND:                -0.641
REMARK SMILES CCCCCCCCCCC(=O)[O-]
REMARK SMILES IDX 7 1 8 2 9 3 10 4 11 5 12 6 13 7 6 8 5 9 4 10 3 11 2 12 1 13
REMARK H PARENT
REMARK Flexibility Score: inf
ROOT
ATOM      1  C   UNL     1     104.575 105.653 100.225  1.00  0.00     0.000 C 
ENDROOT
BRANCH   1   2
ATOM      2  C   UNL     1     104.463 106.196 101.657  1.00  0.00     0.000 C 
BRANCH   2   3
ATOM      3  C   UNL     1     104.397 105.080 102.711  1.00  0.00     0.006 C 
BRANCH   3   4
ATOM      4  C   UNL     1     104.490 103.700 102.054  1.00  0.00     0.053 C 
BRANCH   4   5
ATOM      5  C   UNL     1     103.361 102.828 102.504  1.00  0.00     0.041 C 
ATOM      6  O   UNL     1     102.185 103.279 102.536  1.00  0.00    -0.550 OA
ATOM      7  O   UNL     1     103.599 101.502 102.842  1.00  0.00    -0.550 OA
ENDBRANCH   4   5
ENDBRANCH   3   4
ENDBRANCH   2   3
ENDBRANCH   1   2
BRANCH   1   8
ATOM      8  C   UNL     1     104.660 106.773  99.171  1.00  0.00     0.000 C 
BRANCH   8   9
ATOM      9  C   UNL     1     104.256 106.280  97.765  1.00  0.00    -0.000 C 
BRANCH   9  10
ATOM     10  C   UNL     1     104.740 104.855  97.450  1.00  0.00    -0.000 C 
BRANCH  10  11
ATOM     11  C   UNL     1     103.593 103.906  97.065  1.00  0.00    -0.000 C 
BRANCH  11  12
ATOM     12  C   UNL     1     103.292 102.870  98.159  1.00  0.00    -0.003 C 
ATOM     13  C   UNL     1     103.717 101.456  97.764  1.00  0.00     0.004 C 
ENDBRANCH  11  12
ENDBRANCH  10  11
ENDBRANCH   9  10
ENDBRANCH   8   9
ENDBRANCH   1   8
TORSDOF 9
ENDMDL
MODEL 8
REMARK VINA RESULT:     0.549      3.617      4.761
REMARK INTER + INTRA:           0.197
REMARK INTER:                   0.858
REMARK INTRA:                  -0.662
REMARK UNBOUND:                -0.641
REMARK SMILES CCCCCCCCCCC(=O)[O-]
REMARK SMILES IDX 7 1 8 2 9 3 10 4 11 5 12 6 13 7 6 8 5 9 4 10 3 11 2 12 1 13
REMARK H PARENT
REMARK Flexibility Score: inf
ROOT
ATOM      1  C   UNL     1     104.736 105.712 109.778  1.00  0.00     0.000 C 
ENDROOT
BRANCH   1   2
ATOM      2  C   UNL     1     104.392 106.229 111.184  1.00  0.00     0.000 C 
BRANCH   2   3
ATOM      3  C   UNL     1     104.374 105.112 112.238  1.00  0.00     0.006 C 
BRANCH   3   4
ATOM      4  C   UNL     1     104.492 103.735 111.579  1.00  0.00     0.053 C 
BRANCH   4   5
ATOM      5  C   UNL     1     103.353 102.857 111.990  1.00  0.00     0.041 C 
ATOM      6  O   UNL     1     102.184 103.322 112.053  1.00  0.00    -0.550 OA
ATOM      7  O   UNL     1     103.573 101.511 112.257  1.00  0.00    -0.550 OA
ENDBRANCH   4   5
ENDBRANCH   3   4
ENDBRANCH   2   3
ENDBRANCH   1   2
BRANCH   1   8
ATOM      8  C   UNL     1     104.698 106.823 108.712  1.00  0.00     0.000 C 
BRANCH   8   9
ATOM      9  C   UNL     1     104.344 106.275 107.313  1.00  0.00    -0.000 C 
BRANCH   9  10
ATOM     10  C   UNL     1     104.729 104.799 107.116  1.00  0.00    -0.000 C 
BRANCH  10  11
ATOM     11  C   UNL     1     103.533 103.917 106.723  1.00  0.00    -0.000 C 
BRANCH  11  12
ATOM     12  C   UNL     1     103.287 102.776 107.722  1.00  0.00    -0.003 C 
ATOM     13  C   UNL     1     103.698 101.412 107.171  1.00  0.00     0.004 C 
ENDBRANCH  11  12
ENDBRANCH  10  11
ENDBRANCH   9  10
ENDBRANCH   8   9
ENDBRANCH   1   8
TORSDOF 9
ENDMDL
MODEL 9
REMARK VINA RESULT:     0.562      4.801      7.562
REMARK INTER + INTRA:           0.216
REMARK INTER:                   0.793
REMARK INTRA:                  -0.577
REMARK UNBOUND:                -0.641
REMARK SMILES CCCCCCCCCCC(=O)[O-]
REMARK SMILES IDX 7 1 8 2 9 3 10 4 11 5 12 6 13 7 6 8 5 9 4 10 3 11 2 12 1 13
REMARK H PARENT
REMARK Flexibility Score: inf
ROOT
ATOM      1  C   UNL     1     103.283 102.378  99.826  1.00  0.00     0.000 C 
ENDROOT
BRANCH   1   2
ATOM      2  C   UNL     1     103.457 101.844  98.396  1.00  0.00     0.000 C 
BRANCH   2   3
ATOM      3  C   UNL     1     103.980 102.913  97.424  1.00  0.00     0.006 C 
BRANCH   3   4
ATOM      4  C   UNL     1     103.432 104.296  97.785  1.00  0.00     0.053 C 
BRANCH   4   5
ATOM      5  C   UNL     1     104.537 105.303  97.826  1.00  0.00     0.041 C 
ATOM      6  O   UNL     1     105.736 104.934  97.719  1.00  0.00    -0.550 OA
ATOM      7  O   UNL     1     104.240 106.657  97.932  1.00  0.00    -0.550 OA
ENDBRANCH   4   5
ENDBRANCH   3   4
ENDBRANCH   2   3
ENDBRANCH   1   2
BRANCH   1   8
ATOM      8  C   UNL     1     103.338 101.262 100.886  1.00  0.00     0.000 C 
BRANCH   8   9
ATOM      9  C   UNL     1     103.765 101.795 102.270  1.00  0.00    -0.000 C 
BRANCH   9  10
ATOM     10  C   UNL     1     103.302 103.236 102.543  1.00  0.00    -0.000 C 
BRANCH  10  11
ATOM     11  C   UNL     1     104.468 104.194 102.834  1.00  0.00    -0.000 C 
BRANCH  11  12
ATOM     12  C   UNL     1     104.423 105.460 101.965  1.00  0.00    -0.003 C 
ATOM     13  C   UNL     1     104.427 106.743 102.794  1.00  0.00     0.004 C 
ENDBRANCH  11  12
ENDBRANCH  10  11
ENDBRANCH   9  10
ENDBRANCH   8   9
ENDBRANCH   1   8
TORSDOF 9
ENDMDL
