MODEL 1
REMARK VINA RESULT:    -4.396      0.000      0.000
REMARK INTER + INTRA:          -6.020
REMARK INTER:                  -5.681
REMARK INTRA:                  -0.339
REMARK UNBOUND:                -0.339
REMARK SMILES CCO[C@H]1O[C@H](CO)[C@H](O)[C@@H](O)[C@@H]1O
REMARK SMILES IDX 4 1 13 2 11 3 9 4 6 5 5 6 3 7 2 8 1 9 14 10 12 12 7 14 8 15
REMARK SMILES IDX 10 17
REMARK H PARENT 14 11 12 13 8 16 10 18
REMARK Flexibility Score: inf
ROOT
ATOM      1  C   UNL     1      40.124 -15.263  13.055  1.00  0.00     0.281 C 
ATOM      2  C   UNL     1      39.122 -14.380  13.851  1.00  0.00     0.202 C 
ATOM      3  C   UNL     1      38.591 -13.184  13.007  1.00  0.00     0.179 C 
ATOM      4  C   UNL     1      39.490 -12.929  11.766  1.00  0.00     0.177 C 
ATOM      5  C   UNL     1      39.706 -14.248  10.957  1.00  0.00     0.178 C 
ATOM      6  O   UNL     1      39.636 -15.440  11.736  1.00  0.00    -0.341 OA
ENDROOT
BRANCH   1   7
ATOM      7  O   UNL     1      40.202 -16.543  13.668  1.00  0.00    -0.350 OA
BRANCH   7   8
ATOM      8  C   UNL     1      39.914 -17.586  12.754  1.00  0.00     0.160 C 
ATOM      9  C   UNL     1      40.734 -18.832  13.078  1.00  0.00     0.035 C 
ENDBRANCH   7   8
ENDBRANCH   1   7
BRANCH   2  10
ATOM     10  O   UNL     1      39.699 -13.940  15.059  1.00  0.00    -0.385 OA
ATOM     11  H   UNL     1      40.248 -14.687  15.416  1.00  0.00     0.211 HD
ENDBRANCH   2  10
BRANCH   3  12
ATOM     12  O   UNL     1      37.254 -13.440  12.657  1.00  0.00    -0.387 OA
ATOM     13  H   UNL     1      36.784 -13.821  13.456  1.00  0.00     0.211 HD
ENDBRANCH   3  12
BRANCH   5  14
ATOM     14  C   UNL     1      40.997 -14.213  10.109  1.00  0.00     0.191 C 
BRANCH  14  15
ATOM     15  O   UNL     1      40.955 -13.180   9.154  1.00  0.00    -0.394 OA
ATOM     16  H   UNL     1      39.996 -12.944   9.021  1.00  0.00     0.210 HD
ENDBRANCH  14  15
ENDBRANCH   5  14
BRANCH   4  17
ATOM     17  O   UNL     1      40.727 -12.404  12.206  1.00  0.00    -0.387 OA
ATOM     18  H   UNL     1      40.721 -12.410  13.196  1.00  0.00     0.211 HD
ENDBRANCH   4  17
TORSDOF 7
ENDMDL
MODEL 2
REMARK VINA RESULT:    -4.321      1.595      1.811
REMARK INTER + INTRA:          -5.923
REMARK INTER:                  -5.492
REMARK INTRA:                  -0.431
REMARK UNBOUND:                -0.339
REMARK SMILES CCO[C@H]1O[C@H](CO)[C@H](O)[C@@H](O)[C@@H]1O
REMARK SMILES IDX 4 1 13 2 11 3 9 4 6 5 5 6 3 7 2 8 1 9 14 10 12 12 7 14 8 15
REMARK SMILES IDX 10 17
REMARK H PARENT 14 11 12 13 8 16 10 18
REMARK Flexibility Score: inf
ROOT
ATOM      1  C   UNL     1      40.131 -14.165  13.334  1.00  0.00     0.281 C 
ATOM      2  C   UNL     1      38.629 -13.831  13.557  1.00  0.00     0.202 C 
ATOM      3  C   UNL     1      37.863 -13.640  12.214  1.00  0.00     0.179 C 
ATOM      4  C   UNL     1      38.846 -13.411  11.033  1.00  0.00     0.177 C 
ATOM      5  C   UNL     1      39.942 -14.523  11.000  1.00  0.00     0.178 C 
ATOM      6  O   UNL     1      40.245 -15.096  12.271  1.00  0.00    -0.341 OA
ENDROOT
BRANCH   1   7
ATOM      7  O   UNL     1      40.650 -14.776  14.508  1.00  0.00    -0.350 OA
BRANCH   7   8
ATOM      8  C   UNL     1      39.903 -15.920  14.883  1.00  0.00     0.160 C 
ATOM      9  C   UNL     1      39.650 -15.931  16.388  1.00  0.00     0.035 C 
ENDBRANCH   7   8
ENDBRANCH   1   7
BRANCH   2  10
ATOM     10  O   UNL     1      38.489 -12.707  14.393  1.00  0.00    -0.385 OA
ATOM     11  H   UNL     1      38.656 -11.901  13.838  1.00  0.00     0.211 HD
ENDBRANCH   2  10
BRANCH   3  12
ATOM     12  O   UNL     1      37.029 -14.754  12.010  1.00  0.00    -0.387 OA
ATOM     13  H   UNL     1      36.812 -15.155  12.902  1.00  0.00     0.211 HD
ENDBRANCH   3  12
BRANCH   5  14
ATOM     14  C   UNL     1      41.228 -14.062  10.279  1.00  0.00     0.191 C 
BRANCH  14  15
ATOM     15  O   UNL     1      40.936 -13.504   9.020  1.00  0.00    -0.394 OA
ATOM     16  H   UNL     1      41.200 -12.544   9.058  1.00  0.00     0.210 HD
ENDBRANCH  14  15
ENDBRANCH   5  14
BRANCH   4  17
ATOM     17  O   UNL     1      39.434 -12.134  11.179  1.00  0.00    -0.387 OA
ATOM     18  H   UNL     1      40.055 -12.174  11.949  1.00  0.00     0.211 HD
ENDBRANCH   4  17
TORSDOF 7
ENDMDL
MODEL 3
REMARK VINA RESULT:    -4.304      1.940      4.454
REMARK INTER + INTRA:          -5.900
REMARK INTER:                  -5.474
REMARK INTRA:                  -0.427
REMARK UNBOUND:                -0.339
REMARK SMILES CCO[C@H]1O[C@H](CO)[C@H](O)[C@@H](O)[C@@H]1O
REMARK SMILES IDX 4 1 13 2 11 3 9 4 6 5 5 6 3 7 2 8 1 9 14 10 12 12 7 14 8 15
REMARK SMILES IDX 10 17
REMARK H PARENT 14 11 12 13 8 16 10 18
REMARK Flexibility Score: inf
ROOT
ATOM      1  C   UNL     1      40.102 -12.315  11.750  1.00  0.00     0.281 C 
ATOM      2  C   UNL     1      40.881 -13.569  12.236  1.00  0.00     0.202 C 
ATOM      3  C   UNL     1      39.947 -14.622  12.901  1.00  0.00     0.179 C 
ATOM      4  C   UNL     1      38.579 -13.996  13.288  1.00  0.00     0.177 C 
ATOM      5  C   UNL     1      37.948 -13.245  12.073  1.00  0.00     0.178 C 
ATOM      6  O   UNL     1      38.893 -12.732  11.137  1.00  0.00    -0.341 OA
ENDROOT
BRANCH   1   7
ATOM      7  O   UNL     1      40.878 -11.637  10.771  1.00  0.00    -0.350 OA
BRANCH   7   8
ATOM      8  C   UNL     1      41.321 -12.512   9.748  1.00  0.00     0.160 C 
ATOM      9  C   UNL     1      40.989 -11.947   8.370  1.00  0.00     0.035 C 
ENDBRANCH   7   8
ENDBRANCH   1   7
BRANCH   2  10
ATOM     10  O   UNL     1      41.931 -13.197  13.099  1.00  0.00    -0.385 OA
ATOM     11  H   UNL     1      42.355 -12.384  12.718  1.00  0.00     0.211 HD
ENDBRANCH   2  10
BRANCH   3  12
ATOM     12  O   UNL     1      39.808 -15.715  12.026  1.00  0.00    -0.387 OA
ATOM     13  H   UNL     1      40.632 -16.279  12.090  1.00  0.00     0.211 HD
ENDBRANCH   3  12
BRANCH   5  14
ATOM     14  C   UNL     1      36.949 -12.151  12.510  1.00  0.00     0.191 C 
BRANCH  14  15
ATOM     15  O   UNL     1      36.023 -12.649  13.447  1.00  0.00    -0.394 OA
ATOM     16  H   UNL     1      35.254 -12.015  13.462  1.00  0.00     0.210 HD
ENDBRANCH  14  15
ENDBRANCH   5  14
BRANCH   4  17
ATOM     17  O   UNL     1      38.781 -13.111  14.372  1.00  0.00    -0.387 OA
ATOM     18  H   UNL     1      39.423 -12.417  14.079  1.00  0.00     0.211 HD
ENDBRANCH   4  17
TORSDOF 7
ENDMDL
MODEL 4
REMARK VINA RESULT:    -4.303      1.694      2.297
REMARK INTER + INTRA:          -5.900
REMARK INTER:                  -5.555
REMARK INTRA:                  -0.344
REMARK UNBOUND:                -0.339
REMARK SMILES CCO[C@H]1O[C@H](CO)[C@H](O)[C@@H](O)[C@@H]1O
REMARK SMILES IDX 4 1 13 2 11 3 9 4 6 5 5 6 3 7 2 8 1 9 14 10 12 12 7 14 8 15
REMARK SMILES IDX 10 17
REMARK H PARENT 14 11 12 13 8 16 10 18
REMARK Flexibility Score: inf
ROOT
ATOM      1  C   UNL     1      39.588 -15.207  11.635  1.00  0.00     0.281 C 
ATOM      2  C   UNL     1      38.178 -14.728  11.188  1.00  0.00     0.202 C 
ATOM      3  C   UNL     1      38.159 -13.216  10.817  1.00  0.00     0.179 C 
ATOM      4  C   UNL     1      39.410 -12.484  11.376  1.00  0.00     0.177 C 
ATOM      5  C   UNL     1      40.719 -13.234  10.972  1.00  0.00     0.178 C 
ATOM      6  O   UNL     1      40.562 -14.638  10.775  1.00  0.00    -0.341 OA
ENDROOT
BRANCH   1   7
ATOM      7  O   UNL     1      39.662 -16.620  11.504  1.00  0.00    -0.350 OA
BRANCH   7   8
ATOM      8  C   UNL     1      39.885 -17.257  12.749  1.00  0.00     0.160 C 
ATOM      9  C   UNL     1      40.325 -18.704  12.547  1.00  0.00     0.035 C 
ENDBRANCH   7   8
ENDBRANCH   1   7
BRANCH   2  10
ATOM     10  O   UNL     1      37.217 -15.027  12.174  1.00  0.00    -0.385 OA
ATOM     11  H   UNL     1      36.429 -14.446  12.007  1.00  0.00     0.211 HD
ENDBRANCH   2  10
BRANCH   3  12
ATOM     12  O   UNL     1      38.049 -13.098   9.420  1.00  0.00    -0.387 OA
ATOM     13  H   UNL     1      37.945 -14.015   9.031  1.00  0.00     0.211 HD
ENDBRANCH   3  12
BRANCH   5  14
ATOM     14  C   UNL     1      41.890 -12.935  11.935  1.00  0.00     0.191 C 
BRANCH  14  15
ATOM     15  O   UNL     1      41.995 -11.557  12.201  1.00  0.00    -0.394 OA
ATOM     16  H   UNL     1      41.920 -11.085  11.327  1.00  0.00     0.210 HD
ENDBRANCH  14  15
ENDBRANCH   5  14
BRANCH   4  17
ATOM     17  O   UNL     1      39.293 -12.405  12.783  1.00  0.00    -0.387 OA
ATOM     18  H   UNL     1      39.943 -11.730  13.102  1.00  0.00     0.211 HD
ENDBRANCH   4  17
TORSDOF 7
ENDMDL
MODEL 5
REMARK VINA RESULT:    -4.291      1.841      3.312
REMARK INTER + INTRA:          -5.885
REMARK INTER:                  -5.469
REMARK INTRA:                  -0.416
REMARK UNBOUND:                -0.339
REMARK SMILES CCO[C@H]1O[C@H](CO)[C@H](O)[C@@H](O)[C@@H]1O
REMARK SMILES IDX 4 1 13 2 11 3 9 4 6 5 5 6 3 7 2 8 1 9 14 10 12 12 7 14 8 15
REMARK SMILES IDX 10 17
REMARK H PARENT 14 11 12 13 8 16 10 18
REMARK Flexibility Score: inf
ROOT
ATOM      1  C   UNL     1      38.772 -15.623  11.099  1.00  0.00     0.281 C 
ATOM      2  C   UNL     1      40.058 -14.756  10.992  1.00  0.00     0.202 C 
ATOM      3  C   UNL     1      39.756 -13.235  11.130  1.00  0.00     0.179 C 
ATOM      4  C   UNL     1      38.246 -12.940  10.916  1.00  0.00     0.177 C 
ATOM      5  C   UNL     1      37.367 -13.860  11.822  1.00  0.00     0.178 C 
ATOM      6  O   UNL     1      37.959 -15.116  12.144  1.00  0.00    -0.341 OA
ENDROOT
BRANCH   1   7
ATOM      7  O   UNL     1      39.138 -16.955  11.436  1.00  0.00    -0.350 OA
BRANCH   7   8
ATOM      8  C   UNL     1      39.859 -17.014  12.654  1.00  0.00     0.160 C 
ATOM      9  C   UNL     1      40.427 -18.412  12.880  1.00  0.00     0.035 C 
ENDBRANCH   7   8
ENDBRANCH   1   7
BRANCH   2  10
ATOM     10  O   UNL     1      40.748 -15.036   9.796  1.00  0.00    -0.385 OA
ATOM     11  H   UNL     1      41.602 -14.529   9.820  1.00  0.00     0.211 HD
ENDBRANCH   2  10
BRANCH   3  12
ATOM     12  O   UNL     1      40.215 -12.798  12.385  1.00  0.00    -0.387 OA
ATOM     13  H   UNL     1      40.546 -11.857  12.293  1.00  0.00     0.211 HD
ENDBRANCH   3  12
BRANCH   5  14
ATOM     14  C   UNL     1      35.938 -14.046  11.263  1.00  0.00     0.191 C 
BRANCH  14  15
ATOM     15  O   UNL     1      35.414 -12.831  10.783  1.00  0.00    -0.394 OA
ATOM     16  H   UNL     1      34.702 -13.059  10.126  1.00  0.00     0.210 HD
ENDBRANCH  14  15
ENDBRANCH   5  14
BRANCH   4  17
ATOM     17  O   UNL     1      37.937 -13.141   9.551  1.00  0.00    -0.387 OA
ATOM     18  H   UNL     1      37.537 -14.042   9.462  1.00  0.00     0.211 HD
ENDBRANCH   4  17
TORSDOF 7
ENDMDL
MODEL 6
REMARK VINA RESULT:    -4.209      2.561      4.843
REMARK INTER + INTRA:          -5.779
REMARK INTER:                  -5.633
REMARK INTRA:                  -0.145
REMARK UNBOUND:                -0.339
REMARK SMILES CCO[C@H]1O[C@H](CO)[C@H](O)[C@@H](O)[C@@H]1O
REMARK SMILES IDX 4 1 13 2 11 3 9 4 6 5 5 6 3 7 2 8 1 9 14 10 12 12 7 14 8 15
REMARK SMILES IDX 10 17
REMARK H PARENT 14 11 12 13 8 16 10 18
REMARK Flexibility Score: inf
ROOT
ATOM      1  C   UNL     1      39.988 -16.666  13.141  1.00  0.00     0.281 C 
ATOM      2  C   UNL     1      39.177 -16.320  11.861  1.00  0.00     0.202 C 
ATOM      3  C   UNL     1      38.422 -17.557  11.289  1.00  0.00     0.179 C 
ATOM      4  C   UNL     1      38.990 -18.881  11.871  1.00  0.00     0.177 C 
ATOM      5  C   UNL     1      39.050 -18.822  13.431  1.00  0.00     0.178 C 
ATOM      6  O   UNL     1      39.205 -17.510  13.969  1.00  0.00    -0.341 OA
ENDROOT
BRANCH   1   7
ATOM      7  O   UNL     1      40.251 -15.469  13.861  1.00  0.00    -0.350 OA
BRANCH   7   8
ATOM      8  C   UNL     1      39.843 -15.564  15.214  1.00  0.00     0.160 C 
ATOM      9  C   UNL     1      40.999 -15.233  16.153  1.00  0.00     0.035 C 
ENDBRANCH   7   8
ENDBRANCH   1   7
BRANCH   2  10
ATOM     10  O   UNL     1      40.010 -15.733  10.888  1.00  0.00    -0.385 OA
ATOM     11  H   UNL     1      39.695 -14.801  10.750  1.00  0.00     0.211 HD
ENDBRANCH   2  10
BRANCH   3  12
ATOM     12  O   UNL     1      37.048 -17.403  11.549  1.00  0.00    -0.387 OA
ATOM     13  H   UNL     1      36.925 -17.261  12.532  1.00  0.00     0.211 HD
ENDBRANCH   3  12
BRANCH   5  14
ATOM     14  C   UNL     1      40.099 -19.791  14.017  1.00  0.00     0.191 C 
BRANCH  14  15
ATOM     15  O   UNL     1      41.407 -19.310  13.819  1.00  0.00    -0.394 OA
ATOM     16  H   UNL     1      41.512 -18.502  14.390  1.00  0.00     0.210 HD
ENDBRANCH  14  15
ENDBRANCH   5  14
BRANCH   4  17
ATOM     17  O   UNL     1      40.278 -19.093  11.329  1.00  0.00    -0.387 OA
ATOM     18  H   UNL     1      40.935 -18.669  11.937  1.00  0.00     0.211 HD
ENDBRANCH   4  17
TORSDOF 7
ENDMDL
MODEL 7
REMARK VINA RESULT:    -4.110      2.270      3.211
REMARK INTER + INTRA:          -5.650
REMARK INTER:                  -5.248
REMARK INTRA:                  -0.402
REMARK UNBOUND:                -0.339
REMARK SMILES CCO[C@H]1O[C@H](CO)[C@H](O)[C@@H](O)[C@@H]1O
REMARK SMILES IDX 4 1 13 2 11 3 9 4 6 5 5 6 3 7 2 8 1 9 14 10 12 12 7 14 8 15
REMARK SMILES IDX 10 17
REMARK H PARENT 14 11 12 13 8 16 10 18
REMARK Flexibility Score: inf
ROOT
ATOM      1  C   UNL     1      38.960 -16.504  13.392  1.00  0.00     0.281 C 
ATOM      2  C   UNL     1      39.763 -16.854  14.676  1.00  0.00     0.202 C 
ATOM      3  C   UNL     1      40.102 -15.590  15.522  1.00  0.00     0.179 C 
ATOM      4  C   UNL     1      39.934 -14.292  14.685  1.00  0.00     0.177 C 
ATOM      5  C   UNL     1      38.534 -14.253  13.994  1.00  0.00     0.178 C 
ATOM      6  O   UNL     1      37.975 -15.535  13.712  1.00  0.00    -0.341 OA
ENDROOT
BRANCH   1   7
ATOM      7  O   UNL     1      38.291 -17.671  12.931  1.00  0.00    -0.350 OA
BRANCH   7   8
ATOM      8  C   UNL     1      38.727 -18.054  11.638  1.00  0.00     0.160 C 
ATOM      9  C   UNL     1      39.412 -19.417  11.680  1.00  0.00     0.035 C 
ENDBRANCH   7   8
ENDBRANCH   1   7
BRANCH   2  10
ATOM     10  O   UNL     1      40.925 -17.582  14.353  1.00  0.00    -0.385 OA
ATOM     11  H   UNL     1      41.644 -16.924  14.162  1.00  0.00     0.211 HD
ENDBRANCH   2  10
BRANCH   3  12
ATOM     12  O   UNL     1      39.296 -15.592  16.675  1.00  0.00    -0.387 OA
ATOM     13  H   UNL     1      39.881 -15.760  17.470  1.00  0.00     0.211 HD
ENDBRANCH   3  12
BRANCH   5  14
ATOM     14  C   UNL     1      38.520 -13.353  12.739  1.00  0.00     0.191 C 
BRANCH  14  15
ATOM     15  O   UNL     1      39.043 -12.076  13.019  1.00  0.00    -0.394 OA
ATOM     16  H   UNL     1      39.482 -12.130  13.912  1.00  0.00     0.210 HD
ENDBRANCH  14  15
ENDBRANCH   5  14
BRANCH   4  17
ATOM     17  O   UNL     1      40.968 -14.242  13.721  1.00  0.00    -0.387 OA
ATOM     18  H   UNL     1      41.817 -14.468  14.178  1.00  0.00     0.211 HD
ENDBRANCH   4  17
TORSDOF 7
ENDMDL
MODEL 8
REMARK VINA RESULT:    -4.105      1.734      2.976
REMARK INTER + INTRA:          -5.643
REMARK INTER:                  -5.222
REMARK INTRA:                  -0.421
REMARK UNBOUND:                -0.339
REMARK SMILES CCO[C@H]1O[C@H](CO)[C@H](O)[C@@H](O)[C@@H]1O
REMARK SMILES IDX 4 1 13 2 11 3 9 4 6 5 5 6 3 7 2 8 1 9 14 10 12 12 7 14 8 15
REMARK SMILES IDX 10 17
REMARK H PARENT 14 11 12 13 8 16 10 18
REMARK Flexibility Score: inf
ROOT
ATOM      1  C   UNL     1      39.245 -14.471  13.222  1.00  0.00     0.281 C 
ATOM      2  C   UNL     1      38.653 -15.895  13.028  1.00  0.00     0.202 C 
ATOM      3  C   UNL     1      38.947 -16.467  11.609  1.00  0.00     0.179 C 
ATOM      4  C   UNL     1      39.373 -15.341  10.627  1.00  0.00     0.177 C 
ATOM      5  C   UNL     1      40.529 -14.483  11.232  1.00  0.00     0.178 C 
ATOM      6  O   UNL     1      40.545 -14.431  12.658  1.00  0.00    -0.341 OA
ENDROOT
BRANCH   1   7
ATOM      7  O   UNL     1      39.364 -14.204  14.614  1.00  0.00    -0.350 OA
BRANCH   7   8
ATOM      8  C   UNL     1      40.624 -14.604  15.123  1.00  0.00     0.160 C 
ATOM      9  C   UNL     1      40.455 -15.602  16.264  1.00  0.00     0.035 C 
ENDBRANCH   7   8
ENDBRANCH   1   7
BRANCH   2  10
ATOM     10  O   UNL     1      37.272 -15.901  13.307  1.00  0.00    -0.385 OA
ATOM     11  H   UNL     1      36.854 -15.188  12.756  1.00  0.00     0.211 HD
ENDBRANCH   2  10
BRANCH   3  12
ATOM     12  O   UNL     1      39.922 -17.474  11.725  1.00  0.00    -0.387 OA
ATOM     13  H   UNL     1      40.782 -17.129  11.348  1.00  0.00     0.211 HD
ENDBRANCH   3  12
BRANCH   5  14
ATOM     14  C   UNL     1      40.592 -13.065  10.623  1.00  0.00     0.191 C 
BRANCH  14  15
ATOM     15  O   UNL     1      40.548 -13.110   9.216  1.00  0.00    -0.394 OA
ATOM     16  H   UNL     1      39.958 -13.872   8.967  1.00  0.00     0.210 HD
ENDBRANCH  14  15
ENDBRANCH   5  14
BRANCH   4  17
ATOM     17  O   UNL     1      38.245 -14.536  10.350  1.00  0.00    -0.387 OA
ATOM     18  H   UNL     1      37.641 -15.055   9.761  1.00  0.00     0.211 HD
ENDBRANCH   4  17
TORSDOF 7
ENDMDL
MODEL 9
REMARK VINA RESULT:    -4.079      2.944      4.351
REMARK INTER + INTRA:          -5.610
REMARK INTER:                  -5.244
REMARK INTRA:                  -0.366
REMARK UNBOUND:                -0.339
REMARK SMILES CCO[C@H]1O[C@H](CO)[C@H](O)[C@@H](O)[C@@H]1O
REMARK SMILES IDX 4 1 13 2 11 3 9 4 6 5 5 6 3 7 2 8 1 9 14 10 12 12 7 14 8 15
REMARK SMILES IDX 10 17
REMARK H PARENT 14 11 12 13 8 16 10 18
REMARK Flexibility Score: inf
ROOT
ATOM      1  C   UNL     1      38.032 -17.985  11.312  1.00  0.00     0.281 C 
ATOM      2  C   UNL     1      39.271 -18.448  12.129  1.00  0.00     0.202 C 
ATOM      3  C   UNL     1      39.995 -17.258  12.826  1.00  0.00     0.179 C 
ATOM      4  C   UNL     1      39.568 -15.899  12.205  1.00  0.00     0.177 C 
ATOM      5  C   UNL     1      38.012 -15.773  12.158  1.00  0.00     0.178 C 
ATOM      6  O   UNL     1      37.320 -17.017  12.062  1.00  0.00    -0.341 OA
ENDROOT
BRANCH   1   7
ATOM      7  O   UNL     1      37.172 -19.098  11.105  1.00  0.00    -0.350 OA
BRANCH   7   8
ATOM      8  C   UNL     1      35.944 -18.715  10.512  1.00  0.00     0.160 C 
ATOM      9  C   UNL     1      35.695 -19.499   9.227  1.00  0.00     0.035 C 
ENDBRANCH   7   8
ENDBRANCH   1   7
BRANCH   2  10
ATOM     10  O   UNL     1      40.158 -19.181  11.315  1.00  0.00    -0.385 OA
ATOM     11  H   UNL     1      40.940 -19.428  11.876  1.00  0.00     0.211 HD
ENDBRANCH   2  10
BRANCH   3  12
ATOM     12  O   UNL     1      39.734 -17.321  14.207  1.00  0.00    -0.387 OA
ATOM     13  H   UNL     1      40.585 -17.131  14.699  1.00  0.00     0.211 HD
ENDBRANCH   3  12
BRANCH   5  14
ATOM     14  C   UNL     1      37.533 -14.786  11.071  1.00  0.00     0.191 C 
BRANCH  14  15
ATOM     15  O   UNL     1      38.266 -13.584  11.113  1.00  0.00    -0.394 OA
ATOM     16  H   UNL     1      38.514 -13.426  12.064  1.00  0.00     0.210 HD
ENDBRANCH  14  15
ENDBRANCH   5  14
BRANCH   4  17
ATOM     17  O   UNL     1      40.117 -15.807  10.905  1.00  0.00    -0.387 OA
ATOM     18  H   UNL     1      39.595 -15.130  10.405  1.00  0.00     0.211 HD
ENDBRANCH   4  17
TORSDOF 7
ENDMDL
