MODEL 1
REMARK VINA RESULT:    -3.499      0.000      0.000
REMARK INTER + INTRA:          -5.737
REMARK INTER:                  -5.136
REMARK INTRA:                  -0.601
REMARK UNBOUND:                -0.601
REMARK SMILES C=C1C=C[C@H](C(C)C)CCC(C)=CCC1
REMARK SMILES IDX 3 1 4 2 5 3 9 4 10 5 11 6 12 7 13 8 6 10 7 11 8 12 2 13 1 14
REMARK SMILES IDX 15 15 14 16
REMARK H PARENT
REMARK Flexibility Score: 70.00
ROOT
ATOM      1  C   UNL     1     137.565 132.524 137.630  1.00  0.00    -0.001 C 
ATOM      2  C   UNL     1     137.557 132.031 136.383  1.00  0.00    -0.023 C 
ENDROOT
BRANCH   2   3
ATOM      3  C   UNL     1     137.072 132.764 135.150  1.00  0.00     0.014 C 
BRANCH   3   4
ATOM      4  C   UNL     1     138.249 132.990 134.171  1.00  0.00     0.012 C 
BRANCH   4   5
ATOM      5  C   UNL     1     138.425 134.464 133.759  1.00  0.00     0.031 C 
BRANCH   5   6
ATOM      6  C   UNL     1     139.531 135.156 134.537  1.00  0.00    -0.077 C 
ATOM      7  C   UNL     1     140.897 135.236 133.903  1.00  0.00     0.039 C 
ATOM      8  C   UNL     1     139.365 135.728 135.754  1.00  0.00    -0.028 CG0
ATOM      9  G   UNL     1     138.072 135.844 136.528  1.00  0.00     0.000 G0
ENDBRANCH   5   6
ENDBRANCH   4   5
ENDBRANCH   3   4
BRANCH   3  10
ATOM     10  C   UNL     1     135.868 132.002 134.515  1.00  0.00    -0.010 C 
ATOM     11  C   UNL     1     135.953 131.878 132.984  1.00  0.00     0.008 C 
ATOM     12  C   UNL     1     134.519 132.616 134.922  1.00  0.00     0.008 C 
ENDBRANCH   3  10
ENDBRANCH   2   3
BRANCH   1  13
ATOM     13  C   UNL     1     137.196 133.907 138.016  1.00  0.00    -0.055 C 
ATOM     14  C   UNL     1     135.980 134.104 138.533  1.00  0.00     0.012 C 
BRANCH  13  15
ATOM     15  C   UNL     1     138.137 135.095 137.890  1.00  0.00     0.039 C 
BRANCH  15  16
ATOM     16  C   UNL     1     138.062 135.860 136.547  1.00  0.00     0.032 CG0
ATOM     17  G   UNL     1     139.358 135.740 135.778  1.00  0.00     0.000 G0
ENDBRANCH  15  16
ENDBRANCH  13  15
ENDBRANCH   1  13
TORSDOF 1
ENDMDL
MODEL 2
REMARK VINA RESULT:    -3.401      3.431      5.002
REMARK INTER + INTRA:          -5.593
REMARK INTER:                  -5.141
REMARK INTRA:                  -0.452
REMARK UNBOUND:                -0.601
REMARK SMILES C=C1C=C[C@H](C(C)C)CCC(C)=CCC1
REMARK SMILES IDX 3 1 4 2 5 3 9 4 10 5 11 6 12 7 13 8 6 10 7 11 8 12 2 13 1 14
REMARK SMILES IDX 15 15 14 16
REMARK H PARENT
REMARK Flexibility Score: 70.00
ROOT
ATOM      1  C   UNL     1     140.505 137.846 137.160  1.00  0.00    -0.001 C 
ATOM      2  C   UNL     1     140.885 137.590 135.899  1.00  0.00    -0.023 C 
ENDROOT
BRANCH   2   3
ATOM      3  C   UNL     1     139.990 137.052 134.803  1.00  0.00     0.014 C 
BRANCH   3   4
ATOM      4  C   UNL     1     139.672 138.172 133.783  1.00  0.00     0.012 C 
BRANCH   4   5
ATOM      5  C   UNL     1     138.188 138.219 133.371  1.00  0.00     0.031 C 
BRANCH   5   6
ATOM      6  C   UNL     1     137.463 139.420 133.951  1.00  0.00    -0.077 C 
ATOM      7  C   UNL     1     137.220 140.603 133.047  1.00  0.00     0.039 C 
ATOM      8  C   UNL     1     136.997 139.491 135.221  1.00  0.00    -0.028 CG0
ATOM      9  G   UNL     1     137.050 138.398 136.264  1.00  0.00     0.000 G0
ENDBRANCH   5   6
ENDBRANCH   4   5
ENDBRANCH   3   4
BRANCH   3  10
ATOM     10  C   UNL     1     140.635 135.785 134.161  1.00  0.00    -0.010 C 
ATOM     11  C   UNL     1     140.498 135.730 132.629  1.00  0.00     0.008 C 
ATOM     12  C   UNL     1     140.099 134.487 134.786  1.00  0.00     0.008 C 
ENDBRANCH   3  10
ENDBRANCH   2   3
BRANCH   1  13
ATOM     13  C   UNL     1     139.123 137.745 137.684  1.00  0.00    -0.055 C 
ATOM     14  C   UNL     1     138.830 136.703 138.468  1.00  0.00     0.012 C 
BRANCH  13  15
ATOM     15  C   UNL     1     138.041 138.778 137.409  1.00  0.00     0.039 C 
BRANCH  15  16
ATOM     16  C   UNL     1     137.041 138.408 136.288  1.00  0.00     0.032 CG0
ATOM     17  G   UNL     1     137.004 139.475 135.217  1.00  0.00     0.000 G0
ENDBRANCH  15  16
ENDBRANCH  13  15
ENDBRANCH   1  13
TORSDOF 1
ENDMDL
MODEL 3
REMARK VINA RESULT:    -3.368      5.155      7.054
REMARK INTER + INTRA:          -5.544
REMARK INTER:                  -4.936
REMARK INTRA:                  -0.609
REMARK UNBOUND:                -0.601
REMARK SMILES C=C1C=C[C@H](C(C)C)CCC(C)=CCC1
REMARK SMILES IDX 3 1 4 2 5 3 9 4 10 5 11 6 12 7 13 8 6 10 7 11 8 12 2 13 1 14
REMARK SMILES IDX 15 15 14 16
REMARK H PARENT
REMARK Flexibility Score: 70.00
ROOT
ATOM      1  C   UNL     1     134.910 140.576 136.907  1.00  0.00    -0.001 C 
ATOM      2  C   UNL     1     135.242 140.822 135.631  1.00  0.00    -0.023 C 
ENDROOT
BRANCH   2   3
ATOM      3  C   UNL     1     135.729 139.791 134.634  1.00  0.00     0.014 C 
BRANCH   3   4
ATOM      4  C   UNL     1     134.571 139.377 133.694  1.00  0.00     0.012 C 
BRANCH   4   5
ATOM      5  C   UNL     1     134.404 137.851 133.567  1.00  0.00     0.031 C 
BRANCH   5   6
ATOM      6  C   UNL     1     133.073 137.366 134.114  1.00  0.00    -0.077 C 
ATOM      7  C   UNL     1     131.928 137.202 133.145  1.00  0.00     0.039 C 
ATOM      8  C   UNL     1     132.850 137.048 135.412  1.00  0.00    -0.028 CG0
ATOM      9  G   UNL     1     133.869 137.052 136.529  1.00  0.00     0.000 G0
ENDBRANCH   5   6
ENDBRANCH   4   5
ENDBRANCH   3   4
BRANCH   3  10
ATOM     10  C   UNL     1     136.985 140.328 133.881  1.00  0.00    -0.010 C 
ATOM     11  C   UNL     1     136.678 140.870 132.474  1.00  0.00     0.008 C 
ATOM     12  C   UNL     1     138.105 139.277 133.810  1.00  0.00     0.008 C 
ENDBRANCH   3  10
ENDBRANCH   2   3
BRANCH   1  13
ATOM     13  C   UNL     1     134.861 139.240 137.546  1.00  0.00    -0.055 C 
ATOM     14  C   UNL     1     135.919 138.858 138.267  1.00  0.00     0.012 C 
BRANCH  13  15
ATOM     15  C   UNL     1     133.664 138.307 137.454  1.00  0.00     0.039 C 
BRANCH  15  16
ATOM     16  C   UNL     1     133.858 137.066 136.550  1.00  0.00     0.032 CG0
ATOM     17  G   UNL     1     132.858 137.056 135.416  1.00  0.00     0.000 G0
ENDBRANCH  15  16
ENDBRANCH  13  15
ENDBRANCH   1  13
TORSDOF 1
ENDMDL
MODEL 4
REMARK VINA RESULT:    -3.338      3.399      4.988
REMARK INTER + INTRA:          -5.501
REMARK INTER:                  -4.874
REMARK INTRA:                  -0.626
REMARK UNBOUND:                -0.601
REMARK SMILES C=C1C=C[C@H](C(C)C)CCC(C)=CCC1
REMARK SMILES IDX 3 1 4 2 5 3 9 4 10 5 11 6 12 7 13 8 6 10 7 11 8 12 2 13 1 14
REMARK SMILES IDX 15 15 14 16
REMARK H PARENT
REMARK Flexibility Score: 70.00
ROOT
ATOM      1  C   UNL     1     132.147 134.821 136.845  1.00  0.00    -0.001 C 
ATOM      2  C   UNL     1     131.823 135.113 135.577  1.00  0.00    -0.023 C 
ENDROOT
BRANCH   2   3
ATOM      3  C   UNL     1     132.772 135.659 134.531  1.00  0.00     0.014 C 
BRANCH   3   4
ATOM      4  C   UNL     1     133.212 134.526 133.573  1.00  0.00     0.012 C 
BRANCH   4   5
ATOM      5  C   UNL     1     134.740 134.427 133.406  1.00  0.00     0.031 C 
BRANCH   5   6
ATOM      6  C   UNL     1     135.302 133.128 133.957  1.00  0.00    -0.077 C 
ATOM      7  C   UNL     1     135.480 131.974 133.003  1.00  0.00     0.039 C 
ATOM      8  C   UNL     1     135.677 132.945 135.246  1.00  0.00    -0.028 CG0
ATOM      9  G   UNL     1     135.670 133.984 136.345  1.00  0.00     0.000 G0
ENDBRANCH   5   6
ENDBRANCH   4   5
ENDBRANCH   3   4
BRANCH   3  10
ATOM     10  C   UNL     1     132.121 136.876 133.802  1.00  0.00    -0.010 C 
ATOM     11  C   UNL     1     131.993 136.690 132.281  1.00  0.00     0.008 C 
ATOM     12  C   UNL     1     132.852 138.191 134.115  1.00  0.00     0.008 C 
ENDBRANCH   3  10
ENDBRANCH   2   3
BRANCH   1  13
ATOM     13  C   UNL     1     133.509 134.883 137.427  1.00  0.00    -0.055 C 
ATOM     14  C   UNL     1     133.851 135.993 138.088  1.00  0.00     0.012 C 
BRANCH  13  15
ATOM     15  C   UNL     1     134.512 133.744 137.344  1.00  0.00     0.039 C 
BRANCH  15  16
ATOM     16  C   UNL     1     135.686 133.966 136.361  1.00  0.00     0.032 CG0
ATOM     17  G   UNL     1     135.669 132.940 135.250  1.00  0.00     0.000 G0
ENDBRANCH  15  16
ENDBRANCH  13  15
ENDBRANCH   1  13
TORSDOF 1
ENDMDL
MODEL 5
REMARK VINA RESULT:    -3.298      1.762      4.538
REMARK INTER + INTRA:          -5.442
REMARK INTER:                  -4.861
REMARK INTRA:                  -0.581
REMARK UNBOUND:                -0.601
REMARK SMILES C=C1C=C[C@H](C(C)C)CCC(C)=CCC1
REMARK SMILES IDX 3 1 4 2 5 3 9 4 10 5 11 6 12 7 13 8 6 10 7 11 8 12 2 13 1 14
REMARK SMILES IDX 15 15 14 16
REMARK H PARENT
REMARK Flexibility Score: 70.00
ROOT
ATOM      1  C   UNL     1     140.110 134.183 135.587  1.00  0.00    -0.001 C 
ATOM      2  C   UNL     1     139.617 133.388 136.548  1.00  0.00    -0.023 C 
ENDROOT
BRANCH   2   3
ATOM      3  C   UNL     1     138.360 133.653 137.349  1.00  0.00     0.014 C 
BRANCH   3   4
ATOM      4  C   UNL     1     137.294 132.577 137.031  1.00  0.00     0.012 C 
BRANCH   4   5
ATOM      5  C   UNL     1     137.326 132.101 135.567  1.00  0.00     0.031 C 
BRANCH   5   6
ATOM      6  C   UNL     1     136.362 132.874 134.684  1.00  0.00    -0.077 C 
ATOM      7  C   UNL     1     134.886 132.743 134.965  1.00  0.00     0.039 C 
ATOM      8  C   UNL     1     136.742 133.693 133.674  1.00  0.00    -0.028 CG0
ATOM      9  G   UNL     1     138.159 134.040 133.277  1.00  0.00     0.000 G0
ENDBRANCH   5   6
ENDBRANCH   4   5
ENDBRANCH   3   4
BRANCH   3  10
ATOM     10  C   UNL     1     138.707 133.761 138.866  1.00  0.00    -0.010 C 
ATOM     11  C   UNL     1     137.707 133.035 139.783  1.00  0.00     0.008 C 
ATOM     12  C   UNL     1     138.873 135.221 139.316  1.00  0.00     0.008 C 
ENDBRANCH   3  10
ENDBRANCH   2   3
BRANCH   1  13
ATOM     13  C   UNL     1     139.465 135.411 135.064  1.00  0.00    -0.055 C 
ATOM     14  C   UNL     1     139.711 136.561 135.699  1.00  0.00     0.012 C 
BRANCH  13  15
ATOM     15  C   UNL     1     138.577 135.435 133.830  1.00  0.00     0.039 C 
BRANCH  15  16
ATOM     16  C   UNL     1     138.171 134.047 133.278  1.00  0.00     0.032 CG0
ATOM     17  G   UNL     1     136.756 133.694 133.677  1.00  0.00     0.000 G0
ENDBRANCH  15  16
ENDBRANCH  13  15
ENDBRANCH   1  13
TORSDOF 1
ENDMDL
MODEL 6
REMARK VINA RESULT:    -3.292      4.924      6.651
REMARK INTER + INTRA:          -5.433
REMARK INTER:                  -4.757
REMARK INTRA:                  -0.676
REMARK UNBOUND:                -0.601
REMARK SMILES C=C1C=C[C@H](C(C)C)CCC(C)=CCC1
REMARK SMILES IDX 3 1 4 2 5 3 9 4 10 5 11 6 12 7 13 8 6 10 7 11 8 12 2 13 1 14
REMARK SMILES IDX 15 15 14 16
REMARK H PARENT
REMARK Flexibility Score: 70.00
ROOT
ATOM      1  C   UNL     1     132.483 138.381 135.221  1.00  0.00    -0.001 C 
ATOM      2  C   UNL     1     133.102 139.260 136.023  1.00  0.00    -0.023 C 
ENDROOT
BRANCH   2   3
ATOM      3  C   UNL     1     134.366 138.993 136.812  1.00  0.00     0.014 C 
BRANCH   3   4
ATOM      4  C   UNL     1     135.435 140.061 136.476  1.00  0.00     0.012 C 
BRANCH   4   5
ATOM      5  C   UNL     1     135.596 140.307 134.964  1.00  0.00     0.031 C 
BRANCH   5   6
ATOM      6  C   UNL     1     136.486 139.272 134.298  1.00  0.00    -0.077 C 
ATOM      7  C   UNL     1     137.964 139.317 134.594  1.00  0.00     0.039 C 
ATOM      8  C   UNL     1     136.036 138.295 133.474  1.00  0.00    -0.028 CG0
ATOM      9  G   UNL     1     134.595 138.011 133.114  1.00  0.00     0.000 G0
ENDBRANCH   5   6
ENDBRANCH   4   5
ENDBRANCH   3   4
BRANCH   3  10
ATOM     10  C   UNL     1     134.035 138.898 138.334  1.00  0.00    -0.010 C 
ATOM     11  C   UNL     1     135.014 139.675 139.230  1.00  0.00     0.008 C 
ATOM     12  C   UNL     1     133.927 137.440 138.808  1.00  0.00     0.008 C 
ENDBRANCH   3  10
ENDBRANCH   2   3
BRANCH   1  13
ATOM     13  C   UNL     1     132.976 137.025 134.882  1.00  0.00    -0.055 C 
ATOM     14  C   UNL     1     132.393 135.984 135.484  1.00  0.00     0.012 C 
BRANCH  13  15
ATOM     15  C   UNL     1     134.074 136.758 133.864  1.00  0.00     0.039 C 
BRANCH  15  16
ATOM     16  C   UNL     1     134.592 138.003 133.106  1.00  0.00     0.032 CG0
ATOM     17  G   UNL     1     136.025 138.311 133.479  1.00  0.00     0.000 G0
ENDBRANCH  15  16
ENDBRANCH  13  15
ENDBRANCH   1  13
TORSDOF 1
ENDMDL
MODEL 7
REMARK VINA RESULT:    -3.240      3.818      6.084
REMARK INTER + INTRA:          -5.356
REMARK INTER:                  -4.708
REMARK INTRA:                  -0.648
REMARK UNBOUND:                -0.601
REMARK SMILES C=C1C=C[C@H](C(C)C)CCC(C)=CCC1
REMARK SMILES IDX 3 1 4 2 5 3 9 4 10 5 11 6 12 7 13 8 6 10 7 11 8 12 2 13 1 14
REMARK SMILES IDX 15 15 14 16
REMARK H PARENT
REMARK Flexibility Score: 70.00
ROOT
ATOM      1  C   UNL     1     133.202 133.119 135.700  1.00  0.00    -0.001 C 
ATOM      2  C   UNL     1     132.612 134.199 136.232  1.00  0.00    -0.023 C 
ENDROOT
BRANCH   2   3
ATOM      3  C   UNL     1     133.165 135.608 136.204  1.00  0.00     0.014 C 
BRANCH   3   4
ATOM      4  C   UNL     1     132.295 136.499 135.284  1.00  0.00     0.012 C 
BRANCH   4   5
ATOM      5  C   UNL     1     133.050 137.016 134.045  1.00  0.00     0.031 C 
BRANCH   5   6
ATOM      6  C   UNL     1     132.678 136.259 132.782  1.00  0.00    -0.077 C 
ATOM      7  C   UNL     1     131.453 136.707 132.024  1.00  0.00     0.039 C 
ATOM      8  C   UNL     1     133.388 135.222 132.276  1.00  0.00    -0.028 CG0
ATOM      9  G   UNL     1     134.687 134.669 132.817  1.00  0.00     0.000 G0
ENDBRANCH   5   6
ENDBRANCH   4   5
ENDBRANCH   3   4
BRANCH   3  10
ATOM     10  C   UNL     1     133.303 136.157 137.657  1.00  0.00    -0.010 C 
ATOM     11  C   UNL     1     134.675 136.787 137.953  1.00  0.00     0.008 C 
ATOM     12  C   UNL     1     132.975 135.086 138.710  1.00  0.00     0.008 C 
ENDBRANCH   3  10
ENDBRANCH   2   3
BRANCH   1  13
ATOM     13  C   UNL     1     134.450 133.122 134.900  1.00  0.00    -0.055 C 
ATOM     14  C   UNL     1     135.608 132.997 135.555  1.00  0.00     0.012 C 
BRANCH  13  15
ATOM     15  C   UNL     1     134.477 133.220 133.383  1.00  0.00     0.039 C 
BRANCH  15  16
ATOM     16  C   UNL     1     134.692 134.643 132.815  1.00  0.00     0.032 CG0
ATOM     17  G   UNL     1     133.400 135.218 132.279  1.00  0.00     0.000 G0
ENDBRANCH  15  16
ENDBRANCH  13  15
ENDBRANCH   1  13
TORSDOF 1
ENDMDL
MODEL 8
REMARK VINA RESULT:    -3.232      2.185      3.801
REMARK INTER + INTRA:          -5.344
REMARK INTER:                  -4.660
REMARK INTRA:                  -0.684
REMARK UNBOUND:                -0.601
REMARK SMILES C=C1C=C[C@H](C(C)C)CCC(C)=CCC1
REMARK SMILES IDX 3 1 4 2 5 3 9 4 10 5 11 6 12 7 13 8 6 10 7 11 8 12 2 13 1 14
REMARK SMILES IDX 15 15 14 16
REMARK H PARENT
REMARK Flexibility Score: 70.00
ROOT
ATOM      1  C   UNL     1     133.325 132.982 136.076  1.00  0.00    -0.001 C 
ATOM      2  C   UNL     1     134.284 132.772 135.162  1.00  0.00    -0.023 C 
ENDROOT
BRANCH   2   3
ATOM      3  C   UNL     1     135.190 133.835 134.579  1.00  0.00     0.014 C 
BRANCH   3   4
ATOM      4  C   UNL     1     136.666 133.521 134.926  1.00  0.00     0.012 C 
BRANCH   4   5
ATOM      5  C   UNL     1     136.841 132.865 136.308  1.00  0.00     0.031 C 
BRANCH   5   6
ATOM      6  C   UNL     1     137.174 133.875 137.392  1.00  0.00    -0.077 C 
ATOM      7  C   UNL     1     138.538 134.516 137.365  1.00  0.00     0.039 C 
ATOM      8  C   UNL     1     136.317 134.256 138.370  1.00  0.00    -0.028 CG0
ATOM      9  G   UNL     1     134.880 133.813 138.534  1.00  0.00     0.000 G0
ENDBRANCH   5   6
ENDBRANCH   4   5
ENDBRANCH   3   4
BRANCH   3  10
ATOM     10  C   UNL     1     134.925 133.982 133.049  1.00  0.00    -0.010 C 
ATOM     11  C   UNL     1     133.507 134.472 132.710  1.00  0.00     0.008 C 
ATOM     12  C   UNL     1     135.232 132.683 132.286  1.00  0.00     0.008 C 
ENDBRANCH   3  10
ENDBRANCH   2   3
BRANCH   1  13
ATOM     13  C   UNL     1     133.043 134.269 136.755  1.00  0.00    -0.055 C 
ATOM     14  C   UNL     1     131.960 134.951 136.368  1.00  0.00     0.012 C 
BRANCH  13  15
ATOM     15  C   UNL     1     133.893 134.828 137.884  1.00  0.00     0.039 C 
BRANCH  15  16
ATOM     16  C   UNL     1     134.875 133.825 138.535  1.00  0.00     0.032 CG0
ATOM     17  G   UNL     1     136.308 134.275 138.362  1.00  0.00     0.000 G0
ENDBRANCH  15  16
ENDBRANCH  13  15
ENDBRANCH   1  13
TORSDOF 1
ENDMDL
MODEL 9
REMARK VINA RESULT:    -3.214      4.880      6.685
REMARK INTER + INTRA:          -5.318
REMARK INTER:                  -4.740
REMARK INTRA:                  -0.578
REMARK UNBOUND:                -0.601
REMARK SMILES C=C1C=C[C@H](C(C)C)CCC(C)=CCC1
REMARK SMILES IDX 3 1 4 2 5 3 9 4 10 5 11 6 12 7 13 8 6 10 7 11 8 12 2 13 1 14
REMARK SMILES IDX 15 15 14 16
REMARK H PARENT
REMARK Flexibility Score: 70.00
ROOT
ATOM      1  C   UNL     1     134.322 140.670 135.940  1.00  0.00    -0.001 C 
ATOM      2  C   UNL     1     134.877 140.487 137.147  1.00  0.00    -0.023 C 
ENDROOT
BRANCH   2   3
ATOM      3  C   UNL     1     135.261 139.150 137.745  1.00  0.00     0.014 C 
BRANCH   3   4
ATOM      4  C   UNL     1     136.800 139.054 137.882  1.00  0.00     0.012 C 
BRANCH   4   5
ATOM      5  C   UNL     1     137.448 138.117 136.845  1.00  0.00     0.031 C 
BRANCH   5   6
ATOM      6  C   UNL     1     138.022 138.873 135.659  1.00  0.00    -0.077 C 
ATOM      7  C   UNL     1     139.364 139.540 135.829  1.00  0.00     0.039 C 
ATOM      8  C   UNL     1     137.419 138.967 134.449  1.00  0.00    -0.028 CG0
ATOM      9  G   UNL     1     136.124 138.307 134.032  1.00  0.00     0.000 G0
ENDBRANCH   5   6
ENDBRANCH   4   5
ENDBRANCH   3   4
BRANCH   3  10
ATOM     10  C   UNL     1     134.498 138.926 139.087  1.00  0.00    -0.010 C 
ATOM     11  C   UNL     1     135.203 139.541 140.309  1.00  0.00     0.008 C 
ATOM     12  C   UNL     1     134.204 137.439 139.340  1.00  0.00     0.008 C 
ENDBRANCH   3  10
ENDBRANCH   2   3
BRANCH   1  13
ATOM     13  C   UNL     1     134.076 139.613 134.931  1.00  0.00    -0.055 C 
ATOM     14  C   UNL     1     132.956 138.893 135.046  1.00  0.00     0.012 C 
BRANCH  13  15
ATOM     15  C   UNL     1     135.006 139.334 133.761  1.00  0.00     0.039 C 
BRANCH  15  16
ATOM     16  C   UNL     1     136.120 138.294 134.032  1.00  0.00     0.032 CG0
ATOM     17  G   UNL     1     137.409 138.970 134.440  1.00  0.00     0.000 G0
ENDBRANCH  15  16
ENDBRANCH  13  15
ENDBRANCH   1  13
TORSDOF 1
ENDMDL
