MODEL 1
REMARK VINA RESULT:    -6.208      0.000      0.000
REMARK INTER + INTRA:          -6.827
REMARK INTER:                  -6.571
REMARK INTRA:                  -0.256
REMARK UNBOUND:                -0.256
REMARK SMILES CC(C)[C@@H]1CC[C@H](C)[C@@H]2C=C[C@@H](C)C[C@H]21
REMARK SMILES IDX 8 1 7 2 6 3 5 4 4 5 15 6 9 7 10 8 11 9 12 10 14 11 13 12
REMARK SMILES IDX 2 13 1 14 3 15
REMARK H PARENT
REMARK Flexibility Score: inf
ROOT
ATOM      1  C   UNL     1     -51.009 -45.927  22.534  1.00  0.00     0.008 C 
ATOM      2  C   UNL     1     -51.800 -46.936  23.389  1.00  0.00    -0.007 C 
ATOM      3  C   UNL     1     -53.150 -46.361  23.847  1.00  0.00     0.004 C 
ATOM      4  C   UNL     1     -54.162 -46.268  22.700  1.00  0.00     0.004 C 
ATOM      5  C   UNL     1     -54.387 -47.627  21.985  1.00  0.00    -0.005 C 
ATOM      6  C   UNL     1     -53.011 -48.205  21.497  1.00  0.00    -0.000 C 
ATOM      7  C   UNL     1     -52.025 -48.302  22.697  1.00  0.00     0.018 C 
ATOM      8  C   UNL     1     -50.715 -48.958  22.320  1.00  0.00    -0.027 C 
ATOM      9  C   UNL     1     -50.619 -49.840  21.316  1.00  0.00    -0.028 C 
ATOM     10  C   UNL     1     -51.746 -50.086  20.339  1.00  0.00     0.008 C 
ATOM     11  C   UNL     1     -53.116 -49.611  20.868  1.00  0.00     0.012 C 
ATOM     12  C   UNL     1     -51.802 -51.570  19.962  1.00  0.00     0.012 C 
ENDROOT
BRANCH   5  13
ATOM     13  C   UNL     1     -55.501 -47.439  20.890  1.00  0.00    -0.014 C 
ATOM     14  C   UNL     1     -55.963 -45.979  20.733  1.00  0.00     0.007 C 
ATOM     15  C   UNL     1     -56.692 -48.402  21.020  1.00  0.00     0.007 C 
ENDBRANCH   5  13
TORSDOF 1
ENDMDL
MODEL 2
REMARK VINA RESULT:    -6.198     11.631     14.369
REMARK INTER + INTRA:          -6.816
REMARK INTER:                  -6.546
REMARK INTRA:                  -0.270
REMARK UNBOUND:                -0.256
REMARK SMILES CC(C)[C@@H]1CC[C@H](C)[C@@H]2C=C[C@@H](C)C[C@H]21
REMARK SMILES IDX 8 1 7 2 6 3 5 4 4 5 15 6 9 7 10 8 11 9 12 10 14 11 13 12
REMARK SMILES IDX 2 13 1 14 3 15
REMARK H PARENT
REMARK Flexibility Score: inf
ROOT
ATOM      1  C   UNL     1     -41.765 -51.480  29.229  1.00  0.00     0.008 C 
ATOM      2  C   UNL     1     -42.205 -50.119  29.804  1.00  0.00    -0.007 C 
ATOM      3  C   UNL     1     -41.223 -49.605  30.869  1.00  0.00     0.004 C 
ATOM      4  C   UNL     1     -39.902 -49.123  30.257  1.00  0.00     0.004 C 
ATOM      5  C   UNL     1     -40.106 -48.038  29.166  1.00  0.00    -0.005 C 
ATOM      6  C   UNL     1     -41.092 -48.570  28.066  1.00  0.00    -0.000 C 
ATOM      7  C   UNL     1     -42.423 -49.028  28.728  1.00  0.00     0.018 C 
ATOM      8  C   UNL     1     -43.464 -49.446  27.713  1.00  0.00    -0.027 C 
ATOM      9  C   UNL     1     -43.482 -48.958  26.465  1.00  0.00    -0.028 C 
ATOM     10  C   UNL     1     -42.352 -48.130  25.898  1.00  0.00     0.008 C 
ATOM     11  C   UNL     1     -41.445 -47.522  26.989  1.00  0.00     0.012 C 
ATOM     12  C   UNL     1     -42.909 -47.030  24.988  1.00  0.00     0.012 C 
ENDROOT
BRANCH   5  13
ATOM     13  C   UNL     1     -38.693 -47.554  28.672  1.00  0.00    -0.014 C 
ATOM     14  C   UNL     1     -37.602 -48.633  28.788  1.00  0.00     0.007 C 
ATOM     15  C   UNL     1     -38.233 -46.214  29.269  1.00  0.00     0.007 C 
ENDBRANCH   5  13
TORSDOF 1
ENDMDL
MODEL 3
REMARK VINA RESULT:    -6.178     11.624     14.293
REMARK INTER + INTRA:          -6.795
REMARK INTER:                  -6.523
REMARK INTRA:                  -0.272
REMARK UNBOUND:                -0.256
REMARK SMILES CC(C)[C@@H]1CC[C@H](C)[C@@H]2C=C[C@@H](C)C[C@H]21
REMARK SMILES IDX 8 1 7 2 6 3 5 4 4 5 15 6 9 7 10 8 11 9 12 10 14 11 13 12
REMARK SMILES IDX 2 13 1 14 3 15
REMARK H PARENT
REMARK Flexibility Score: inf
ROOT
ATOM      1  C   UNL     1     -43.418 -46.418  27.555  1.00  0.00     0.008 C 
ATOM      2  C   UNL     1     -42.779 -47.679  26.939  1.00  0.00    -0.007 C 
ATOM      3  C   UNL     1     -41.463 -47.355  26.213  1.00  0.00     0.004 C 
ATOM      4  C   UNL     1     -40.325 -47.035  27.188  1.00  0.00     0.004 C 
ATOM      5  C   UNL     1     -40.086 -48.166  28.225  1.00  0.00    -0.005 C 
ATOM      6  C   UNL     1     -41.424 -48.482  28.983  1.00  0.00    -0.000 C 
ATOM      7  C   UNL     1     -42.544 -48.821  27.957  1.00  0.00     0.018 C 
ATOM      8  C   UNL     1     -43.833 -49.248  28.624  1.00  0.00    -0.027 C 
ATOM      9  C   UNL     1     -43.856 -49.816  29.837  1.00  0.00    -0.028 C 
ATOM     10  C   UNL     1     -42.639 -49.877  30.732  1.00  0.00     0.008 C 
ATOM     11  C   UNL     1     -41.317 -49.670  29.963  1.00  0.00     0.012 C 
ATOM     12  C   UNL     1     -42.613 -51.204  31.496  1.00  0.00     0.012 C 
ENDROOT
BRANCH   5  13
ATOM     13  C   UNL     1     -38.848 -47.776  29.113  1.00  0.00    -0.014 C 
ATOM     14  C   UNL     1     -38.691 -46.258  29.312  1.00  0.00     0.007 C 
ATOM     15  C   UNL     1     -37.524 -48.433  28.687  1.00  0.00     0.007 C 
ENDBRANCH   5  13
TORSDOF 1
ENDMDL
MODEL 4
REMARK VINA RESULT:    -5.870      1.237      3.676
REMARK INTER + INTRA:          -6.469
REMARK INTER:                  -6.201
REMARK INTRA:                  -0.269
REMARK UNBOUND:                -0.256
REMARK SMILES CC(C)[C@@H]1CC[C@H](C)[C@@H]2C=C[C@@H](C)C[C@H]21
REMARK SMILES IDX 8 1 7 2 6 3 5 4 4 5 15 6 9 7 10 8 11 9 12 10 14 11 13 12
REMARK SMILES IDX 2 13 1 14 3 15
REMARK H PARENT
REMARK Flexibility Score: inf
ROOT
ATOM      1  C   UNL     1     -51.879 -51.487  20.253  1.00  0.00     0.008 C 
ATOM      2  C   UNL     1     -51.480 -50.035  19.921  1.00  0.00    -0.007 C 
ATOM      3  C   UNL     1     -52.506 -49.359  18.999  1.00  0.00     0.004 C 
ATOM      4  C   UNL     1     -53.812 -49.023  19.728  1.00  0.00     0.004 C 
ATOM      5  C   UNL     1     -53.586 -48.149  20.992  1.00  0.00    -0.005 C 
ATOM      6  C   UNL     1     -52.555 -48.850  21.946  1.00  0.00    -0.000 C 
ATOM      7  C   UNL     1     -51.240 -49.152  21.169  1.00  0.00     0.018 C 
ATOM      8  C   UNL     1     -50.159 -49.725  22.059  1.00  0.00    -0.027 C 
ATOM      9  C   UNL     1     -50.105 -49.471  23.373  1.00  0.00    -0.028 C 
ATOM     10  C   UNL     1     -51.227 -48.783  24.117  1.00  0.00     0.008 C 
ATOM     11  C   UNL     1     -52.180 -48.006  23.183  1.00  0.00     0.012 C 
ATOM     12  C   UNL     1     -50.655 -47.854  25.192  1.00  0.00     0.012 C 
ENDROOT
BRANCH   5  13
ATOM     13  C   UNL     1     -54.988 -47.792  21.610  1.00  0.00    -0.014 C 
ATOM     14  C   UNL     1     -56.084 -48.819  21.275  1.00  0.00     0.007 C 
ATOM     15  C   UNL     1     -55.457 -46.352  21.339  1.00  0.00     0.007 C 
ENDBRANCH   5  13
TORSDOF 1
ENDMDL
MODEL 5
REMARK VINA RESULT:    -5.835      1.092      4.367
REMARK INTER + INTRA:          -6.432
REMARK INTER:                  -6.161
REMARK INTRA:                  -0.270
REMARK UNBOUND:                -0.256
REMARK SMILES CC(C)[C@@H]1CC[C@H](C)[C@@H]2C=C[C@@H](C)C[C@H]21
REMARK SMILES IDX 8 1 7 2 6 3 5 4 4 5 15 6 9 7 10 8 11 9 12 10 14 11 13 12
REMARK SMILES IDX 2 13 1 14 3 15
REMARK H PARENT
REMARK Flexibility Score: inf
ROOT
ATOM      1  C   UNL     1     -51.547 -48.602  24.077  1.00  0.00     0.008 C 
ATOM      2  C   UNL     1     -51.231 -47.703  22.866  1.00  0.00    -0.007 C 
ATOM      3  C   UNL     1     -50.131 -48.307  21.979  1.00  0.00     0.004 C 
ATOM      4  C   UNL     1     -50.628 -49.517  21.179  1.00  0.00     0.004 C 
ATOM      5  C   UNL     1     -51.879 -49.196  20.317  1.00  0.00    -0.005 C 
ATOM      6  C   UNL     1     -53.011 -48.599  21.226  1.00  0.00    -0.000 C 
ATOM      7  C   UNL     1     -52.469 -47.363  22.001  1.00  0.00     0.018 C 
ATOM      8  C   UNL     1     -53.541 -46.669  22.811  1.00  0.00    -0.027 C 
ATOM      9  C   UNL     1     -54.837 -46.719  22.474  1.00  0.00    -0.028 C 
ATOM     10  C   UNL     1     -55.364 -47.643  21.400  1.00  0.00     0.008 C 
ATOM     11  C   UNL     1     -54.261 -48.144  20.443  1.00  0.00     0.012 C 
ATOM     12  C   UNL     1     -56.484 -46.954  20.614  1.00  0.00     0.012 C 
ENDROOT
BRANCH   5  13
ATOM     13  C   UNL     1     -52.249 -50.473  19.477  1.00  0.00    -0.014 C 
ATOM     14  C   UNL     1     -51.870 -51.793  20.171  1.00  0.00     0.007 C 
ATOM     15  C   UNL     1     -51.764 -50.439  18.018  1.00  0.00     0.007 C 
ENDBRANCH   5  13
TORSDOF 1
ENDMDL
MODEL 6
REMARK VINA RESULT:    -5.825     10.188     12.675
REMARK INTER + INTRA:          -6.421
REMARK INTER:                  -6.184
REMARK INTRA:                  -0.237
REMARK UNBOUND:                -0.256
REMARK SMILES CC(C)[C@@H]1CC[C@H](C)[C@@H]2C=C[C@@H](C)C[C@H]21
REMARK SMILES IDX 8 1 7 2 6 3 5 4 4 5 15 6 9 7 10 8 11 9 12 10 14 11 13 12
REMARK SMILES IDX 2 13 1 14 3 15
REMARK H PARENT
REMARK Flexibility Score: inf
ROOT
ATOM      1  C   UNL     1     -41.049 -46.556  27.777  1.00  0.00     0.008 C 
ATOM      2  C   UNL     1     -40.607 -47.983  27.394  1.00  0.00    -0.007 C 
ATOM      3  C   UNL     1     -39.980 -48.724  28.585  1.00  0.00     0.004 C 
ATOM      4  C   UNL     1     -41.024 -49.134  29.630  1.00  0.00     0.004 C 
ATOM      5  C   UNL     1     -42.174 -49.987  29.028  1.00  0.00    -0.005 C 
ATOM      6  C   UNL     1     -42.830 -49.220  27.824  1.00  0.00    -0.000 C 
ATOM      7  C   UNL     1     -41.738 -48.843  26.782  1.00  0.00     0.018 C 
ATOM      8  C   UNL     1     -42.317 -48.203  25.540  1.00  0.00    -0.027 C 
ATOM      9  C   UNL     1     -43.568 -48.447  25.126  1.00  0.00    -0.028 C 
ATOM     10  C   UNL     1     -44.573 -49.197  25.969  1.00  0.00     0.008 C 
ATOM     11  C   UNL     1     -43.914 -50.034  27.087  1.00  0.00     0.012 C 
ATOM     12  C   UNL     1     -45.449 -50.085  25.080  1.00  0.00     0.012 C 
ENDROOT
BRANCH   5  13
ATOM     13  C   UNL     1     -43.135 -50.424  30.193  1.00  0.00    -0.014 C 
ATOM     14  C   UNL     1     -44.173 -49.351  30.566  1.00  0.00     0.007 C 
ATOM     15  C   UNL     1     -42.420 -50.979  31.436  1.00  0.00     0.007 C 
ENDBRANCH   5  13
TORSDOF 1
ENDMDL
MODEL 7
REMARK VINA RESULT:    -5.796      1.852      4.530
REMARK INTER + INTRA:          -6.391
REMARK INTER:                  -6.139
REMARK INTRA:                  -0.252
REMARK UNBOUND:                -0.256
REMARK SMILES CC(C)[C@@H]1CC[C@H](C)[C@@H]2C=C[C@@H](C)C[C@H]21
REMARK SMILES IDX 8 1 7 2 6 3 5 4 4 5 15 6 9 7 10 8 11 9 12 10 14 11 13 12
REMARK SMILES IDX 2 13 1 14 3 15
REMARK H PARENT
REMARK Flexibility Score: inf
ROOT
ATOM      1  C   UNL     1     -54.419 -49.558  22.019  1.00  0.00     0.008 C 
ATOM      2  C   UNL     1     -53.475 -48.371  21.743  1.00  0.00    -0.007 C 
ATOM      3  C   UNL     1     -52.975 -47.725  23.045  1.00  0.00     0.004 C 
ATOM      4  C   UNL     1     -51.951 -48.603  23.774  1.00  0.00     0.004 C 
ATOM      5  C   UNL     1     -50.740 -48.984  22.879  1.00  0.00    -0.005 C 
ATOM      6  C   UNL     1     -51.249 -49.664  21.558  1.00  0.00    -0.000 C 
ATOM      7  C   UNL     1     -52.267 -48.730  20.843  1.00  0.00     0.018 C 
ATOM      8  C   UNL     1     -52.712 -49.273  19.503  1.00  0.00    -0.027 C 
ATOM      9  C   UNL     1     -51.944 -50.093  18.773  1.00  0.00    -0.028 C 
ATOM     10  C   UNL     1     -50.678 -50.719  19.313  1.00  0.00     0.008 C 
ATOM     11  C   UNL     1     -50.124 -49.982  20.551  1.00  0.00     0.012 C 
ATOM     12  C   UNL     1     -49.616 -50.793  18.212  1.00  0.00     0.012 C 
ENDROOT
BRANCH   5  13
ATOM     13  C   UNL     1     -49.717 -49.805  23.746  1.00  0.00    -0.014 C 
ATOM     14  C   UNL     1     -50.204 -50.068  25.182  1.00  0.00     0.007 C 
ATOM     15  C   UNL     1     -48.280 -49.258  23.725  1.00  0.00     0.007 C 
ENDBRANCH   5  13
TORSDOF 1
ENDMDL
MODEL 8
REMARK VINA RESULT:    -5.777     10.007     12.352
REMARK INTER + INTRA:          -6.370
REMARK INTER:                  -6.112
REMARK INTRA:                  -0.258
REMARK UNBOUND:                -0.256
REMARK SMILES CC(C)[C@@H]1CC[C@H](C)[C@@H]2C=C[C@@H](C)C[C@H]21
REMARK SMILES IDX 8 1 7 2 6 3 5 4 4 5 15 6 9 7 10 8 11 9 12 10 14 11 13 12
REMARK SMILES IDX 2 13 1 14 3 15
REMARK H PARENT
REMARK Flexibility Score: inf
ROOT
ATOM      1  C   UNL     1     -39.873 -49.495  27.763  1.00  0.00     0.008 C 
ATOM      2  C   UNL     1     -40.907 -48.408  28.119  1.00  0.00    -0.007 C 
ATOM      3  C   UNL     1     -41.391 -47.652  26.871  1.00  0.00     0.004 C 
ATOM      4  C   UNL     1     -42.321 -48.504  25.999  1.00  0.00     0.004 C 
ATOM      5  C   UNL     1     -43.541 -49.057  26.784  1.00  0.00    -0.005 C 
ATOM      6  C   UNL     1     -43.046 -49.849  28.046  1.00  0.00    -0.000 C 
ATOM      7  C   UNL     1     -42.125 -48.940  28.911  1.00  0.00     0.018 C 
ATOM      8  C   UNL     1     -41.704 -49.602  30.204  1.00  0.00    -0.027 C 
ATOM      9  C   UNL     1     -42.446 -50.545  30.800  1.00  0.00    -0.028 C 
ATOM     10  C   UNL     1     -43.642 -51.184  30.130  1.00  0.00     0.008 C 
ATOM     11  C   UNL     1     -44.190 -50.348  28.954  1.00  0.00     0.012 C 
ATOM     12  C   UNL     1     -44.744 -51.448  31.161  1.00  0.00     0.012 C 
ENDROOT
BRANCH   5  13
ATOM     13  C   UNL     1     -44.468 -49.837  25.781  1.00  0.00    -0.014 C 
ATOM     14  C   UNL     1     -43.847 -50.014  24.384  1.00  0.00     0.007 C 
ATOM     15  C   UNL     1     -45.909 -49.306  25.699  1.00  0.00     0.007 C 
ENDBRANCH   5  13
TORSDOF 1
ENDMDL
