MODEL 1
REMARK VINA RESULT:    -4.821      0.000      0.000
REMARK INTER + INTRA:          -5.663
REMARK INTER:                  -5.526
REMARK INTRA:                  -0.137
REMARK UNBOUND:                -0.137
REMARK SMILES O=C([O-])C=Cc1ccc(O)cc1
REMARK SMILES IDX 6 1 7 2 12 3 8 4 11 5 9 6 5 7 4 8 2 9 1 10 3 11 10 12
REMARK H PARENT 10 13
REMARK Flexibility Score: inf
ROOT
ATOM      1  C   UNL     1      25.273  28.986  16.780  1.00  0.00    -0.025 A 
ATOM      2  C   UNL     1      24.704  27.745  17.133  1.00  0.00     0.012 A 
ATOM      3  C   UNL     1      24.429  30.014  16.325  1.00  0.00     0.012 A 
ATOM      4  C   UNL     1      23.327  27.537  17.006  1.00  0.00     0.047 A 
ATOM      5  C   UNL     1      23.053  29.801  16.199  1.00  0.00     0.047 A 
ATOM      6  C   UNL     1      22.499  28.563  16.536  1.00  0.00     0.115 A 
ENDROOT
BRANCH   1   7
ATOM      7  C   UNL     1      26.725  29.264  16.907  1.00  0.00     0.010 C 
ATOM      8  C   UNL     1      27.251  30.069  17.840  1.00  0.00     0.025 C 
BRANCH   8   9
ATOM      9  C   UNL     1      28.700  30.313  17.943  1.00  0.00     0.064 C 
ATOM     10  O   UNL     1      29.338  30.023  18.990  1.00  0.00    -0.545 OA
ATOM     11  O   UNL     1      29.377  30.869  16.865  1.00  0.00    -0.545 OA
ENDBRANCH   8   9
ENDBRANCH   1   7
BRANCH   6  12
ATOM     12  O   UNL     1      21.125  28.366  16.404  1.00  0.00    -0.508 OA
ATOM     13  H   UNL     1      20.537  28.196  17.210  1.00  0.00     0.293 HD
ENDBRANCH   6  12
TORSDOF 3
ENDMDL
MODEL 2
REMARK VINA RESULT:    -4.812      1.346      5.630
REMARK INTER + INTRA:          -5.652
REMARK INTER:                  -5.503
REMARK INTRA:                  -0.149
REMARK UNBOUND:                -0.137
REMARK SMILES O=C([O-])C=Cc1ccc(O)cc1
REMARK SMILES IDX 6 1 7 2 12 3 8 4 11 5 9 6 5 7 4 8 2 9 1 10 3 11 10 12
REMARK H PARENT 10 13
REMARK Flexibility Score: inf
ROOT
ATOM      1  C   UNL     1      26.168  29.417  17.026  1.00  0.00    -0.025 A 
ATOM      2  C   UNL     1      27.529  29.054  17.048  1.00  0.00     0.012 A 
ATOM      3  C   UNL     1      25.813  30.738  17.354  1.00  0.00     0.012 A 
ATOM      4  C   UNL     1      28.505  29.986  17.415  1.00  0.00     0.047 A 
ATOM      5  C   UNL     1      26.792  31.666  17.722  1.00  0.00     0.047 A 
ATOM      6  C   UNL     1      28.138  31.293  17.756  1.00  0.00     0.115 A 
ENDROOT
BRANCH   1   7
ATOM      7  C   UNL     1      25.094  28.471  16.633  1.00  0.00     0.010 C 
ATOM      8  C   UNL     1      23.830  28.555  17.072  1.00  0.00     0.025 C 
BRANCH   8   9
ATOM      9  C   UNL     1      22.787  27.604  16.651  1.00  0.00     0.064 C 
ATOM     10  O   UNL     1      23.037  26.375  16.526  1.00  0.00    -0.545 OA
ATOM     11  O   UNL     1      21.505  28.069  16.389  1.00  0.00    -0.545 OA
ENDBRANCH   8   9
ENDBRANCH   1   7
BRANCH   6  12
ATOM     12  O   UNL     1      29.102  32.230  18.125  1.00  0.00    -0.508 OA
ATOM     13  H   UNL     1      28.989  33.214  17.914  1.00  0.00     0.293 HD
ENDBRANCH   6  12
TORSDOF 3
ENDMDL
MODEL 3
REMARK VINA RESULT:    -4.690      3.238      4.706
REMARK INTER + INTRA:          -5.513
REMARK INTER:                  -5.377
REMARK INTRA:                  -0.136
REMARK UNBOUND:                -0.137
REMARK SMILES O=C([O-])C=Cc1ccc(O)cc1
REMARK SMILES IDX 6 1 7 2 12 3 8 4 11 5 9 6 5 7 4 8 2 9 1 10 3 11 10 12
REMARK H PARENT 10 13
REMARK Flexibility Score: inf
ROOT
ATOM      1  C   UNL     1      28.820  31.342  18.062  1.00  0.00    -0.025 A 
ATOM      2  C   UNL     1      28.035  32.293  17.379  1.00  0.00     0.012 A 
ATOM      3  C   UNL     1      28.310  30.045  18.243  1.00  0.00     0.012 A 
ATOM      4  C   UNL     1      26.761  31.954  16.913  1.00  0.00     0.047 A 
ATOM      5  C   UNL     1      27.035  29.711  17.776  1.00  0.00     0.047 A 
ATOM      6  C   UNL     1      26.257  30.663  17.113  1.00  0.00     0.115 A 
ENDROOT
BRANCH   1   7
ATOM      7  C   UNL     1      30.183  31.645  18.567  1.00  0.00     0.010 C 
ATOM      8  C   UNL     1      30.446  32.005  19.831  1.00  0.00     0.025 C 
BRANCH   8   9
ATOM      9  C   UNL     1      31.813  32.287  20.300  1.00  0.00     0.064 C 
ATOM     10  O   UNL     1      32.680  32.776  19.526  1.00  0.00    -0.545 OA
ATOM     11  O   UNL     1      32.154  32.012  21.618  1.00  0.00    -0.545 OA
ENDBRANCH   8   9
ENDBRANCH   1   7
BRANCH   6  12
ATOM     12  O   UNL     1      24.988  30.315  16.654  1.00  0.00    -0.508 OA
ATOM     13  H   UNL     1      24.295  29.910  17.272  1.00  0.00     0.293 HD
ENDBRANCH   6  12
TORSDOF 3
ENDMDL
MODEL 4
REMARK VINA RESULT:    -4.599     11.163     13.721
REMARK INTER + INTRA:          -5.409
REMARK INTER:                  -5.269
REMARK INTRA:                  -0.140
REMARK UNBOUND:                -0.137
REMARK SMILES O=C([O-])C=Cc1ccc(O)cc1
REMARK SMILES IDX 6 1 7 2 12 3 8 4 11 5 9 6 5 7 4 8 2 9 1 10 3 11 10 12
REMARK H PARENT 10 13
REMARK Flexibility Score: inf
ROOT
ATOM      1  C   UNL     1      19.816  19.935  23.443  1.00  0.00    -0.025 A 
ATOM      2  C   UNL     1      19.788  20.339  22.092  1.00  0.00     0.012 A 
ATOM      3  C   UNL     1      21.040  19.531  24.004  1.00  0.00     0.012 A 
ATOM      4  C   UNL     1      20.954  20.311  21.321  1.00  0.00     0.047 A 
ATOM      5  C   UNL     1      22.203  19.504  23.229  1.00  0.00     0.047 A 
ATOM      6  C   UNL     1      22.164  19.891  21.887  1.00  0.00     0.115 A 
ENDROOT
BRANCH   1   7
ATOM      7  C   UNL     1      18.611  19.956  24.309  1.00  0.00     0.010 C 
ATOM      8  C   UNL     1      18.524  20.659  25.447  1.00  0.00     0.025 C 
BRANCH   8   9
ATOM      9  C   UNL     1      17.306  20.665  26.276  1.00  0.00     0.064 C 
ATOM     10  O   UNL     1      16.980  19.660  26.963  1.00  0.00    -0.545 OA
ATOM     11  O   UNL     1      16.504  21.798  26.303  1.00  0.00    -0.545 OA
ENDBRANCH   8   9
ENDBRANCH   1   7
BRANCH   6  12
ATOM     12  O   UNL     1      23.331  19.859  21.127  1.00  0.00    -0.508 OA
ATOM     13  H   UNL     1      24.104  19.250  21.371  1.00  0.00     0.293 HD
ENDBRANCH   6  12
TORSDOF 3
ENDMDL
MODEL 5
REMARK VINA RESULT:    -4.580      3.379      7.707
REMARK INTER + INTRA:          -5.386
REMARK INTER:                  -5.234
REMARK INTRA:                  -0.152
REMARK UNBOUND:                -0.137
REMARK SMILES O=C([O-])C=Cc1ccc(O)cc1
REMARK SMILES IDX 6 1 7 2 12 3 8 4 11 5 9 6 5 7 4 8 2 9 1 10 3 11 10 12
REMARK H PARENT 10 13
REMARK Flexibility Score: inf
ROOT
ATOM      1  C   UNL     1      30.419  31.476  18.210  1.00  0.00    -0.025 A 
ATOM      2  C   UNL     1      31.600  31.869  17.548  1.00  0.00     0.012 A 
ATOM      3  C   UNL     1      30.287  31.750  19.583  1.00  0.00     0.012 A 
ATOM      4  C   UNL     1      32.630  32.498  18.254  1.00  0.00     0.047 A 
ATOM      5  C   UNL     1      31.321  32.378  20.284  1.00  0.00     0.047 A 
ATOM      6  C   UNL     1      32.495  32.751  19.624  1.00  0.00     0.115 A 
ENDROOT
BRANCH   1   7
ATOM      7  C   UNL     1      29.290  30.816  17.507  1.00  0.00     0.010 C 
ATOM      8  C   UNL     1      28.231  30.285  18.134  1.00  0.00     0.025 C 
BRANCH   8   9
ATOM      9  C   UNL     1      27.123  29.648  17.402  1.00  0.00     0.064 C 
ATOM     10  O   UNL     1      27.342  28.850  16.451  1.00  0.00    -0.545 OA
ATOM     11  O   UNL     1      25.813  29.929  17.767  1.00  0.00    -0.545 OA
ENDBRANCH   8   9
ENDBRANCH   1   7
BRANCH   6  12
ATOM     12  O   UNL     1      33.516  33.375  20.337  1.00  0.00    -0.508 OA
ATOM     13  H   UNL     1      33.414  34.320  20.689  1.00  0.00     0.293 HD
ENDBRANCH   6  12
TORSDOF 3
ENDMDL
MODEL 6
REMARK VINA RESULT:    -4.561     11.472     13.888
REMARK INTER + INTRA:          -5.365
REMARK INTER:                  -5.224
REMARK INTRA:                  -0.140
REMARK UNBOUND:                -0.137
REMARK SMILES O=C([O-])C=Cc1ccc(O)cc1
REMARK SMILES IDX 6 1 7 2 12 3 8 4 11 5 9 6 5 7 4 8 2 9 1 10 3 11 10 12
REMARK H PARENT 10 13
REMARK Flexibility Score: inf
ROOT
ATOM      1  C   UNL     1      19.214  20.666  23.967  1.00  0.00    -0.025 A 
ATOM      2  C   UNL     1      20.343  19.832  24.098  1.00  0.00     0.012 A 
ATOM      3  C   UNL     1      18.959  21.270  22.723  1.00  0.00     0.012 A 
ATOM      4  C   UNL     1      21.205  19.632  23.016  1.00  0.00     0.047 A 
ATOM      5  C   UNL     1      19.824  21.068  21.644  1.00  0.00     0.047 A 
ATOM      6  C   UNL     1      20.949  20.252  21.787  1.00  0.00     0.115 A 
ENDROOT
BRANCH   1   7
ATOM      7  C   UNL     1      18.261  20.903  25.080  1.00  0.00     0.010 C 
ATOM      8  C   UNL     1      18.248  20.189  26.214  1.00  0.00     0.025 C 
BRANCH   8   9
ATOM      9  C   UNL     1      17.294  20.460  27.302  1.00  0.00     0.064 C 
ATOM     10  O   UNL     1      17.359  19.838  28.397  1.00  0.00    -0.545 OA
ATOM     11  O   UNL     1      16.306  21.420  27.122  1.00  0.00    -0.545 OA
ENDBRANCH   8   9
ENDBRANCH   1   7
BRANCH   6  12
ATOM     12  O   UNL     1      21.802  20.061  20.701  1.00  0.00    -0.508 OA
ATOM     13  H   UNL     1      21.698  20.595  19.847  1.00  0.00     0.293 HD
ENDBRANCH   6  12
TORSDOF 3
ENDMDL
MODEL 7
REMARK VINA RESULT:    -4.547      5.966      8.238
REMARK INTER + INTRA:          -5.349
REMARK INTER:                  -5.210
REMARK INTRA:                  -0.139
REMARK UNBOUND:                -0.137
REMARK SMILES O=C([O-])C=Cc1ccc(O)cc1
REMARK SMILES IDX 6 1 7 2 12 3 8 4 11 5 9 6 5 7 4 8 2 9 1 10 3 11 10 12
REMARK H PARENT 10 13
REMARK Flexibility Score: inf
ROOT
ATOM      1  C   UNL     1      31.899  32.050  19.684  1.00  0.00    -0.025 A 
ATOM      2  C   UNL     1      30.502  31.868  19.626  1.00  0.00     0.012 A 
ATOM      3  C   UNL     1      32.633  32.052  18.485  1.00  0.00     0.012 A 
ATOM      4  C   UNL     1      29.866  31.668  18.397  1.00  0.00     0.047 A 
ATOM      5  C   UNL     1      31.992  31.851  17.259  1.00  0.00     0.047 A 
ATOM      6  C   UNL     1      30.610  31.656  17.211  1.00  0.00     0.115 A 
ENDROOT
BRANCH   1   7
ATOM      7  C   UNL     1      32.623  32.277  20.960  1.00  0.00     0.010 C 
ATOM      8  C   UNL     1      33.136  33.461  21.324  1.00  0.00     0.025 C 
BRANCH   8   9
ATOM      9  C   UNL     1      33.838  33.652  22.604  1.00  0.00     0.064 C 
ATOM     10  O   UNL     1      34.440  34.729  22.864  1.00  0.00    -0.545 OA
ATOM     11  O   UNL     1      33.836  32.630  23.544  1.00  0.00    -0.545 OA
ENDBRANCH   8   9
ENDBRANCH   1   7
BRANCH   6  12
ATOM     12  O   UNL     1      29.985  31.456  15.981  1.00  0.00    -0.508 OA
ATOM     13  H   UNL     1      30.021  32.157  15.251  1.00  0.00     0.293 HD
ENDBRANCH   6  12
TORSDOF 3
ENDMDL
MODEL 8
REMARK VINA RESULT:    -4.526      5.217      9.612
REMARK INTER + INTRA:          -5.325
REMARK INTER:                  -5.179
REMARK INTRA:                  -0.146
REMARK UNBOUND:                -0.137
REMARK SMILES O=C([O-])C=Cc1ccc(O)cc1
REMARK SMILES IDX 6 1 7 2 12 3 8 4 11 5 9 6 5 7 4 8 2 9 1 10 3 11 10 12
REMARK H PARENT 10 13
REMARK Flexibility Score: inf
ROOT
ATOM      1  C   UNL     1      31.631  33.098  20.554  1.00  0.00    -0.025 A 
ATOM      2  C   UNL     1      31.830  34.486  20.701  1.00  0.00     0.012 A 
ATOM      3  C   UNL     1      32.504  32.214  21.210  1.00  0.00     0.012 A 
ATOM      4  C   UNL     1      32.895  34.970  21.467  1.00  0.00     0.047 A 
ATOM      5  C   UNL     1      33.568  32.703  21.974  1.00  0.00     0.047 A 
ATOM      6  C   UNL     1      33.769  34.079  22.102  1.00  0.00     0.115 A 
ENDROOT
BRANCH   1   7
ATOM      7  C   UNL     1      30.510  32.531  19.763  1.00  0.00     0.010 C 
ATOM      8  C   UNL     1      30.585  31.378  19.085  1.00  0.00     0.025 C 
BRANCH   8   9
ATOM      9  C   UNL     1      29.448  30.840  18.319  1.00  0.00     0.064 C 
ATOM     10  O   UNL     1      29.431  30.882  17.059  1.00  0.00    -0.545 OA
ATOM     11  O   UNL     1      28.376  30.273  18.997  1.00  0.00    -0.545 OA
ENDBRANCH   8   9
ENDBRANCH   1   7
BRANCH   6  12
ATOM     12  O   UNL     1      34.834  34.551  22.867  1.00  0.00    -0.508 OA
ATOM     13  H   UNL     1      34.981  34.238  23.819  1.00  0.00     0.293 HD
ENDBRANCH   6  12
TORSDOF 3
ENDMDL
MODEL 9
REMARK VINA RESULT:    -4.518     10.990     13.000
REMARK INTER + INTRA:          -5.316
REMARK INTER:                  -5.179
REMARK INTRA:                  -0.137
REMARK UNBOUND:                -0.137
REMARK SMILES O=C([O-])C=Cc1ccc(O)cc1
REMARK SMILES IDX 6 1 7 2 12 3 8 4 11 5 9 6 5 7 4 8 2 9 1 10 3 11 10 12
REMARK H PARENT 10 13
REMARK Flexibility Score: inf
ROOT
ATOM      1  C   UNL     1      17.972  21.782  22.570  1.00  0.00    -0.025 A 
ATOM      2  C   UNL     1      16.987  22.081  21.608  1.00  0.00     0.012 A 
ATOM      3  C   UNL     1      19.248  21.385  22.134  1.00  0.00     0.012 A 
ATOM      4  C   UNL     1      17.270  21.958  20.244  1.00  0.00     0.047 A 
ATOM      5  C   UNL     1      19.526  21.263  20.769  1.00  0.00     0.047 A 
ATOM      6  C   UNL     1      18.539  21.546  19.822  1.00  0.00     0.115 A 
ENDROOT
BRANCH   1   7
ATOM      7  C   UNL     1      17.728  21.907  24.029  1.00  0.00     0.010 C 
ATOM      8  C   UNL     1      17.702  20.864  24.872  1.00  0.00     0.025 C 
BRANCH   8   9
ATOM      9  C   UNL     1      17.468  21.027  26.317  1.00  0.00     0.064 C 
ATOM     10  O   UNL     1      18.325  20.652  27.162  1.00  0.00    -0.545 OA
ATOM     11  O   UNL     1      16.285  21.607  26.756  1.00  0.00    -0.545 OA
ENDBRANCH   8   9
ENDBRANCH   1   7
BRANCH   6  12
ATOM     12  O   UNL     1      18.832  21.419  18.465  1.00  0.00    -0.508 OA
ATOM     13  H   UNL     1      19.586  20.826  18.140  1.00  0.00     0.293 HD
ENDBRANCH   6  12
TORSDOF 3
ENDMDL
