MODEL 1
REMARK VINA RESULT:    62.608      0.000      0.000
REMARK INTER + INTRA:          69.305
REMARK INTER:                  68.098
REMARK INTRA:                   1.207
REMARK UNBOUND:                 1.207
REMARK SMILES C=C(C)[C@@H]1CC[C@]2(C)CC[C@]3(C)[C@@H](CC[C@H]4[C@@]5(C)CC[C@H](O)C(C)(C)[C@H]5CC[C@]43C)[C@H]12
REMARK SMILES IDX 4 1 5 2 6 3 7 4 31 5 13 6 14 7 15 8 16 9 17 10 19 11 20 12
REMARK SMILES IDX 21 13 23 14 26 15 27 16 28 17 29 18 11 19 10 20 9 21 12 22
REMARK SMILES IDX 30 23 24 24 25 25 18 26 8 27 2 28 3 29 1 30 22 31
REMARK H PARENT 22 32
REMARK Flexibility Score: inf
ROOT
ATOM      1  C   UNL     1      19.500  11.157  40.850  1.00  0.00     0.018 C 
ATOM      2  C   UNL     1      19.771  11.261  42.356  1.00  0.00     0.009 C 
ATOM      3  C   UNL     1      18.478  11.743  43.003  1.00  0.00     0.008 C 
ATOM      4  C   UNL     1      17.751  12.629  41.961  1.00  0.00    -0.029 C 
ATOM      5  C   UNL     1      18.411  12.243  40.579  1.00  0.00     0.006 C 
ATOM      6  C   UNL     1      17.471  12.105  39.309  1.00  0.00    -0.000 C 
ATOM      7  C   UNL     1      17.525  13.427  38.521  1.00  0.00     0.005 C 
ATOM      8  C   UNL     1      16.731  13.371  37.237  1.00  0.00     0.005 C 
ATOM      9  C   UNL     1      15.217  13.113  37.471  1.00  0.00     0.002 C 
ATOM     10  C   UNL     1      14.316  13.271  36.118  1.00  0.00    -0.026 C 
ATOM     11  C   UNL     1      15.088  14.082  35.012  1.00  0.00     0.010 C 
ATOM     12  C   UNL     1      14.437  14.115  33.628  1.00  0.00     0.033 C 
ATOM     13  C   UNL     1      14.264  12.693  33.094  1.00  0.00     0.120 C 
ATOM     14  C   UNL     1      13.332  11.855  34.003  1.00  0.00    -0.006 C 
ATOM     15  C   UNL     1      13.852  11.863  35.521  1.00  0.00     0.003 C 
ATOM     16  C   UNL     1      14.927  10.779  35.804  1.00  0.00     0.005 C 
ATOM     17  C   UNL     1      15.343  10.592  37.286  1.00  0.00     0.008 C 
ATOM     18  C   UNL     1      15.025  11.761  38.271  1.00  0.00    -0.024 C 
ATOM     19  C   UNL     1      15.983  11.670  39.593  1.00  0.00    -0.024 C 
ATOM     20  C   UNL     1      15.455  12.600  40.740  1.00  0.00     0.008 C 
ATOM     21  C   UNL     1      16.207  12.408  42.059  1.00  0.00     0.007 C 
ATOM     22  C   UNL     1      16.013  10.193  40.113  1.00  0.00     0.012 C 
ATOM     23  C   UNL     1      13.531  11.629  38.736  1.00  0.00     0.012 C 
ATOM     24  C   UNL     1      11.865  12.374  33.904  1.00  0.00     0.014 C 
ATOM     25  C   UNL     1      13.271  10.411  33.418  1.00  0.00     0.014 C 
ATOM     26  C   UNL     1      13.067  14.125  36.511  1.00  0.00     0.012 C 
ATOM     27  C   UNL     1      18.043  14.124  42.285  1.00  0.00     0.011 C 
ENDROOT
BRANCH   1  28
ATOM     28  C   UNL     1      19.250   9.723  40.340  1.00  0.00    -0.077 C 
ATOM     29  C   UNL     1      20.117   9.066  39.291  1.00  0.00     0.039 C 
ATOM     30  C   UNL     1      18.104   9.111  40.673  1.00  0.00     0.008 C 
ENDBRANCH   1  28
BRANCH  13  31
ATOM     31  O   UNL     1      13.760  12.742  31.785  1.00  0.00    -0.393 OA
ATOM     32  H   UNL     1      14.142  11.957  31.302  1.00  0.00     0.210 HD
ENDBRANCH  13  31
TORSDOF 2
ENDMDL
MODEL 2
REMARK VINA RESULT:    63.545      2.598      7.867
REMARK INTER + INTRA:          70.324
REMARK INTER:                  69.073
REMARK INTRA:                   1.251
REMARK UNBOUND:                 1.207
REMARK SMILES C=C(C)[C@@H]1CC[C@]2(C)CC[C@]3(C)[C@@H](CC[C@H]4[C@@]5(C)CC[C@H](O)C(C)(C)[C@H]5CC[C@]43C)[C@H]12
REMARK SMILES IDX 4 1 5 2 6 3 7 4 31 5 13 6 14 7 15 8 16 9 17 10 19 11 20 12
REMARK SMILES IDX 21 13 23 14 26 15 27 16 28 17 29 18 11 19 10 20 9 21 12 22
REMARK SMILES IDX 30 23 24 24 25 25 18 26 8 27 2 28 3 29 1 30 22 31
REMARK H PARENT 22 32
REMARK Flexibility Score: inf
ROOT
ATOM      1  C   UNL     1      13.469  13.804  33.430  1.00  0.00     0.018 C 
ATOM      2  C   UNL     1      13.077  13.145  32.101  1.00  0.00     0.009 C 
ATOM      3  C   UNL     1      13.400  11.662  32.232  1.00  0.00     0.008 C 
ATOM      4  C   UNL     1      14.609  11.543  33.194  1.00  0.00    -0.029 C 
ATOM      5  C   UNL     1      14.643  12.922  33.964  1.00  0.00     0.006 C 
ATOM      6  C   UNL     1      14.965  12.909  35.517  1.00  0.00    -0.000 C 
ATOM      7  C   UNL     1      16.462  13.213  35.702  1.00  0.00     0.005 C 
ATOM      8  C   UNL     1      16.859  13.315  37.158  1.00  0.00     0.005 C 
ATOM      9  C   UNL     1      16.624  11.996  37.943  1.00  0.00     0.002 C 
ATOM     10  C   UNL     1      17.250  12.018  39.451  1.00  0.00    -0.026 C 
ATOM     11  C   UNL     1      18.325  13.158  39.603  1.00  0.00     0.010 C 
ATOM     12  C   UNL     1      18.829  13.419  41.024  1.00  0.00     0.033 C 
ATOM     13  C   UNL     1      17.660  13.790  41.936  1.00  0.00     0.120 C 
ATOM     14  C   UNL     1      16.630  12.638  42.036  1.00  0.00    -0.006 C 
ATOM     15  C   UNL     1      16.130  12.189  40.578  1.00  0.00     0.003 C 
ATOM     16  C   UNL     1      14.955  13.051  40.043  1.00  0.00     0.005 C 
ATOM     17  C   UNL     1      14.287  12.566  38.731  1.00  0.00     0.008 C 
ATOM     18  C   UNL     1      15.101  11.577  37.838  1.00  0.00    -0.024 C 
ATOM     19  C   UNL     1      14.545  11.608  36.300  1.00  0.00    -0.024 C 
ATOM     20  C   UNL     1      15.092  10.392  35.475  1.00  0.00     0.008 C 
ATOM     21  C   UNL     1      14.453  10.272  34.090  1.00  0.00     0.007 C 
ATOM     22  C   UNL     1      12.980  11.547  36.312  1.00  0.00     0.012 C 
ATOM     23  C   UNL     1      14.911  10.124  38.400  1.00  0.00     0.012 C 
ATOM     24  C   UNL     1      17.234  11.435  42.824  1.00  0.00     0.014 C 
ATOM     25  C   UNL     1      15.450  13.131  42.928  1.00  0.00     0.014 C 
ATOM     26  C   UNL     1      18.003  10.662  39.643  1.00  0.00     0.012 C 
ATOM     27  C   UNL     1      15.906  11.378  32.350  1.00  0.00     0.011 C 
ENDROOT
BRANCH   1  28
ATOM     28  C   UNL     1      12.286  14.099  34.373  1.00  0.00    -0.077 C 
ATOM     29  C   UNL     1      12.426  14.125  35.877  1.00  0.00     0.039 C 
ATOM     30  C   UNL     1      11.044  14.122  33.864  1.00  0.00     0.008 C 
ENDBRANCH   1  28
BRANCH  13  31
ATOM     31  O   UNL     1      18.147  14.124  43.210  1.00  0.00    -0.393 OA
ATOM     32  H   UNL     1      18.700  13.353  43.516  1.00  0.00     0.210 HD
ENDBRANCH  13  31
TORSDOF 2
ENDMDL
MODEL 3
REMARK VINA RESULT:    64.235      1.504      2.528
REMARK INTER + INTRA:          71.075
REMARK INTER:                  69.783
REMARK INTRA:                   1.292
REMARK UNBOUND:                 1.207
REMARK SMILES C=C(C)[C@@H]1CC[C@]2(C)CC[C@]3(C)[C@@H](CC[C@H]4[C@@]5(C)CC[C@H](O)C(C)(C)[C@H]5CC[C@]43C)[C@H]12
REMARK SMILES IDX 4 1 5 2 6 3 7 4 31 5 13 6 14 7 15 8 16 9 17 10 19 11 20 12
REMARK SMILES IDX 21 13 23 14 26 15 27 16 28 17 29 18 11 19 10 20 9 21 12 22
REMARK SMILES IDX 30 23 24 24 25 25 18 26 8 27 2 28 3 29 1 30 22 31
REMARK H PARENT 22 32
REMARK Flexibility Score: inf
ROOT
ATOM      1  C   UNL     1      18.142  14.125  41.938  1.00  0.00     0.018 C 
ATOM      2  C   UNL     1      18.443  13.615  43.353  1.00  0.00     0.009 C 
ATOM      3  C   UNL     1      17.714  12.286  43.507  1.00  0.00     0.008 C 
ATOM      4  C   UNL     1      16.446  12.358  42.620  1.00  0.00    -0.029 C 
ATOM      5  C   UNL     1      16.732  13.540  41.611  1.00  0.00     0.006 C 
ATOM      6  C   UNL     1      16.294  13.359  40.097  1.00  0.00    -0.000 C 
ATOM      7  C   UNL     1      14.929  14.043  39.903  1.00  0.00     0.005 C 
ATOM      8  C   UNL     1      14.460  14.007  38.467  1.00  0.00     0.005 C 
ATOM      9  C   UNL     1      14.257  12.564  37.931  1.00  0.00     0.002 C 
ATOM     10  C   UNL     1      13.542  12.511  36.464  1.00  0.00    -0.026 C 
ATOM     11  C   UNL     1      12.815  13.868  36.137  1.00  0.00     0.010 C 
ATOM     12  C   UNL     1      12.289  14.020  34.708  1.00  0.00     0.033 C 
ATOM     13  C   UNL     1      13.437  13.882  33.709  1.00  0.00     0.120 C 
ATOM     14  C   UNL     1      14.097  12.484  33.792  1.00  0.00    -0.006 C 
ATOM     15  C   UNL     1      14.570  12.162  35.292  1.00  0.00     0.003 C 
ATOM     16  C   UNL     1      15.977  12.729  35.624  1.00  0.00     0.005 C 
ATOM     17  C   UNL     1      16.589  12.300  36.982  1.00  0.00     0.008 C 
ATOM     18  C   UNL     1      15.609  11.751  38.066  1.00  0.00    -0.024 C 
ATOM     19  C   UNL     1      16.274  11.880  39.555  1.00  0.00    -0.024 C 
ATOM     20  C   UNL     1      15.481  11.027  40.605  1.00  0.00     0.008 C 
ATOM     21  C   UNL     1      16.172  10.964  41.969  1.00  0.00     0.007 C 
ATOM     22  C   UNL     1      17.755  11.372  39.507  1.00  0.00     0.012 C 
ATOM     23  C   UNL     1      15.344  10.231  37.775  1.00  0.00     0.012 C 
ATOM     24  C   UNL     1      13.123  11.390  33.258  1.00  0.00     0.014 C 
ATOM     25  C   UNL     1      15.291  12.461  32.790  1.00  0.00     0.014 C 
ATOM     26  C   UNL     1      12.430  11.415  36.548  1.00  0.00     0.012 C 
ATOM     27  C   UNL     1      15.226  12.716  43.519  1.00  0.00     0.011 C 
ENDROOT
BRANCH   1  28
ATOM     28  C   UNL     1      19.281  13.907  40.922  1.00  0.00    -0.077 C 
ATOM     29  C   UNL     1      20.742  14.025  41.293  1.00  0.00     0.039 C 
ATOM     30  C   UNL     1      18.976  13.823  39.618  1.00  0.00     0.008 C 
ENDBRANCH   1  28
BRANCH  13  31
ATOM     31  O   UNL     1      12.960  14.123  32.410  1.00  0.00    -0.393 OA
ATOM     32  H   UNL     1      13.735  14.003  31.794  1.00  0.00     0.210 HD
ENDBRANCH  13  31
TORSDOF 2
ENDMDL
