MODEL 1
REMARK VINA RESULT:    -3.232      0.000      0.000
REMARK INTER + INTRA:          -4.073
REMARK INTER:                  -3.988
REMARK INTRA:                  -0.085
REMARK UNBOUND:                -0.085
REMARK SMILES CCCCC(=O)CC
REMARK SMILES IDX 4 1 3 2 2 3 1 4 5 5 6 6 7 7 8 8
REMARK H PARENT
REMARK Flexibility Score: inf
ROOT
ATOM      1  C   UNL     1     164.070 164.493 166.481  1.00  0.00     0.075 C 
ENDROOT
BRANCH   1   2
ATOM      2  C   UNL     1     163.324 163.851 165.302  1.00  0.00     0.008 C 
BRANCH   2   3
ATOM      3  C   UNL     1     161.942 164.487 165.111  1.00  0.00    -0.003 C 
ATOM      4  C   UNL     1     161.041 164.219 166.313  1.00  0.00     0.004 C 
ENDBRANCH   2   3
ENDBRANCH   1   2
BRANCH   1   5
ATOM      5  C   UNL     1     165.274 165.308 166.051  1.00  0.00     0.132 C 
ATOM      6  O   UNL     1     165.680 165.233 164.900  1.00  0.00    -0.300 OA
BRANCH   5   7
ATOM      7  C   UNL     1     166.010 166.230 166.998  1.00  0.00     0.072 C 
ATOM      8  C   UNL     1     167.322 166.793 166.452  1.00  0.00     0.012 C 
ENDBRANCH   5   7
ENDBRANCH   1   5
TORSDOF 4
ENDMDL
MODEL 2
REMARK VINA RESULT:    -3.229      1.417      4.136
REMARK INTER + INTRA:          -4.070
REMARK INTER:                  -3.876
REMARK INTRA:                  -0.194
REMARK UNBOUND:                -0.085
REMARK SMILES CCCCC(=O)CC
REMARK SMILES IDX 4 1 3 2 2 3 1 4 5 5 6 6 7 7 8 8
REMARK H PARENT
REMARK Flexibility Score: inf
ROOT
ATOM      1  C   UNL     1     165.060 164.543 165.917  1.00  0.00     0.075 C 
ENDROOT
BRANCH   1   2
ATOM      2  C   UNL     1     165.194 164.194 167.407  1.00  0.00     0.008 C 
BRANCH   2   3
ATOM      3  C   UNL     1     165.465 165.449 168.245  1.00  0.00    -0.003 C 
ATOM      4  C   UNL     1     165.935 166.607 167.368  1.00  0.00     0.004 C 
ENDBRANCH   2   3
ENDBRANCH   1   2
BRANCH   1   5
ATOM      5  C   UNL     1     163.920 163.813 165.235  1.00  0.00     0.132 C 
ATOM      6  O   UNL     1     164.058 162.645 164.901  1.00  0.00    -0.300 OA
BRANCH   5   7
ATOM      7  C   UNL     1     162.591 164.475 164.945  1.00  0.00     0.072 C 
ATOM      8  C   UNL     1     161.510 164.230 165.998  1.00  0.00     0.012 C 
ENDBRANCH   5   7
ENDBRANCH   1   5
TORSDOF 4
ENDMDL
MODEL 3
REMARK VINA RESULT:    -3.211      2.581      3.733
REMARK INTER + INTRA:          -4.048
REMARK INTER:                  -3.894
REMARK INTRA:                  -0.154
REMARK UNBOUND:                -0.085
REMARK SMILES CCCCC(=O)CC
REMARK SMILES IDX 4 1 3 2 2 3 1 4 5 5 6 6 7 7 8 8
REMARK H PARENT
REMARK Flexibility Score: inf
ROOT
ATOM      1  C   UNL     1     166.365 166.458 165.873  1.00  0.00     0.075 C 
ENDROOT
BRANCH   1   2
ATOM      2  C   UNL     1     166.258 166.694 167.387  1.00  0.00     0.008 C 
BRANCH   2   3
ATOM      3  C   UNL     1     165.556 165.520 168.080  1.00  0.00    -0.003 C 
ATOM      4  C   UNL     1     164.996 164.533 167.060  1.00  0.00     0.004 C 
ENDBRANCH   2   3
ENDBRANCH   1   2
BRANCH   1   5
ATOM      5  C   UNL     1     167.476 167.259 165.223  1.00  0.00     0.132 C 
ATOM      6  O   UNL     1     167.292 168.432 164.933  1.00  0.00    -0.300 OA
BRANCH   5   7
ATOM      7  C   UNL     1     168.831 166.661 164.912  1.00  0.00     0.072 C 
ATOM      8  C   UNL     1     169.916 166.964 165.946  1.00  0.00     0.012 C 
ENDBRANCH   5   7
ENDBRANCH   1   5
TORSDOF 4
ENDMDL
MODEL 4
REMARK VINA RESULT:    -3.208      2.166      5.166
REMARK INTER + INTRA:          -4.043
REMARK INTER:                  -3.866
REMARK INTRA:                  -0.178
REMARK UNBOUND:                -0.085
REMARK SMILES CCCCC(=O)CC
REMARK SMILES IDX 4 1 3 2 2 3 1 4 5 5 6 6 7 7 8 8
REMARK H PARENT
REMARK Flexibility Score: inf
ROOT
ATOM      1  C   UNL     1     166.618 166.403 165.248  1.00  0.00     0.075 C 
ENDROOT
BRANCH   1   2
ATOM      2  C   UNL     1     167.750 167.426 165.069  1.00  0.00     0.008 C 
BRANCH   2   3
ATOM      3  C   UNL     1     169.121 166.738 165.079  1.00  0.00    -0.003 C 
ATOM      4  C   UNL     1     169.826 166.935 166.418  1.00  0.00     0.004 C 
ENDBRANCH   2   3
ENDBRANCH   1   2
BRANCH   1   5
ATOM      5  C   UNL     1     166.031 166.403 166.646  1.00  0.00     0.132 C 
ATOM      6  O   UNL     1     166.132 167.399 167.348  1.00  0.00    -0.300 OA
BRANCH   5   7
ATOM      7  C   UNL     1     165.311 165.204 167.223  1.00  0.00     0.072 C 
ATOM      8  C   UNL     1     164.550 164.361 166.198  1.00  0.00     0.012 C 
ENDBRANCH   5   7
ENDBRANCH   1   5
TORSDOF 4
ENDMDL
MODEL 5
REMARK VINA RESULT:    -3.188      1.313      1.605
REMARK INTER + INTRA:          -4.019
REMARK INTER:                  -3.786
REMARK INTRA:                  -0.232
REMARK UNBOUND:                -0.085
REMARK SMILES CCCCC(=O)CC
REMARK SMILES IDX 4 1 3 2 2 3 1 4 5 5 6 6 7 7 8 8
REMARK H PARENT
REMARK Flexibility Score: inf
ROOT
ATOM      1  C   UNL     1     164.424 164.790 164.875  1.00  0.00     0.075 C 
ENDROOT
BRANCH   1   2
ATOM      2  C   UNL     1     163.281 163.819 165.210  1.00  0.00     0.008 C 
BRANCH   2   3
ATOM      3  C   UNL     1     161.920 164.521 165.126  1.00  0.00    -0.003 C 
ATOM      4  C   UNL     1     161.072 164.229 166.361  1.00  0.00     0.004 C 
ENDBRANCH   2   3
ENDBRANCH   1   2
BRANCH   1   5
ATOM      5  C   UNL     1     165.241 165.189 166.089  1.00  0.00     0.132 C 
ATOM      6  O   UNL     1     165.995 166.149 166.026  1.00  0.00    -0.300 OA
BRANCH   5   7
ATOM      7  C   UNL     1     165.161 164.439 167.401  1.00  0.00     0.072 C 
ATOM      8  C   UNL     1     165.198 165.326 168.646  1.00  0.00     0.012 C 
ENDBRANCH   5   7
ENDBRANCH   1   5
TORSDOF 4
ENDMDL
MODEL 6
REMARK VINA RESULT:    -3.156      2.148      5.049
REMARK INTER + INTRA:          -3.980
REMARK INTER:                  -3.863
REMARK INTRA:                  -0.117
REMARK UNBOUND:                -0.085
REMARK SMILES CCCCC(=O)CC
REMARK SMILES IDX 4 1 3 2 2 3 1 4 5 5 6 6 7 7 8 8
REMARK H PARENT
REMARK Flexibility Score: inf
ROOT
ATOM      1  C   UNL     1     166.500 166.494 164.875  1.00  0.00     0.075 C 
ENDROOT
BRANCH   1   2
ATOM      2  C   UNL     1     167.649 167.011 165.755  1.00  0.00     0.008 C 
BRANCH   2   3
ATOM      3  C   UNL     1     169.003 166.821 165.062  1.00  0.00    -0.003 C 
ATOM      4  C   UNL     1     170.150 166.870 166.068  1.00  0.00     0.004 C 
ENDBRANCH   2   3
ENDBRANCH   1   2
BRANCH   1   5
ATOM      5  C   UNL     1     165.614 165.489 165.584  1.00  0.00     0.132 C 
ATOM      6  O   UNL     1     164.955 164.691 164.932  1.00  0.00    -0.300 OA
BRANCH   5   7
ATOM      7  C   UNL     1     165.506 165.425 167.092  1.00  0.00     0.072 C 
ATOM      8  C   UNL     1     164.435 164.469 167.617  1.00  0.00     0.012 C 
ENDBRANCH   5   7
ENDBRANCH   1   5
TORSDOF 4
ENDMDL
MODEL 7
REMARK VINA RESULT:    -3.092      1.245      1.552
REMARK INTER + INTRA:          -3.901
REMARK INTER:                  -3.845
REMARK INTRA:                  -0.056
REMARK UNBOUND:                -0.085
REMARK SMILES CCCCC(=O)CC
REMARK SMILES IDX 4 1 3 2 2 3 1 4 5 5 6 6 7 7 8 8
REMARK H PARENT
REMARK Flexibility Score: inf
ROOT
ATOM      1  C   UNL     1     165.240 164.976 165.500  1.00  0.00     0.075 C 
ENDROOT
BRANCH   1   2
ATOM      2  C   UNL     1     163.995 164.460 166.237  1.00  0.00     0.008 C 
BRANCH   2   3
ATOM      3  C   UNL     1     162.845 164.196 165.258  1.00  0.00    -0.003 C 
ATOM      4  C   UNL     1     161.493 164.277 165.961  1.00  0.00     0.004 C 
ENDBRANCH   2   3
ENDBRANCH   1   2
BRANCH   1   5
ATOM      5  C   UNL     1     166.018 166.007 166.294  1.00  0.00     0.132 C 
ATOM      6  O   UNL     1     166.138 165.880 167.504  1.00  0.00    -0.300 OA
BRANCH   5   7
ATOM      7  C   UNL     1     166.667 167.210 165.644  1.00  0.00     0.072 C 
ATOM      8  C   UNL     1     168.152 167.039 165.323  1.00  0.00     0.012 C 
ENDBRANCH   5   7
ENDBRANCH   1   5
TORSDOF 4
ENDMDL
MODEL 8
REMARK VINA RESULT:    -3.079      1.347      4.674
REMARK INTER + INTRA:          -3.885
REMARK INTER:                  -3.826
REMARK INTRA:                  -0.059
REMARK UNBOUND:                -0.085
REMARK SMILES CCCCC(=O)CC
REMARK SMILES IDX 4 1 3 2 2 3 1 4 5 5 6 6 7 7 8 8
REMARK H PARENT
REMARK Flexibility Score: inf
ROOT
ATOM      1  C   UNL     1     165.210 165.215 165.384  1.00  0.00     0.075 C 
ENDROOT
BRANCH   1   2
ATOM      2  C   UNL     1     165.945 166.135 166.371  1.00  0.00     0.008 C 
BRANCH   2   3
ATOM      3  C   UNL     1     166.539 167.352 165.653  1.00  0.00    -0.003 C 
ATOM      4  C   UNL     1     168.022 167.147 165.355  1.00  0.00     0.004 C 
ENDBRANCH   2   3
ENDBRANCH   1   2
BRANCH   1   5
ATOM      5  C   UNL     1     163.968 164.578 165.975  1.00  0.00     0.132 C 
ATOM      6  O   UNL     1     163.862 164.461 167.187  1.00  0.00    -0.300 OA
BRANCH   5   7
ATOM      7  C   UNL     1     162.830 164.072 165.116  1.00  0.00     0.072 C 
ATOM      8  C   UNL     1     161.434 164.413 165.639  1.00  0.00     0.012 C 
ENDBRANCH   5   7
ENDBRANCH   1   5
TORSDOF 4
ENDMDL
MODEL 9
REMARK VINA RESULT:    -3.046      1.845      2.730
REMARK INTER + INTRA:          -3.844
REMARK INTER:                  -3.681
REMARK INTRA:                  -0.163
REMARK UNBOUND:                -0.085
REMARK SMILES CCCCC(=O)CC
REMARK SMILES IDX 4 1 3 2 2 3 1 4 5 5 6 6 7 7 8 8
REMARK H PARENT
REMARK Flexibility Score: inf
ROOT
ATOM      1  C   UNL     1     166.271 165.925 166.902  1.00  0.00     0.075 C 
ENDROOT
BRANCH   1   2
ATOM      2  C   UNL     1     164.958 165.216 166.536  1.00  0.00     0.008 C 
BRANCH   2   3
ATOM      3  C   UNL     1     165.105 164.426 165.230  1.00  0.00    -0.003 C 
ATOM      4  C   UNL     1     163.819 163.676 164.892  1.00  0.00     0.004 C 
ENDBRANCH   2   3
ENDBRANCH   1   2
BRANCH   1   5
ATOM      5  C   UNL     1     166.588 167.097 165.994  1.00  0.00     0.132 C 
ATOM      6  O   UNL     1     165.939 168.129 166.082  1.00  0.00    -0.300 OA
BRANCH   5   7
ATOM      7  C   UNL     1     167.696 167.048 164.964  1.00  0.00     0.072 C 
ATOM      8  C   UNL     1     169.101 166.876 165.544  1.00  0.00     0.012 C 
ENDBRANCH   5   7
ENDBRANCH   1   5
TORSDOF 4
ENDMDL
