MODEL 1
REMARK VINA RESULT:    -4.400      0.000      0.000
REMARK INTER + INTRA:          -4.797
REMARK INTER:                  -4.786
REMARK INTRA:                  -0.011
REMARK UNBOUND:                -0.011
REMARK SMILES OCc1ccccc1
REMARK SMILES IDX 2 1 3 2 6 3 5 4 7 5 4 6 8 7 1 8
REMARK H PARENT 1 9
REMARK Flexibility Score: inf
ROOT
ATOM      1  C   UNL     1      30.419  12.273  22.366  1.00  0.00     0.191 C 
ENDROOT
BRANCH   1   2
ATOM      2  C   UNL     1      31.086  12.462  21.031  1.00  0.00    -0.023 A 
ATOM      3  C   UNL     1      32.385  12.861  18.576  1.00  0.00     0.000 A 
ATOM      4  C   UNL     1      32.726  11.768  19.378  1.00  0.00     0.000 A 
ATOM      5  C   UNL     1      31.404  13.761  19.002  1.00  0.00     0.000 A 
ATOM      6  C   UNL     1      32.083  11.570  20.604  1.00  0.00     0.006 A 
ATOM      7  C   UNL     1      30.759  13.567  20.228  1.00  0.00     0.006 A 
ENDBRANCH   1   2
BRANCH   1   8
ATOM      8  O   UNL     1      31.333  12.516  23.399  1.00  0.00    -0.392 OA
ATOM      9  H   UNL     1      30.799  12.766  24.198  1.00  0.00     0.211 HD
ENDBRANCH   1   8
TORSDOF 2
ENDMDL
MODEL 2
REMARK VINA RESULT:    -4.387     13.749     14.356
REMARK INTER + INTRA:          -4.783
REMARK INTER:                  -4.773
REMARK INTRA:                  -0.010
REMARK UNBOUND:                -0.011
REMARK SMILES OCc1ccccc1
REMARK SMILES IDX 2 1 3 2 6 3 5 4 7 5 4 6 8 7 1 8
REMARK H PARENT 1 9
REMARK Flexibility Score: inf
ROOT
ATOM      1  C   UNL     1      18.587  13.868  17.531  1.00  0.00     0.191 C 
ENDROOT
BRANCH   1   2
ATOM      2  C   UNL     1      18.384  13.061  16.278  1.00  0.00    -0.023 A 
ATOM      3  C   UNL     1      17.949  11.609  13.916  1.00  0.00     0.000 A 
ATOM      4  C   UNL     1      18.962  12.572  13.970  1.00  0.00     0.000 A 
ATOM      5  C   UNL     1      17.147  11.377  15.037  1.00  0.00     0.000 A 
ATOM      6  C   UNL     1      19.176  13.300  15.144  1.00  0.00     0.006 A 
ATOM      7  C   UNL     1      17.358  12.103  16.213  1.00  0.00     0.006 A 
ENDBRANCH   1   2
BRANCH   1   8
ATOM      8  O   UNL     1      17.719  14.967  17.542  1.00  0.00    -0.392 OA
ATOM      9  H   UNL     1      17.333  15.033  16.629  1.00  0.00     0.211 HD
ENDBRANCH   1   8
TORSDOF 2
ENDMDL
MODEL 3
REMARK VINA RESULT:    -4.373     14.943     15.267
REMARK INTER + INTRA:          -4.767
REMARK INTER:                  -4.748
REMARK INTRA:                  -0.019
REMARK UNBOUND:                -0.011
REMARK SMILES OCc1ccccc1
REMARK SMILES IDX 2 1 3 2 6 3 5 4 7 5 4 6 8 7 1 8
REMARK H PARENT 1 9
REMARK Flexibility Score: inf
ROOT
ATOM      1  C   UNL     1      33.555  -1.828  17.106  1.00  0.00     0.191 C 
ENDROOT
BRANCH   1   2
ATOM      2  C   UNL     1      33.889  -1.557  15.664  1.00  0.00    -0.023 A 
ATOM      3  C   UNL     1      34.478  -0.981  12.982  1.00  0.00     0.000 A 
ATOM      4  C   UNL     1      35.407  -0.680  13.982  1.00  0.00     0.000 A 
ATOM      5  C   UNL     1      33.251  -1.560  13.320  1.00  0.00     0.000 A 
ATOM      6  C   UNL     1      35.113  -0.962  15.320  1.00  0.00     0.006 A 
ATOM      7  C   UNL     1      32.953  -1.843  14.656  1.00  0.00     0.006 A 
ENDBRANCH   1   2
BRANCH   1   8
ATOM      8  O   UNL     1      34.660  -1.543  17.918  1.00  0.00    -0.392 OA
ATOM      9  H   UNL     1      34.828  -2.355  18.464  1.00  0.00     0.211 HD
ENDBRANCH   1   8
TORSDOF 2
ENDMDL
MODEL 4
REMARK VINA RESULT:    -4.363     16.460     17.537
REMARK INTER + INTRA:          -4.757
REMARK INTER:                  -4.746
REMARK INTRA:                  -0.011
REMARK UNBOUND:                -0.011
REMARK SMILES OCc1ccccc1
REMARK SMILES IDX 2 1 3 2 6 3 5 4 7 5 4 6 8 7 1 8
REMARK H PARENT 1 9
REMARK Flexibility Score: inf
ROOT
ATOM      1  C   UNL     1      32.013  -2.470  10.776  1.00  0.00     0.191 C 
ENDROOT
BRANCH   1   2
ATOM      2  C   UNL     1      32.409  -2.561  12.224  1.00  0.00    -0.023 A 
ATOM      3  C   UNL     1      33.210  -2.779  14.905  1.00  0.00     0.000 A 
ATOM      4  C   UNL     1      33.702  -1.740  14.110  1.00  0.00     0.000 A 
ATOM      5  C   UNL     1      32.327  -3.716  14.360  1.00  0.00     0.000 A 
ATOM      6  C   UNL     1      33.308  -1.632  12.773  1.00  0.00     0.006 A 
ATOM      7  C   UNL     1      31.931  -3.613  13.024  1.00  0.00     0.006 A 
ENDBRANCH   1   2
BRANCH   1   8
ATOM      8  O   UNL     1      33.106  -2.783   9.958  1.00  0.00    -0.392 OA
ATOM      9  H   UNL     1      33.817  -2.123  10.168  1.00  0.00     0.211 HD
ENDBRANCH   1   8
TORSDOF 2
ENDMDL
MODEL 5
REMARK VINA RESULT:    -4.358     14.987     15.674
REMARK INTER + INTRA:          -4.751
REMARK INTER:                  -4.733
REMARK INTRA:                  -0.018
REMARK UNBOUND:                -0.011
REMARK SMILES OCc1ccccc1
REMARK SMILES IDX 2 1 3 2 6 3 5 4 7 5 4 6 8 7 1 8
REMARK H PARENT 1 9
REMARK Flexibility Score: inf
ROOT
ATOM      1  C   UNL     1      19.367  12.876  13.774  1.00  0.00     0.191 C 
ENDROOT
BRANCH   1   2
ATOM      2  C   UNL     1      18.185  12.056  14.210  1.00  0.00    -0.023 A 
ATOM      3  C   UNL     1      15.938  10.593  15.041  1.00  0.00     0.000 A 
ATOM      4  C   UNL     1      16.079  10.956  13.698  1.00  0.00     0.000 A 
ATOM      5  C   UNL     1      16.912  10.968  15.971  1.00  0.00     0.000 A 
ATOM      6  C   UNL     1      17.195  11.689  13.283  1.00  0.00     0.006 A 
ATOM      7  C   UNL     1      18.029  11.702  15.560  1.00  0.00     0.006 A 
ENDBRANCH   1   2
BRANCH   1   8
ATOM      8  O   UNL     1      19.040  13.626  12.637  1.00  0.00    -0.392 OA
ATOM      9  H   UNL     1      18.470  13.046  12.068  1.00  0.00     0.211 HD
ENDBRANCH   1   8
TORSDOF 2
ENDMDL
MODEL 6
REMARK VINA RESULT:    -4.356     20.645     21.016
REMARK INTER + INTRA:          -4.749
REMARK INTER:                  -4.732
REMARK INTRA:                  -0.017
REMARK UNBOUND:                -0.011
REMARK SMILES OCc1ccccc1
REMARK SMILES IDX 2 1 3 2 6 3 5 4 7 5 4 6 8 7 1 8
REMARK H PARENT 1 9
REMARK Flexibility Score: inf
ROOT
ATOM      1  C   UNL     1      19.303  -3.198  16.678  1.00  0.00     0.191 C 
ENDROOT
BRANCH   1   2
ATOM      2  C   UNL     1      18.156  -2.492  16.008  1.00  0.00    -0.023 A 
ATOM      3  C   UNL     1      16.046  -1.106  14.783  1.00  0.00     0.000 A 
ATOM      4  C   UNL     1      17.217  -1.371  14.068  1.00  0.00     0.000 A 
ATOM      5  C   UNL     1      15.931  -1.523  16.113  1.00  0.00     0.000 A 
ATOM      6  C   UNL     1      18.271  -2.058  14.678  1.00  0.00     0.006 A 
ATOM      7  C   UNL     1      16.983  -2.208  16.726  1.00  0.00     0.006 A 
ENDBRANCH   1   2
BRANCH   1   8
ATOM      8  O   UNL     1      18.832  -3.977  17.743  1.00  0.00    -0.392 OA
ATOM      9  H   UNL     1      17.944  -3.610  17.993  1.00  0.00     0.211 HD
ENDBRANCH   1   8
TORSDOF 2
ENDMDL
MODEL 7
REMARK VINA RESULT:    -4.332      1.597      2.255
REMARK INTER + INTRA:          -4.723
REMARK INTER:                  -4.713
REMARK INTRA:                  -0.010
REMARK UNBOUND:                -0.011
REMARK SMILES OCc1ccccc1
REMARK SMILES IDX 2 1 3 2 6 3 5 4 7 5 4 6 8 7 1 8
REMARK H PARENT 1 9
REMARK Flexibility Score: inf
ROOT
ATOM      1  C   UNL     1      32.812  10.637  20.477  1.00  0.00     0.191 C 
ENDROOT
BRANCH   1   2
ATOM      2  C   UNL     1      32.410  11.863  19.705  1.00  0.00    -0.023 A 
ATOM      3  C   UNL     1      31.705  14.196  18.314  1.00  0.00     0.000 A 
ATOM      4  C   UNL     1      32.801  13.436  17.894  1.00  0.00     0.000 A 
ATOM      5  C   UNL     1      30.967  13.799  19.432  1.00  0.00     0.000 A 
ATOM      6  C   UNL     1      33.156  12.276  18.589  1.00  0.00     0.006 A 
ATOM      7  C   UNL     1      31.320  12.641  20.130  1.00  0.00     0.006 A 
ENDBRANCH   1   2
BRANCH   1   8
ATOM      8  O   UNL     1      33.532  11.003  21.621  1.00  0.00    -0.392 OA
ATOM      9  H   UNL     1      33.864  11.926  21.465  1.00  0.00     0.211 HD
ENDBRANCH   1   8
TORSDOF 2
ENDMDL
MODEL 8
REMARK VINA RESULT:    -4.297     15.550     16.130
REMARK INTER + INTRA:          -4.685
REMARK INTER:                  -4.670
REMARK INTRA:                  -0.015
REMARK UNBOUND:                -0.011
REMARK SMILES OCc1ccccc1
REMARK SMILES IDX 2 1 3 2 6 3 5 4 7 5 4 6 8 7 1 8
REMARK H PARENT 1 9
REMARK Flexibility Score: inf
ROOT
ATOM      1  C   UNL     1      32.424  -1.819  12.242  1.00  0.00     0.191 C 
ENDROOT
BRANCH   1   2
ATOM      2  C   UNL     1      33.461  -1.437  13.262  1.00  0.00    -0.023 A 
ATOM      3  C   UNL     1      35.427  -0.798  15.160  1.00  0.00     0.000 A 
ATOM      4  C   UNL     1      35.658  -0.551  13.804  1.00  0.00     0.000 A 
ATOM      5  C   UNL     1      34.220  -1.373  15.569  1.00  0.00     0.000 A 
ATOM      6  C   UNL     1      34.682  -0.873  12.856  1.00  0.00     0.006 A 
ATOM      7  C   UNL     1      33.242  -1.697  14.625  1.00  0.00     0.006 A 
ENDBRANCH   1   2
BRANCH   1   8
ATOM      8  O   UNL     1      33.031  -2.468  11.159  1.00  0.00    -0.392 OA
ATOM      9  H   UNL     1      33.922  -2.048  11.039  1.00  0.00     0.211 HD
ENDBRANCH   1   8
TORSDOF 2
ENDMDL
MODEL 9
REMARK VINA RESULT:    -4.231     20.747     21.068
REMARK INTER + INTRA:          -4.613
REMARK INTER:                  -4.600
REMARK INTRA:                  -0.013
REMARK UNBOUND:                -0.011
REMARK SMILES OCc1ccccc1
REMARK SMILES IDX 2 1 3 2 6 3 5 4 7 5 4 6 8 7 1 8
REMARK H PARENT 1 9
REMARK Flexibility Score: inf
ROOT
ATOM      1  C   UNL     1      19.991  -4.351  17.873  1.00  0.00     0.191 C 
ENDROOT
BRANCH   1   2
ATOM      2  C   UNL     1      19.567  -3.890  16.506  1.00  0.00    -0.023 A 
ATOM      3  C   UNL     1      18.717  -3.087  13.955  1.00  0.00     0.000 A 
ATOM      4  C   UNL     1      18.197  -2.465  15.093  1.00  0.00     0.000 A 
ATOM      5  C   UNL     1      19.654  -4.115  14.088  1.00  0.00     0.000 A 
ATOM      6  C   UNL     1      18.615  -2.867  16.365  1.00  0.00     0.006 A 
ATOM      7  C   UNL     1      20.075  -4.521  15.358  1.00  0.00     0.006 A 
ENDBRANCH   1   2
BRANCH   1   8
ATOM      8  O   UNL     1      18.871  -4.738  18.619  1.00  0.00    -0.392 OA
ATOM      9  H   UNL     1      18.289  -3.937  18.693  1.00  0.00     0.211 HD
ENDBRANCH   1   8
TORSDOF 2
ENDMDL
