MODEL 1
REMARK VINA RESULT:    -2.895      0.000      0.000
REMARK INTER + INTRA:         -13.815
REMARK INTER:                  -7.635
REMARK INTRA:                  -6.180
REMARK UNBOUND:                -6.180
REMARK SMILES CCCCCCCCCCCCCCCCCCCCCCCCCCCCCC(=O)[O-]
REMARK SMILES IDX 16 1 17 2 18 3 19 4 20 5 21 6 22 7 23 8 24 9 25 10 26 11
REMARK SMILES IDX 27 12 28 13 29 14 30 15 31 16 32 17 15 18 14 19 13 20 12 21
REMARK SMILES IDX 11 22 10 23 9 24 8 25 7 26 6 27 5 28 4 29 3 30 2 31 1 32
REMARK H PARENT
REMARK Flexibility Score: inf
ROOT
ATOM      1  C   UNL     1       8.318  44.607 155.657  1.00  0.00     0.000 C 
ENDROOT
BRANCH   1   2
ATOM      2  C   UNL     1       8.928  45.894 156.251  1.00  0.00     0.000 C 
BRANCH   2   3
ATOM      3  C   UNL     1       9.715  46.763 155.251  1.00  0.00     0.000 C 
BRANCH   3   4
ATOM      4  C   UNL     1       8.877  47.179 154.032  1.00  0.00     0.000 C 
BRANCH   4   5
ATOM      5  C   UNL     1       9.656  46.968 152.727  1.00  0.00     0.000 C 
BRANCH   5   6
ATOM      6  C   UNL     1       8.699  46.798 151.541  1.00  0.00     0.000 C 
BRANCH   6   7
ATOM      7  C   UNL     1       8.834  45.402 150.917  1.00  0.00     0.000 C 
BRANCH   7   8
ATOM      8  C   UNL     1       8.325  44.291 151.862  1.00  0.00     0.000 C 
BRANCH   8   9
ATOM      9  C   UNL     1       6.852  44.461 152.281  1.00  0.00     0.000 C 
BRANCH   9  10
ATOM     10  C   UNL     1       5.950  43.255 151.969  1.00  0.00     0.000 C 
BRANCH  10  11
ATOM     11  C   UNL     1       5.149  42.775 153.190  1.00  0.00     0.000 C 
BRANCH  11  12
ATOM     12  C   UNL     1       6.029  41.923 154.119  1.00  0.00     0.000 C 
BRANCH  12  13
ATOM     13  C   UNL     1       6.005  40.429 153.761  1.00  0.00     0.006 C 
BRANCH  13  14
ATOM     14  C   UNL     1       4.647  39.971 153.207  1.00  0.00     0.053 C 
BRANCH  14  15
ATOM     15  C   UNL     1       3.897  39.176 154.229  1.00  0.00     0.041 C 
ATOM     16  O   UNL     1       2.653  39.329 154.369  1.00  0.00    -0.550 OA
ATOM     17  O   UNL     1       4.571  38.268 155.036  1.00  0.00    -0.550 OA
ENDBRANCH  14  15
ENDBRANCH  13  14
ENDBRANCH  12  13
ENDBRANCH  11  12
ENDBRANCH  10  11
ENDBRANCH   9  10
ENDBRANCH   8   9
ENDBRANCH   7   8
ENDBRANCH   6   7
ENDBRANCH   5   6
ENDBRANCH   4   5
ENDBRANCH   3   4
ENDBRANCH   2   3
ENDBRANCH   1   2
BRANCH   1  18
ATOM     18  C   UNL     1       9.087  43.311 155.998  1.00  0.00     0.000 C 
BRANCH  18  19
ATOM     19  C   UNL     1       9.568  42.541 154.754  1.00  0.00     0.000 C 
BRANCH  19  20
ATOM     20  C   UNL     1      11.093  42.645 154.549  1.00  0.00     0.000 C 
BRANCH  20  21
ATOM     21  C   UNL     1      11.494  43.889 153.734  1.00  0.00     0.000 C 
BRANCH  21  22
ATOM     22  C   UNL     1      12.777  43.690 152.901  1.00  0.00     0.000 C 
BRANCH  22  23
ATOM     23  C   UNL     1      12.553  43.964 151.402  1.00  0.00     0.000 C 
BRANCH  23  24
ATOM     24  C   UNL     1      11.591  42.954 150.753  1.00  0.00    -0.000 C 
BRANCH  24  25
ATOM     25  C   UNL     1      12.279  42.088 149.684  1.00  0.00    -0.000 C 
BRANCH  25  26
ATOM     26  C   UNL     1      12.109  40.582 149.945  1.00  0.00    -0.000 C 
BRANCH  26  27
ATOM     27  C   UNL     1      11.835  40.263 151.422  1.00  0.00    -0.000 C 
BRANCH  27  28
ATOM     28  C   UNL     1      10.610  39.353 151.573  1.00  0.00    -0.000 C 
BRANCH  28  29
ATOM     29  C   UNL     1       9.429  40.121 152.182  1.00  0.00    -0.000 C 
BRANCH  29  30
ATOM     30  C   UNL     1       8.511  40.750 151.119  1.00  0.00    -0.000 C 
BRANCH  30  31
ATOM     31  C   UNL     1       7.746  39.711 150.273  1.00  0.00    -0.003 C 
ATOM     32  C   UNL     1       6.329  40.173 149.930  1.00  0.00     0.004 C 
ENDBRANCH  30  31
ENDBRANCH  29  30
ENDBRANCH  28  29
ENDBRANCH  27  28
ENDBRANCH  26  27
ENDBRANCH  25  26
ENDBRANCH  24  25
ENDBRANCH  23  24
ENDBRANCH  22  23
ENDBRANCH  21  22
ENDBRANCH  20  21
ENDBRANCH  19  20
ENDBRANCH  18  19
ENDBRANCH   1  18
TORSDOF 28
ENDMDL
MODEL 2
REMARK VINA RESULT:    -2.888      1.066      5.484
REMARK INTER + INTRA:         -13.796
REMARK INTER:                  -8.069
REMARK INTRA:                  -5.727
REMARK UNBOUND:                -6.180
REMARK SMILES CCCCCCCCCCCCCCCCCCCCCCCCCCCCCC(=O)[O-]
REMARK SMILES IDX 16 1 17 2 18 3 19 4 20 5 21 6 22 7 23 8 24 9 25 10 26 11
REMARK SMILES IDX 27 12 28 13 29 14 30 15 31 16 32 17 15 18 14 19 13 20 12 21
REMARK SMILES IDX 11 22 10 23 9 24 8 25 7 26 6 27 5 28 4 29 3 30 2 31 1 32
REMARK H PARENT
REMARK Flexibility Score: inf
ROOT
ATOM      1  C   UNL     1      11.272  43.250 149.905  1.00  0.00     0.000 C 
ENDROOT
BRANCH   1   2
ATOM      2  C   UNL     1      12.309  42.110 149.986  1.00  0.00     0.000 C 
BRANCH   2   3
ATOM      3  C   UNL     1      11.711  40.694 150.105  1.00  0.00     0.000 C 
BRANCH   3   4
ATOM      4  C   UNL     1      11.793  40.128 151.531  1.00  0.00     0.000 C 
BRANCH   4   5
ATOM      5  C   UNL     1      10.418  40.145 152.212  1.00  0.00     0.000 C 
BRANCH   5   6
ATOM      6  C   UNL     1       9.362  39.472 151.326  1.00  0.00     0.000 C 
BRANCH   6   7
ATOM      7  C   UNL     1       8.066  40.294 151.288  1.00  0.00     0.000 C 
BRANCH   7   8
ATOM      8  C   UNL     1       8.328  41.803 151.488  1.00  0.00     0.000 C 
BRANCH   8   9
ATOM      9  C   UNL     1       7.450  42.444 152.579  1.00  0.00     0.000 C 
BRANCH   9  10
ATOM     10  C   UNL     1       7.118  41.521 153.764  1.00  0.00     0.000 C 
BRANCH  10  11
ATOM     11  C   UNL     1       5.822  41.920 154.488  1.00  0.00     0.000 C 
BRANCH  11  12
ATOM     12  C   UNL     1       4.863  40.722 154.588  1.00  0.00     0.000 C 
BRANCH  12  13
ATOM     13  C   UNL     1       4.754  39.934 153.274  1.00  0.00     0.006 C 
BRANCH  13  14
ATOM     14  C   UNL     1       3.367  39.305 153.071  1.00  0.00     0.053 C 
BRANCH  14  15
ATOM     15  C   UNL     1       2.905  38.621 154.318  1.00  0.00     0.041 C 
ATOM     16  O   UNL     1       1.802  38.933 154.845  1.00  0.00    -0.550 OA
ATOM     17  O   UNL     1       3.693  37.641 154.907  1.00  0.00    -0.550 OA
ENDBRANCH  14  15
ENDBRANCH  13  14
ENDBRANCH  12  13
ENDBRANCH  11  12
ENDBRANCH  10  11
ENDBRANCH   9  10
ENDBRANCH   8   9
ENDBRANCH   7   8
ENDBRANCH   6   7
ENDBRANCH   5   6
ENDBRANCH   4   5
ENDBRANCH   3   4
ENDBRANCH   2   3
ENDBRANCH   1   2
BRANCH   1  18
ATOM     18  C   UNL     1      11.483  44.387 150.930  1.00  0.00     0.000 C 
BRANCH  18  19
ATOM     19  C   UNL     1      11.115  43.988 152.370  1.00  0.00     0.000 C 
BRANCH  19  20
ATOM     20  C   UNL     1      12.357  43.692 153.236  1.00  0.00     0.000 C 
BRANCH  20  21
ATOM     21  C   UNL     1      12.015  42.875 154.495  1.00  0.00     0.000 C 
BRANCH  21  22
ATOM     22  C   UNL     1      10.499  42.676 154.705  1.00  0.00     0.000 C 
BRANCH  22  23
ATOM     23  C   UNL     1      10.138  42.433 156.182  1.00  0.00     0.000 C 
BRANCH  23  24
ATOM     24  C   UNL     1       9.021  43.366 156.679  1.00  0.00    -0.000 C 
BRANCH  24  25
ATOM     25  C   UNL     1       8.555  44.357 155.598  1.00  0.00    -0.000 C 
BRANCH  25  26
ATOM     26  C   UNL     1       8.945  45.809 155.921  1.00  0.00    -0.000 C 
BRANCH  26  27
ATOM     27  C   UNL     1       9.900  46.414 154.881  1.00  0.00    -0.000 C 
BRANCH  27  28
ATOM     28  C   UNL     1       9.210  47.522 154.076  1.00  0.00    -0.000 C 
BRANCH  28  29
ATOM     29  C   UNL     1       9.717  47.544 152.628  1.00  0.00    -0.000 C 
BRANCH  29  30
ATOM     30  C   UNL     1       8.667  47.050 151.618  1.00  0.00    -0.000 C 
BRANCH  30  31
ATOM     31  C   UNL     1       7.816  45.873 152.139  1.00  0.00    -0.003 C 
ATOM     32  C   UNL     1       6.335  46.026 151.784  1.00  0.00     0.004 C 
ENDBRANCH  30  31
ENDBRANCH  29  30
ENDBRANCH  28  29
ENDBRANCH  27  28
ENDBRANCH  26  27
ENDBRANCH  25  26
ENDBRANCH  24  25
ENDBRANCH  23  24
ENDBRANCH  22  23
ENDBRANCH  21  22
ENDBRANCH  20  21
ENDBRANCH  19  20
ENDBRANCH  18  19
ENDBRANCH   1  18
TORSDOF 28
ENDMDL
MODEL 3
REMARK VINA RESULT:    -2.881      3.131      6.731
REMARK INTER + INTRA:         -13.778
REMARK INTER:                  -8.424
REMARK INTRA:                  -5.353
REMARK UNBOUND:                -6.180
REMARK SMILES CCCCCCCCCCCCCCCCCCCCCCCCCCCCCC(=O)[O-]
REMARK SMILES IDX 16 1 17 2 18 3 19 4 20 5 21 6 22 7 23 8 24 9 25 10 26 11
REMARK SMILES IDX 27 12 28 13 29 14 30 15 31 16 32 17 15 18 14 19 13 20 12 21
REMARK SMILES IDX 11 22 10 23 9 24 8 25 7 26 6 27 5 28 4 29 3 30 2 31 1 32
REMARK H PARENT
REMARK Flexibility Score: inf
ROOT
ATOM      1  C   UNL     1      12.024  40.958 149.924  1.00  0.00     0.000 C 
ENDROOT
BRANCH   1   2
ATOM      2  C   UNL     1      12.136  42.399 150.465  1.00  0.00     0.000 C 
BRANCH   2   3
ATOM      3  C   UNL     1      12.025  42.530 151.997  1.00  0.00     0.000 C 
BRANCH   3   4
ATOM      4  C   UNL     1      11.689  43.958 152.453  1.00  0.00     0.000 C 
BRANCH   4   5
ATOM      5  C   UNL     1      10.979  43.951 153.813  1.00  0.00     0.000 C 
BRANCH   5   6
ATOM      6  C   UNL     1      11.286  42.661 154.583  1.00  0.00     0.000 C 
BRANCH   6   7
ATOM      7  C   UNL     1      10.205  42.373 155.633  1.00  0.00     0.000 C 
BRANCH   7   8
ATOM      8  C   UNL     1       9.395  43.637 155.996  1.00  0.00     0.000 C 
BRANCH   8   9
ATOM      9  C   UNL     1       7.902  43.361 156.259  1.00  0.00     0.000 C 
BRANCH   9  10
ATOM     10  C   UNL     1       6.947  44.463 155.768  1.00  0.00     0.000 C 
BRANCH  10  11
ATOM     11  C   UNL     1       7.666  45.572 154.982  1.00  0.00     0.000 C 
BRANCH  11  12
ATOM     12  C   UNL     1       7.594  46.908 155.737  1.00  0.00     0.000 C 
BRANCH  12  13
ATOM     13  C   UNL     1       8.978  47.527 155.990  1.00  0.00     0.006 C 
BRANCH  13  14
ATOM     14  C   UNL     1      10.019  47.107 154.942  1.00  0.00     0.053 C 
BRANCH  14  15
ATOM     15  C   UNL     1       9.925  47.969 153.723  1.00  0.00     0.041 C 
ATOM     16  O   UNL     1       9.876  47.448 152.576  1.00  0.00    -0.550 OA
ATOM     17  O   UNL     1       9.898  49.352 153.850  1.00  0.00    -0.550 OA
ENDBRANCH  14  15
ENDBRANCH  13  14
ENDBRANCH  12  13
ENDBRANCH  11  12
ENDBRANCH  10  11
ENDBRANCH   9  10
ENDBRANCH   8   9
ENDBRANCH   7   8
ENDBRANCH   6   7
ENDBRANCH   5   6
ENDBRANCH   4   5
ENDBRANCH   3   4
ENDBRANCH   2   3
ENDBRANCH   1   2
BRANCH   1  18
ATOM     18  C   UNL     1      11.940  39.865 151.012  1.00  0.00     0.000 C 
BRANCH  18  19
ATOM     19  C   UNL     1      10.698  38.965 150.880  1.00  0.00     0.000 C 
BRANCH  19  20
ATOM     20  C   UNL     1       9.389  39.715 151.202  1.00  0.00     0.000 C 
BRANCH  20  21
ATOM     21  C   UNL     1       9.330  40.194 152.665  1.00  0.00     0.000 C 
BRANCH  21  22
ATOM     22  C   UNL     1       8.073  41.030 152.986  1.00  0.00     0.000 C 
BRANCH  22  23
ATOM     23  C   UNL     1       8.083  42.400 152.282  1.00  0.00     0.000 C 
BRANCH  23  24
ATOM     24  C   UNL     1       6.782  42.677 151.511  1.00  0.00    -0.000 C 
BRANCH  24  25
ATOM     25  C   UNL     1       5.692  43.303 152.399  1.00  0.00    -0.000 C 
BRANCH  25  26
ATOM     26  C   UNL     1       4.674  42.267 152.902  1.00  0.00    -0.000 C 
BRANCH  26  27
ATOM     27  C   UNL     1       4.405  42.381 154.410  1.00  0.00    -0.000 C 
BRANCH  27  28
ATOM     28  C   UNL     1       4.915  41.144 155.158  1.00  0.00    -0.000 C 
BRANCH  28  29
ATOM     29  C   UNL     1       4.899  39.908 154.248  1.00  0.00    -0.000 C 
BRANCH  29  30
ATOM     30  C   UNL     1       4.099  38.736 154.844  1.00  0.00    -0.000 C 
BRANCH  30  31
ATOM     31  C   UNL     1       2.903  38.300 153.972  1.00  0.00    -0.003 C 
ATOM     32  C   UNL     1       1.883  39.424 153.782  1.00  0.00     0.004 C 
ENDBRANCH  30  31
ENDBRANCH  29  30
ENDBRANCH  28  29
ENDBRANCH  27  28
ENDBRANCH  26  27
ENDBRANCH  25  26
ENDBRANCH  24  25
ENDBRANCH  23  24
ENDBRANCH  22  23
ENDBRANCH  21  22
ENDBRANCH  20  21
ENDBRANCH  19  20
ENDBRANCH  18  19
ENDBRANCH   1  18
TORSDOF 28
ENDMDL
MODEL 4
REMARK VINA RESULT:    -2.865      3.225      6.931
REMARK INTER + INTRA:         -13.734
REMARK INTER:                  -8.335
REMARK INTRA:                  -5.398
REMARK UNBOUND:                -6.180
REMARK SMILES CCCCCCCCCCCCCCCCCCCCCCCCCCCCCC(=O)[O-]
REMARK SMILES IDX 16 1 17 2 18 3 19 4 20 5 21 6 22 7 23 8 24 9 25 10 26 11
REMARK SMILES IDX 27 12 28 13 29 14 30 15 31 16 32 17 15 18 14 19 13 20 12 21
REMARK SMILES IDX 11 22 10 23 9 24 8 25 7 26 6 27 5 28 4 29 3 30 2 31 1 32
REMARK H PARENT
REMARK Flexibility Score: inf
ROOT
ATOM      1  C   UNL     1      11.849  43.572 151.772  1.00  0.00     0.000 C 
ENDROOT
BRANCH   1   2
ATOM      2  C   UNL     1      12.459  42.767 150.606  1.00  0.00     0.000 C 
BRANCH   2   3
ATOM      3  C   UNL     1      11.795  41.402 150.339  1.00  0.00     0.000 C 
BRANCH   3   4
ATOM      4  C   UNL     1      11.803  40.482 151.570  1.00  0.00     0.000 C 
BRANCH   4   5
ATOM      5  C   UNL     1      10.473  39.729 151.705  1.00  0.00     0.000 C 
BRANCH   5   6
ATOM      6  C   UNL     1       9.747  40.131 152.995  1.00  0.00     0.000 C 
BRANCH   6   7
ATOM      7  C   UNL     1       8.327  40.634 152.696  1.00  0.00     0.000 C 
BRANCH   7   8
ATOM      8  C   UNL     1       8.114  40.918 151.193  1.00  0.00     0.000 C 
BRANCH   8   9
ATOM      9  C   UNL     1       8.170  42.414 150.831  1.00  0.00     0.000 C 
BRANCH   9  10
ATOM     10  C   UNL     1       8.015  43.372 152.025  1.00  0.00     0.000 C 
BRANCH  10  11
ATOM     11  C   UNL     1       8.393  44.822 151.682  1.00  0.00     0.000 C 
BRANCH  11  12
ATOM     12  C   UNL     1       8.488  45.676 152.956  1.00  0.00     0.000 C 
BRANCH  12  13
ATOM     13  C   UNL     1       9.853  46.361 153.116  1.00  0.00     0.006 C 
BRANCH  13  14
ATOM     14  C   UNL     1      10.141  46.786 154.564  1.00  0.00     0.053 C 
BRANCH  14  15
ATOM     15  C   UNL     1       9.864  48.243 154.756  1.00  0.00     0.041 C 
ATOM     16  O   UNL     1       9.660  48.990 153.761  1.00  0.00    -0.550 OA
ATOM     17  O   UNL     1       9.836  48.783 156.036  1.00  0.00    -0.550 OA
ENDBRANCH  14  15
ENDBRANCH  13  14
ENDBRANCH  12  13
ENDBRANCH  11  12
ENDBRANCH  10  11
ENDBRANCH   9  10
ENDBRANCH   8   9
ENDBRANCH   7   8
ENDBRANCH   6   7
ENDBRANCH   5   6
ENDBRANCH   4   5
ENDBRANCH   3   4
ENDBRANCH   2   3
ENDBRANCH   1   2
BRANCH   1  18
ATOM     18  C   UNL     1      12.791  43.774 152.979  1.00  0.00     0.000 C 
BRANCH  18  19
ATOM     19  C   UNL     1      12.291  43.092 154.266  1.00  0.00     0.000 C 
BRANCH  19  20
ATOM     20  C   UNL     1      10.752  42.997 154.323  1.00  0.00     0.000 C 
BRANCH  20  21
ATOM     21  C   UNL     1      10.235  42.664 155.735  1.00  0.00     0.000 C 
BRANCH  21  22
ATOM     22  C   UNL     1       9.069  43.566 156.189  1.00  0.00     0.000 C 
BRANCH  22  23
ATOM     23  C   UNL     1       7.703  43.055 155.691  1.00  0.00     0.000 C 
BRANCH  23  24
ATOM     24  C   UNL     1       6.551  44.011 156.041  1.00  0.00    -0.000 C 
BRANCH  24  25
ATOM     25  C   UNL     1       5.290  43.747 155.200  1.00  0.00    -0.000 C 
BRANCH  25  26
ATOM     26  C   UNL     1       5.441  42.527 154.276  1.00  0.00    -0.000 C 
BRANCH  26  27
ATOM     27  C   UNL     1       4.557  41.345 154.702  1.00  0.00    -0.000 C 
BRANCH  27  28
ATOM     28  C   UNL     1       3.568  40.968 153.592  1.00  0.00    -0.000 C 
BRANCH  28  29
ATOM     29  C   UNL     1       3.626  39.463 153.294  1.00  0.00    -0.000 C 
BRANCH  29  30
ATOM     30  C   UNL     1       2.856  38.619 154.324  1.00  0.00    -0.000 C 
BRANCH  30  31
ATOM     31  C   UNL     1       3.769  37.746 155.211  1.00  0.00    -0.003 C 
ATOM     32  C   UNL     1       3.140  37.449 156.574  1.00  0.00     0.004 C 
ENDBRANCH  30  31
ENDBRANCH  29  30
ENDBRANCH  28  29
ENDBRANCH  27  28
ENDBRANCH  26  27
ENDBRANCH  25  26
ENDBRANCH  24  25
ENDBRANCH  23  24
ENDBRANCH  22  23
ENDBRANCH  21  22
ENDBRANCH  20  21
ENDBRANCH  19  20
ENDBRANCH  18  19
ENDBRANCH   1  18
TORSDOF 28
ENDMDL
MODEL 5
REMARK VINA RESULT:    -2.862      3.183      6.791
REMARK INTER + INTRA:         -13.727
REMARK INTER:                  -7.049
REMARK INTRA:                  -6.677
REMARK UNBOUND:                -6.180
REMARK SMILES CCCCCCCCCCCCCCCCCCCCCCCCCCCCCC(=O)[O-]
REMARK SMILES IDX 16 1 17 2 18 3 19 4 20 5 21 6 22 7 23 8 24 9 25 10 26 11
REMARK SMILES IDX 27 12 28 13 29 14 30 15 31 16 32 17 15 18 14 19 13 20 12 21
REMARK SMILES IDX 11 22 10 23 9 24 8 25 7 26 6 27 5 28 4 29 3 30 2 31 1 32
REMARK H PARENT
REMARK Flexibility Score: inf
ROOT
ATOM      1  C   UNL     1      11.427  42.818 154.528  1.00  0.00     0.000 C 
ENDROOT
BRANCH   1   2
ATOM      2  C   UNL     1      11.089  44.079 153.705  1.00  0.00     0.000 C 
BRANCH   2   3
ATOM      3  C   UNL     1      11.494  44.014 152.220  1.00  0.00     0.000 C 
BRANCH   3   4
ATOM      4  C   UNL     1      12.426  42.833 151.904  1.00  0.00     0.000 C 
BRANCH   4   5
ATOM      5  C   UNL     1      12.411  42.503 150.406  1.00  0.00     0.000 C 
BRANCH   5   6
ATOM      6  C   UNL     1      11.957  41.058 150.170  1.00  0.00     0.000 C 
BRANCH   6   7
ATOM      7  C   UNL     1      11.728  40.326 151.500  1.00  0.00     0.000 C 
BRANCH   7   8
ATOM      8  C   UNL     1      10.295  39.761 151.613  1.00  0.00     0.000 C 
BRANCH   8   9
ATOM      9  C   UNL     1       9.610  40.075 152.957  1.00  0.00     0.000 C 
BRANCH   9  10
ATOM     10  C   UNL     1       8.389  41.006 152.856  1.00  0.00     0.000 C 
BRANCH  10  11
ATOM     11  C   UNL     1       8.563  42.110 151.800  1.00  0.00     0.000 C 
BRANCH  11  12
ATOM     12  C   UNL     1       7.399  42.092 150.797  1.00  0.00     0.000 C 
BRANCH  12  13
ATOM     13  C   UNL     1       7.561  43.129 149.675  1.00  0.00     0.006 C 
BRANCH  13  14
ATOM     14  C   UNL     1       9.024  43.326 149.252  1.00  0.00     0.053 C 
BRANCH  14  15
ATOM     15  C   UNL     1       9.242  44.707 148.717  1.00  0.00     0.041 C 
ATOM     16  O   UNL     1       8.544  45.136 147.758  1.00  0.00    -0.550 OA
ATOM     17  O   UNL     1      10.221  45.521 149.271  1.00  0.00    -0.550 OA
ENDBRANCH  14  15
ENDBRANCH  13  14
ENDBRANCH  12  13
ENDBRANCH  11  12
ENDBRANCH  10  11
ENDBRANCH   9  10
ENDBRANCH   8   9
ENDBRANCH   7   8
ENDBRANCH   6   7
ENDBRANCH   5   6
ENDBRANCH   4   5
ENDBRANCH   3   4
ENDBRANCH   2   3
ENDBRANCH   1   2
BRANCH   1  18
ATOM     18  C   UNL     1      10.377  42.446 155.599  1.00  0.00     0.000 C 
BRANCH  18  19
ATOM     19  C   UNL     1       9.153  43.380 155.605  1.00  0.00     0.000 C 
BRANCH  19  20
ATOM     20  C   UNL     1       8.476  43.455 156.989  1.00  0.00     0.000 C 
BRANCH  20  21
ATOM     21  C   UNL     1       6.939  43.429 156.894  1.00  0.00     0.000 C 
BRANCH  21  22
ATOM     22  C   UNL     1       6.418  42.966 155.517  1.00  0.00     0.000 C 
BRANCH  22  23
ATOM     23  C   UNL     1       5.634  44.071 154.784  1.00  0.00     0.000 C 
BRANCH  23  24
ATOM     24  C   UNL     1       6.248  44.427 153.420  1.00  0.00    -0.000 C 
BRANCH  24  25
ATOM     25  C   UNL     1       7.180  45.649 153.493  1.00  0.00    -0.000 C 
BRANCH  25  26
ATOM     26  C   UNL     1       8.093  45.769 152.261  1.00  0.00    -0.000 C 
BRANCH  26  27
ATOM     27  C   UNL     1       7.914  47.099 151.515  1.00  0.00    -0.000 C 
BRANCH  27  28
ATOM     28  C   UNL     1       7.392  48.193 152.455  1.00  0.00    -0.000 C 
BRANCH  28  29
ATOM     29  C   UNL     1       8.502  49.197 152.798  1.00  0.00    -0.000 C 
BRANCH  29  30
ATOM     30  C   UNL     1       8.945  49.120 154.269  1.00  0.00    -0.000 C 
BRANCH  30  31
ATOM     31  C   UNL     1      10.065  48.089 154.523  1.00  0.00    -0.003 C 
ATOM     32  C   UNL     1       9.712  47.115 155.649  1.00  0.00     0.004 C 
ENDBRANCH  30  31
ENDBRANCH  29  30
ENDBRANCH  28  29
ENDBRANCH  27  28
ENDBRANCH  26  27
ENDBRANCH  25  26
ENDBRANCH  24  25
ENDBRANCH  23  24
ENDBRANCH  22  23
ENDBRANCH  21  22
ENDBRANCH  20  21
ENDBRANCH  19  20
ENDBRANCH  18  19
ENDBRANCH   1  18
TORSDOF 28
ENDMDL
MODEL 6
REMARK VINA RESULT:    -2.849      2.632      4.901
REMARK INTER + INTRA:         -13.691
REMARK INTER:                  -7.759
REMARK INTRA:                  -5.933
REMARK UNBOUND:                -6.180
REMARK SMILES CCCCCCCCCCCCCCCCCCCCCCCCCCCCCC(=O)[O-]
REMARK SMILES IDX 16 1 17 2 18 3 19 4 20 5 21 6 22 7 23 8 24 9 25 10 26 11
REMARK SMILES IDX 27 12 28 13 29 14 30 15 31 16 32 17 15 18 14 19 13 20 12 21
REMARK SMILES IDX 11 22 10 23 9 24 8 25 7 26 6 27 5 28 4 29 3 30 2 31 1 32
REMARK H PARENT
REMARK Flexibility Score: inf
ROOT
ATOM      1  C   UNL     1      12.047  42.772 154.363  1.00  0.00     0.000 C 
ENDROOT
BRANCH   1   2
ATOM      2  C   UNL     1      10.562  43.171 154.489  1.00  0.00     0.000 C 
BRANCH   2   3
ATOM      3  C   UNL     1       9.776  42.420 155.582  1.00  0.00     0.000 C 
BRANCH   3   4
ATOM      4  C   UNL     1       8.506  43.163 156.024  1.00  0.00     0.000 C 
BRANCH   4   5
ATOM      5  C   UNL     1       8.854  44.459 156.767  1.00  0.00     0.000 C 
BRANCH   5   6
ATOM      6  C   UNL     1       8.254  45.676 156.052  1.00  0.00     0.000 C 
BRANCH   6   7
ATOM      7  C   UNL     1       9.277  46.817 155.949  1.00  0.00     0.000 C 
BRANCH   7   8
ATOM      8  C   UNL     1      10.096  46.747 154.642  1.00  0.00     0.000 C 
BRANCH   8   9
ATOM      9  C   UNL     1       9.842  47.928 153.687  1.00  0.00     0.000 C 
BRANCH   9  10
ATOM     10  C   UNL     1       8.360  48.296 153.498  1.00  0.00     0.000 C 
BRANCH  10  11
ATOM     11  C   UNL     1       7.687  47.506 152.363  1.00  0.00     0.000 C 
BRANCH  11  12
ATOM     12  C   UNL     1       6.692  46.480 152.930  1.00  0.00     0.000 C 
BRANCH  12  13
ATOM     13  C   UNL     1       6.935  45.057 152.403  1.00  0.00     0.006 C 
BRANCH  13  14
ATOM     14  C   UNL     1       8.402  44.805 152.022  1.00  0.00     0.053 C 
BRANCH  14  15
ATOM     15  C   UNL     1       8.545  44.635 150.543  1.00  0.00     0.041 C 
ATOM     16  O   UNL     1       7.861  43.771 149.931  1.00  0.00    -0.550 OA
ATOM     17  O   UNL     1       9.441  45.427 149.836  1.00  0.00    -0.550 OA
ENDBRANCH  14  15
ENDBRANCH  13  14
ENDBRANCH  12  13
ENDBRANCH  11  12
ENDBRANCH  10  11
ENDBRANCH   9  10
ENDBRANCH   8   9
ENDBRANCH   7   8
ENDBRANCH   6   7
ENDBRANCH   5   6
ENDBRANCH   4   5
ENDBRANCH   3   4
ENDBRANCH   2   3
ENDBRANCH   1   2
BRANCH   1  18
ATOM     18  C   UNL     1      12.821  43.511 153.249  1.00  0.00     0.000 C 
BRANCH  18  19
ATOM     19  C   UNL     1      11.944  43.885 152.041  1.00  0.00     0.000 C 
BRANCH  19  20
ATOM     20  C   UNL     1      12.697  43.751 150.701  1.00  0.00     0.000 C 
BRANCH  20  21
ATOM     21  C   UNL     1      11.912  42.924 149.665  1.00  0.00     0.000 C 
BRANCH  21  22
ATOM     22  C   UNL     1      12.516  41.527 149.413  1.00  0.00     0.000 C 
BRANCH  22  23
ATOM     23  C   UNL     1      11.645  40.397 149.994  1.00  0.00     0.000 C 
BRANCH  23  24
ATOM     24  C   UNL     1      11.853  40.209 151.506  1.00  0.00    -0.000 C 
BRANCH  24  25
ATOM     25  C   UNL     1      10.525  40.126 152.279  1.00  0.00    -0.000 C 
BRANCH  25  26
ATOM     26  C   UNL     1       9.453  41.072 151.712  1.00  0.00    -0.000 C 
BRANCH  26  27
ATOM     27  C   UNL     1       8.026  40.644 152.084  1.00  0.00    -0.000 C 
BRANCH  27  28
ATOM     28  C   UNL     1       7.351  39.903 150.924  1.00  0.00    -0.000 C 
BRANCH  28  29
ATOM     29  C   UNL     1       7.993  40.285 149.583  1.00  0.00    -0.000 C 
BRANCH  29  30
ATOM     30  C   UNL     1       8.473  39.064 148.779  1.00  0.00    -0.000 C 
BRANCH  30  31
ATOM     31  C   UNL     1       8.893  37.871 149.663  1.00  0.00    -0.003 C 
ATOM     32  C   UNL     1       8.135  36.591 149.308  1.00  0.00     0.004 C 
ENDBRANCH  30  31
ENDBRANCH  29  30
ENDBRANCH  28  29
ENDBRANCH  27  28
ENDBRANCH  26  27
ENDBRANCH  25  26
ENDBRANCH  24  25
ENDBRANCH  23  24
ENDBRANCH  22  23
ENDBRANCH  21  22
ENDBRANCH  20  21
ENDBRANCH  19  20
ENDBRANCH  18  19
ENDBRANCH   1  18
TORSDOF 28
ENDMDL
MODEL 7
REMARK VINA RESULT:    -2.835      2.989      5.943
REMARK INTER + INTRA:         -13.657
REMARK INTER:                  -7.096
REMARK INTRA:                  -6.560
REMARK UNBOUND:                -6.180
REMARK SMILES CCCCCCCCCCCCCCCCCCCCCCCCCCCCCC(=O)[O-]
REMARK SMILES IDX 16 1 17 2 18 3 19 4 20 5 21 6 22 7 23 8 24 9 25 10 26 11
REMARK SMILES IDX 27 12 28 13 29 14 30 15 31 16 32 17 15 18 14 19 13 20 12 21
REMARK SMILES IDX 11 22 10 23 9 24 8 25 7 26 6 27 5 28 4 29 3 30 2 31 1 32
REMARK H PARENT
REMARK Flexibility Score: inf
ROOT
ATOM      1  C   UNL     1      10.761  43.981 153.862  1.00  0.00     0.000 C 
ENDROOT
BRANCH   1   2
ATOM      2  C   UNL     1      11.100  42.777 154.765  1.00  0.00     0.000 C 
BRANCH   2   3
ATOM      3  C   UNL     1      10.027  42.430 155.816  1.00  0.00     0.000 C 
BRANCH   3   4
ATOM      4  C   UNL     1       8.941  43.510 155.943  1.00  0.00     0.000 C 
BRANCH   4   5
ATOM      5  C   UNL     1       7.544  42.919 155.716  1.00  0.00     0.000 C 
BRANCH   5   6
ATOM      6  C   UNL     1       6.548  44.012 155.311  1.00  0.00     0.000 C 
BRANCH   6   7
ATOM      7  C   UNL     1       5.976  43.748 153.910  1.00  0.00     0.000 C 
BRANCH   7   8
ATOM      8  C   UNL     1       6.351  44.864 152.910  1.00  0.00     0.000 C 
BRANCH   8   9
ATOM      9  C   UNL     1       7.588  45.680 153.327  1.00  0.00     0.000 C 
BRANCH   9  10
ATOM     10  C   UNL     1       7.954  46.829 152.373  1.00  0.00     0.000 C 
BRANCH  10  11
ATOM     11  C   UNL     1       9.450  47.183 152.407  1.00  0.00     0.000 C 
BRANCH  11  12
ATOM     12  C   UNL     1       9.742  48.205 153.518  1.00  0.00     0.000 C 
BRANCH  12  13
ATOM     13  C   UNL     1      10.119  47.545 154.853  1.00  0.00     0.006 C 
BRANCH  13  14
ATOM     14  C   UNL     1       9.581  48.313 156.070  1.00  0.00     0.053 C 
BRANCH  14  15
ATOM     15  C   UNL     1       8.089  48.227 156.137  1.00  0.00     0.041 C 
ATOM     16  O   UNL     1       7.529  47.160 156.509  1.00  0.00    -0.550 OA
ATOM     17  O   UNL     1       7.313  49.322 155.783  1.00  0.00    -0.550 OA
ENDBRANCH  14  15
ENDBRANCH  13  14
ENDBRANCH  12  13
ENDBRANCH  11  12
ENDBRANCH  10  11
ENDBRANCH   9  10
ENDBRANCH   8   9
ENDBRANCH   7   8
ENDBRANCH   6   7
ENDBRANCH   5   6
ENDBRANCH   4   5
ENDBRANCH   3   4
ENDBRANCH   2   3
ENDBRANCH   1   2
BRANCH   1  18
ATOM     18  C   UNL     1      11.566  44.046 152.545  1.00  0.00     0.000 C 
BRANCH  18  19
ATOM     19  C   UNL     1      12.254  42.718 152.184  1.00  0.00     0.000 C 
BRANCH  19  20
ATOM     20  C   UNL     1      12.271  42.456 150.663  1.00  0.00     0.000 C 
BRANCH  20  21
ATOM     21  C   UNL     1      12.049  40.971 150.319  1.00  0.00     0.000 C 
BRANCH  21  22
ATOM     22  C   UNL     1      11.707  40.102 151.547  1.00  0.00     0.000 C 
BRANCH  22  23
ATOM     23  C   UNL     1      10.217  39.712 151.594  1.00  0.00     0.000 C 
BRANCH  23  24
ATOM     24  C   UNL     1       9.526  40.168 152.890  1.00  0.00    -0.000 C 
BRANCH  24  25
ATOM     25  C   UNL     1       8.407  41.192 152.632  1.00  0.00    -0.000 C 
BRANCH  25  26
ATOM     26  C   UNL     1       8.241  41.521 151.139  1.00  0.00    -0.000 C 
BRANCH  26  27
ATOM     27  C   UNL     1       8.624  42.970 150.804  1.00  0.00    -0.000 C 
BRANCH  27  28
ATOM     28  C   UNL     1       7.684  43.560 149.746  1.00  0.00    -0.000 C 
BRANCH  28  29
ATOM     29  C   UNL     1       8.359  44.718 148.998  1.00  0.00    -0.000 C 
BRANCH  29  30
ATOM     30  C   UNL     1       9.736  45.084 149.577  1.00  0.00    -0.000 C 
BRANCH  30  31
ATOM     31  C   UNL     1      10.866  45.089 148.525  1.00  0.00    -0.003 C 
ATOM     32  C   UNL     1      11.937  46.137 148.831  1.00  0.00     0.004 C 
ENDBRANCH  30  31
ENDBRANCH  29  30
ENDBRANCH  28  29
ENDBRANCH  27  28
ENDBRANCH  26  27
ENDBRANCH  25  26
ENDBRANCH  24  25
ENDBRANCH  23  24
ENDBRANCH  22  23
ENDBRANCH  21  22
ENDBRANCH  20  21
ENDBRANCH  19  20
ENDBRANCH  18  19
ENDBRANCH   1  18
TORSDOF 28
ENDMDL
MODEL 8
REMARK VINA RESULT:    -2.806      1.419      3.689
REMARK INTER + INTRA:         -13.580
REMARK INTER:                  -7.078
REMARK INTRA:                  -6.501
REMARK UNBOUND:                -6.180
REMARK SMILES CCCCCCCCCCCCCCCCCCCCCCCCCCCCCC(=O)[O-]
REMARK SMILES IDX 16 1 17 2 18 3 19 4 20 5 21 6 22 7 23 8 24 9 25 10 26 11
REMARK SMILES IDX 27 12 28 13 29 14 30 15 31 16 32 17 15 18 14 19 13 20 12 21
REMARK SMILES IDX 11 22 10 23 9 24 8 25 7 26 6 27 5 28 4 29 3 30 2 31 1 32
REMARK H PARENT
REMARK Flexibility Score: inf
ROOT
ATOM      1  C   UNL     1      10.005  42.715 154.765  1.00  0.00     0.000 C 
ENDROOT
BRANCH   1   2
ATOM      2  C   UNL     1       9.342  43.018 156.125  1.00  0.00     0.000 C 
BRANCH   2   3
ATOM      3  C   UNL     1       7.849  43.393 156.051  1.00  0.00     0.000 C 
BRANCH   3   4
ATOM      4  C   UNL     1       7.541  44.756 156.689  1.00  0.00     0.000 C 
BRANCH   4   5
ATOM      5  C   UNL     1       8.818  45.593 156.847  1.00  0.00     0.000 C 
BRANCH   5   6
ATOM      6  C   UNL     1       8.582  47.039 156.395  1.00  0.00     0.000 C 
BRANCH   6   7
ATOM      7  C   UNL     1       9.742  47.543 155.525  1.00  0.00     0.000 C 
BRANCH   7   8
ATOM      8  C   UNL     1      10.152  46.514 154.449  1.00  0.00     0.000 C 
BRANCH   8   9
ATOM      9  C   UNL     1       9.302  46.588 153.167  1.00  0.00     0.000 C 
BRANCH   9  10
ATOM     10  C   UNL     1       8.415  45.357 152.911  1.00  0.00     0.000 C 
BRANCH  10  11
ATOM     11  C   UNL     1       6.913  45.680 152.967  1.00  0.00     0.000 C 
BRANCH  11  12
ATOM     12  C   UNL     1       6.085  44.521 152.390  1.00  0.00     0.000 C 
BRANCH  12  13
ATOM     13  C   UNL     1       6.669  43.141 152.731  1.00  0.00     0.006 C 
BRANCH  13  14
ATOM     14  C   UNL     1       5.661  42.000 152.524  1.00  0.00     0.053 C 
BRANCH  14  15
ATOM     15  C   UNL     1       5.826  40.947 153.574  1.00  0.00     0.041 C 
ATOM     16  O   UNL     1       4.913  40.741 154.419  1.00  0.00    -0.550 OA
ATOM     17  O   UNL     1       6.993  40.195 153.627  1.00  0.00    -0.550 OA
ENDBRANCH  14  15
ENDBRANCH  13  14
ENDBRANCH  12  13
ENDBRANCH  11  12
ENDBRANCH  10  11
ENDBRANCH   9  10
ENDBRANCH   8   9
ENDBRANCH   7   8
ENDBRANCH   6   7
ENDBRANCH   5   6
ENDBRANCH   4   5
ENDBRANCH   3   4
ENDBRANCH   2   3
ENDBRANCH   1   2
BRANCH   1  18
ATOM     18  C   UNL     1      11.550  42.681 154.794  1.00  0.00     0.000 C 
BRANCH  18  19
ATOM     19  C   UNL     1      12.201  43.611 153.755  1.00  0.00     0.000 C 
BRANCH  19  20
ATOM     20  C   UNL     1      11.505  43.539 152.379  1.00  0.00     0.000 C 
BRANCH  20  21
ATOM     21  C   UNL     1      12.508  43.420 151.218  1.00  0.00     0.000 C 
BRANCH  21  22
ATOM     22  C   UNL     1      12.403  42.085 150.451  1.00  0.00     0.000 C 
BRANCH  22  23
ATOM     23  C   UNL     1      12.014  40.910 151.369  1.00  0.00     0.000 C 
BRANCH  23  24
ATOM     24  C   UNL     1      11.802  39.599 150.593  1.00  0.00    -0.000 C 
BRANCH  24  25
ATOM     25  C   UNL     1      10.387  39.025 150.781  1.00  0.00    -0.000 C 
BRANCH  25  26
ATOM     26  C   UNL     1       9.386  40.076 151.289  1.00  0.00    -0.000 C 
BRANCH  26  27
ATOM     27  C   UNL     1       8.295  40.405 150.259  1.00  0.00    -0.000 C 
BRANCH  27  28
ATOM     28  C   UNL     1       8.728  41.557 149.344  1.00  0.00    -0.000 C 
BRANCH  28  29
ATOM     29  C   UNL     1       8.894  42.857 150.142  1.00  0.00    -0.000 C 
BRANCH  29  30
ATOM     30  C   UNL     1       8.657  44.117 149.290  1.00  0.00    -0.000 C 
BRANCH  30  31
ATOM     31  C   UNL     1       9.960  44.806 148.834  1.00  0.00    -0.003 C 
ATOM     32  C   UNL     1      10.327  45.998 149.721  1.00  0.00     0.004 C 
ENDBRANCH  30  31
ENDBRANCH  29  30
ENDBRANCH  28  29
ENDBRANCH  27  28
ENDBRANCH  26  27
ENDBRANCH  25  26
ENDBRANCH  24  25
ENDBRANCH  23  24
ENDBRANCH  22  23
ENDBRANCH  21  22
ENDBRANCH  20  21
ENDBRANCH  19  20
ENDBRANCH  18  19
ENDBRANCH   1  18
TORSDOF 28
ENDMDL
MODEL 9
REMARK VINA RESULT:    -2.783      2.057      4.394
REMARK INTER + INTRA:         -13.519
REMARK INTER:                  -6.881
REMARK INTRA:                  -6.638
REMARK UNBOUND:                -6.180
REMARK SMILES CCCCCCCCCCCCCCCCCCCCCCCCCCCCCC(=O)[O-]
REMARK SMILES IDX 16 1 17 2 18 3 19 4 20 5 21 6 22 7 23 8 24 9 25 10 26 11
REMARK SMILES IDX 27 12 28 13 29 14 30 15 31 16 32 17 15 18 14 19 13 20 12 21
REMARK SMILES IDX 11 22 10 23 9 24 8 25 7 26 6 27 5 28 4 29 3 30 2 31 1 32
REMARK H PARENT
REMARK Flexibility Score: inf
ROOT
ATOM      1  C   UNL     1       6.055  43.594 154.074  1.00  0.00     0.000 C 
ENDROOT
BRANCH   1   2
ATOM      2  C   UNL     1       6.580  44.527 155.186  1.00  0.00     0.000 C 
BRANCH   2   3
ATOM      3  C   UNL     1       7.432  43.834 156.268  1.00  0.00     0.000 C 
BRANCH   3   4
ATOM      4  C   UNL     1       8.669  44.651 156.670  1.00  0.00     0.000 C 
BRANCH   4   5
ATOM      5  C   UNL     1       8.345  46.149 156.734  1.00  0.00     0.000 C 
BRANCH   5   6
ATOM      6  C   UNL     1       9.447  46.975 156.059  1.00  0.00     0.000 C 
BRANCH   6   7
ATOM      7  C   UNL     1       9.900  46.325 154.745  1.00  0.00     0.000 C 
BRANCH   7   8
ATOM      8  C   UNL     1       9.830  47.307 153.555  1.00  0.00     0.000 C 
BRANCH   8   9
ATOM      9  C   UNL     1       9.622  46.617 152.194  1.00  0.00     0.000 C 
BRANCH   9  10
ATOM     10  C   UNL     1       8.852  45.287 152.257  1.00  0.00     0.000 C 
BRANCH  10  11
ATOM     11  C   UNL     1       8.849  44.533 150.917  1.00  0.00     0.000 C 
BRANCH  11  12
ATOM     12  C   UNL     1       7.678  43.540 150.854  1.00  0.00     0.000 C 
BRANCH  12  13
ATOM     13  C   UNL     1       7.763  42.590 149.649  1.00  0.00     0.006 C 
BRANCH  13  14
ATOM     14  C   UNL     1       6.524  41.693 149.509  1.00  0.00     0.053 C 
BRANCH  14  15
ATOM     15  C   UNL     1       5.277  42.516 149.431  1.00  0.00     0.041 C 
ATOM     16  O   UNL     1       5.083  43.288 148.453  1.00  0.00    -0.550 OA
ATOM     17  O   UNL     1       4.328  42.438 150.442  1.00  0.00    -0.550 OA
ENDBRANCH  14  15
ENDBRANCH  13  14
ENDBRANCH  12  13
ENDBRANCH  11  12
ENDBRANCH  10  11
ENDBRANCH   9  10
ENDBRANCH   8   9
ENDBRANCH   7   8
ENDBRANCH   6   7
ENDBRANCH   5   6
ENDBRANCH   4   5
ENDBRANCH   3   4
ENDBRANCH   2   3
ENDBRANCH   1   2
BRANCH   1  18
ATOM     18  C   UNL     1       6.056  42.093 154.437  1.00  0.00     0.000 C 
BRANCH  18  19
ATOM     19  C   UNL     1       6.161  41.168 153.211  1.00  0.00     0.000 C 
BRANCH  19  20
ATOM     20  C   UNL     1       7.274  40.110 153.364  1.00  0.00     0.000 C 
BRANCH  20  21
ATOM     21  C   UNL     1       8.540  40.469 152.564  1.00  0.00     0.000 C 
BRANCH  21  22
ATOM     22  C   UNL     1       9.749  40.821 153.456  1.00  0.00     0.000 C 
BRANCH  22  23
ATOM     23  C   UNL     1       9.735  42.293 153.910  1.00  0.00     0.000 C 
BRANCH  23  24
ATOM     24  C   UNL     1      11.021  42.696 154.650  1.00  0.00    -0.000 C 
BRANCH  24  25
ATOM     25  C   UNL     1      12.244  42.756 153.719  1.00  0.00    -0.000 C 
BRANCH  25  26
ATOM     26  C   UNL     1      12.212  43.974 152.781  1.00  0.00    -0.000 C 
BRANCH  26  27
ATOM     27  C   UNL     1      12.465  43.601 151.312  1.00  0.00    -0.000 C 
BRANCH  27  28
ATOM     28  C   UNL     1      12.328  42.089 151.095  1.00  0.00    -0.000 C 
BRANCH  28  29
ATOM     29  C   UNL     1      11.280  41.783 150.016  1.00  0.00    -0.000 C 
BRANCH  29  30
ATOM     30  C   UNL     1      11.031  40.276 149.833  1.00  0.00    -0.000 C 
BRANCH  30  31
ATOM     31  C   UNL     1      11.931  39.391 150.721  1.00  0.00    -0.003 C 
ATOM     32  C   UNL     1      12.742  38.384 149.902  1.00  0.00     0.004 C 
ENDBRANCH  30  31
ENDBRANCH  29  30
ENDBRANCH  28  29
ENDBRANCH  27  28
ENDBRANCH  26  27
ENDBRANCH  25  26
ENDBRANCH  24  25
ENDBRANCH  23  24
ENDBRANCH  22  23
ENDBRANCH  21  22
ENDBRANCH  20  21
ENDBRANCH  19  20
ENDBRANCH  18  19
ENDBRANCH   1  18
TORSDOF 28
ENDMDL
