MODEL 1
REMARK VINA RESULT:    -6.261      0.000      0.000
REMARK INTER + INTRA:          -6.261
REMARK INTER:                  -6.261
REMARK INTRA:                   0.000
REMARK UNBOUND:                 0.000
REMARK SMILES O=c1ccc2ccccc2o1
REMARK SMILES IDX 7 1 8 2 9 3 10 4 5 5 6 6 4 7 3 8 2 9 1 10 11 11
REMARK H PARENT
REMARK Flexibility Score: inf
ROOT
ATOM      1  C   UNL     1     137.026 134.631 112.417  1.00  0.00     0.001 A 
ATOM      2  C   UNL     1     135.875 134.625 113.212  1.00  0.00     0.004 A 
ATOM      3  C   UNL     1     135.982 134.588 114.606  1.00  0.00     0.048 A 
ATOM      4  C   UNL     1     137.244 134.556 115.211  1.00  0.00     0.138 A 
ATOM      5  C   UNL     1     138.407 134.562 114.409  1.00  0.00     0.018 A 
ATOM      6  C   UNL     1     138.292 134.599 113.011  1.00  0.00     0.012 A 
ATOM      7  C   UNL     1     139.654 134.529 115.041  1.00  0.00     0.019 A 
ATOM      8  C   UNL     1     139.713 134.493 116.433  1.00  0.00     0.094 A 
ATOM      9  C   UNL     1     138.519 134.489 117.164  1.00  0.00     0.336 A 
ATOM     10  O   UNL     1     138.554 134.456 118.422  1.00  0.00    -0.246 OA
ATOM     11  O   UNL     1     137.346 134.520 116.537  1.00  0.00    -0.423 OA
ENDROOT
TORSDOF 0
ENDMDL
MODEL 2
REMARK VINA RESULT:    -6.231      1.617      3.772
REMARK INTER + INTRA:          -6.231
REMARK INTER:                  -6.231
REMARK INTRA:                   0.000
REMARK UNBOUND:                 0.000
REMARK SMILES O=c1ccc2ccccc2o1
REMARK SMILES IDX 7 1 8 2 9 3 10 4 5 5 6 6 4 7 3 8 2 9 1 10 11 11
REMARK H PARENT
REMARK Flexibility Score: inf
ROOT
ATOM      1  C   UNL     1     139.862 134.537 115.249  1.00  0.00     0.001 A 
ATOM      2  C   UNL     1     139.114 134.590 116.431  1.00  0.00     0.004 A 
ATOM      3  C   UNL     1     137.718 134.653 116.378  1.00  0.00     0.048 A 
ATOM      4  C   UNL     1     137.063 134.663 115.141  1.00  0.00     0.138 A 
ATOM      5  C   UNL     1     137.817 134.608 113.948  1.00  0.00     0.018 A 
ATOM      6  C   UNL     1     139.217 134.546 114.008  1.00  0.00     0.012 A 
ATOM      7  C   UNL     1     137.136 134.621 112.727  1.00  0.00     0.019 A 
ATOM      8  C   UNL     1     135.743 134.684 112.722  1.00  0.00     0.094 A 
ATOM      9  C   UNL     1     135.062 134.735 113.944  1.00  0.00     0.336 A 
ATOM     10  O   UNL     1     133.804 134.793 113.959  1.00  0.00    -0.246 OA
ATOM     11  O   UNL     1     135.734 134.724 115.091  1.00  0.00    -0.423 OA
ENDROOT
TORSDOF 0
ENDMDL
MODEL 3
REMARK VINA RESULT:    -6.211      2.390      4.418
REMARK INTER + INTRA:          -6.211
REMARK INTER:                  -6.211
REMARK INTRA:                   0.000
REMARK UNBOUND:                 0.000
REMARK SMILES O=c1ccc2ccccc2o1
REMARK SMILES IDX 7 1 8 2 9 3 10 4 5 5 6 6 4 7 3 8 2 9 1 10 11 11
REMARK H PARENT
REMARK Flexibility Score: inf
ROOT
ATOM      1  C   UNL     1     139.103 134.597 115.789  1.00  0.00     0.001 A 
ATOM      2  C   UNL     1     139.611 134.547 114.486  1.00  0.00     0.004 A 
ATOM      3  C   UNL     1     138.742 134.580 113.390  1.00  0.00     0.048 A 
ATOM      4  C   UNL     1     137.360 134.663 113.594  1.00  0.00     0.138 A 
ATOM      5  C   UNL     1     136.847 134.714 114.909  1.00  0.00     0.018 A 
ATOM      6  C   UNL     1     137.723 134.680 116.004  1.00  0.00     0.012 A 
ATOM      7  C   UNL     1     135.461 134.796 115.082  1.00  0.00     0.019 A 
ATOM      8  C   UNL     1     134.634 134.827 113.960  1.00  0.00     0.094 A 
ATOM      9  C   UNL     1     135.213 134.773 112.688  1.00  0.00     0.336 A 
ATOM     10  O   UNL     1     134.481 134.800 111.663  1.00  0.00    -0.246 OA
ATOM     11  O   UNL     1     136.534 134.694 112.551  1.00  0.00    -0.423 OA
ENDROOT
TORSDOF 0
ENDMDL
MODEL 4
REMARK VINA RESULT:    -6.189      8.961     10.512
REMARK INTER + INTRA:          -6.189
REMARK INTER:                  -6.189
REMARK INTRA:                   0.000
REMARK UNBOUND:                 0.000
REMARK SMILES O=c1ccc2ccccc2o1
REMARK SMILES IDX 7 1 8 2 9 3 10 4 5 5 6 6 4 7 3 8 2 9 1 10 11 11
REMARK H PARENT
REMARK Flexibility Score: inf
ROOT
ATOM      1  C   UNL     1     128.719 132.811 106.525  1.00  0.00     0.001 A 
ATOM      2  C   UNL     1     128.692 134.206 106.417  1.00  0.00     0.004 A 
ATOM      3  C   UNL     1     129.021 135.004 107.518  1.00  0.00     0.048 A 
ATOM      4  C   UNL     1     129.380 134.408 108.732  1.00  0.00     0.138 A 
ATOM      5  C   UNL     1     129.408 133.000 108.842  1.00  0.00     0.018 A 
ATOM      6  C   UNL     1     129.076 132.206 107.735  1.00  0.00     0.012 A 
ATOM      7  C   UNL     1     129.770 132.433 110.069  1.00  0.00     0.019 A 
ATOM      8  C   UNL     1     130.091 133.268 111.138  1.00  0.00     0.094 A 
ATOM      9  C   UNL     1     130.042 134.654 110.956  1.00  0.00     0.336 A 
ATOM     10  O   UNL     1     130.328 135.423 111.912  1.00  0.00    -0.246 OA
ATOM     11  O   UNL     1     129.693 135.168 109.780  1.00  0.00    -0.423 OA
ENDROOT
TORSDOF 0
ENDMDL
MODEL 5
REMARK VINA RESULT:    -6.177      9.095     11.233
REMARK INTER + INTRA:          -6.177
REMARK INTER:                  -6.177
REMARK INTRA:                   0.000
REMARK UNBOUND:                 0.000
REMARK SMILES O=c1ccc2ccccc2o1
REMARK SMILES IDX 7 1 8 2 9 3 10 4 5 5 6 6 4 7 3 8 2 9 1 10 11 11
REMARK H PARENT
REMARK Flexibility Score: inf
ROOT
ATOM      1  C   UNL     1     130.672 133.056 111.320  1.00  0.00     0.001 A 
ATOM      2  C   UNL     1     130.905 134.428 111.166  1.00  0.00     0.004 A 
ATOM      3  C   UNL     1     130.486 135.088 110.006  1.00  0.00     0.048 A 
ATOM      4  C   UNL     1     129.831 134.377 108.994  1.00  0.00     0.138 A 
ATOM      5  C   UNL     1     129.595 132.993 109.148  1.00  0.00     0.018 A 
ATOM      6  C   UNL     1     130.018 132.337 110.314  1.00  0.00     0.012 A 
ATOM      7  C   UNL     1     128.939 132.309 108.119  1.00  0.00     0.019 A 
ATOM      8  C   UNL     1     128.539 133.009 106.982  1.00  0.00     0.094 A 
ATOM      9  C   UNL     1     128.806 134.379 106.898  1.00  0.00     0.336 A 
ATOM     10  O   UNL     1     128.452 135.027 105.877  1.00  0.00    -0.246 OA
ATOM     11  O   UNL     1     129.433 135.006 107.890  1.00  0.00    -0.423 OA
ENDROOT
TORSDOF 0
ENDMDL
MODEL 6
REMARK VINA RESULT:    -6.153      9.957     11.708
REMARK INTER + INTRA:          -6.153
REMARK INTER:                  -6.153
REMARK INTRA:                   0.000
REMARK UNBOUND:                 0.000
REMARK SMILES O=c1ccc2ccccc2o1
REMARK SMILES IDX 7 1 8 2 9 3 10 4 5 5 6 6 4 7 3 8 2 9 1 10 11 11
REMARK H PARENT
REMARK Flexibility Score: inf
ROOT
ATOM      1  C   UNL     1     129.508 132.322 108.738  1.00  0.00     0.001 A 
ATOM      2  C   UNL     1     130.077 132.612 109.983  1.00  0.00     0.004 A 
ATOM      3  C   UNL     1     129.457 133.523 110.845  1.00  0.00     0.048 A 
ATOM      4  C   UNL     1     128.265 134.149 110.463  1.00  0.00     0.138 A 
ATOM      5  C   UNL     1     127.690 133.856 109.207  1.00  0.00     0.018 A 
ATOM      6  C   UNL     1     128.316 132.941 108.347  1.00  0.00     0.012 A 
ATOM      7  C   UNL     1     126.498 134.497 108.853  1.00  0.00     0.019 A 
ATOM      8  C   UNL     1     125.916 135.397 109.744  1.00  0.00     0.094 A 
ATOM      9  C   UNL     1     126.542 135.638 110.972  1.00  0.00     0.336 A 
ATOM     10  O   UNL     1     126.030 136.449 111.789  1.00  0.00    -0.246 OA
ATOM     11  O   UNL     1     127.676 135.016 111.283  1.00  0.00    -0.423 OA
ENDROOT
TORSDOF 0
ENDMDL
MODEL 7
REMARK VINA RESULT:    -6.078      8.977     10.929
REMARK INTER + INTRA:          -6.078
REMARK INTER:                  -6.078
REMARK INTRA:                   0.000
REMARK UNBOUND:                 0.000
REMARK SMILES O=c1ccc2ccccc2o1
REMARK SMILES IDX 7 1 8 2 9 3 10 4 5 5 6 6 4 7 3 8 2 9 1 10 11 11
REMARK H PARENT
REMARK Flexibility Score: inf
ROOT
ATOM      1  C   UNL     1     130.927 132.400 111.978  1.00  0.00     0.001 A 
ATOM      2  C   UNL     1     130.279 133.479 112.588  1.00  0.00     0.004 A 
ATOM      3  C   UNL     1     129.293 134.192 111.897  1.00  0.00     0.048 A 
ATOM      4  C   UNL     1     128.952 133.826 110.589  1.00  0.00     0.138 A 
ATOM      5  C   UNL     1     129.606 132.736 109.972  1.00  0.00     0.018 A 
ATOM      6  C   UNL     1     130.594 132.027 110.672  1.00  0.00     0.012 A 
ATOM      7  C   UNL     1     129.245 132.395 108.665  1.00  0.00     0.019 A 
ATOM      8  C   UNL     1     128.257 133.132 108.015  1.00  0.00     0.094 A 
ATOM      9  C   UNL     1     127.652 134.199 108.688  1.00  0.00     0.336 A 
ATOM     10  O   UNL     1     126.758 134.877 108.116  1.00  0.00    -0.246 OA
ATOM     11  O   UNL     1     128.015 134.504 109.931  1.00  0.00    -0.423 OA
ENDROOT
TORSDOF 0
ENDMDL
MODEL 8
REMARK VINA RESULT:    -6.052     10.430     11.359
REMARK INTER + INTRA:          -6.052
REMARK INTER:                  -6.052
REMARK INTRA:                   0.000
REMARK UNBOUND:                 0.000
REMARK SMILES O=c1ccc2ccccc2o1
REMARK SMILES IDX 7 1 8 2 9 3 10 4 5 5 6 6 4 7 3 8 2 9 1 10 11 11
REMARK H PARENT
REMARK Flexibility Score: inf
ROOT
ATOM      1  C   UNL     1     129.508 132.404 108.881  1.00  0.00     0.001 A 
ATOM      2  C   UNL     1     128.427 132.744 108.060  1.00  0.00     0.004 A 
ATOM      3  C   UNL     1     127.457 133.646 108.511  1.00  0.00     0.048 A 
ATOM      4  C   UNL     1     127.566 134.212 109.786  1.00  0.00     0.138 A 
ATOM      5  C   UNL     1     128.658 133.870 110.615  1.00  0.00     0.018 A 
ATOM      6  C   UNL     1     129.627 132.965 110.157  1.00  0.00     0.012 A 
ATOM      7  C   UNL     1     128.740 134.451 111.884  1.00  0.00     0.019 A 
ATOM      8  C   UNL     1     127.751 135.345 112.291  1.00  0.00     0.094 A 
ATOM      9  C   UNL     1     126.698 135.638 111.417  1.00  0.00     0.336 A 
ATOM     10  O   UNL     1     125.796 136.443 111.768  1.00  0.00    -0.246 OA
ATOM     11  O   UNL     1     126.643 135.070 110.215  1.00  0.00    -0.423 OA
ENDROOT
TORSDOF 0
ENDMDL
MODEL 9
REMARK VINA RESULT:    -6.036     11.951     12.615
REMARK INTER + INTRA:          -6.036
REMARK INTER:                  -6.036
REMARK INTRA:                   0.000
REMARK UNBOUND:                 0.000
REMARK SMILES O=c1ccc2ccccc2o1
REMARK SMILES IDX 7 1 8 2 9 3 10 4 5 5 6 6 4 7 3 8 2 9 1 10 11 11
REMARK H PARENT
REMARK Flexibility Score: inf
ROOT
ATOM      1  C   UNL     1     129.084 133.260 106.216  1.00  0.00     0.001 A 
ATOM      2  C   UNL     1     129.040 132.400 107.319  1.00  0.00     0.004 A 
ATOM      3  C   UNL     1     128.373 132.787 108.487  1.00  0.00     0.048 A 
ATOM      4  C   UNL     1     127.747 134.037 108.554  1.00  0.00     0.138 A 
ATOM      5  C   UNL     1     127.791 134.905 107.441  1.00  0.00     0.018 A 
ATOM      6  C   UNL     1     128.462 134.511 106.273  1.00  0.00     0.012 A 
ATOM      7  C   UNL     1     127.157 136.148 107.538  1.00  0.00     0.019 A 
ATOM      8  C   UNL     1     126.504 136.491 108.721  1.00  0.00     0.094 A 
ATOM      9  C   UNL     1     126.501 135.580 109.784  1.00  0.00     0.336 A 
ATOM     10  O   UNL     1     125.917 135.873 110.860  1.00  0.00    -0.246 OA
ATOM     11  O   UNL     1     127.113 134.405 109.666  1.00  0.00    -0.423 OA
ENDROOT
TORSDOF 0
ENDMDL
