MODEL 1
REMARK VINA RESULT:    -8.028      0.000      0.000
REMARK INTER + INTRA:          -8.875
REMARK INTER:                  -8.732
REMARK INTRA:                  -0.143
REMARK UNBOUND:                -0.143
REMARK SMILES CC1(C)CC[C@]2(C(=O)[O-])CC[C@]3(C)C(=CC[C@H]4[C@@]5(C)CC[C@H](O)C(C)(C)[C@H]5CC[C@]43C)[C@@H]2C1
REMARK SMILES IDX 6 1 5 2 10 3 32 4 4 5 11 6 14 7 33 8 2 9 12 10 15 11 1 12
REMARK SMILES IDX 3 13 13 14 30 15 16 16 17 17 29 18 31 19 18 20 28 21 27 22
REMARK SMILES IDX 20 23 19 24 24 25 21 26 22 27 25 28 26 29 7 30 8 31 9 32
REMARK SMILES IDX 23 33
REMARK H PARENT 23 34
REMARK Flexibility Score: inf
ROOT
ATOM      1  C   UNL     1     -30.898 -16.878  -6.865  1.00  0.00     0.017 C 
ATOM      2  C   UNL     1     -31.675 -17.094  -8.204  1.00  0.00     0.014 C 
ATOM      3  C   UNL     1     -31.895 -16.480  -5.749  1.00  0.00     0.014 C 
ATOM      4  C   UNL     1     -29.785 -15.782  -7.032  1.00  0.00     0.028 C 
ATOM      5  C   UNL     1     -32.131 -15.810  -8.893  1.00  0.00     0.007 C 
ATOM      6  C   UNL     1     -31.201 -16.225  -4.397  1.00  0.00     0.013 C 
ATOM      7  C   UNL     1     -29.221 -15.276  -5.687  1.00  0.00    -0.064 C 
ATOM      8  C   UNL     1     -30.172 -14.550  -7.912  1.00  0.00     0.015 C 
ATOM      9  C   UNL     1     -30.954 -14.871  -9.210  1.00  0.00    -0.035 C 
ATOM     10  C   UNL     1     -30.088 -15.110  -4.431  1.00  0.00    -0.006 C 
ATOM     11  C   UNL     1     -28.004 -14.691  -5.719  1.00  0.00    -0.027 C 
ATOM     12  C   UNL     1     -31.543 -13.548  -9.752  1.00  0.00     0.011 C 
ATOM     13  C   UNL     1     -30.022 -15.468 -10.287  1.00  0.00     0.011 C 
ATOM     14  C   UNL     1     -30.840 -13.749  -4.585  1.00  0.00     0.017 C 
ATOM     15  C   UNL     1     -29.145 -15.172  -3.108  1.00  0.00    -0.020 C 
ATOM     16  C   UNL     1     -27.542 -13.752  -4.642  1.00  0.00     0.032 C 
ATOM     17  C   UNL     1     -27.848 -14.244  -3.206  1.00  0.00     0.006 C 
ATOM     18  C   UNL     1     -29.961 -14.802  -1.852  1.00  0.00     0.008 C 
ATOM     19  C   UNL     1     -28.623 -16.630  -2.880  1.00  0.00     0.012 C 
ATOM     20  C   UNL     1     -27.666 -13.126  -2.081  1.00  0.00    -0.025 C 
ATOM     21  C   UNL     1     -29.141 -14.696  -0.570  1.00  0.00     0.005 C 
ATOM     22  C   UNL     1     -27.861 -13.777  -0.645  1.00  0.00     0.003 C 
ATOM     23  C   UNL     1     -28.629 -11.902  -2.277  1.00  0.00     0.010 C 
ATOM     24  C   UNL     1     -26.208 -12.585  -2.219  1.00  0.00     0.012 C 
ATOM     25  C   UNL     1     -27.734 -12.739   0.579  1.00  0.00    -0.006 C 
ATOM     26  C   UNL     1     -29.283 -11.386  -0.986  1.00  0.00     0.033 C 
ATOM     27  C   UNL     1     -28.315 -11.319   0.201  1.00  0.00     0.120 C 
ATOM     28  C   UNL     1     -28.479 -13.241   1.852  1.00  0.00     0.014 C 
ATOM     29  C   UNL     1     -26.259 -12.639   1.057  1.00  0.00     0.014 C 
ENDROOT
BRANCH   1  30
ATOM     30  C   UNL     1     -30.248 -18.215  -6.500  1.00  0.00     0.048 C 
ATOM     31  O   UNL     1     -30.943 -19.195  -6.118  1.00  0.00    -0.550 OA
ATOM     32  O   UNL     1     -28.875 -18.390  -6.616  1.00  0.00    -0.550 OA
ENDBRANCH   1  30
BRANCH  27  33
ATOM     33  O   UNL     1     -27.312 -10.374  -0.096  1.00  0.00    -0.393 OA
ATOM     34  H   UNL     1     -27.705  -9.735  -0.739  1.00  0.00     0.210 HD
ENDBRANCH  27  33
TORSDOF 2
ENDMDL
MODEL 2
REMARK VINA RESULT:    -7.956      1.769      8.065
REMARK INTER + INTRA:          -8.797
REMARK INTER:                  -8.654
REMARK INTRA:                  -0.143
REMARK UNBOUND:                -0.143
REMARK SMILES CC1(C)CC[C@]2(C(=O)[O-])CC[C@]3(C)C(=CC[C@H]4[C@@]5(C)CC[C@H](O)C(C)(C)[C@H]5CC[C@]43C)[C@@H]2C1
REMARK SMILES IDX 6 1 5 2 10 3 32 4 4 5 11 6 14 7 33 8 2 9 12 10 15 11 1 12
REMARK SMILES IDX 3 13 13 14 30 15 16 16 17 17 29 18 31 19 18 20 28 21 27 22
REMARK SMILES IDX 20 23 19 24 24 25 21 26 22 27 25 28 26 29 7 30 8 31 9 32
REMARK SMILES IDX 23 33
REMARK H PARENT 23 34
REMARK Flexibility Score: inf
ROOT
ATOM      1  C   UNL     1     -29.125 -13.686  -1.136  1.00  0.00     0.017 C 
ATOM      2  C   UNL     1     -28.262 -13.255   0.094  1.00  0.00     0.014 C 
ATOM      3  C   UNL     1     -29.691 -15.107  -0.896  1.00  0.00     0.014 C 
ATOM      4  C   UNL     1     -28.279 -13.640  -2.459  1.00  0.00     0.028 C 
ATOM      5  C   UNL     1     -26.892 -13.924   0.179  1.00  0.00     0.007 C 
ATOM      6  C   UNL     1     -30.537 -15.615  -2.080  1.00  0.00     0.013 C 
ATOM      7  C   UNL     1     -28.953 -14.373  -3.639  1.00  0.00    -0.064 C 
ATOM      8  C   UNL     1     -26.801 -14.133  -2.337  1.00  0.00     0.015 C 
ATOM      9  C   UNL     1     -26.038 -13.664  -1.073  1.00  0.00    -0.035 C 
ATOM     10  C   UNL     1     -29.779 -15.655  -3.460  1.00  0.00    -0.006 C 
ATOM     11  C   UNL     1     -28.547 -14.028  -4.880  1.00  0.00    -0.027 C 
ATOM     12  C   UNL     1     -24.752 -14.513  -0.948  1.00  0.00     0.011 C 
ATOM     13  C   UNL     1     -25.634 -12.178  -1.190  1.00  0.00     0.011 C 
ATOM     14  C   UNL     1     -28.756 -16.833  -3.362  1.00  0.00     0.017 C 
ATOM     15  C   UNL     1     -30.814 -15.812  -4.703  1.00  0.00    -0.020 C 
ATOM     16  C   UNL     1     -28.733 -14.938  -6.061  1.00  0.00     0.032 C 
ATOM     17  C   UNL     1     -30.133 -15.597  -6.132  1.00  0.00     0.006 C 
ATOM     18  C   UNL     1     -31.505 -17.191  -4.653  1.00  0.00     0.008 C 
ATOM     19  C   UNL     1     -31.955 -14.744  -4.599  1.00  0.00     0.012 C 
ATOM     20  C   UNL     1     -30.234 -16.802  -7.175  1.00  0.00    -0.025 C 
ATOM     21  C   UNL     1     -32.398 -17.498  -5.851  1.00  0.00     0.005 C 
ATOM     22  C   UNL     1     -31.739 -17.301  -7.270  1.00  0.00     0.003 C 
ATOM     23  C   UNL     1     -29.271 -17.991  -6.828  1.00  0.00     0.010 C 
ATOM     24  C   UNL     1     -29.779 -16.237  -8.558  1.00  0.00     0.012 C 
ATOM     25  C   UNL     1     -31.968 -18.541  -8.270  1.00  0.00    -0.006 C 
ATOM     26  C   UNL     1     -29.891 -19.388  -6.987  1.00  0.00     0.033 C 
ATOM     27  C   UNL     1     -30.739 -19.535  -8.255  1.00  0.00     0.120 C 
ATOM     28  C   UNL     1     -33.249 -19.352  -7.915  1.00  0.00     0.014 C 
ATOM     29  C   UNL     1     -32.267 -18.033  -9.708  1.00  0.00     0.014 C 
ENDROOT
BRANCH   1  30
ATOM     30  C   UNL     1     -30.288 -12.696  -1.240  1.00  0.00     0.048 C 
ATOM     31  O   UNL     1     -31.235 -12.713  -0.407  1.00  0.00    -0.550 OA
ATOM     32  O   UNL     1     -30.310 -11.729  -2.238  1.00  0.00    -0.550 OA
ENDBRANCH   1  30
BRANCH  27  33
ATOM     33  O   UNL     1     -29.896 -19.388  -9.374  1.00  0.00    -0.393 OA
ATOM     34  H   UNL     1     -30.435 -18.957 -10.082  1.00  0.00     0.210 HD
ENDBRANCH  27  33
TORSDOF 2
ENDMDL
MODEL 3
REMARK VINA RESULT:    -7.754      5.235      8.584
REMARK INTER + INTRA:          -8.577
REMARK INTER:                  -8.447
REMARK INTRA:                  -0.130
REMARK UNBOUND:                -0.143
REMARK SMILES CC1(C)CC[C@]2(C(=O)[O-])CC[C@]3(C)C(=CC[C@H]4[C@@]5(C)CC[C@H](O)C(C)(C)[C@H]5CC[C@]43C)[C@@H]2C1
REMARK SMILES IDX 6 1 5 2 10 3 32 4 4 5 11 6 14 7 33 8 2 9 12 10 15 11 1 12
REMARK SMILES IDX 3 13 13 14 30 15 16 16 17 17 29 18 31 19 18 20 28 21 27 22
REMARK SMILES IDX 20 23 19 24 24 25 21 26 22 27 25 28 26 29 7 30 8 31 9 32
REMARK SMILES IDX 23 33
REMARK H PARENT 23 34
REMARK Flexibility Score: inf
ROOT
ATOM      1  C   UNL     1     -35.576 -13.911 -11.507  1.00  0.00     0.017 C 
ATOM      2  C   UNL     1     -36.223 -13.338 -12.810  1.00  0.00     0.014 C 
ATOM      3  C   UNL     1     -34.061 -13.594 -11.501  1.00  0.00     0.014 C 
ATOM      4  C   UNL     1     -35.821 -15.459 -11.393  1.00  0.00     0.028 C 
ATOM      5  C   UNL     1     -35.922 -14.135 -14.077  1.00  0.00     0.007 C 
ATOM      6  C   UNL     1     -33.344 -14.149 -10.255  1.00  0.00     0.013 C 
ATOM      7  C   UNL     1     -34.930 -16.140 -10.332  1.00  0.00    -0.064 C 
ATOM      8  C   UNL     1     -35.717 -16.262 -12.730  1.00  0.00     0.015 C 
ATOM      9  C   UNL     1     -36.376 -15.600 -13.965  1.00  0.00    -0.035 C 
ATOM     10  C   UNL     1     -33.482 -15.706 -10.058  1.00  0.00    -0.006 C 
ATOM     11  C   UNL     1     -35.353 -17.331  -9.857  1.00  0.00    -0.027 C 
ATOM     12  C   UNL     1     -35.880 -16.343 -15.227  1.00  0.00     0.011 C 
ATOM     13  C   UNL     1     -37.915 -15.717 -13.902  1.00  0.00     0.011 C 
ATOM     14  C   UNL     1     -32.601 -16.366 -11.166  1.00  0.00     0.017 C 
ATOM     15  C   UNL     1     -33.057 -16.154  -8.554  1.00  0.00    -0.020 C 
ATOM     16  C   UNL     1     -34.414 -18.313  -9.216  1.00  0.00     0.032 C 
ATOM     17  C   UNL     1     -33.422 -17.672  -8.213  1.00  0.00     0.006 C 
ATOM     18  C   UNL     1     -31.549 -15.914  -8.331  1.00  0.00     0.008 C 
ATOM     19  C   UNL     1     -33.804 -15.277  -7.493  1.00  0.00     0.012 C 
ATOM     20  C   UNL     1     -32.221 -18.630  -7.782  1.00  0.00    -0.025 C 
ATOM     21  C   UNL     1     -31.015 -16.427  -6.997  1.00  0.00     0.005 C 
ATOM     22  C   UNL     1     -31.358 -17.926  -6.648  1.00  0.00     0.003 C 
ATOM     23  C   UNL     1     -31.316 -19.057  -8.991  1.00  0.00     0.010 C 
ATOM     24  C   UNL     1     -32.869 -19.934  -7.215  1.00  0.00     0.012 C 
ATOM     25  C   UNL     1     -30.090 -18.783  -6.148  1.00  0.00    -0.006 C 
ATOM     26  C   UNL     1     -29.807 -19.030  -8.705  1.00  0.00     0.033 C 
ATOM     27  C   UNL     1     -29.438 -19.602  -7.332  1.00  0.00     0.120 C 
ATOM     28  C   UNL     1     -28.986 -17.883  -5.519  1.00  0.00     0.014 C 
ATOM     29  C   UNL     1     -30.491 -19.714  -4.970  1.00  0.00     0.014 C 
ENDROOT
BRANCH   1  30
ATOM     30  C   UNL     1     -36.239 -13.201 -10.324  1.00  0.00     0.048 C 
ATOM     31  O   UNL     1     -36.995 -13.825  -9.529  1.00  0.00    -0.550 OA
ATOM     32  O   UNL     1     -35.995 -11.856 -10.077  1.00  0.00    -0.550 OA
ENDBRANCH   1  30
BRANCH  27  33
ATOM     33  O   UNL     1     -29.781 -20.969  -7.313  1.00  0.00    -0.393 OA
ATOM     34  H   UNL     1     -29.763 -21.254  -6.366  1.00  0.00     0.210 HD
ENDBRANCH  27  33
TORSDOF 2
ENDMDL
MODEL 4
REMARK VINA RESULT:    -7.615      4.622      8.492
REMARK INTER + INTRA:          -8.426
REMARK INTER:                  -8.283
REMARK INTRA:                  -0.143
REMARK UNBOUND:                -0.143
REMARK SMILES CC1(C)CC[C@]2(C(=O)[O-])CC[C@]3(C)C(=CC[C@H]4[C@@]5(C)CC[C@H](O)C(C)(C)[C@H]5CC[C@]43C)[C@@H]2C1
REMARK SMILES IDX 6 1 5 2 10 3 32 4 4 5 11 6 14 7 33 8 2 9 12 10 15 11 1 12
REMARK SMILES IDX 3 13 13 14 30 15 16 16 17 17 29 18 31 19 18 20 28 21 27 22
REMARK SMILES IDX 20 23 19 24 24 25 21 26 22 27 25 28 26 29 7 30 8 31 9 32
REMARK SMILES IDX 23 33
REMARK H PARENT 23 34
REMARK Flexibility Score: inf
ROOT
ATOM      1  C   UNL     1     -26.880 -13.578  -0.296  1.00  0.00     0.017 C 
ATOM      2  C   UNL     1     -26.914 -12.307  -1.205  1.00  0.00     0.014 C 
ATOM      3  C   UNL     1     -26.181 -14.734  -1.052  1.00  0.00     0.014 C 
ATOM      4  C   UNL     1     -28.330 -13.995   0.140  1.00  0.00     0.028 C 
ATOM      5  C   UNL     1     -27.939 -12.357  -2.336  1.00  0.00     0.007 C 
ATOM      6  C   UNL     1     -26.129 -16.035  -0.227  1.00  0.00     0.013 C 
ATOM      7  C   UNL     1     -28.402 -15.415   0.740  1.00  0.00    -0.064 C 
ATOM      8  C   UNL     1     -29.435 -13.854  -0.956  1.00  0.00     0.015 C 
ATOM      9  C   UNL     1     -29.371 -12.566  -1.814  1.00  0.00    -0.035 C 
ATOM     10  C   UNL     1     -27.534 -16.577   0.233  1.00  0.00    -0.006 C 
ATOM     11  C   UNL     1     -29.466 -15.692   1.524  1.00  0.00    -0.027 C 
ATOM     12  C   UNL     1     -30.293 -12.762  -3.040  1.00  0.00     0.011 C 
ATOM     13  C   UNL     1     -29.872 -11.343  -1.016  1.00  0.00     0.011 C 
ATOM     14  C   UNL     1     -28.232 -17.126  -1.053  1.00  0.00     0.017 C 
ATOM     15  C   UNL     1     -27.385 -17.695   1.404  1.00  0.00    -0.020 C 
ATOM     16  C   UNL     1     -29.924 -17.100   1.778  1.00  0.00     0.032 C 
ATOM     17  C   UNL     1     -28.774 -18.089   2.090  1.00  0.00     0.006 C 
ATOM     18  C   UNL     1     -26.696 -18.960   0.852  1.00  0.00     0.008 C 
ATOM     19  C   UNL     1     -26.467 -17.159   2.554  1.00  0.00     0.012 C 
ATOM     20  C   UNL     1     -29.202 -19.626   2.035  1.00  0.00    -0.025 C 
ATOM     21  C   UNL     1     -26.627 -20.126   1.833  1.00  0.00     0.005 C 
ATOM     22  C   UNL     1     -27.990 -20.535   2.513  1.00  0.00     0.003 C 
ATOM     23  C   UNL     1     -29.709 -20.067   0.618  1.00  0.00     0.010 C 
ATOM     24  C   UNL     1     -30.403 -19.791   3.021  1.00  0.00     0.012 C 
ATOM     25  C   UNL     1     -28.287 -22.116   2.472  1.00  0.00    -0.006 C 
ATOM     26  C   UNL     1     -29.195 -21.438   0.149  1.00  0.00     0.033 C 
ATOM     27  C   UNL     1     -29.214 -22.502   1.252  1.00  0.00     0.120 C 
ATOM     28  C   UNL     1     -26.980 -22.956   2.369  1.00  0.00     0.014 C 
ATOM     29  C   UNL     1     -28.899 -22.591   3.819  1.00  0.00     0.014 C 
ENDROOT
BRANCH   1  30
ATOM     30  C   UNL     1     -26.056 -13.223   0.944  1.00  0.00     0.048 C 
ATOM     31  O   UNL     1     -24.809 -13.050   0.872  1.00  0.00    -0.550 OA
ATOM     32  O   UNL     1     -26.672 -13.047   2.178  1.00  0.00    -0.550 OA
ENDBRANCH   1  30
BRANCH  27  33
ATOM     33  O   UNL     1     -30.553 -22.732   1.626  1.00  0.00    -0.393 OA
ATOM     34  H   UNL     1     -30.874 -23.493   1.084  1.00  0.00     0.210 HD
ENDBRANCH  27  33
TORSDOF 2
ENDMDL
MODEL 5
REMARK VINA RESULT:    -7.611      4.319      9.031
REMARK INTER + INTRA:          -8.421
REMARK INTER:                  -8.279
REMARK INTRA:                  -0.142
REMARK UNBOUND:                -0.143
REMARK SMILES CC1(C)CC[C@]2(C(=O)[O-])CC[C@]3(C)C(=CC[C@H]4[C@@]5(C)CC[C@H](O)C(C)(C)[C@H]5CC[C@]43C)[C@@H]2C1
REMARK SMILES IDX 6 1 5 2 10 3 32 4 4 5 11 6 14 7 33 8 2 9 12 10 15 11 1 12
REMARK SMILES IDX 3 13 13 14 30 15 16 16 17 17 29 18 31 19 18 20 28 21 27 22
REMARK SMILES IDX 20 23 19 24 24 25 21 26 22 27 25 28 26 29 7 30 8 31 9 32
REMARK SMILES IDX 23 33
REMARK H PARENT 23 34
REMARK Flexibility Score: inf
ROOT
ATOM      1  C   UNL     1     -30.272 -20.994   0.085  1.00  0.00     0.017 C 
ATOM      2  C   UNL     1     -29.696 -21.789   1.301  1.00  0.00     0.014 C 
ATOM      3  C   UNL     1     -30.754 -21.988  -1.000  1.00  0.00     0.014 C 
ATOM      4  C   UNL     1     -29.198 -20.009  -0.502  1.00  0.00     0.028 C 
ATOM      5  C   UNL     1     -28.317 -22.401   1.069  1.00  0.00     0.007 C 
ATOM      6  C   UNL     1     -31.316 -21.278  -2.247  1.00  0.00     0.013 C 
ATOM      7  C   UNL     1     -29.573 -19.455  -1.893  1.00  0.00    -0.064 C 
ATOM      8  C   UNL     1     -27.734 -20.555  -0.554  1.00  0.00     0.015 C 
ATOM      9  C   UNL     1     -27.266 -21.343   0.694  1.00  0.00    -0.035 C 
ATOM     10  C   UNL     1     -30.309 -20.292  -2.950  1.00  0.00    -0.006 C 
ATOM     11  C   UNL     1     -28.970 -18.309  -2.275  1.00  0.00    -0.027 C 
ATOM     12  C   UNL     1     -25.961 -22.086   0.328  1.00  0.00     0.011 C 
ATOM     13  C   UNL     1     -26.971 -20.389   1.874  1.00  0.00     0.011 C 
ATOM     14  C   UNL     1     -29.230 -21.188  -3.640  1.00  0.00     0.017 C 
ATOM     15  C   UNL     1     -31.074 -19.303  -3.988  1.00  0.00    -0.020 C 
ATOM     16  C   UNL     1     -28.853 -17.912  -3.719  1.00  0.00     0.032 C 
ATOM     17  C   UNL     1     -30.155 -18.114  -4.533  1.00  0.00     0.006 C 
ATOM     18  C   UNL     1     -31.645 -20.109  -5.173  1.00  0.00     0.008 C 
ATOM     19  C   UNL     1     -32.298 -18.621  -3.289  1.00  0.00     0.012 C 
ATOM     20  C   UNL     1     -29.957 -18.014  -6.114  1.00  0.00    -0.025 C 
ATOM     21  C   UNL     1     -32.268 -19.261  -6.278  1.00  0.00     0.005 C 
ATOM     22  C   UNL     1     -31.371 -18.089  -6.835  1.00  0.00     0.003 C 
ATOM     23  C   UNL     1     -28.982 -19.106  -6.678  1.00  0.00     0.010 C 
ATOM     24  C   UNL     1     -29.297 -16.626  -6.395  1.00  0.00     0.012 C 
ATOM     25  C   UNL     1     -31.303 -18.030  -8.442  1.00  0.00    -0.006 C 
ATOM     26  C   UNL     1     -29.443 -19.766  -7.987  1.00  0.00     0.033 C 
ATOM     27  C   UNL     1     -30.021 -18.770  -8.998  1.00  0.00     0.120 C 
ATOM     28  C   UNL     1     -32.556 -18.673  -9.106  1.00  0.00     0.014 C 
ATOM     29  C   UNL     1     -31.365 -16.559  -8.937  1.00  0.00     0.014 C 
ENDROOT
BRANCH   1  30
ATOM     30  C   UNL     1     -31.472 -20.194   0.597  1.00  0.00     0.048 C 
ATOM     31  O   UNL     1     -32.544 -20.768   0.932  1.00  0.00    -0.550 OA
ATOM     32  O   UNL     1     -31.396 -18.813   0.738  1.00  0.00    -0.550 OA
ENDBRANCH   1  30
BRANCH  27  33
ATOM     33  O   UNL     1     -28.997 -17.884  -9.386  1.00  0.00    -0.393 OA
ATOM     34  H   UNL     1     -28.143 -18.291  -9.097  1.00  0.00     0.210 HD
ENDBRANCH  27  33
TORSDOF 2
ENDMDL
MODEL 6
REMARK VINA RESULT:    -7.558      1.812      2.439
REMARK INTER + INTRA:          -8.364
REMARK INTER:                  -8.233
REMARK INTRA:                  -0.131
REMARK UNBOUND:                -0.143
REMARK SMILES CC1(C)CC[C@]2(C(=O)[O-])CC[C@]3(C)C(=CC[C@H]4[C@@]5(C)CC[C@H](O)C(C)(C)[C@H]5CC[C@]43C)[C@@H]2C1
REMARK SMILES IDX 6 1 5 2 10 3 32 4 4 5 11 6 14 7 33 8 2 9 12 10 15 11 1 12
REMARK SMILES IDX 3 13 13 14 30 15 16 16 17 17 29 18 31 19 18 20 28 21 27 22
REMARK SMILES IDX 20 23 19 24 24 25 21 26 22 27 25 28 26 29 7 30 8 31 9 32
REMARK SMILES IDX 23 33
REMARK H PARENT 23 34
REMARK Flexibility Score: inf
ROOT
ATOM      1  C   UNL     1     -30.536 -18.133  -4.953  1.00  0.00     0.017 C 
ATOM      2  C   UNL     1     -30.797 -18.870  -6.307  1.00  0.00     0.014 C 
ATOM      3  C   UNL     1     -31.851 -17.483  -4.459  1.00  0.00     0.014 C 
ATOM      4  C   UNL     1     -29.405 -17.053  -5.110  1.00  0.00     0.028 C 
ATOM      5  C   UNL     1     -30.946 -17.950  -7.517  1.00  0.00     0.007 C 
ATOM      6  C   UNL     1     -31.670 -16.713  -3.136  1.00  0.00     0.013 C 
ATOM      7  C   UNL     1     -29.338 -16.065  -3.926  1.00  0.00    -0.064 C 
ATOM      8  C   UNL     1     -29.425 -16.241  -6.445  1.00  0.00     0.015 C 
ATOM      9  C   UNL     1     -29.708 -17.061  -7.728  1.00  0.00    -0.035 C 
ATOM     10  C   UNL     1     -30.588 -15.570  -3.183  1.00  0.00    -0.006 C 
ATOM     11  C   UNL     1     -28.173 -15.406  -3.749  1.00  0.00    -0.027 C 
ATOM     12  C   UNL     1     -30.033 -16.069  -8.868  1.00  0.00     0.011 C 
ATOM     13  C   UNL     1     -28.472 -17.892  -8.139  1.00  0.00     0.011 C 
ATOM     14  C   UNL     1     -31.200 -14.426  -4.054  1.00  0.00     0.017 C 
ATOM     15  C   UNL     1     -30.173 -15.082  -1.689  1.00  0.00    -0.020 C 
ATOM     16  C   UNL     1     -28.095 -14.115  -2.987  1.00  0.00     0.032 C 
ATOM     17  C   UNL     1     -28.900 -14.117  -1.664  1.00  0.00     0.006 C 
ATOM     18  C   UNL     1     -31.369 -14.391  -1.001  1.00  0.00     0.008 C 
ATOM     19  C   UNL     1     -29.804 -16.315  -0.797  1.00  0.00     0.012 C 
ATOM     20  C   UNL     1     -29.097 -12.670  -1.018  1.00  0.00    -0.025 C 
ATOM     21  C   UNL     1     -31.050 -13.773   0.357  1.00  0.00     0.005 C 
ATOM     22  C   UNL     1     -29.802 -12.810   0.399  1.00  0.00     0.003 C 
ATOM     23  C   UNL     1     -29.895 -11.690  -1.947  1.00  0.00     0.010 C 
ATOM     24  C   UNL     1     -27.669 -12.063  -0.836  1.00  0.00     0.012 C 
ATOM     25  C   UNL     1     -30.087 -11.410   1.142  1.00  0.00    -0.006 C 
ATOM     26  C   UNL     1     -30.948 -10.834  -1.226  1.00  0.00     0.033 C 
ATOM     27  C   UNL     1     -30.458 -10.270   0.112  1.00  0.00     0.120 C 
ATOM     28  C   UNL     1     -31.245 -11.521   2.177  1.00  0.00     0.014 C 
ATOM     29  C   UNL     1     -28.873 -11.004   2.022  1.00  0.00     0.014 C 
ENDROOT
BRANCH   1  30
ATOM     30  C   UNL     1     -30.092 -19.193  -3.942  1.00  0.00     0.048 C 
ATOM     31  O   UNL     1     -28.916 -19.209  -3.487  1.00  0.00    -0.550 OA
ATOM     32  O   UNL     1     -30.991 -20.143  -3.471  1.00  0.00    -0.550 OA
ENDBRANCH   1  30
BRANCH  27  33
ATOM     33  O   UNL     1     -29.390  -9.386  -0.141  1.00  0.00    -0.393 OA
ATOM     34  H   UNL     1     -28.641  -9.934  -0.480  1.00  0.00     0.210 HD
ENDBRANCH  27  33
TORSDOF 2
ENDMDL
MODEL 7
REMARK VINA RESULT:    -7.507      2.106      3.041
REMARK INTER + INTRA:          -8.308
REMARK INTER:                  -8.167
REMARK INTRA:                  -0.140
REMARK UNBOUND:                -0.143
REMARK SMILES CC1(C)CC[C@]2(C(=O)[O-])CC[C@]3(C)C(=CC[C@H]4[C@@]5(C)CC[C@H](O)C(C)(C)[C@H]5CC[C@]43C)[C@@H]2C1
REMARK SMILES IDX 6 1 5 2 10 3 32 4 4 5 11 6 14 7 33 8 2 9 12 10 15 11 1 12
REMARK SMILES IDX 3 13 13 14 30 15 16 16 17 17 29 18 31 19 18 20 28 21 27 22
REMARK SMILES IDX 20 23 19 24 24 25 21 26 22 27 25 28 26 29 7 30 8 31 9 32
REMARK SMILES IDX 23 33
REMARK H PARENT 23 34
REMARK Flexibility Score: inf
ROOT
ATOM      1  C   UNL     1     -31.545 -17.061  -5.082  1.00  0.00     0.017 C 
ATOM      2  C   UNL     1     -31.830 -17.729  -6.466  1.00  0.00     0.014 C 
ATOM      3  C   UNL     1     -31.655 -15.523  -5.219  1.00  0.00     0.014 C 
ATOM      4  C   UNL     1     -30.128 -17.472  -4.541  1.00  0.00     0.028 C 
ATOM      5  C   UNL     1     -30.693 -17.611  -7.478  1.00  0.00     0.007 C 
ATOM      6  C   UNL     1     -31.363 -14.788  -3.897  1.00  0.00     0.013 C 
ATOM      7  C   UNL     1     -29.645 -16.592  -3.369  1.00  0.00    -0.064 C 
ATOM      8  C   UNL     1     -28.992 -17.555  -5.611  1.00  0.00     0.015 C 
ATOM      9  C   UNL     1     -29.381 -18.220  -6.954  1.00  0.00    -0.035 C 
ATOM     10  C   UNL     1     -29.947 -15.088  -3.277  1.00  0.00    -0.006 C 
ATOM     11  C   UNL     1     -28.688 -17.112  -2.571  1.00  0.00    -0.027 C 
ATOM     12  C   UNL     1     -28.272 -17.902  -7.984  1.00  0.00     0.011 C 
ATOM     13  C   UNL     1     -29.484 -19.754  -6.804  1.00  0.00     0.011 C 
ATOM     14  C   UNL     1     -28.907 -14.369  -4.196  1.00  0.00     0.017 C 
ATOM     15  C   UNL     1     -29.864 -14.611  -1.726  1.00  0.00    -0.020 C 
ATOM     16  C   UNL     1     -27.800 -16.248  -1.722  1.00  0.00     0.032 C 
ATOM     17  C   UNL     1     -28.551 -15.122  -0.970  1.00  0.00     0.006 C 
ATOM     18  C   UNL     1     -29.958 -13.074  -1.633  1.00  0.00     0.008 C 
ATOM     19  C   UNL     1     -31.079 -15.176  -0.917  1.00  0.00     0.012 C 
ATOM     20  C   UNL     1     -27.596 -14.010  -0.339  1.00  0.00    -0.025 C 
ATOM     21  C   UNL     1     -29.754 -12.509  -0.230  1.00  0.00     0.005 C 
ATOM     22  C   UNL     1     -28.458 -12.994   0.527  1.00  0.00     0.003 C 
ATOM     23  C   UNL     1     -26.750 -13.248  -1.419  1.00  0.00     0.010 C 
ATOM     24  C   UNL     1     -26.584 -14.760   0.585  1.00  0.00     0.012 C 
ATOM     25  C   UNL     1     -27.609 -11.800   1.194  1.00  0.00    -0.006 C 
ATOM     26  C   UNL     1     -26.657 -11.728  -1.208  1.00  0.00     0.033 C 
ATOM     27  C   UNL     1     -26.428 -11.331   0.255  1.00  0.00     0.120 C 
ATOM     28  C   UNL     1     -28.494 -10.559   1.512  1.00  0.00     0.014 C 
ATOM     29  C   UNL     1     -27.085 -12.220   2.595  1.00  0.00     0.014 C 
ENDROOT
BRANCH   1  30
ATOM     30  C   UNL     1     -32.623 -17.554  -4.113  1.00  0.00     0.048 C 
ATOM     31  O   UNL     1     -33.804 -17.116  -4.174  1.00  0.00    -0.550 OA
ATOM     32  O   UNL     1     -32.332 -18.526  -3.164  1.00  0.00    -0.550 OA
ENDBRANCH   1  30
BRANCH  27  33
ATOM     33  O   UNL     1     -25.172 -11.825   0.658  1.00  0.00    -0.393 OA
ATOM     34  H   UNL     1     -24.490 -11.246   0.239  1.00  0.00     0.210 HD
ENDBRANCH  27  33
TORSDOF 2
ENDMDL
MODEL 8
REMARK VINA RESULT:    -7.475      1.906      3.371
REMARK INTER + INTRA:          -8.274
REMARK INTER:                  -8.137
REMARK INTRA:                  -0.137
REMARK UNBOUND:                -0.143
REMARK SMILES CC1(C)CC[C@]2(C(=O)[O-])CC[C@]3(C)C(=CC[C@H]4[C@@]5(C)CC[C@H](O)C(C)(C)[C@H]5CC[C@]43C)[C@@H]2C1
REMARK SMILES IDX 6 1 5 2 10 3 32 4 4 5 11 6 14 7 33 8 2 9 12 10 15 11 1 12
REMARK SMILES IDX 3 13 13 14 30 15 16 16 17 17 29 18 31 19 18 20 28 21 27 22
REMARK SMILES IDX 20 23 19 24 24 25 21 26 22 27 25 28 26 29 7 30 8 31 9 32
REMARK SMILES IDX 23 33
REMARK H PARENT 23 34
REMARK Flexibility Score: inf
ROOT
ATOM      1  C   UNL     1     -30.375 -18.122  -7.111  1.00  0.00     0.017 C 
ATOM      2  C   UNL     1     -31.085 -19.332  -7.799  1.00  0.00     0.014 C 
ATOM      3  C   UNL     1     -29.442 -18.641  -5.989  1.00  0.00     0.014 C 
ATOM      4  C   UNL     1     -31.426 -17.106  -6.534  1.00  0.00     0.028 C 
ATOM      5  C   UNL     1     -32.210 -19.962  -6.981  1.00  0.00     0.007 C 
ATOM      6  C   UNL     1     -28.720 -17.502  -5.243  1.00  0.00     0.013 C 
ATOM      7  C   UNL     1     -30.812 -16.084  -5.555  1.00  0.00    -0.064 C 
ATOM      8  C   UNL     1     -32.691 -17.743  -5.872  1.00  0.00     0.015 C 
ATOM      9  C   UNL     1     -33.310 -18.947  -6.625  1.00  0.00    -0.035 C 
ATOM     10  C   UNL     1     -29.677 -16.440  -4.583  1.00  0.00    -0.006 C 
ATOM     11  C   UNL     1     -31.503 -14.940  -5.357  1.00  0.00    -0.027 C 
ATOM     12  C   UNL     1     -34.304 -19.648  -5.670  1.00  0.00     0.011 C 
ATOM     13  C   UNL     1     -34.082 -18.479  -7.878  1.00  0.00     0.011 C 
ATOM     14  C   UNL     1     -30.343 -17.152  -3.362  1.00  0.00     0.017 C 
ATOM     15  C   UNL     1     -28.872 -15.089  -4.171  1.00  0.00    -0.020 C 
ATOM     16  C   UNL     1     -31.311 -14.094  -4.130  1.00  0.00     0.032 C 
ATOM     17  C   UNL     1     -29.827 -13.883  -3.740  1.00  0.00     0.006 C 
ATOM     18  C   UNL     1     -27.865 -15.390  -3.041  1.00  0.00     0.008 C 
ATOM     19  C   UNL     1     -28.030 -14.567  -5.383  1.00  0.00     0.012 C 
ATOM     20  C   UNL     1     -29.618 -13.276  -2.278  1.00  0.00    -0.025 C 
ATOM     21  C   UNL     1     -27.150 -14.163  -2.484  1.00  0.00     0.005 C 
ATOM     22  C   UNL     1     -28.078 -12.966  -2.044  1.00  0.00     0.003 C 
ATOM     23  C   UNL     1     -30.181 -14.205  -1.145  1.00  0.00     0.010 C 
ATOM     24  C   UNL     1     -30.436 -11.946  -2.224  1.00  0.00     0.012 C 
ATOM     25  C   UNL     1     -27.731 -12.377  -0.586  1.00  0.00    -0.006 C 
ATOM     26  C   UNL     1     -29.274 -14.338   0.087  1.00  0.00     0.033 C 
ATOM     27  C   UNL     1     -28.653 -13.009   0.531  1.00  0.00     0.120 C 
ATOM     28  C   UNL     1     -26.247 -12.634  -0.188  1.00  0.00     0.014 C 
ATOM     29  C   UNL     1     -27.826 -10.826  -0.588  1.00  0.00     0.014 C 
ENDROOT
BRANCH   1  30
ATOM     30  C   UNL     1     -29.529 -17.427  -8.181  1.00  0.00     0.048 C 
ATOM     31  O   UNL     1     -28.440 -17.926  -8.577  1.00  0.00    -0.550 OA
ATOM     32  O   UNL     1     -29.961 -16.244  -8.769  1.00  0.00    -0.550 OA
ENDBRANCH   1  30
BRANCH  27  33
ATOM     33  O   UNL     1     -29.691 -12.148   0.941  1.00  0.00    -0.393 OA
ATOM     34  H   UNL     1     -30.194 -11.900   0.127  1.00  0.00     0.210 HD
ENDBRANCH  27  33
TORSDOF 2
ENDMDL
MODEL 9
REMARK VINA RESULT:    -7.413      1.949      7.990
REMARK INTER + INTRA:          -8.206
REMARK INTER:                  -8.069
REMARK INTRA:                  -0.137
REMARK UNBOUND:                -0.143
REMARK SMILES CC1(C)CC[C@]2(C(=O)[O-])CC[C@]3(C)C(=CC[C@H]4[C@@]5(C)CC[C@H](O)C(C)(C)[C@H]5CC[C@]43C)[C@@H]2C1
REMARK SMILES IDX 6 1 5 2 10 3 32 4 4 5 11 6 14 7 33 8 2 9 12 10 15 11 1 12
REMARK SMILES IDX 3 13 13 14 30 15 16 16 17 17 29 18 31 19 18 20 28 21 27 22
REMARK SMILES IDX 20 23 19 24 24 25 21 26 22 27 25 28 26 29 7 30 8 31 9 32
REMARK SMILES IDX 23 33
REMARK H PARENT 23 34
REMARK Flexibility Score: inf
ROOT
ATOM      1  C   UNL     1     -29.354 -14.172  -0.105  1.00  0.00     0.017 C 
ATOM      2  C   UNL     1     -28.589 -13.620   1.141  1.00  0.00     0.014 C 
ATOM      3  C   UNL     1     -29.165 -15.706  -0.189  1.00  0.00     0.014 C 
ATOM      4  C   UNL     1     -28.857 -13.476  -1.423  1.00  0.00     0.028 C 
ATOM      5  C   UNL     1     -27.072 -13.551   0.980  1.00  0.00     0.007 C 
ATOM      6  C   UNL     1     -29.872 -16.325  -1.410  1.00  0.00     0.013 C 
ATOM      7  C   UNL     1     -29.311 -14.206  -2.705  1.00  0.00    -0.064 C 
ATOM      8  C   UNL     1     -27.319 -13.213  -1.511  1.00  0.00     0.015 C 
ATOM      9  C   UNL     1     -26.653 -12.682  -0.217  1.00  0.00    -0.035 C 
ATOM     10  C   UNL     1     -29.422 -15.735  -2.799  1.00  0.00    -0.006 C 
ATOM     11  C   UNL     1     -29.321 -13.482  -3.846  1.00  0.00    -0.027 C 
ATOM     12  C   UNL     1     -25.121 -12.815  -0.379  1.00  0.00     0.011 C 
ATOM     13  C   UNL     1     -26.993 -11.193   0.011  1.00  0.00     0.011 C 
ATOM     14  C   UNL     1     -27.976 -16.271  -3.052  1.00  0.00     0.017 C 
ATOM     15  C   UNL     1     -30.465 -16.132  -3.980  1.00  0.00    -0.020 C 
ATOM     16  C   UNL     1     -29.268 -14.128  -5.201  1.00  0.00     0.032 C 
ATOM     17  C   UNL     1     -30.206 -15.352  -5.350  1.00  0.00     0.006 C 
ATOM     18  C   UNL     1     -30.435 -17.655  -4.230  1.00  0.00     0.008 C 
ATOM     19  C   UNL     1     -31.930 -15.786  -3.552  1.00  0.00     0.012 C 
ATOM     20  C   UNL     1     -29.921 -16.236  -6.649  1.00  0.00    -0.025 C 
ATOM     21  C   UNL     1     -31.278 -18.121  -5.413  1.00  0.00     0.005 C 
ATOM     22  C   UNL     1     -31.029 -17.368  -6.776  1.00  0.00     0.003 C 
ATOM     23  C   UNL     1     -28.481 -16.857  -6.661  1.00  0.00     0.010 C 
ATOM     24  C   UNL     1     -30.012 -15.272  -7.875  1.00  0.00     0.012 C 
ATOM     25  C   UNL     1     -30.833 -18.352  -8.036  1.00  0.00    -0.006 C 
ATOM     26  C   UNL     1     -28.416 -18.321  -7.122  1.00  0.00     0.033 C 
ATOM     27  C   UNL     1     -29.304 -18.616  -8.336  1.00  0.00     0.120 C 
ATOM     28  C   UNL     1     -31.526 -19.729  -7.816  1.00  0.00     0.014 C 
ATOM     29  C   UNL     1     -31.566 -17.790  -9.285  1.00  0.00     0.014 C 
ENDROOT
BRANCH   1  30
ATOM     30  C   UNL     1     -30.839 -13.864   0.105  1.00  0.00     0.048 C 
ATOM     31  O   UNL     1     -31.413 -12.945  -0.541  1.00  0.00    -0.550 OA
ATOM     32  O   UNL     1     -31.601 -14.617   0.991  1.00  0.00    -0.550 OA
ENDBRANCH   1  30
BRANCH  27  33
ATOM     33  O   UNL     1     -28.821 -17.874  -9.432  1.00  0.00    -0.393 OA
ATOM     34  H   UNL     1     -28.170 -18.451  -9.902  1.00  0.00     0.210 HD
ENDBRANCH  27  33
TORSDOF 2
ENDMDL
