MODEL 1
REMARK VINA RESULT:    -3.636      0.000      0.000
REMARK INTER + INTRA:          -4.577
REMARK INTER:                  -4.380
REMARK INTRA:                  -0.197
REMARK UNBOUND:                -0.197
REMARK SMILES OCC(O)CO
REMARK SMILES IDX 3 1 5 2 6 3 2 5 1 6 4 8
REMARK H PARENT 6 4 1 7 4 9
REMARK Flexibility Score: inf
ROOT
ATOM      1  C   UNL     1     156.405 156.286 144.144  1.00  0.00     0.165 C 
ENDROOT
BRANCH   1   2
ATOM      2  C   UNL     1     155.577 157.051 145.188  1.00  0.00     0.190 C 
BRANCH   2   3
ATOM      3  O   UNL     1     154.414 157.586 144.615  1.00  0.00    -0.394 OA
ATOM      4  H   UNL     1     154.011 158.191 145.291  1.00  0.00     0.210 HD
ENDBRANCH   2   3
ENDBRANCH   1   2
BRANCH   1   5
ATOM      5  C   UNL     1     155.602 156.003 142.862  1.00  0.00     0.190 C 
BRANCH   5   6
ATOM      6  O   UNL     1     155.820 157.000 141.899  1.00  0.00    -0.394 OA
ATOM      7  H   UNL     1     155.176 156.829 141.163  1.00  0.00     0.210 HD
ENDBRANCH   5   6
ENDBRANCH   1   5
BRANCH   1   8
ATOM      8  O   UNL     1     157.553 157.031 143.832  1.00  0.00    -0.388 OA
ATOM      9  H   UNL     1     157.695 157.668 144.580  1.00  0.00     0.211 HD
ENDBRANCH   1   8
TORSDOF 5
ENDMDL
MODEL 2
REMARK VINA RESULT:    -3.358      1.134      2.770
REMARK INTER + INTRA:          -4.242
REMARK INTER:                  -4.221
REMARK INTRA:                  -0.021
REMARK UNBOUND:                -0.197
REMARK SMILES OCC(O)CO
REMARK SMILES IDX 3 1 5 2 6 3 2 5 1 6 4 8
REMARK H PARENT 6 4 1 7 4 9
REMARK Flexibility Score: inf
ROOT
ATOM      1  C   UNL     1     156.354 155.994 143.769  1.00  0.00     0.165 C 
ENDROOT
BRANCH   1   2
ATOM      2  C   UNL     1     157.560 156.576 143.017  1.00  0.00     0.190 C 
BRANCH   2   3
ATOM      3  O   UNL     1     157.146 157.359 141.929  1.00  0.00    -0.394 OA
ATOM      4  H   UNL     1     157.583 158.245 142.028  1.00  0.00     0.210 HD
ENDBRANCH   2   3
ENDBRANCH   1   2
BRANCH   1   5
ATOM      5  C   UNL     1     155.896 156.904 144.923  1.00  0.00     0.190 C 
BRANCH   5   6
ATOM      6  O   UNL     1     154.593 157.377 144.707  1.00  0.00    -0.394 OA
ATOM      7  H   UNL     1     154.167 156.751 144.065  1.00  0.00     0.210 HD
ENDBRANCH   5   6
ENDBRANCH   1   5
BRANCH   1   8
ATOM      8  O   UNL     1     155.297 155.803 142.866  1.00  0.00    -0.388 OA
ATOM      9  H   UNL     1     154.460 155.794 143.401  1.00  0.00     0.211 HD
ENDBRANCH   1   8
TORSDOF 5
ENDMDL
MODEL 3
REMARK VINA RESULT:    -3.351      1.193      1.384
REMARK INTER + INTRA:          -4.234
REMARK INTER:                  -4.011
REMARK INTRA:                  -0.222
REMARK UNBOUND:                -0.197
REMARK SMILES OCC(O)CO
REMARK SMILES IDX 3 1 5 2 6 3 2 5 1 6 4 8
REMARK H PARENT 6 4 1 7 4 9
REMARK Flexibility Score: inf
ROOT
ATOM      1  C   UNL     1     157.028 156.522 143.081  1.00  0.00     0.165 C 
ENDROOT
BRANCH   1   2
ATOM      2  C   UNL     1     155.619 156.146 143.564  1.00  0.00     0.190 C 
BRANCH   2   3
ATOM      3  O   UNL     1     155.055 157.180 144.327  1.00  0.00    -0.394 OA
ATOM      4  H   UNL     1     155.173 158.018 143.808  1.00  0.00     0.210 HD
ENDBRANCH   2   3
ENDBRANCH   1   2
BRANCH   1   5
ATOM      5  C   UNL     1     156.996 157.318 141.764  1.00  0.00     0.190 C 
BRANCH   5   6
ATOM      6  O   UNL     1     155.698 157.767 141.478  1.00  0.00    -0.394 OA
ATOM      7  H   UNL     1     155.613 158.669 141.886  1.00  0.00     0.210 HD
ENDBRANCH   5   6
ENDBRANCH   1   5
BRANCH   1   8
ATOM      8  O   UNL     1     157.671 157.273 144.077  1.00  0.00    -0.388 OA
ATOM      9  H   UNL     1     158.102 156.626 144.693  1.00  0.00     0.211 HD
ENDBRANCH   1   8
TORSDOF 5
ENDMDL
MODEL 4
REMARK VINA RESULT:    -3.032      1.233      2.748
REMARK INTER + INTRA:          -3.849
REMARK INTER:                  -3.627
REMARK INTRA:                  -0.223
REMARK UNBOUND:                -0.197
REMARK SMILES OCC(O)CO
REMARK SMILES IDX 3 1 5 2 6 3 2 5 1 6 4 8
REMARK H PARENT 6 4 1 7 4 9
REMARK Flexibility Score: inf
ROOT
ATOM      1  C   UNL     1     155.836 156.318 143.158  1.00  0.00     0.165 C 
ENDROOT
BRANCH   1   2
ATOM      2  C   UNL     1     155.493 157.008 141.829  1.00  0.00     0.190 C 
BRANCH   2   3
ATOM      3  O   UNL     1     156.553 157.818 141.394  1.00  0.00    -0.394 OA
ATOM      4  H   UNL     1     156.164 158.701 141.161  1.00  0.00     0.210 HD
ENDBRANCH   2   3
ENDBRANCH   1   2
BRANCH   1   5
ATOM      5  C   UNL     1     157.355 156.233 143.392  1.00  0.00     0.190 C 
BRANCH   5   6
ATOM      6  O   UNL     1     157.831 157.382 144.041  1.00  0.00    -0.394 OA
ATOM      7  H   UNL     1     157.912 157.151 145.003  1.00  0.00     0.210 HD
ENDBRANCH   5   6
ENDBRANCH   1   5
BRANCH   1   8
ATOM      8  O   UNL     1     155.231 157.021 144.211  1.00  0.00    -0.388 OA
ATOM      9  H   UNL     1     155.586 157.948 144.180  1.00  0.00     0.211 HD
ENDBRANCH   1   8
TORSDOF 5
ENDMDL
MODEL 5
REMARK VINA RESULT:    -2.824     10.588     11.187
REMARK INTER + INTRA:          -3.599
REMARK INTER:                  -3.588
REMARK INTRA:                  -0.011
REMARK UNBOUND:                -0.197
REMARK SMILES OCC(O)CO
REMARK SMILES IDX 3 1 5 2 6 3 2 5 1 6 4 8
REMARK H PARENT 6 4 1 7 4 9
REMARK Flexibility Score: inf
ROOT
ATOM      1  C   UNL     1     153.937 148.777 136.316  1.00  0.00     0.165 C 
ENDROOT
BRANCH   1   2
ATOM      2  C   UNL     1     152.403 148.694 136.272  1.00  0.00     0.190 C 
BRANCH   2   3
ATOM      3  O   UNL     1     151.833 149.970 136.145  1.00  0.00    -0.394 OA
ATOM      4  H   UNL     1     151.172 149.918 135.406  1.00  0.00     0.210 HD
ENDBRANCH   2   3
ENDBRANCH   1   2
BRANCH   1   5
ATOM      5  C   UNL     1     154.563 148.668 134.915  1.00  0.00     0.190 C 
BRANCH   5   6
ATOM      6  O   UNL     1     155.512 149.681 134.706  1.00  0.00    -0.394 OA
ATOM      7  H   UNL     1     155.659 149.734 133.726  1.00  0.00     0.210 HD
ENDBRANCH   5   6
ENDBRANCH   1   5
BRANCH   1   8
ATOM      8  O   UNL     1     154.315 149.989 136.913  1.00  0.00    -0.388 OA
ATOM      9  H   UNL     1     155.272 150.132 136.693  1.00  0.00     0.211 HD
ENDBRANCH   1   8
TORSDOF 5
ENDMDL
MODEL 6
REMARK VINA RESULT:    -2.661     10.463     11.200
REMARK INTER + INTRA:          -3.403
REMARK INTER:                  -3.256
REMARK INTRA:                  -0.146
REMARK UNBOUND:                -0.197
REMARK SMILES OCC(O)CO
REMARK SMILES IDX 3 1 5 2 6 3 2 5 1 6 4 8
REMARK H PARENT 6 4 1 7 4 9
REMARK Flexibility Score: inf
ROOT
ATOM      1  C   UNL     1     152.124 148.657 136.423  1.00  0.00     0.165 C 
ENDROOT
BRANCH   1   2
ATOM      2  C   UNL     1     151.298 149.788 137.055  1.00  0.00     0.190 C 
BRANCH   2   3
ATOM      3  O   UNL     1     151.164 150.869 136.169  1.00  0.00    -0.394 OA
ATOM      4  H   UNL     1     151.880 150.773 135.487  1.00  0.00     0.210 HD
ENDBRANCH   2   3
ENDBRANCH   1   2
BRANCH   1   5
ATOM      5  C   UNL     1     153.569 148.629 136.955  1.00  0.00     0.190 C 
BRANCH   5   6
ATOM      6  O   UNL     1     154.177 149.888 136.829  1.00  0.00    -0.394 OA
ATOM      7  H   UNL     1     155.149 149.723 136.719  1.00  0.00     0.210 HD
ENDBRANCH   5   6
ENDBRANCH   1   5
BRANCH   1   8
ATOM      8  O   UNL     1     151.498 147.429 136.683  1.00  0.00    -0.388 OA
ATOM      9  H   UNL     1     151.701 146.834 135.915  1.00  0.00     0.211 HD
ENDBRANCH   1   8
TORSDOF 5
ENDMDL
MODEL 7
REMARK VINA RESULT:    -2.560     10.699     11.436
REMARK INTER + INTRA:          -3.281
REMARK INTER:                  -3.095
REMARK INTRA:                  -0.185
REMARK UNBOUND:                -0.197
REMARK SMILES OCC(O)CO
REMARK SMILES IDX 3 1 5 2 6 3 2 5 1 6 4 8
REMARK H PARENT 6 4 1 7 4 9
REMARK Flexibility Score: inf
ROOT
ATOM      1  C   UNL     1     151.712 148.745 136.823  1.00  0.00     0.165 C 
ENDROOT
BRANCH   1   2
ATOM      2  C   UNL     1     153.213 148.686 136.501  1.00  0.00     0.190 C 
BRANCH   2   3
ATOM      3  O   UNL     1     153.887 149.794 137.037  1.00  0.00    -0.394 OA
ATOM      4  H   UNL     1     154.548 150.087 136.356  1.00  0.00     0.210 HD
ENDBRANCH   2   3
ENDBRANCH   1   2
BRANCH   1   5
ATOM      5  C   UNL     1     150.953 149.689 135.874  1.00  0.00     0.190 C 
BRANCH   5   6
ATOM      6  O   UNL     1     151.092 151.027 136.275  1.00  0.00    -0.394 OA
ATOM      7  H   UNL     1     150.785 151.585 135.513  1.00  0.00     0.210 HD
ENDBRANCH   5   6
ENDBRANCH   1   5
BRANCH   1   8
ATOM      8  O   UNL     1     151.172 147.453 136.740  1.00  0.00    -0.388 OA
ATOM      9  H   UNL     1     151.490 147.062 135.885  1.00  0.00     0.211 HD
ENDBRANCH   1   8
TORSDOF 5
ENDMDL
MODEL 8
REMARK VINA RESULT:    -2.534     10.816     11.750
REMARK INTER + INTRA:          -3.249
REMARK INTER:                  -3.029
REMARK INTRA:                  -0.220
REMARK UNBOUND:                -0.197
REMARK SMILES OCC(O)CO
REMARK SMILES IDX 3 1 5 2 6 3 2 5 1 6 4 8
REMARK H PARENT 6 4 1 7 4 9
REMARK Flexibility Score: inf
ROOT
ATOM      1  C   UNL     1     152.090 149.159 136.940  1.00  0.00     0.165 C 
ENDROOT
BRANCH   1   2
ATOM      2  C   UNL     1     151.382 147.921 136.367  1.00  0.00     0.190 C 
BRANCH   2   3
ATOM      3  O   UNL     1     151.515 147.867 134.971  1.00  0.00    -0.394 OA
ATOM      4  H   UNL     1     151.928 146.990 134.754  1.00  0.00     0.210 HD
ENDBRANCH   2   3
ENDBRANCH   1   2
BRANCH   1   5
ATOM      5  C   UNL     1     153.622 149.044 136.849  1.00  0.00     0.190 C 
BRANCH   5   6
ATOM      6  O   UNL     1     154.053 149.096 135.515  1.00  0.00    -0.394 OA
ATOM      7  H   UNL     1     153.420 149.692 135.035  1.00  0.00     0.210 HD
ENDBRANCH   5   6
ENDBRANCH   1   5
BRANCH   1   8
ATOM      8  O   UNL     1     151.656 150.299 136.248  1.00  0.00    -0.388 OA
ATOM      9  H   UNL     1     150.933 150.708 136.792  1.00  0.00     0.211 HD
ENDBRANCH   1   8
TORSDOF 5
ENDMDL
MODEL 9
REMARK VINA RESULT:    -2.495     16.244     17.030
REMARK INTER + INTRA:          -3.203
REMARK INTER:                  -2.980
REMARK INTRA:                  -0.223
REMARK UNBOUND:                -0.197
REMARK SMILES OCC(O)CO
REMARK SMILES IDX 3 1 5 2 6 3 2 5 1 6 4 8
REMARK H PARENT 6 4 1 7 4 9
REMARK Flexibility Score: inf
ROOT
ATOM      1  C   UNL     1     147.071 155.198 129.120  1.00  0.00     0.165 C 
ENDROOT
BRANCH   1   2
ATOM      2  C   UNL     1     146.261 154.847 130.377  1.00  0.00     0.190 C 
BRANCH   2   3
ATOM      3  O   UNL     1     146.314 155.888 131.317  1.00  0.00    -0.394 OA
ATOM      4  H   UNL     1     146.495 156.723 130.812  1.00  0.00     0.210 HD
ENDBRANCH   2   3
ENDBRANCH   1   2
BRANCH   1   5
ATOM      5  C   UNL     1     146.267 156.067 128.137  1.00  0.00     0.190 C 
BRANCH   5   6
ATOM      6  O   UNL     1     145.875 157.275 128.735  1.00  0.00    -0.394 OA
ATOM      7  H   UNL     1     145.032 157.088 129.225  1.00  0.00     0.210 HD
ENDBRANCH   5   6
ENDBRANCH   1   5
BRANCH   1   8
ATOM      8  O   UNL     1     148.243 155.870 129.500  1.00  0.00    -0.388 OA
ATOM      9  H   UNL     1     148.251 156.734 129.010  1.00  0.00     0.211 HD
ENDBRANCH   1   8
TORSDOF 5
ENDMDL
