MODEL 1
REMARK VINA RESULT:    -7.253      0.000      0.000
REMARK INTER + INTRA:          -8.983
REMARK INTER:                  -8.738
REMARK INTRA:                  -0.245
REMARK UNBOUND:                -0.245
REMARK SMILES O=c1c(O)c(-c2ccc(O)c(O)c2)oc2cc(O)cc(O)c12
REMARK SMILES IDX 5 1 3 2 2 3 1 4 22 5 20 6 19 7 17 8 16 9 15 10 14 11 6 12
REMARK SMILES IDX 7 13 8 14 9 15 13 16 11 17 10 18 12 20 4 22 21 24 18 26
REMARK H PARENT 10 19 12 21 4 23 21 25 18 27
REMARK Flexibility Score: inf
ROOT
ATOM      1  C   UNL     1      18.595  24.507  41.660  1.00  0.00     0.180 A 
ATOM      2  C   UNL     1      17.308  24.295  42.184  1.00  0.00     0.208 A 
ATOM      3  C   UNL     1      16.882  25.067  43.277  1.00  0.00     0.238 A 
ATOM      4  O   UNL     1      15.710  24.909  43.708  1.00  0.00    -0.285 OA
ATOM      5  C   UNL     1      17.754  26.028  43.844  1.00  0.00     0.111 A 
ATOM      6  C   UNL     1      17.442  26.836  44.978  1.00  0.00     0.134 A 
ATOM      7  C   UNL     1      18.330  27.846  45.371  1.00  0.00     0.093 A 
ATOM      8  C   UNL     1      19.546  28.032  44.712  1.00  0.00     0.123 A 
ATOM      9  C   UNL     1      19.886  27.209  43.640  1.00  0.00     0.094 A 
ATOM     10  C   UNL     1      19.006  26.217  43.202  1.00  0.00     0.146 A 
ATOM     11  O   UNL     1      19.364  25.462  42.171  1.00  0.00    -0.452 OA
ENDROOT
BRANCH   1  12
ATOM     12  C   UNL     1      19.124  23.717  40.525  1.00  0.00     0.025 A 
ATOM     13  C   UNL     1      18.666  23.983  39.225  1.00  0.00     0.016 A 
ATOM     14  C   UNL     1      19.166  23.264  38.137  1.00  0.00     0.051 A 
ATOM     15  C   UNL     1      20.142  22.280  38.328  1.00  0.00     0.157 A 
ATOM     16  C   UNL     1      20.121  22.742  40.713  1.00  0.00     0.062 A 
ATOM     17  C   UNL     1      20.626  22.020  39.622  1.00  0.00     0.158 A 
BRANCH  15  18
ATOM     18  O   UNL     1      20.622  21.577  37.224  1.00  0.00    -0.504 OA
ATOM     19  H   UNL     1      20.023  21.323  36.447  1.00  0.00     0.293 HD
ENDBRANCH  15  18
BRANCH  17  20
ATOM     20  O   UNL     1      21.609  21.052  39.818  1.00  0.00    -0.504 OA
ATOM     21  H   UNL     1      22.414  20.980  39.207  1.00  0.00     0.293 HD
ENDBRANCH  17  20
ENDBRANCH   1  12
BRANCH   2  22
ATOM     22  O   UNL     1      16.456  23.356  41.596  1.00  0.00    -0.502 OA
ATOM     23  H   UNL     1      16.351  22.416  41.957  1.00  0.00     0.293 HD
ENDBRANCH   2  22
BRANCH   6  24
ATOM     24  O   UNL     1      16.297  26.671  45.763  1.00  0.00    -0.507 OA
ATOM     25  H   UNL     1      15.459  26.196  45.464  1.00  0.00     0.293 HD
ENDBRANCH   6  24
BRANCH   8  26
ATOM     26  O   UNL     1      20.431  29.029  45.120  1.00  0.00    -0.508 OA
ATOM     27  H   UNL     1      20.512  29.299  46.092  1.00  0.00     0.293 HD
ENDBRANCH   8  26
TORSDOF 6
ENDMDL
MODEL 2
REMARK VINA RESULT:    -7.073      1.408      3.200
REMARK INTER + INTRA:          -8.765
REMARK INTER:                  -8.437
REMARK INTRA:                  -0.328
REMARK UNBOUND:                -0.245
REMARK SMILES O=c1c(O)c(-c2ccc(O)c(O)c2)oc2cc(O)cc(O)c12
REMARK SMILES IDX 5 1 3 2 2 3 1 4 22 5 20 6 19 7 17 8 16 9 15 10 14 11 6 12
REMARK SMILES IDX 7 13 8 14 9 15 13 16 11 17 10 18 12 20 4 22 21 24 18 26
REMARK H PARENT 10 19 12 21 4 23 21 25 18 27
REMARK Flexibility Score: inf
ROOT
ATOM      1  C   UNL     1      19.390  24.468  41.243  1.00  0.00     0.180 A 
ATOM      2  C   UNL     1      20.087  25.674  41.432  1.00  0.00     0.208 A 
ATOM      3  C   UNL     1      19.682  26.540  42.460  1.00  0.00     0.238 A 
ATOM      4  O   UNL     1      20.342  27.592  42.660  1.00  0.00    -0.285 OA
ATOM      5  C   UNL     1      18.574  26.198  43.274  1.00  0.00     0.111 A 
ATOM      6  C   UNL     1      18.051  27.020  44.318  1.00  0.00     0.134 A 
ATOM      7  C   UNL     1      17.035  26.522  45.144  1.00  0.00     0.093 A 
ATOM      8  C   UNL     1      16.480  25.260  44.923  1.00  0.00     0.123 A 
ATOM      9  C   UNL     1      16.943  24.475  43.869  1.00  0.00     0.094 A 
ATOM     10  C   UNL     1      17.979  24.929  43.051  1.00  0.00     0.146 A 
ATOM     11  O   UNL     1      18.398  24.145  42.065  1.00  0.00    -0.452 OA
ENDROOT
BRANCH   1  12
ATOM     12  C   UNL     1      19.743  23.515  40.166  1.00  0.00     0.025 A 
ATOM     13  C   UNL     1      20.547  22.403  40.461  1.00  0.00     0.016 A 
ATOM     14  C   UNL     1      20.875  21.481  39.465  1.00  0.00     0.051 A 
ATOM     15  C   UNL     1      20.393  21.645  38.163  1.00  0.00     0.157 A 
ATOM     16  C   UNL     1      19.242  23.668  38.860  1.00  0.00     0.062 A 
ATOM     17  C   UNL     1      19.568  22.742  37.858  1.00  0.00     0.158 A 
BRANCH  15  18
ATOM     18  O   UNL     1      20.738  20.709  37.189  1.00  0.00    -0.504 OA
ATOM     19  H   UNL     1      20.292  20.691  36.279  1.00  0.00     0.293 HD
ENDBRANCH  15  18
BRANCH  17  20
ATOM     20  O   UNL     1      19.073  22.904  36.566  1.00  0.00    -0.504 OA
ATOM     21  H   UNL     1      18.747  23.804  36.231  1.00  0.00     0.293 HD
ENDBRANCH  17  20
ENDBRANCH   1  12
BRANCH   2  22
ATOM     22  O   UNL     1      21.190  25.981  40.632  1.00  0.00    -0.502 OA
ATOM     23  H   UNL     1      21.823  25.272  40.282  1.00  0.00     0.293 HD
ENDBRANCH   2  22
BRANCH   6  24
ATOM     24  O   UNL     1      18.472  28.329  44.565  1.00  0.00    -0.507 OA
ATOM     25  H   UNL     1      18.959  28.629  45.396  1.00  0.00     0.293 HD
ENDBRANCH   6  24
BRANCH   8  26
ATOM     26  O   UNL     1      15.458  24.780  45.740  1.00  0.00    -0.508 OA
ATOM     27  H   UNL     1      15.256  25.202  46.638  1.00  0.00     0.293 HD
ENDBRANCH   8  26
TORSDOF 6
ENDMDL
MODEL 3
REMARK VINA RESULT:    -6.624      1.629      6.901
REMARK INTER + INTRA:          -8.225
REMARK INTER:                  -7.892
REMARK INTRA:                  -0.333
REMARK UNBOUND:                -0.245
REMARK SMILES O=c1c(O)c(-c2ccc(O)c(O)c2)oc2cc(O)cc(O)c12
REMARK SMILES IDX 5 1 3 2 2 3 1 4 22 5 20 6 19 7 17 8 16 9 15 10 14 11 6 12
REMARK SMILES IDX 7 13 8 14 9 15 13 16 11 17 10 18 12 20 4 22 21 24 18 26
REMARK H PARENT 10 19 12 21 4 23 21 25 18 27
REMARK Flexibility Score: inf
ROOT
ATOM      1  C   UNL     1      17.575  25.268  42.257  1.00  0.00     0.180 A 
ATOM      2  C   UNL     1      16.759  25.514  41.140  1.00  0.00     0.208 A 
ATOM      3  C   UNL     1      17.090  24.920  39.912  1.00  0.00     0.238 A 
ATOM      4  O   UNL     1      16.327  25.100  38.928  1.00  0.00    -0.285 OA
ATOM      5  C   UNL     1      18.242  24.102  39.812  1.00  0.00     0.111 A 
ATOM      6  C   UNL     1      18.694  23.482  38.608  1.00  0.00     0.134 A 
ATOM      7  C   UNL     1      19.772  22.588  38.655  1.00  0.00     0.093 A 
ATOM      8  C   UNL     1      20.452  22.342  39.849  1.00  0.00     0.123 A 
ATOM      9  C   UNL     1      20.055  22.988  41.018  1.00  0.00     0.094 A 
ATOM     10  C   UNL     1      18.962  23.857  41.011  1.00  0.00     0.146 A 
ATOM     11  O   UNL     1      18.610  24.443  42.148  1.00  0.00    -0.452 OA
ENDROOT
BRANCH   1  12
ATOM     12  C   UNL     1      17.304  25.878  43.580  1.00  0.00     0.025 A 
ATOM     13  C   UNL     1      16.577  25.156  44.539  1.00  0.00     0.016 A 
ATOM     14  C   UNL     1      16.328  25.704  45.799  1.00  0.00     0.051 A 
ATOM     15  C   UNL     1      16.814  26.974  46.127  1.00  0.00     0.157 A 
ATOM     16  C   UNL     1      17.811  27.146  43.918  1.00  0.00     0.062 A 
ATOM     17  C   UNL     1      17.564  27.698  45.184  1.00  0.00     0.158 A 
BRANCH  15  18
ATOM     18  O   UNL     1      16.549  27.495  47.392  1.00  0.00    -0.504 OA
ATOM     19  H   UNL     1      17.215  28.079  47.884  1.00  0.00     0.293 HD
ENDBRANCH  15  18
BRANCH  17  20
ATOM     20  O   UNL     1      18.064  28.957  45.509  1.00  0.00    -0.504 OA
ATOM     21  H   UNL     1      17.595  29.559  46.176  1.00  0.00     0.293 HD
ENDBRANCH  17  20
ENDBRANCH   1  12
BRANCH   2  22
ATOM     22  O   UNL     1      15.615  26.307  41.265  1.00  0.00    -0.502 OA
ATOM     23  H   UNL     1      15.304  26.932  40.531  1.00  0.00     0.293 HD
ENDBRANCH   2  22
BRANCH   6  24
ATOM     24  O   UNL     1      18.143  23.730  37.348  1.00  0.00    -0.507 OA
ATOM     25  H   UNL     1      18.164  23.083  36.575  1.00  0.00     0.293 HD
ENDBRANCH   6  24
BRANCH   8  26
ATOM     26  O   UNL     1      21.533  21.463  39.884  1.00  0.00    -0.508 OA
ATOM     27  H   UNL     1      21.454  20.543  40.299  1.00  0.00     0.293 HD
ENDBRANCH   8  26
TORSDOF 6
ENDMDL
MODEL 4
REMARK VINA RESULT:    -6.609      3.870      7.195
REMARK INTER + INTRA:          -8.207
REMARK INTER:                  -8.051
REMARK INTRA:                  -0.156
REMARK UNBOUND:                -0.245
REMARK SMILES O=c1c(O)c(-c2ccc(O)c(O)c2)oc2cc(O)cc(O)c12
REMARK SMILES IDX 5 1 3 2 2 3 1 4 22 5 20 6 19 7 17 8 16 9 15 10 14 11 6 12
REMARK SMILES IDX 7 13 8 14 9 15 13 16 11 17 10 18 12 20 4 22 21 24 18 26
REMARK H PARENT 10 19 12 21 4 23 21 25 18 27
REMARK Flexibility Score: inf
ROOT
ATOM      1  C   UNL     1      17.438  24.184  45.392  1.00  0.00     0.180 A 
ATOM      2  C   UNL     1      17.206  23.505  44.183  1.00  0.00     0.208 A 
ATOM      3  C   UNL     1      16.957  22.124  44.215  1.00  0.00     0.238 A 
ATOM      4  O   UNL     1      16.697  21.532  43.135  1.00  0.00    -0.285 OA
ATOM      5  C   UNL     1      16.961  21.435  45.452  1.00  0.00     0.111 A 
ATOM      6  C   UNL     1      16.762  20.029  45.597  1.00  0.00     0.134 A 
ATOM      7  C   UNL     1      16.655  19.476  46.880  1.00  0.00     0.093 A 
ATOM      8  C   UNL     1      16.806  20.268  48.021  1.00  0.00     0.123 A 
ATOM      9  C   UNL     1      17.060  21.631  47.888  1.00  0.00     0.094 A 
ATOM     10  C   UNL     1      17.136  22.218  46.623  1.00  0.00     0.146 A 
ATOM     11  O   UNL     1      17.369  23.522  46.542  1.00  0.00    -0.452 OA
ENDROOT
BRANCH   1  12
ATOM     12  C   UNL     1      17.730  25.635  45.438  1.00  0.00     0.025 A 
ATOM     13  C   UNL     1      16.898  26.485  46.181  1.00  0.00     0.016 A 
ATOM     14  C   UNL     1      17.167  27.854  46.254  1.00  0.00     0.051 A 
ATOM     15  C   UNL     1      18.280  28.392  45.601  1.00  0.00     0.157 A 
ATOM     16  C   UNL     1      18.862  26.174  44.798  1.00  0.00     0.062 A 
ATOM     17  C   UNL     1      19.136  27.548  44.873  1.00  0.00     0.158 A 
BRANCH  15  18
ATOM     18  O   UNL     1      18.523  29.762  45.691  1.00  0.00    -0.504 OA
ATOM     19  H   UNL     1      19.065  30.258  44.994  1.00  0.00     0.293 HD
ENDBRANCH  15  18
BRANCH  17  20
ATOM     20  O   UNL     1      20.255  28.074  44.231  1.00  0.00    -0.504 OA
ATOM     21  H   UNL     1      20.206  28.433  43.284  1.00  0.00     0.293 HD
ENDBRANCH  17  20
ENDBRANCH   1  12
BRANCH   2  22
ATOM     22  O   UNL     1      17.185  24.208  42.976  1.00  0.00    -0.502 OA
ATOM     23  H   UNL     1      16.329  24.384  42.464  1.00  0.00     0.293 HD
ENDBRANCH   2  22
BRANCH   6  24
ATOM     24  O   UNL     1      16.690  19.136  44.525  1.00  0.00    -0.507 OA
ATOM     25  H   UNL     1      16.156  18.280  44.525  1.00  0.00     0.293 HD
ENDBRANCH   6  24
BRANCH   8  26
ATOM     26  O   UNL     1      16.714  19.707  49.293  1.00  0.00    -0.508 OA
ATOM     27  H   UNL     1      17.510  19.259  49.732  1.00  0.00     0.293 HD
ENDBRANCH   8  26
TORSDOF 6
ENDMDL
MODEL 5
REMARK VINA RESULT:    -6.481      3.056      5.966
REMARK INTER + INTRA:          -8.052
REMARK INTER:                  -7.729
REMARK INTRA:                  -0.323
REMARK UNBOUND:                -0.245
REMARK SMILES O=c1c(O)c(-c2ccc(O)c(O)c2)oc2cc(O)cc(O)c12
REMARK SMILES IDX 5 1 3 2 2 3 1 4 22 5 20 6 19 7 17 8 16 9 15 10 14 11 6 12
REMARK SMILES IDX 7 13 8 14 9 15 13 16 11 17 10 18 12 20 4 22 21 24 18 26
REMARK H PARENT 10 19 12 21 4 23 21 25 18 27
REMARK Flexibility Score: inf
ROOT
ATOM      1  C   UNL     1      17.407  24.097  42.930  1.00  0.00     0.180 A 
ATOM      2  C   UNL     1      16.052  24.345  42.648  1.00  0.00     0.208 A 
ATOM      3  C   UNL     1      15.122  23.306  42.807  1.00  0.00     0.238 A 
ATOM      4  O   UNL     1      13.904  23.548  42.604  1.00  0.00    -0.285 OA
ATOM      5  C   UNL     1      15.560  22.027  43.229  1.00  0.00     0.111 A 
ATOM      6  C   UNL     1      14.711  20.891  43.385  1.00  0.00     0.134 A 
ATOM      7  C   UNL     1      15.230  19.711  43.935  1.00  0.00     0.093 A 
ATOM      8  C   UNL     1      16.581  19.608  44.273  1.00  0.00     0.123 A 
ATOM      9  C   UNL     1      17.430  20.693  44.069  1.00  0.00     0.094 A 
ATOM     10  C   UNL     1      16.935  21.894  43.557  1.00  0.00     0.146 A 
ATOM     11  O   UNL     1      17.776  22.906  43.388  1.00  0.00    -0.452 OA
ENDROOT
BRANCH   1  12
ATOM     12  C   UNL     1      18.450  25.135  42.763  1.00  0.00     0.025 A 
ATOM     13  C   UNL     1      19.086  25.283  41.521  1.00  0.00     0.016 A 
ATOM     14  C   UNL     1      20.058  26.269  41.336  1.00  0.00     0.051 A 
ATOM     15  C   UNL     1      20.398  27.132  42.382  1.00  0.00     0.157 A 
ATOM     16  C   UNL     1      18.778  26.018  43.809  1.00  0.00     0.062 A 
ATOM     17  C   UNL     1      19.752  27.011  43.624  1.00  0.00     0.158 A 
BRANCH  15  18
ATOM     18  O   UNL     1      21.373  28.106  42.169  1.00  0.00    -0.504 OA
ATOM     19  H   UNL     1      21.241  29.070  42.451  1.00  0.00     0.293 HD
ENDBRANCH  15  18
BRANCH  17  20
ATOM     20  O   UNL     1      20.075  27.876  44.667  1.00  0.00    -0.504 OA
ATOM     21  H   UNL     1      19.364  28.413  45.152  1.00  0.00     0.293 HD
ENDBRANCH  17  20
ENDBRANCH   1  12
BRANCH   2  22
ATOM     22  O   UNL     1      15.639  25.620  42.253  1.00  0.00    -0.502 OA
ATOM     23  H   UNL     1      15.480  26.370  42.915  1.00  0.00     0.293 HD
ENDBRANCH   2  22
BRANCH   6  24
ATOM     24  O   UNL     1      13.369  20.859  42.993  1.00  0.00    -0.507 OA
ATOM     25  H   UNL     1      12.622  20.456  43.538  1.00  0.00     0.293 HD
ENDBRANCH   6  24
BRANCH   8  26
ATOM     26  O   UNL     1      17.092  18.425  44.804  1.00  0.00    -0.508 OA
ATOM     27  H   UNL     1      16.609  17.924  45.540  1.00  0.00     0.293 HD
ENDBRANCH   8  26
TORSDOF 6
ENDMDL
MODEL 6
REMARK VINA RESULT:    -6.405      1.501      2.085
REMARK INTER + INTRA:          -7.961
REMARK INTER:                  -7.638
REMARK INTRA:                  -0.322
REMARK UNBOUND:                -0.245
REMARK SMILES O=c1c(O)c(-c2ccc(O)c(O)c2)oc2cc(O)cc(O)c12
REMARK SMILES IDX 5 1 3 2 2 3 1 4 22 5 20 6 19 7 17 8 16 9 15 10 14 11 6 12
REMARK SMILES IDX 7 13 8 14 9 15 13 16 11 17 10 18 12 20 4 22 21 24 18 26
REMARK H PARENT 10 19 12 21 4 23 21 25 18 27
REMARK Flexibility Score: inf
ROOT
ATOM      1  C   UNL     1      18.031  24.437  42.401  1.00  0.00     0.180 A 
ATOM      2  C   UNL     1      17.196  23.632  43.194  1.00  0.00     0.208 A 
ATOM      3  C   UNL     1      16.756  24.122  44.434  1.00  0.00     0.238 A 
ATOM      4  O   UNL     1      15.966  23.420  45.117  1.00  0.00    -0.285 OA
ATOM      5  C   UNL     1      17.172  25.403  44.873  1.00  0.00     0.111 A 
ATOM      6  C   UNL     1      16.821  25.983  46.129  1.00  0.00     0.134 A 
ATOM      7  C   UNL     1      17.180  27.309  46.402  1.00  0.00     0.093 A 
ATOM      8  C   UNL     1      17.933  28.053  45.491  1.00  0.00     0.123 A 
ATOM      9  C   UNL     1      18.331  27.476  44.288  1.00  0.00     0.094 A 
ATOM     10  C   UNL     1      17.958  26.168  43.972  1.00  0.00     0.146 A 
ATOM     11  O   UNL     1      18.349  25.660  42.810  1.00  0.00    -0.452 OA
ENDROOT
BRANCH   1  12
ATOM     12  C   UNL     1      18.554  23.980  41.092  1.00  0.00     0.025 A 
ATOM     13  C   UNL     1      19.738  23.228  41.045  1.00  0.00     0.016 A 
ATOM     14  C   UNL     1      20.239  22.770  39.825  1.00  0.00     0.051 A 
ATOM     15  C   UNL     1      19.556  23.042  38.634  1.00  0.00     0.157 A 
ATOM     16  C   UNL     1      17.857  24.234  39.896  1.00  0.00     0.062 A 
ATOM     17  C   UNL     1      18.357  23.773  38.669  1.00  0.00     0.158 A 
BRANCH  15  18
ATOM     18  O   UNL     1      20.080  22.573  37.430  1.00  0.00    -0.504 OA
ATOM     19  H   UNL     1      20.698  21.771  37.389  1.00  0.00     0.293 HD
ENDBRANCH  15  18
BRANCH  17  20
ATOM     20  O   UNL     1      17.664  24.035  37.489  1.00  0.00    -0.504 OA
ATOM     21  H   UNL     1      17.932  23.608  36.609  1.00  0.00     0.293 HD
ENDBRANCH  17  20
ENDBRANCH   1  12
BRANCH   2  22
ATOM     22  O   UNL     1      16.780  22.380  42.733  1.00  0.00    -0.502 OA
ATOM     23  H   UNL     1      17.432  21.678  42.405  1.00  0.00     0.293 HD
ENDBRANCH   2  22
BRANCH   6  24
ATOM     24  O   UNL     1      16.150  25.296  47.146  1.00  0.00    -0.507 OA
ATOM     25  H   UNL     1      15.957  24.307  47.139  1.00  0.00     0.293 HD
ENDBRANCH   6  24
BRANCH   8  26
ATOM     26  O   UNL     1      18.300  29.367  45.778  1.00  0.00    -0.508 OA
ATOM     27  H   UNL     1      17.868  29.884  46.534  1.00  0.00     0.293 HD
ENDBRANCH   8  26
TORSDOF 6
ENDMDL
MODEL 7
REMARK VINA RESULT:    -6.338      3.037      5.413
REMARK INTER + INTRA:          -7.881
REMARK INTER:                  -7.548
REMARK INTRA:                  -0.333
REMARK UNBOUND:                -0.245
REMARK SMILES O=c1c(O)c(-c2ccc(O)c(O)c2)oc2cc(O)cc(O)c12
REMARK SMILES IDX 5 1 3 2 2 3 1 4 22 5 20 6 19 7 17 8 16 9 15 10 14 11 6 12
REMARK SMILES IDX 7 13 8 14 9 15 13 16 11 17 10 18 12 20 4 22 21 24 18 26
REMARK H PARENT 10 19 12 21 4 23 21 25 18 27
REMARK Flexibility Score: inf
ROOT
ATOM      1  C   UNL     1      17.548  23.641  42.498  1.00  0.00     0.180 A 
ATOM      2  C   UNL     1      17.981  24.688  43.329  1.00  0.00     0.208 A 
ATOM      3  C   UNL     1      18.667  25.772  42.757  1.00  0.00     0.238 A 
ATOM      4  O   UNL     1      19.005  26.731  43.498  1.00  0.00    -0.285 OA
ATOM      5  C   UNL     1      18.928  25.786  41.365  1.00  0.00     0.111 A 
ATOM      6  C   UNL     1      19.650  26.813  40.687  1.00  0.00     0.134 A 
ATOM      7  C   UNL     1      19.733  26.789  39.288  1.00  0.00     0.093 A 
ATOM      8  C   UNL     1      19.177  25.742  38.552  1.00  0.00     0.123 A 
ATOM      9  C   UNL     1      18.521  24.704  39.210  1.00  0.00     0.094 A 
ATOM     10  C   UNL     1      18.390  24.718  40.600  1.00  0.00     0.146 A 
ATOM     11  O   UNL     1      17.748  23.715  41.187  1.00  0.00    -0.452 OA
ENDROOT
BRANCH   1  12
ATOM     12  C   UNL     1      16.839  22.454  43.030  1.00  0.00     0.025 A 
ATOM     13  C   UNL     1      15.436  22.419  43.008  1.00  0.00     0.016 A 
ATOM     14  C   UNL     1      14.748  21.301  43.486  1.00  0.00     0.051 A 
ATOM     15  C   UNL     1      15.450  20.196  43.978  1.00  0.00     0.157 A 
ATOM     16  C   UNL     1      17.544  21.333  43.505  1.00  0.00     0.062 A 
ATOM     17  C   UNL     1      16.855  20.208  43.983  1.00  0.00     0.158 A 
BRANCH  15  18
ATOM     18  O   UNL     1      14.736  19.095  44.450  1.00  0.00    -0.504 OA
ATOM     19  H   UNL     1      13.981  18.676  43.919  1.00  0.00     0.293 HD
ENDBRANCH  15  18
BRANCH  17  20
ATOM     20  O   UNL     1      17.561  19.105  44.458  1.00  0.00    -0.504 OA
ATOM     21  H   UNL     1      18.226  19.186  45.219  1.00  0.00     0.293 HD
ENDBRANCH  17  20
ENDBRANCH   1  12
BRANCH   2  22
ATOM     22  O   UNL     1      17.694  24.665  44.697  1.00  0.00    -0.502 OA
ATOM     23  H   UNL     1      18.392  24.435  45.394  1.00  0.00     0.293 HD
ENDBRANCH   2  22
BRANCH   6  24
ATOM     24  O   UNL     1      20.321  27.854  41.334  1.00  0.00    -0.507 OA
ATOM     25  H   UNL     1      20.036  28.821  41.314  1.00  0.00     0.293 HD
ENDBRANCH   6  24
BRANCH   8  26
ATOM     26  O   UNL     1      19.279  25.718  37.162  1.00  0.00    -0.508 OA
ATOM     27  H   UNL     1      19.963  25.138  36.691  1.00  0.00     0.293 HD
ENDBRANCH   8  26
TORSDOF 6
ENDMDL
MODEL 8
REMARK VINA RESULT:    -6.327      2.405      6.997
REMARK INTER + INTRA:          -7.867
REMARK INTER:                  -7.547
REMARK INTRA:                  -0.321
REMARK UNBOUND:                -0.245
REMARK SMILES O=c1c(O)c(-c2ccc(O)c(O)c2)oc2cc(O)cc(O)c12
REMARK SMILES IDX 5 1 3 2 2 3 1 4 22 5 20 6 19 7 17 8 16 9 15 10 14 11 6 12
REMARK SMILES IDX 7 13 8 14 9 15 13 16 11 17 10 18 12 20 4 22 21 24 18 26
REMARK H PARENT 10 19 12 21 4 23 21 25 18 27
REMARK Flexibility Score: inf
ROOT
ATOM      1  C   UNL     1      19.036  25.600  40.637  1.00  0.00     0.180 A 
ATOM      2  C   UNL     1      19.312  24.234  40.454  1.00  0.00     0.208 A 
ATOM      3  C   UNL     1      19.556  23.757  39.157  1.00  0.00     0.238 A 
ATOM      4  O   UNL     1      19.855  22.544  39.005  1.00  0.00    -0.285 OA
ATOM      5  C   UNL     1      19.503  24.647  38.056  1.00  0.00     0.111 A 
ATOM      6  C   UNL     1      19.694  24.264  36.695  1.00  0.00     0.134 A 
ATOM      7  C   UNL     1      19.750  25.251  35.702  1.00  0.00     0.093 A 
ATOM      8  C   UNL     1      19.558  26.598  36.014  1.00  0.00     0.123 A 
ATOM      9  C   UNL     1      19.312  26.975  37.332  1.00  0.00     0.094 A 
ATOM     10  C   UNL     1      19.286  26.018  38.349  1.00  0.00     0.146 A 
ATOM     11  O   UNL     1      19.059  26.422  39.593  1.00  0.00    -0.452 OA
ENDROOT
BRANCH   1  12
ATOM     12  C   UNL     1      18.745  26.174  41.971  1.00  0.00     0.025 A 
ATOM     13  C   UNL     1      17.436  26.130  42.472  1.00  0.00     0.016 A 
ATOM     14  C   UNL     1      17.143  26.648  43.736  1.00  0.00     0.051 A 
ATOM     15  C   UNL     1      18.156  27.201  44.526  1.00  0.00     0.157 A 
ATOM     16  C   UNL     1      19.768  26.712  42.775  1.00  0.00     0.062 A 
ATOM     17  C   UNL     1      19.477  27.230  44.045  1.00  0.00     0.158 A 
BRANCH  15  18
ATOM     18  O   UNL     1      17.834  27.711  45.783  1.00  0.00    -0.504 OA
ATOM     19  H   UNL     1      17.038  28.322  45.928  1.00  0.00     0.293 HD
ENDBRANCH  15  18
BRANCH  17  20
ATOM     20  O   UNL     1      20.493  27.767  44.832  1.00  0.00    -0.504 OA
ATOM     21  H   UNL     1      20.323  28.081  45.781  1.00  0.00     0.293 HD
ENDBRANCH  17  20
ENDBRANCH   1  12
BRANCH   2  22
ATOM     22  O   UNL     1      19.381  23.377  41.556  1.00  0.00    -0.502 OA
ATOM     23  H   UNL     1      19.833  22.472  41.513  1.00  0.00     0.293 HD
ENDBRANCH   2  22
BRANCH   6  24
ATOM     24  O   UNL     1      19.804  22.938  36.264  1.00  0.00    -0.507 OA
ATOM     25  H   UNL     1      20.127  22.657  35.351  1.00  0.00     0.293 HD
ENDBRANCH   6  24
BRANCH   8  26
ATOM     26  O   UNL     1      19.599  27.571  35.017  1.00  0.00    -0.508 OA
ATOM     27  H   UNL     1      19.617  28.559  35.242  1.00  0.00     0.293 HD
ENDBRANCH   8  26
TORSDOF 6
ENDMDL
MODEL 9
REMARK VINA RESULT:    -6.295      1.994      6.926
REMARK INTER + INTRA:          -7.828
REMARK INTER:                  -7.906
REMARK INTRA:                   0.079
REMARK UNBOUND:                -0.245
REMARK SMILES O=c1c(O)c(-c2ccc(O)c(O)c2)oc2cc(O)cc(O)c12
REMARK SMILES IDX 5 1 3 2 2 3 1 4 22 5 20 6 19 7 17 8 16 9 15 10 14 11 6 12
REMARK SMILES IDX 7 13 8 14 9 15 13 16 11 17 10 18 12 20 4 22 21 24 18 26
REMARK H PARENT 10 19 12 21 4 23 21 25 18 27
REMARK Flexibility Score: inf
ROOT
ATOM      1  C   UNL     1      17.772  25.067  40.708  1.00  0.00     0.180 A 
ATOM      2  C   UNL     1      16.564  25.142  39.993  1.00  0.00     0.208 A 
ATOM      3  C   UNL     1      16.450  24.451  38.777  1.00  0.00     0.238 A 
ATOM      4  O   UNL     1      15.349  24.478  38.168  1.00  0.00    -0.285 OA
ATOM      5  C   UNL     1      17.550  23.709  38.280  1.00  0.00     0.111 A 
ATOM      6  C   UNL     1      17.558  23.005  37.039  1.00  0.00     0.134 A 
ATOM      7  C   UNL     1      18.655  22.197  36.712  1.00  0.00     0.093 A 
ATOM      8  C   UNL     1      19.769  22.121  37.550  1.00  0.00     0.123 A 
ATOM      9  C   UNL     1      19.795  22.852  38.736  1.00  0.00     0.094 A 
ATOM     10  C   UNL     1      18.701  23.638  39.107  1.00  0.00     0.146 A 
ATOM     11  O   UNL     1      18.762  24.310  40.250  1.00  0.00    -0.452 OA
ENDROOT
BRANCH   1  12
ATOM     12  C   UNL     1      17.977  25.787  41.986  1.00  0.00     0.025 A 
ATOM     13  C   UNL     1      17.006  25.697  42.995  1.00  0.00     0.016 A 
ATOM     14  C   UNL     1      17.189  26.350  44.215  1.00  0.00     0.051 A 
ATOM     15  C   UNL     1      18.351  27.091  44.453  1.00  0.00     0.157 A 
ATOM     16  C   UNL     1      19.156  26.515  42.235  1.00  0.00     0.062 A 
ATOM     17  C   UNL     1      19.343  27.171  43.461  1.00  0.00     0.158 A 
BRANCH  15  18
ATOM     18  O   UNL     1      18.505  27.734  45.681  1.00  0.00    -0.504 OA
ATOM     19  H   UNL     1      18.680  27.223  46.538  1.00  0.00     0.293 HD
ENDBRANCH  15  18
BRANCH  17  20
ATOM     20  O   UNL     1      20.509  27.895  43.697  1.00  0.00    -0.504 OA
ATOM     21  H   UNL     1      21.423  27.522  43.462  1.00  0.00     0.293 HD
ENDBRANCH  17  20
ENDBRANCH   1  12
BRANCH   2  22
ATOM     22  O   UNL     1      15.484  25.862  40.511  1.00  0.00    -0.502 OA
ATOM     23  H   UNL     1      15.410  26.868  40.425  1.00  0.00     0.293 HD
ENDBRANCH   2  22
BRANCH   6  24
ATOM     24  O   UNL     1      16.536  23.085  36.089  1.00  0.00    -0.507 OA
ATOM     25  H   UNL     1      16.529  22.589  35.210  1.00  0.00     0.293 HD
ENDBRANCH   6  24
BRANCH   8  26
ATOM     26  O   UNL     1      20.863  21.327  37.208  1.00  0.00    -0.508 OA
ATOM     27  H   UNL     1      20.922  20.868  36.308  1.00  0.00     0.293 HD
ENDBRANCH   8  26
TORSDOF 6
ENDMDL
