MODEL 1
REMARK VINA RESULT:    -4.589      0.000      0.000
REMARK INTER + INTRA:          -9.948
REMARK INTER:                  -8.077
REMARK INTRA:                  -1.871
REMARK UNBOUND:                -1.871
REMARK SMILES CCCCCCCCCCCCCCC(=O)[O-]
REMARK SMILES IDX 9 1 10 2 11 3 12 4 13 5 14 6 15 7 16 8 17 9 8 10 7 11 6 12
REMARK SMILES IDX 5 13 4 14 3 15 2 16 1 17
REMARK H PARENT
REMARK Flexibility Score: inf
ROOT
ATOM      1  C   UNL     1       5.192  -5.733  32.706  1.00  0.00     0.000 C 
ENDROOT
BRANCH   1   2
ATOM      2  C   UNL     1       4.552  -7.130  32.573  1.00  0.00     0.000 C 
BRANCH   2   3
ATOM      3  C   UNL     1       5.133  -7.966  31.418  1.00  0.00     0.000 C 
BRANCH   3   4
ATOM      4  C   UNL     1       4.173  -8.086  30.227  1.00  0.00     0.000 C 
BRANCH   4   5
ATOM      5  C   UNL     1       4.499  -9.323  29.381  1.00  0.00     0.006 C 
BRANCH   5   6
ATOM      6  C   UNL     1       6.013  -9.526  29.268  1.00  0.00     0.053 C 
BRANCH   6   7
ATOM      7  C   UNL     1       6.468  -9.301  27.861  1.00  0.00     0.041 C 
ATOM      8  O   UNL     1       7.653  -9.568  27.528  1.00  0.00    -0.550 OA
ATOM      9  O   UNL     1       5.571  -8.839  26.906  1.00  0.00    -0.550 OA
ENDBRANCH   6   7
ENDBRANCH   5   6
ENDBRANCH   4   5
ENDBRANCH   3   4
ENDBRANCH   2   3
ENDBRANCH   1   2
BRANCH   1  10
ATOM     10  C   UNL     1       6.710  -5.811  32.953  1.00  0.00     0.000 C 
BRANCH  10  11
ATOM     11  C   UNL     1       7.532  -5.245  31.785  1.00  0.00    -0.000 C 
BRANCH  11  12
ATOM     12  C   UNL     1       8.201  -6.343  30.945  1.00  0.00    -0.000 C 
BRANCH  12  13
ATOM     13  C   UNL     1       7.757  -6.257  29.477  1.00  0.00    -0.000 C 
BRANCH  13  14
ATOM     14  C   UNL     1       6.569  -5.302  29.275  1.00  0.00    -0.000 C 
BRANCH  14  15
ATOM     15  C   UNL     1       5.908  -5.467  27.895  1.00  0.00    -0.000 C 
BRANCH  15  16
ATOM     16  C   UNL     1       6.707  -4.782  26.775  1.00  0.00    -0.003 C 
ATOM     17  C   UNL     1       7.134  -3.361  27.140  1.00  0.00     0.004 C 
ENDBRANCH  15  16
ENDBRANCH  14  15
ENDBRANCH  13  14
ENDBRANCH  12  13
ENDBRANCH  11  12
ENDBRANCH  10  11
ENDBRANCH   1  10
TORSDOF 13
ENDMDL
MODEL 2
REMARK VINA RESULT:    -4.369      1.999      4.844
REMARK INTER + INTRA:          -9.561
REMARK INTER:                  -7.638
REMARK INTRA:                  -1.923
REMARK UNBOUND:                -1.871
REMARK SMILES CCCCCCCCCCCCCCC(=O)[O-]
REMARK SMILES IDX 9 1 10 2 11 3 12 4 13 5 14 6 15 7 16 8 17 9 8 10 7 11 6 12
REMARK SMILES IDX 5 13 4 14 3 15 2 16 1 17
REMARK H PARENT
REMARK Flexibility Score: inf
ROOT
ATOM      1  C   UNL     1       5.894  -9.749  29.310  1.00  0.00     0.000 C 
ENDROOT
BRANCH   1   2
ATOM      2  C   UNL     1       6.669  -9.528  27.994  1.00  0.00     0.000 C 
BRANCH   2   3
ATOM      3  C   UNL     1       7.428  -8.190  27.945  1.00  0.00     0.000 C 
BRANCH   3   4
ATOM      4  C   UNL     1       6.912  -7.251  26.847  1.00  0.00     0.000 C 
BRANCH   4   5
ATOM      5  C   UNL     1       5.631  -6.536  27.294  1.00  0.00     0.006 C 
BRANCH   5   6
ATOM      6  C   UNL     1       5.946  -5.421  28.296  1.00  0.00     0.053 C 
BRANCH   6   7
ATOM      7  C   UNL     1       6.978  -4.493  27.739  1.00  0.00     0.041 C 
ATOM      8  O   UNL     1       6.721  -3.796  26.722  1.00  0.00    -0.550 OA
ATOM      9  O   UNL     1       8.209  -4.361  28.370  1.00  0.00    -0.550 OA
ENDBRANCH   6   7
ENDBRANCH   5   6
ENDBRANCH   4   5
ENDBRANCH   3   4
ENDBRANCH   2   3
ENDBRANCH   1   2
BRANCH   1  10
ATOM     10  C   UNL     1       4.385  -9.486  29.146  1.00  0.00     0.000 C 
BRANCH  10  11
ATOM     11  C   UNL     1       3.863  -8.409  30.107  1.00  0.00    -0.000 C 
BRANCH  11  12
ATOM     12  C   UNL     1       4.964  -7.839  31.015  1.00  0.00    -0.000 C 
BRANCH  12  13
ATOM     13  C   UNL     1       4.393  -7.434  32.381  1.00  0.00    -0.000 C 
BRANCH  13  14
ATOM     14  C   UNL     1       5.132  -6.235  32.998  1.00  0.00    -0.000 C 
BRANCH  14  15
ATOM     15  C   UNL     1       5.948  -5.447  31.958  1.00  0.00    -0.000 C 
BRANCH  15  16
ATOM     16  C   UNL     1       7.460  -5.505  32.230  1.00  0.00    -0.003 C 
ATOM     17  C   UNL     1       8.216  -6.318  31.181  1.00  0.00     0.004 C 
ENDBRANCH  15  16
ENDBRANCH  14  15
ENDBRANCH  13  14
ENDBRANCH  12  13
ENDBRANCH  11  12
ENDBRANCH  10  11
ENDBRANCH   1  10
TORSDOF 13
ENDMDL
MODEL 3
REMARK VINA RESULT:    -4.362      2.179      5.315
REMARK INTER + INTRA:          -9.548
REMARK INTER:                  -7.759
REMARK INTRA:                  -1.788
REMARK UNBOUND:                -1.871
REMARK SMILES CCCCCCCCCCCCCCC(=O)[O-]
REMARK SMILES IDX 9 1 10 2 11 3 12 4 13 5 14 6 15 7 16 8 17 9 8 10 7 11 6 12
REMARK SMILES IDX 5 13 4 14 3 15 2 16 1 17
REMARK H PARENT
REMARK Flexibility Score: inf
ROOT
ATOM      1  C   UNL     1       8.652  -7.052  28.372  1.00  0.00     0.000 C 
ENDROOT
BRANCH   1   2
ATOM      2  C   UNL     1       8.547  -5.529  28.148  1.00  0.00     0.000 C 
BRANCH   2   3
ATOM      3  C   UNL     1       7.113  -4.986  28.278  1.00  0.00     0.000 C 
BRANCH   3   4
ATOM      4  C   UNL     1       6.800  -3.879  27.262  1.00  0.00     0.000 C 
BRANCH   4   5
ATOM      5  C   UNL     1       6.839  -4.422  25.828  1.00  0.00     0.006 C 
BRANCH   5   6
ATOM      6  C   UNL     1       5.684  -5.397  25.580  1.00  0.00     0.053 C 
BRANCH   6   7
ATOM      7  C   UNL     1       5.331  -5.432  24.127  1.00  0.00     0.041 C 
ATOM      8  O   UNL     1       4.199  -5.037  23.741  1.00  0.00    -0.550 OA
ATOM      9  O   UNL     1       6.268  -5.857  23.193  1.00  0.00    -0.550 OA
ENDBRANCH   6   7
ENDBRANCH   5   6
ENDBRANCH   4   5
ENDBRANCH   3   4
ENDBRANCH   2   3
ENDBRANCH   1   2
BRANCH   1  10
ATOM     10  C   UNL     1       7.641  -7.836  27.515  1.00  0.00     0.000 C 
BRANCH  10  11
ATOM     11  C   UNL     1       6.752  -8.770  28.350  1.00  0.00    -0.000 C 
BRANCH  11  12
ATOM     12  C   UNL     1       5.362  -8.176  28.623  1.00  0.00    -0.000 C 
BRANCH  12  13
ATOM     13  C   UNL     1       4.968  -8.360  30.097  1.00  0.00    -0.000 C 
BRANCH  13  14
ATOM     14  C   UNL     1       6.019  -7.792  31.064  1.00  0.00    -0.000 C 
BRANCH  14  15
ATOM     15  C   UNL     1       5.436  -6.727  32.009  1.00  0.00    -0.000 C 
BRANCH  15  16
ATOM     16  C   UNL     1       6.502  -5.740  32.512  1.00  0.00    -0.003 C 
ATOM     17  C   UNL     1       7.861  -5.950  31.845  1.00  0.00     0.004 C 
ENDBRANCH  15  16
ENDBRANCH  14  15
ENDBRANCH  13  14
ENDBRANCH  12  13
ENDBRANCH  11  12
ENDBRANCH  10  11
ENDBRANCH   1  10
TORSDOF 13
ENDMDL
MODEL 4
REMARK VINA RESULT:    -4.349      1.759      3.681
REMARK INTER + INTRA:          -9.525
REMARK INTER:                  -7.749
REMARK INTRA:                  -1.776
REMARK UNBOUND:                -1.871
REMARK SMILES CCCCCCCCCCCCCCC(=O)[O-]
REMARK SMILES IDX 9 1 10 2 11 3 12 4 13 5 14 6 15 7 16 8 17 9 8 10 7 11 6 12
REMARK SMILES IDX 5 13 4 14 3 15 2 16 1 17
REMARK H PARENT
REMARK Flexibility Score: inf
ROOT
ATOM      1  C   UNL     1       5.751  -8.637  30.511  1.00  0.00     0.000 C 
ENDROOT
BRANCH   1   2
ATOM      2  C   UNL     1       5.293  -9.538  29.344  1.00  0.00     0.000 C 
BRANCH   2   3
ATOM      3  C   UNL     1       6.374  -9.749  28.269  1.00  0.00     0.000 C 
BRANCH   3   4
ATOM      4  C   UNL     1       6.719  -8.462  27.509  1.00  0.00     0.000 C 
BRANCH   4   5
ATOM      5  C   UNL     1       5.448  -7.751  27.029  1.00  0.00     0.006 C 
BRANCH   5   6
ATOM      6  C   UNL     1       5.578  -6.232  27.182  1.00  0.00     0.053 C 
BRANCH   6   7
ATOM      7  C   UNL     1       6.046  -5.615  25.903  1.00  0.00     0.041 C 
ATOM      8  O   UNL     1       6.584  -4.476  25.909  1.00  0.00    -0.550 OA
ATOM      9  O   UNL     1       5.932  -6.316  24.709  1.00  0.00    -0.550 OA
ENDBRANCH   6   7
ENDBRANCH   5   6
ENDBRANCH   4   5
ENDBRANCH   3   4
ENDBRANCH   2   3
ENDBRANCH   1   2
BRANCH   1  10
ATOM     10  C   UNL     1       4.607  -7.756  31.047  1.00  0.00     0.000 C 
BRANCH  10  11
ATOM     11  C   UNL     1       4.935  -7.121  32.407  1.00  0.00    -0.000 C 
BRANCH  11  12
ATOM     12  C   UNL     1       5.379  -5.656  32.286  1.00  0.00    -0.000 C 
BRANCH  12  13
ATOM     13  C   UNL     1       6.785  -5.460  32.873  1.00  0.00    -0.000 C 
BRANCH  13  14
ATOM     14  C   UNL     1       7.890  -6.009  31.955  1.00  0.00    -0.000 C 
BRANCH  14  15
ATOM     15  C   UNL     1       7.683  -5.617  30.482  1.00  0.00    -0.000 C 
BRANCH  15  16
ATOM     16  C   UNL     1       8.653  -6.345  29.538  1.00  0.00    -0.003 C 
ATOM     17  C   UNL     1       8.982  -5.528  28.288  1.00  0.00     0.004 C 
ENDBRANCH  15  16
ENDBRANCH  14  15
ENDBRANCH  13  14
ENDBRANCH  12  13
ENDBRANCH  11  12
ENDBRANCH  10  11
ENDBRANCH   1  10
TORSDOF 13
ENDMDL
MODEL 5
REMARK VINA RESULT:    -4.299      1.693      5.126
REMARK INTER + INTRA:          -9.437
REMARK INTER:                  -7.436
REMARK INTRA:                  -2.001
REMARK UNBOUND:                -1.871
REMARK SMILES CCCCCCCCCCCCCCC(=O)[O-]
REMARK SMILES IDX 9 1 10 2 11 3 12 4 13 5 14 6 15 7 16 8 17 9 8 10 7 11 6 12
REMARK SMILES IDX 5 13 4 14 3 15 2 16 1 17
REMARK H PARENT
REMARK Flexibility Score: inf
ROOT
ATOM      1  C   UNL     1       8.108  -9.478  27.547  1.00  0.00     0.000 C 
ENDROOT
BRANCH   1   2
ATOM      2  C   UNL     1       8.527  -8.034  27.199  1.00  0.00     0.000 C 
BRANCH   2   3
ATOM      3  C   UNL     1       8.818  -7.163  28.435  1.00  0.00     0.000 C 
BRANCH   3   4
ATOM      4  C   UNL     1       8.460  -5.687  28.221  1.00  0.00     0.000 C 
BRANCH   4   5
ATOM      5  C   UNL     1       6.974  -5.435  28.505  1.00  0.00     0.006 C 
BRANCH   5   6
ATOM      6  C   UNL     1       6.364  -4.505  27.452  1.00  0.00     0.053 C 
BRANCH   6   7
ATOM      7  C   UNL     1       6.059  -5.262  26.198  1.00  0.00     0.041 C 
ATOM      8  O   UNL     1       6.469  -4.837  25.086  1.00  0.00    -0.550 OA
ATOM      9  O   UNL     1       5.361  -6.462  26.263  1.00  0.00    -0.550 OA
ENDBRANCH   6   7
ENDBRANCH   5   6
ENDBRANCH   4   5
ENDBRANCH   3   4
ENDBRANCH   2   3
ENDBRANCH   1   2
BRANCH   1  10
ATOM     10  C   UNL     1       6.578  -9.643  27.594  1.00  0.00     0.000 C 
BRANCH  10  11
ATOM     11  C   UNL     1       6.018  -9.583  29.023  1.00  0.00    -0.000 C 
BRANCH  11  12
ATOM     12  C   UNL     1       5.051  -8.407  29.232  1.00  0.00    -0.000 C 
BRANCH  12  13
ATOM     13  C   UNL     1       4.790  -8.171  30.727  1.00  0.00    -0.000 C 
BRANCH  13  14
ATOM     14  C   UNL     1       6.002  -7.561  31.449  1.00  0.00    -0.000 C 
BRANCH  14  15
ATOM     15  C   UNL     1       5.713  -6.154  32.001  1.00  0.00    -0.000 C 
BRANCH  15  16
ATOM     16  C   UNL     1       6.995  -5.401  32.394  1.00  0.00    -0.003 C 
ATOM     17  C   UNL     1       8.264  -6.129  31.952  1.00  0.00     0.004 C 
ENDBRANCH  15  16
ENDBRANCH  14  15
ENDBRANCH  13  14
ENDBRANCH  12  13
ENDBRANCH  11  12
ENDBRANCH  10  11
ENDBRANCH   1  10
TORSDOF 13
ENDMDL
MODEL 6
REMARK VINA RESULT:    -4.294      2.883      4.542
REMARK INTER + INTRA:          -9.428
REMARK INTER:                  -7.667
REMARK INTRA:                  -1.761
REMARK UNBOUND:                -1.871
REMARK SMILES CCCCCCCCCCCCCCC(=O)[O-]
REMARK SMILES IDX 9 1 10 2 11 3 12 4 13 5 14 6 15 7 16 8 17 9 8 10 7 11 6 12
REMARK SMILES IDX 5 13 4 14 3 15 2 16 1 17
REMARK H PARENT
REMARK Flexibility Score: inf
ROOT
ATOM      1  C   UNL     1       8.237  -7.813  27.515  1.00  0.00     0.000 C 
ENDROOT
BRANCH   1   2
ATOM      2  C   UNL     1       6.777  -8.256  27.745  1.00  0.00     0.000 C 
BRANCH   2   3
ATOM      3  C   UNL     1       6.503  -8.749  29.177  1.00  0.00     0.000 C 
BRANCH   3   4
ATOM      4  C   UNL     1       5.453  -7.902  29.909  1.00  0.00     0.000 C 
BRANCH   4   5
ATOM      5  C   UNL     1       5.940  -7.512  31.310  1.00  0.00     0.006 C 
BRANCH   5   6
ATOM      6  C   UNL     1       6.062  -5.992  31.445  1.00  0.00     0.053 C 
BRANCH   6   7
ATOM      7  C   UNL     1       7.342  -5.627  32.128  1.00  0.00     0.041 C 
ATOM      8  O   UNL     1       7.391  -4.625  32.889  1.00  0.00    -0.550 OA
ATOM      9  O   UNL     1       8.470  -6.422  31.961  1.00  0.00    -0.550 OA
ENDBRANCH   6   7
ENDBRANCH   5   6
ENDBRANCH   4   5
ENDBRANCH   3   4
ENDBRANCH   2   3
ENDBRANCH   1   2
BRANCH   1  10
ATOM     10  C   UNL     1       8.678  -6.727  28.515  1.00  0.00     0.000 C 
BRANCH  10  11
ATOM     11  C   UNL     1       8.620  -5.313  27.919  1.00  0.00    -0.000 C 
BRANCH  11  12
ATOM     12  C   UNL     1       7.394  -4.518  28.395  1.00  0.00    -0.000 C 
BRANCH  12  13
ATOM     13  C   UNL     1       6.183  -4.784  27.488  1.00  0.00    -0.000 C 
BRANCH  13  14
ATOM     14  C   UNL     1       6.543  -4.733  25.994  1.00  0.00    -0.000 C 
BRANCH  14  15
ATOM     15  C   UNL     1       5.825  -5.823  25.177  1.00  0.00    -0.000 C 
BRANCH  15  16
ATOM     16  C   UNL     1       4.873  -5.236  24.123  1.00  0.00    -0.003 C 
ATOM     17  C   UNL     1       4.922  -5.995  22.798  1.00  0.00     0.004 C 
ENDBRANCH  15  16
ENDBRANCH  14  15
ENDBRANCH  13  14
ENDBRANCH  12  13
ENDBRANCH  11  12
ENDBRANCH  10  11
ENDBRANCH   1  10
TORSDOF 13
ENDMDL
MODEL 7
REMARK VINA RESULT:    -4.277      1.666      4.727
REMARK INTER + INTRA:          -9.398
REMARK INTER:                  -7.223
REMARK INTRA:                  -2.175
REMARK UNBOUND:                -1.871
REMARK SMILES CCCCCCCCCCCCCCC(=O)[O-]
REMARK SMILES IDX 9 1 10 2 11 3 12 4 13 5 14 6 15 7 16 8 17 9 8 10 7 11 6 12
REMARK SMILES IDX 5 13 4 14 3 15 2 16 1 17
REMARK H PARENT
REMARK Flexibility Score: inf
ROOT
ATOM      1  C   UNL     1       5.625  -5.315  27.905  1.00  0.00     0.000 C 
ENDROOT
BRANCH   1   2
ATOM      2  C   UNL     1       7.010  -4.726  27.563  1.00  0.00     0.000 C 
BRANCH   2   3
ATOM      3  C   UNL     1       8.043  -4.892  28.692  1.00  0.00     0.000 C 
BRANCH   3   4
ATOM      4  C   UNL     1       8.485  -6.349  28.887  1.00  0.00     0.000 C 
BRANCH   4   5
ATOM      5  C   UNL     1       8.725  -7.035  27.537  1.00  0.00     0.006 C 
BRANCH   5   6
ATOM      6  C   UNL     1       8.564  -8.554  27.658  1.00  0.00     0.053 C 
BRANCH   6   7
ATOM      7  C   UNL     1       8.602  -9.193  26.306  1.00  0.00     0.041 C 
ATOM      8  O   UNL     1       9.674  -9.688  25.868  1.00  0.00    -0.550 OA
ATOM      9  O   UNL     1       7.441  -9.285  25.548  1.00  0.00    -0.550 OA
ENDBRANCH   6   7
ENDBRANCH   5   6
ENDBRANCH   4   5
ENDBRANCH   3   4
ENDBRANCH   2   3
ENDBRANCH   1   2
BRANCH   1  10
ATOM     10  C   UNL     1       5.269  -6.517  27.011  1.00  0.00     0.000 C 
BRANCH  10  11
ATOM     11  C   UNL     1       4.939  -7.781  27.820  1.00  0.00    -0.000 C 
BRANCH  11  12
ATOM     12  C   UNL     1       4.821  -7.506  29.327  1.00  0.00    -0.000 C 
BRANCH  12  13
ATOM     13  C   UNL     1       5.683  -8.489  30.132  1.00  0.00    -0.000 C 
BRANCH  13  14
ATOM     14  C   UNL     1       6.278  -7.852  31.399  1.00  0.00    -0.000 C 
BRANCH  14  15
ATOM     15  C   UNL     1       5.974  -6.347  31.500  1.00  0.00    -0.000 C 
BRANCH  15  16
ATOM     16  C   UNL     1       5.174  -5.992  32.764  1.00  0.00    -0.003 C 
ATOM     17  C   UNL     1       4.140  -7.057  33.125  1.00  0.00     0.004 C 
ENDBRANCH  15  16
ENDBRANCH  14  15
ENDBRANCH  13  14
ENDBRANCH  12  13
ENDBRANCH  11  12
ENDBRANCH  10  11
ENDBRANCH   1  10
TORSDOF 13
ENDMDL
MODEL 8
REMARK VINA RESULT:    -4.247      2.612      4.595
REMARK INTER + INTRA:          -9.346
REMARK INTER:                  -7.500
REMARK INTRA:                  -1.846
REMARK UNBOUND:                -1.871
REMARK SMILES CCCCCCCCCCCCCCC(=O)[O-]
REMARK SMILES IDX 9 1 10 2 11 3 12 4 13 5 14 6 15 7 16 8 17 9 8 10 7 11 6 12
REMARK SMILES IDX 5 13 4 14 3 15 2 16 1 17
REMARK H PARENT
REMARK Flexibility Score: inf
ROOT
ATOM      1  C   UNL     1       5.986  -9.947  27.416  1.00  0.00     0.000 C 
ENDROOT
BRANCH   1   2
ATOM      2  C   UNL     1       5.083  -9.858  28.665  1.00  0.00     0.000 C 
BRANCH   2   3
ATOM      3  C   UNL     1       5.808  -9.315  29.910  1.00  0.00     0.000 C 
BRANCH   3   4
ATOM      4  C   UNL     1       5.509  -7.833  30.175  1.00  0.00     0.000 C 
BRANCH   4   5
ATOM      5  C   UNL     1       5.737  -7.483  31.650  1.00  0.00     0.006 C 
BRANCH   5   6
ATOM      6  C   UNL     1       5.868  -5.969  31.840  1.00  0.00     0.053 C 
BRANCH   6   7
ATOM      7  C   UNL     1       7.263  -5.610  32.247  1.00  0.00     0.041 C 
ATOM      8  O   UNL     1       8.232  -6.331  31.889  1.00  0.00    -0.550 OA
ATOM      9  O   UNL     1       7.498  -4.455  32.982  1.00  0.00    -0.550 OA
ENDBRANCH   6   7
ENDBRANCH   5   6
ENDBRANCH   4   5
ENDBRANCH   3   4
ENDBRANCH   2   3
ENDBRANCH   1   2
BRANCH   1  10
ATOM     10  C   UNL     1       7.477 -10.055  27.785  1.00  0.00     0.000 C 
BRANCH  10  11
ATOM     11  C   UNL     1       8.389  -9.323  26.789  1.00  0.00    -0.000 C 
BRANCH  11  12
ATOM     12  C   UNL     1       8.375  -7.799  26.983  1.00  0.00    -0.000 C 
BRANCH  12  13
ATOM     13  C   UNL     1       8.678  -7.430  28.443  1.00  0.00    -0.000 C 
BRANCH  13  14
ATOM     14  C   UNL     1       9.131  -5.969  28.600  1.00  0.00    -0.000 C 
BRANCH  14  15
ATOM     15  C   UNL     1       8.223  -4.984  27.842  1.00  0.00    -0.000 C 
BRANCH  15  16
ATOM     16  C   UNL     1       6.835  -4.849  28.487  1.00  0.00    -0.003 C 
ATOM     17  C   UNL     1       5.706  -5.272  27.549  1.00  0.00     0.004 C 
ENDBRANCH  15  16
ENDBRANCH  14  15
ENDBRANCH  13  14
ENDBRANCH  12  13
ENDBRANCH  11  12
ENDBRANCH  10  11
ENDBRANCH   1  10
TORSDOF 13
ENDMDL
MODEL 9
REMARK VINA RESULT:    -4.219      2.069      3.801
REMARK INTER + INTRA:          -9.296
REMARK INTER:                  -7.478
REMARK INTRA:                  -1.818
REMARK UNBOUND:                -1.871
REMARK SMILES CCCCCCCCCCCCCCC(=O)[O-]
REMARK SMILES IDX 9 1 10 2 11 3 12 4 13 5 14 6 15 7 16 8 17 9 8 10 7 11 6 12
REMARK SMILES IDX 5 13 4 14 3 15 2 16 1 17
REMARK H PARENT
REMARK Flexibility Score: inf
ROOT
ATOM      1  C   UNL     1       4.828  -9.352  29.195  1.00  0.00     0.000 C 
ENDROOT
BRANCH   1   2
ATOM      2  C   UNL     1       6.301  -9.775  29.020  1.00  0.00     0.000 C 
BRANCH   2   3
ATOM      3  C   UNL     1       6.947  -9.234  27.731  1.00  0.00     0.000 C 
BRANCH   3   4
ATOM      4  C   UNL     1       5.928  -8.601  26.774  1.00  0.00     0.000 C 
BRANCH   4   5
ATOM      5  C   UNL     1       6.480  -7.307  26.162  1.00  0.00     0.006 C 
BRANCH   5   6
ATOM      6  C   UNL     1       5.345  -6.347  25.795  1.00  0.00     0.053 C 
BRANCH   6   7
ATOM      7  C   UNL     1       5.423  -5.974  24.348  1.00  0.00     0.041 C 
ATOM      8  O   UNL     1       6.351  -6.424  23.627  1.00  0.00    -0.550 OA
ATOM      9  O   UNL     1       4.443  -5.165  23.785  1.00  0.00    -0.550 OA
ENDBRANCH   6   7
ENDBRANCH   5   6
ENDBRANCH   4   5
ENDBRANCH   3   4
ENDBRANCH   2   3
ENDBRANCH   1   2
BRANCH   1  10
ATOM     10  C   UNL     1       4.665  -8.239  30.247  1.00  0.00     0.000 C 
BRANCH  10  11
ATOM     11  C   UNL     1       5.907  -8.078  31.137  1.00  0.00    -0.000 C 
BRANCH  11  12
ATOM     12  C   UNL     1       6.018  -6.674  31.751  1.00  0.00    -0.000 C 
BRANCH  12  13
ATOM     13  C   UNL     1       7.396  -6.058  31.463  1.00  0.00    -0.000 C 
BRANCH  13  14
ATOM     14  C   UNL     1       7.801  -6.183  29.986  1.00  0.00    -0.000 C 
BRANCH  14  15
ATOM     15  C   UNL     1       7.021  -5.218  29.076  1.00  0.00    -0.000 C 
BRANCH  15  16
ATOM     16  C   UNL     1       7.924  -4.519  28.047  1.00  0.00    -0.003 C 
ATOM     17  C   UNL     1       7.192  -3.430  27.264  1.00  0.00     0.004 C 
ENDBRANCH  15  16
ENDBRANCH  14  15
ENDBRANCH  13  14
ENDBRANCH  12  13
ENDBRANCH  11  12
ENDBRANCH  10  11
ENDBRANCH   1  10
TORSDOF 13
ENDMDL
