MODEL 1
REMARK VINA RESULT:    -4.619      0.000      0.000
REMARK INTER + INTRA:          -6.263
REMARK INTER:                  -6.509
REMARK INTRA:                   0.246
REMARK UNBOUND:                 0.246
REMARK SMILES CC1=CCC(=C(C)C)C(=O)CC(C)=CCC1
REMARK SMILES IDX 12 1 14 2 13 3 15 4 16 5 2 6 1 7 3 8 11 10 9 11 10 12 5 13
REMARK SMILES IDX 6 14 7 15 8 16 4 17
REMARK H PARENT
REMARK Flexibility Score: 60.00
ROOT
ATOM      1  C   UNL     1       5.589  -1.981  46.359  1.00  0.00    -0.070 C 
ATOM      2  C   UNL     1       6.792  -1.362  46.368  1.00  0.00    -0.027 C 
ATOM      3  C   UNL     1       4.753  -1.890  45.109  1.00  0.00     0.039 C 
ENDROOT
BRANCH   2   4
ATOM      4  C   UNL     1       7.813  -1.474  47.472  1.00  0.00     0.032 C 
BRANCH   4   5
ATOM      5  C   UNL     1       8.673  -2.724  47.259  1.00  0.00     0.034 C 
BRANCH   5   6
ATOM      6  C   UNL     1       9.016  -3.421  48.561  1.00  0.00    -0.077 C 
ATOM      7  C   UNL     1      10.032  -2.784  49.476  1.00  0.00     0.039 C 
ATOM      8  C   UNL     1       8.513  -4.628  48.921  1.00  0.00    -0.023 CG0
ATOM      9  G   UNL     1       7.444  -5.433  48.204  1.00  0.00     0.000 G0
ENDBRANCH   5   6
ENDBRANCH   4   5
ENDBRANCH   2   4
BRANCH   1  10
ATOM     10  C   UNL     1       5.035  -2.743  47.547  1.00  0.00     0.111 C 
BRANCH  10  11
ATOM     11  C   UNL     1       5.282  -4.228  47.429  1.00  0.00     0.163 C 
ATOM     12  O   UNL     1       4.849  -4.802  46.393  1.00  0.00    -0.294 OA
BRANCH  11  13
ATOM     13  C   UNL     1       5.984  -5.043  48.475  1.00  0.00    -0.002 C 
ATOM     14  C   UNL     1       5.392  -5.281  49.687  1.00  0.00    -0.069 C 
ATOM     15  C   UNL     1       6.149  -5.893  50.843  1.00  0.00     0.039 C 
ATOM     16  C   UNL     1       3.926  -4.988  49.919  1.00  0.00     0.039 C 
BRANCH  13  17
ATOM     17  C   UNL     1       7.434  -5.439  48.215  1.00  0.00     0.066 CG0
ATOM     18  G   UNL     1       8.497  -4.616  48.921  1.00  0.00     0.000 G0
ENDBRANCH  13  17
ENDBRANCH  11  13
ENDBRANCH  10  11
ENDBRANCH   1  10
TORSDOF 0
ENDMDL
MODEL 2
REMARK VINA RESULT:    -4.433      1.934      3.843
REMARK INTER + INTRA:          -6.002
REMARK INTER:                  -6.423
REMARK INTRA:                   0.421
REMARK UNBOUND:                 0.246
REMARK SMILES CC1=CCC(=C(C)C)C(=O)CC(C)=CCC1
REMARK SMILES IDX 12 1 14 2 13 3 15 4 16 5 2 6 1 7 3 8 11 10 9 11 10 12 5 13
REMARK SMILES IDX 6 14 7 15 8 16 4 17
REMARK H PARENT
REMARK Flexibility Score: 60.00
ROOT
ATOM      1  C   UNL     1       6.303  -1.763  47.400  1.00  0.00    -0.070 C 
ATOM      2  C   UNL     1       6.015  -2.555  46.341  1.00  0.00    -0.027 C 
ATOM      3  C   UNL     1       7.137  -0.531  47.160  1.00  0.00     0.039 C 
ENDROOT
BRANCH   2   4
ATOM      4  C   UNL     1       5.077  -3.735  46.375  1.00  0.00     0.032 C 
BRANCH   4   5
ATOM      5  C   UNL     1       5.751  -4.915  47.084  1.00  0.00     0.034 C 
BRANCH   5   6
ATOM      6  C   UNL     1       5.052  -5.291  48.375  1.00  0.00    -0.077 C 
ATOM      7  C   UNL     1       3.573  -5.587  48.337  1.00  0.00     0.039 C 
ATOM      8  C   UNL     1       5.667  -5.307  49.584  1.00  0.00    -0.023 CG0
ATOM      9  G   UNL     1       7.144  -5.103  49.870  1.00  0.00     0.000 G0
ENDBRANCH   5   6
ENDBRANCH   4   5
ENDBRANCH   2   4
BRANCH   1  10
ATOM     10  C   UNL     1       5.846  -2.064  48.814  1.00  0.00     0.111 C 
BRANCH  10  11
ATOM     11  C   UNL     1       6.986  -2.524  49.689  1.00  0.00     0.163 C 
ATOM     12  O   UNL     1       7.293  -1.789  50.667  1.00  0.00    -0.294 OA
BRANCH  11  13
ATOM     13  C   UNL     1       7.774  -3.778  49.444  1.00  0.00    -0.002 C 
ATOM     14  C   UNL     1       8.931  -3.742  48.713  1.00  0.00    -0.069 C 
ATOM     15  C   UNL     1       9.626  -5.002  48.249  1.00  0.00     0.039 C 
ATOM     16  C   UNL     1       9.608  -2.433  48.372  1.00  0.00     0.039 C 
BRANCH  13  17
ATOM     17  C   UNL     1       7.155  -5.103  49.875  1.00  0.00     0.066 CG0
ATOM     18  G   UNL     1       5.675  -5.285  49.587  1.00  0.00     0.000 G0
ENDBRANCH  13  17
ENDBRANCH  11  13
ENDBRANCH  10  11
ENDBRANCH   1  10
TORSDOF 0
ENDMDL
MODEL 3
REMARK VINA RESULT:    -3.985      1.917      3.756
REMARK INTER + INTRA:          -5.370
REMARK INTER:                  -5.524
REMARK INTRA:                   0.154
REMARK UNBOUND:                 0.246
REMARK SMILES CC1=CCC(=C(C)C)C(=O)CC(C)=CCC1
REMARK SMILES IDX 12 1 14 2 13 3 15 4 16 5 2 6 1 7 3 8 11 10 9 11 10 12 5 13
REMARK SMILES IDX 6 14 7 15 8 16 4 17
REMARK H PARENT
REMARK Flexibility Score: 60.00
ROOT
ATOM      1  C   UNL     1       4.375  -4.953  49.327  1.00  0.00    -0.070 C 
ATOM      2  C   UNL     1       4.800  -4.021  50.211  1.00  0.00    -0.027 C 
ATOM      3  C   UNL     1       2.906  -4.999  48.995  1.00  0.00     0.039 C 
ENDROOT
BRANCH   2   4
ATOM      4  C   UNL     1       6.243  -3.740  50.543  1.00  0.00     0.032 C 
BRANCH   4   5
ATOM      5  C   UNL     1       6.668  -2.403  49.927  1.00  0.00     0.034 C 
BRANCH   5   6
ATOM      6  C   UNL     1       7.691  -2.573  48.822  1.00  0.00    -0.077 C 
ATOM      7  C   UNL     1       9.156  -2.518  49.178  1.00  0.00     0.039 C 
ATOM      8  C   UNL     1       7.366  -2.699  47.511  1.00  0.00    -0.023 CG0
ATOM      9  G   UNL     1       5.977  -2.837  46.915  1.00  0.00     0.000 G0
ENDBRANCH   5   6
ENDBRANCH   4   5
ENDBRANCH   2   4
BRANCH   1  10
ATOM     10  C   UNL     1       5.297  -5.963  48.673  1.00  0.00     0.111 C 
BRANCH  10  11
ATOM     11  C   UNL     1       6.031  -5.373  47.493  1.00  0.00     0.163 C 
ATOM     12  O   UNL     1       7.178  -5.834  47.240  1.00  0.00    -0.294 OA
BRANCH  11  13
ATOM     13  C   UNL     1       5.484  -4.269  46.635  1.00  0.00    -0.002 C 
ATOM     14  C   UNL     1       4.702  -4.554  45.549  1.00  0.00    -0.069 C 
ATOM     15  C   UNL     1       4.325  -3.499  44.534  1.00  0.00     0.039 C 
ATOM     16  C   UNL     1       4.127  -5.936  45.331  1.00  0.00     0.039 C 
BRANCH  13  17
ATOM     17  C   UNL     1       5.971  -2.849  46.906  1.00  0.00     0.066 CG0
ATOM     18  G   UNL     1       7.359  -2.713  47.505  1.00  0.00     0.000 G0
ENDBRANCH  13  17
ENDBRANCH  11  13
ENDBRANCH  10  11
ENDBRANCH   1  10
TORSDOF 0
ENDMDL
MODEL 4
REMARK VINA RESULT:    -3.874      1.456      2.422
REMARK INTER + INTRA:          -5.214
REMARK INTER:                  -5.729
REMARK INTRA:                   0.515
REMARK UNBOUND:                 0.246
REMARK SMILES CC1=CCC(=C(C)C)C(=O)CC(C)=CCC1
REMARK SMILES IDX 12 1 14 2 13 3 15 4 16 5 2 6 1 7 3 8 11 10 9 11 10 12 5 13
REMARK SMILES IDX 6 14 7 15 8 16 4 17
REMARK H PARENT
REMARK Flexibility Score: 60.00
ROOT
ATOM      1  C   UNL     1       7.729  -1.675  47.400  1.00  0.00    -0.070 C 
ATOM      2  C   UNL     1       8.809  -1.861  48.192  1.00  0.00    -0.027 C 
ATOM      3  C   UNL     1       7.187  -0.277  47.253  1.00  0.00     0.039 C 
ENDROOT
BRANCH   2   4
ATOM      4  C   UNL     1       9.564  -3.158  48.334  1.00  0.00     0.032 C 
BRANCH   4   5
ATOM      5  C   UNL     1       8.718  -4.172  49.110  1.00  0.00     0.034 C 
BRANCH   5   6
ATOM      6  C   UNL     1       8.401  -5.409  48.294  1.00  0.00    -0.077 C 
ATOM      7  C   UNL     1       9.532  -6.125  47.598  1.00  0.00     0.039 C 
ATOM      8  C   UNL     1       7.143  -5.873  48.091  1.00  0.00    -0.023 CG0
ATOM      9  G   UNL     1       5.860  -5.364  48.724  1.00  0.00     0.000 G0
ENDBRANCH   5   6
ENDBRANCH   4   5
ENDBRANCH   2   4
BRANCH   1  10
ATOM     10  C   UNL     1       7.027  -2.804  46.670  1.00  0.00     0.111 C 
BRANCH  10  11
ATOM     11  C   UNL     1       5.721  -3.176  47.330  1.00  0.00     0.163 C 
ATOM     12  O   UNL     1       4.661  -2.866  46.721  1.00  0.00    -0.294 OA
BRANCH  11  13
ATOM     13  C   UNL     1       5.624  -3.862  48.662  1.00  0.00    -0.002 C 
ATOM     14  C   UNL     1       5.505  -3.132  49.814  1.00  0.00    -0.069 C 
ATOM     15  C   UNL     1       5.637  -3.765  51.180  1.00  0.00     0.039 C 
ATOM     16  C   UNL     1       5.183  -1.655  49.783  1.00  0.00     0.039 C 
BRANCH  13  17
ATOM     17  C   UNL     1       5.843  -5.371  48.702  1.00  0.00     0.066 CG0
ATOM     18  G   UNL     1       7.144  -5.882  48.109  1.00  0.00     0.000 G0
ENDBRANCH  13  17
ENDBRANCH  11  13
ENDBRANCH  10  11
ENDBRANCH   1  10
TORSDOF 0
ENDMDL
MODEL 5
REMARK VINA RESULT:    -3.791      9.936     11.809
REMARK INTER + INTRA:          -5.096
REMARK INTER:                  -4.967
REMARK INTRA:                  -0.129
REMARK UNBOUND:                 0.246
REMARK SMILES CC1=CCC(=C(C)C)C(=O)CC(C)=CCC1
REMARK SMILES IDX 12 1 14 2 13 3 15 4 16 5 2 6 1 7 3 8 11 10 9 11 10 12 5 13
REMARK SMILES IDX 6 14 7 15 8 16 4 17
REMARK H PARENT
REMARK Flexibility Score: 60.00
ROOT
ATOM      1  C   UNL     1       8.253   3.137  53.938  1.00  0.00    -0.070 C 
ATOM      2  C   UNL     1       7.475   4.157  53.507  1.00  0.00    -0.027 C 
ATOM      3  C   UNL     1       7.644   2.129  54.879  1.00  0.00     0.039 C 
ENDROOT
BRANCH   2   4
ATOM      4  C   UNL     1       7.874   5.162  52.456  1.00  0.00     0.032 C 
BRANCH   4   5
ATOM      5  C   UNL     1       8.271   6.483  53.124  1.00  0.00     0.034 C 
BRANCH   5   6
ATOM      6  C   UNL     1       9.500   7.105  52.492  1.00  0.00    -0.077 C 
ATOM      7  C   UNL     1       9.332   7.919  51.233  1.00  0.00     0.039 C 
ATOM      8  C   UNL     1      10.761   6.912  52.954  1.00  0.00    -0.023 CG0
ATOM      9  G   UNL     1      11.177   6.189  54.222  1.00  0.00     0.000 G0
ENDBRANCH   5   6
ENDBRANCH   4   5
ENDBRANCH   2   4
BRANCH   1  10
ATOM     10  C   UNL     1       9.706   2.970  53.539  1.00  0.00     0.111 C 
BRANCH  10  11
ATOM     11  C   UNL     1      10.638   3.671  54.498  1.00  0.00     0.163 C 
ATOM     12  O   UNL     1      10.567   3.340  55.713  1.00  0.00    -0.294 OA
BRANCH  11  13
ATOM     13  C   UNL     1      11.610   4.739  54.088  1.00  0.00    -0.002 C 
ATOM     14  C   UNL     1      12.897   4.417  53.752  1.00  0.00    -0.069 C 
ATOM     15  C   UNL     1      13.963   5.471  53.559  1.00  0.00     0.039 C 
ATOM     16  C   UNL     1      13.312   2.984  53.503  1.00  0.00     0.039 C 
BRANCH  13  17
ATOM     17  C   UNL     1      11.172   6.193  54.233  1.00  0.00     0.066 CG0
ATOM     18  G   UNL     1      10.781   6.913  52.955  1.00  0.00     0.000 G0
ENDBRANCH  13  17
ENDBRANCH  11  13
ENDBRANCH  10  11
ENDBRANCH   1  10
TORSDOF 0
ENDMDL
MODEL 6
REMARK VINA RESULT:    -3.765      8.748     10.627
REMARK INTER + INTRA:          -5.061
REMARK INTER:                  -5.120
REMARK INTRA:                   0.060
REMARK UNBOUND:                 0.246
REMARK SMILES CC1=CCC(=C(C)C)C(=O)CC(C)=CCC1
REMARK SMILES IDX 12 1 14 2 13 3 15 4 16 5 2 6 1 7 3 8 11 10 9 11 10 12 5 13
REMARK SMILES IDX 6 14 7 15 8 16 4 17
REMARK H PARENT
REMARK Flexibility Score: 60.00
ROOT
ATOM      1  C   UNL     1       7.450   2.606  54.147  1.00  0.00    -0.070 C 
ATOM      2  C   UNL     1       8.385   1.713  54.545  1.00  0.00    -0.027 C 
ATOM      3  C   UNL     1       6.156   2.076  53.585  1.00  0.00     0.039 C 
ENDROOT
BRANCH   2   4
ATOM      4  C   UNL     1       9.665   2.063  55.261  1.00  0.00     0.032 C 
BRANCH   4   5
ATOM      5  C   UNL     1      10.854   1.906  54.308  1.00  0.00     0.034 C 
BRANCH   5   6
ATOM      6  C   UNL     1      11.715   3.152  54.244  1.00  0.00    -0.077 C 
ATOM      7  C   UNL     1      12.846   3.300  55.231  1.00  0.00     0.039 C 
ATOM      8  C   UNL     1      11.482   4.183  53.394  1.00  0.00    -0.023 CG0
ATOM      9  G   UNL     1      10.450   4.245  52.282  1.00  0.00     0.000 G0
ENDBRANCH   5   6
ENDBRANCH   4   5
ENDBRANCH   2   4
BRANCH   1  10
ATOM     10  C   UNL     1       7.647   4.107  54.220  1.00  0.00     0.111 C 
BRANCH  10  11
ATOM     11  C   UNL     1       7.969   4.699  52.869  1.00  0.00     0.163 C 
ATOM     12  O   UNL     1       7.046   4.703  52.008  1.00  0.00    -0.294 OA
BRANCH  11  13
ATOM     13  C   UNL     1       9.314   5.253  52.498  1.00  0.00    -0.002 C 
ATOM     14  C   UNL     1       9.463   6.582  52.206  1.00  0.00    -0.069 C 
ATOM     15  C   UNL     1      10.738   7.133  51.608  1.00  0.00     0.039 C 
ATOM     16  C   UNL     1       8.374   7.585  52.513  1.00  0.00     0.039 C 
BRANCH  13  17
ATOM     17  C   UNL     1      10.456   4.265  52.284  1.00  0.00     0.066 CG0
ATOM     18  G   UNL     1      11.484   4.167  53.396  1.00  0.00     0.000 G0
ENDBRANCH  13  17
ENDBRANCH  11  13
ENDBRANCH  10  11
ENDBRANCH   1  10
TORSDOF 0
ENDMDL
MODEL 7
REMARK VINA RESULT:    -3.745      9.153     11.039
REMARK INTER + INTRA:          -5.032
REMARK INTER:                  -4.868
REMARK INTRA:                  -0.164
REMARK UNBOUND:                 0.246
REMARK SMILES CC1=CCC(=C(C)C)C(=O)CC(C)=CCC1
REMARK SMILES IDX 12 1 14 2 13 3 15 4 16 5 2 6 1 7 3 8 11 10 9 11 10 12 5 13
REMARK SMILES IDX 6 14 7 15 8 16 4 17
REMARK H PARENT
REMARK Flexibility Score: 60.00
ROOT
ATOM      1  C   UNL     1       8.616   5.649  53.377  1.00  0.00    -0.070 C 
ATOM      2  C   UNL     1       7.760   4.602  53.376  1.00  0.00    -0.027 C 
ATOM      3  C   UNL     1       8.348   6.787  52.426  1.00  0.00     0.039 C 
ENDROOT
BRANCH   2   4
ATOM      4  C   UNL     1       7.793   3.458  54.357  1.00  0.00     0.032 C 
BRANCH   4   5
ATOM      5  C   UNL     1       8.487   2.248  53.723  1.00  0.00     0.034 C 
BRANCH   5   6
ATOM      6  C   UNL     1       9.404   1.531  54.693  1.00  0.00    -0.077 C 
ATOM      7  C   UNL     1       8.795   0.588  55.701  1.00  0.00     0.039 C 
ATOM      8  C   UNL     1      10.742   1.743  54.757  1.00  0.00    -0.023 CG0
ATOM      9  G   UNL     1      11.587   2.591  53.824  1.00  0.00     0.000 G0
ENDBRANCH   5   6
ENDBRANCH   4   5
ENDBRANCH   2   4
BRANCH   1  10
ATOM     10  C   UNL     1       9.839   5.725  54.270  1.00  0.00     0.111 C 
BRANCH  10  11
ATOM     11  C   UNL     1      11.050   5.099  53.622  1.00  0.00     0.163 C 
ATOM     12  O   UNL     1      11.360   5.507  52.470  1.00  0.00    -0.294 OA
BRANCH  11  13
ATOM     13  C   UNL     1      11.875   4.019  54.260  1.00  0.00    -0.002 C 
ATOM     14  C   UNL     1      12.927   4.337  55.077  1.00  0.00    -0.069 C 
ATOM     15  C   UNL     1      13.917   3.298  55.550  1.00  0.00     0.039 C 
ATOM     16  C   UNL     1      13.127   5.744  55.593  1.00  0.00     0.039 C 
BRANCH  13  17
ATOM     17  C   UNL     1      11.617   2.579  53.830  1.00  0.00     0.066 CG0
ATOM     18  G   UNL     1      10.742   1.744  54.748  1.00  0.00     0.000 G0
ENDBRANCH  13  17
ENDBRANCH  11  13
ENDBRANCH  10  11
ENDBRANCH   1  10
TORSDOF 0
ENDMDL
MODEL 8
REMARK VINA RESULT:    -3.686     11.547     13.743
REMARK INTER + INTRA:          -4.948
REMARK INTER:                  -4.823
REMARK INTRA:                  -0.125
REMARK UNBOUND:                 0.246
REMARK SMILES CC1=CCC(=C(C)C)C(=O)CC(C)=CCC1
REMARK SMILES IDX 12 1 14 2 13 3 15 4 16 5 2 6 1 7 3 8 11 10 9 11 10 12 5 13
REMARK SMILES IDX 6 14 7 15 8 16 4 17
REMARK H PARENT
REMARK Flexibility Score: 60.00
ROOT
ATOM      1  C   UNL     1       9.169   6.652  48.076  1.00  0.00    -0.070 C 
ATOM      2  C   UNL     1      10.465   6.560  48.456  1.00  0.00    -0.027 C 
ATOM      3  C   UNL     1       8.349   5.389  48.036  1.00  0.00     0.039 C 
ENDROOT
BRANCH   2   4
ATOM      4  C   UNL     1      11.381   7.734  48.692  1.00  0.00     0.032 C 
BRANCH   4   5
ATOM      5  C   UNL     1      12.122   8.085  47.398  1.00  0.00     0.034 C 
BRANCH   5   6
ATOM      6  C   UNL     1      12.272   9.580  47.202  1.00  0.00    -0.077 C 
ATOM      7  C   UNL     1      13.220  10.336  48.101  1.00  0.00     0.039 C 
ATOM      8  C   UNL     1      11.545  10.297  46.309  1.00  0.00    -0.023 CG0
ATOM      9  G   UNL     1      10.580   9.763  45.266  1.00  0.00     0.000 G0
ENDBRANCH   5   6
ENDBRANCH   4   5
ENDBRANCH   2   4
BRANCH   1  10
ATOM     10  C   UNL     1       8.510   7.957  47.672  1.00  0.00     0.111 C 
BRANCH  10  11
ATOM     11  C   UNL     1       8.692   8.249  46.202  1.00  0.00     0.163 C 
ATOM     12  O   UNL     1       8.488   7.298  45.398  1.00  0.00    -0.294 OA
BRANCH  11  13
ATOM     13  C   UNL     1       9.118   9.583  45.662  1.00  0.00    -0.002 C 
ATOM     14  C   UNL     1       8.191  10.556  45.402  1.00  0.00    -0.069 C 
ATOM     15  C   UNL     1       8.544  11.818  44.648  1.00  0.00     0.039 C 
ATOM     16  C   UNL     1       6.768  10.445  45.902  1.00  0.00     0.039 C 
BRANCH  13  17
ATOM     17  C   UNL     1      10.576   9.750  45.248  1.00  0.00     0.066 CG0
ATOM     18  G   UNL     1      11.522  10.293  46.304  1.00  0.00     0.000 G0
ENDBRANCH  13  17
ENDBRANCH  11  13
ENDBRANCH  10  11
ENDBRANCH   1  10
TORSDOF 0
ENDMDL
MODEL 9
REMARK VINA RESULT:    -3.593      9.553     11.681
REMARK INTER + INTRA:          -4.817
REMARK INTER:                  -4.723
REMARK INTRA:                  -0.094
REMARK UNBOUND:                 0.246
REMARK SMILES CC1=CCC(=C(C)C)C(=O)CC(C)=CCC1
REMARK SMILES IDX 12 1 14 2 13 3 15 4 16 5 2 6 1 7 3 8 11 10 9 11 10 12 5 13
REMARK SMILES IDX 6 14 7 15 8 16 4 17
REMARK H PARENT
REMARK Flexibility Score: 60.00
ROOT
ATOM      1  C   UNL     1      13.384   3.434  55.099  1.00  0.00    -0.070 C 
ATOM      2  C   UNL     1      12.519   2.930  56.009  1.00  0.00    -0.027 C 
ATOM      3  C   UNL     1      14.720   3.930  55.587  1.00  0.00     0.039 C 
ENDROOT
BRANCH   2   4
ATOM      4  C   UNL     1      11.210   2.259  55.679  1.00  0.00     0.032 C 
BRANCH   4   5
ATOM      5  C   UNL     1      10.069   3.279  55.755  1.00  0.00     0.034 C 
BRANCH   5   6
ATOM      6  C   UNL     1       9.006   3.038  54.702  1.00  0.00    -0.077 C 
ATOM      7  C   UNL     1       8.054   1.883  54.886  1.00  0.00     0.039 C 
ATOM      8  C   UNL     1       8.904   3.762  53.559  1.00  0.00    -0.023 CG0
ATOM      9  G   UNL     1       9.701   4.996  53.176  1.00  0.00     0.000 G0
ENDBRANCH   5   6
ENDBRANCH   4   5
ENDBRANCH   2   4
BRANCH   1  10
ATOM     10  C   UNL     1      13.068   3.540  53.620  1.00  0.00     0.111 C 
BRANCH  10  11
ATOM     11  C   UNL     1      12.277   4.786  53.301  1.00  0.00     0.163 C 
ATOM     12  O   UNL     1      12.691   5.871  53.792  1.00  0.00    -0.294 OA
BRANCH  11  13
ATOM     13  C   UNL     1      11.031   4.793  52.464  1.00  0.00    -0.002 C 
ATOM     14  C   UNL     1      11.111   4.761  51.097  1.00  0.00    -0.069 C 
ATOM     15  C   UNL     1       9.904   4.998  50.219  1.00  0.00     0.039 C 
ATOM     16  C   UNL     1      12.407   4.435  50.390  1.00  0.00     0.039 C 
BRANCH  13  17
ATOM     17  C   UNL     1       9.699   5.016  53.171  1.00  0.00     0.066 CG0
ATOM     18  G   UNL     1       8.921   3.771  53.559  1.00  0.00     0.000 G0
ENDBRANCH  13  17
ENDBRANCH  11  13
ENDBRANCH  10  11
ENDBRANCH   1  10
TORSDOF 0
ENDMDL
