MODEL 1
REMARK VINA RESULT:    -4.237      0.000      0.000
REMARK INTER + INTRA:          -4.237
REMARK INTER:                  -4.237
REMARK INTRA:                   0.000
REMARK UNBOUND:                 0.000
REMARK SMILES CC1=CC[C@H]2[C@@H](C1)C2(C)C
REMARK SMILES IDX 1 1 2 2 3 3 4 4 5 5 6 6 7 7 8 8 9 9 10 10
REMARK H PARENT
REMARK Flexibility Score: inf
ROOT
ATOM      1  C   UNL     1      29.723  26.458  11.585  1.00  0.00     0.039 C 
ATOM      2  C   UNL     1      30.325  25.215  12.184  1.00  0.00    -0.077 C 
ATOM      3  C   UNL     1      31.437  25.313  12.930  1.00  0.00    -0.028 C 
ATOM      4  C   UNL     1      32.081  24.103  13.547  1.00  0.00     0.031 C 
ATOM      5  C   UNL     1      31.034  23.087  14.049  1.00  0.00     0.003 C 
ATOM      6  C   UNL     1      29.753  22.963  13.192  1.00  0.00     0.003 C 
ATOM      7  C   UNL     1      29.683  23.869  11.944  1.00  0.00     0.034 C 
ATOM      8  C   UNL     1      30.756  21.800  13.257  1.00  0.00    -0.029 C 
ATOM      9  C   UNL     1      31.612  21.441  12.026  1.00  0.00     0.012 C 
ATOM     10  C   UNL     1      30.300  20.610  14.111  1.00  0.00     0.012 C 
ENDROOT
TORSDOF 0
ENDMDL
MODEL 2
REMARK VINA RESULT:    -4.228      2.370      4.908
REMARK INTER + INTRA:          -4.228
REMARK INTER:                  -4.228
REMARK INTRA:                   0.000
REMARK UNBOUND:                 0.000
REMARK SMILES CC1=CC[C@H]2[C@@H](C1)C2(C)C
REMARK SMILES IDX 1 1 2 2 3 3 4 4 5 5 6 6 7 7 8 8 9 9 10 10
REMARK H PARENT
REMARK Flexibility Score: inf
ROOT
ATOM      1  C   UNL     1      27.253  24.119  12.559  1.00  0.00     0.039 C 
ATOM      2  C   UNL     1      28.470  24.943  12.232  1.00  0.00    -0.077 C 
ATOM      3  C   UNL     1      29.686  24.375  12.292  1.00  0.00    -0.028 C 
ATOM      4  C   UNL     1      30.934  25.153  11.980  1.00  0.00     0.031 C 
ATOM      5  C   UNL     1      30.720  26.140  10.813  1.00  0.00     0.003 C 
ATOM      6  C   UNL     1      29.324  26.802  10.739  1.00  0.00     0.003 C 
ATOM      7  C   UNL     1      28.323  26.394  11.842  1.00  0.00     0.034 C 
ATOM      8  C   UNL     1      30.563  27.645  11.085  1.00  0.00    -0.029 C 
ATOM      9  C   UNL     1      30.753  28.204  12.509  1.00  0.00     0.012 C 
ATOM     10  C   UNL     1      31.054  28.553   9.950  1.00  0.00     0.012 C 
ENDROOT
TORSDOF 0
ENDMDL
MODEL 3
REMARK VINA RESULT:    -4.213      1.648      3.199
REMARK INTER + INTRA:          -4.213
REMARK INTER:                  -4.213
REMARK INTRA:                   0.000
REMARK UNBOUND:                 0.000
REMARK SMILES CC1=CC[C@H]2[C@@H](C1)C2(C)C
REMARK SMILES IDX 1 1 2 2 3 3 4 4 5 5 6 6 7 7 8 8 9 9 10 10
REMARK H PARENT
REMARK Flexibility Score: inf
ROOT
ATOM      1  C   UNL     1      28.496  28.390  11.729  1.00  0.00     0.039 C 
ATOM      2  C   UNL     1      28.794  26.918  11.836  1.00  0.00    -0.077 C 
ATOM      3  C   UNL     1      27.777  26.041  11.891  1.00  0.00    -0.028 C 
ATOM      4  C   UNL     1      28.018  24.562  12.003  1.00  0.00     0.031 C 
ATOM      5  C   UNL     1      29.236  24.113  11.169  1.00  0.00     0.003 C 
ATOM      6  C   UNL     1      30.414  25.114  11.105  1.00  0.00     0.003 C 
ATOM      7  C   UNL     1      30.223  26.433  11.884  1.00  0.00     0.034 C 
ATOM      8  C   UNL     1      30.571  23.781  11.855  1.00  0.00    -0.029 C 
ATOM      9  C   UNL     1      30.672  23.761  13.393  1.00  0.00     0.012 C 
ATOM     10  C   UNL     1      31.421  22.734  11.125  1.00  0.00     0.012 C 
ENDROOT
TORSDOF 0
ENDMDL
MODEL 4
REMARK VINA RESULT:    -4.167      0.769      4.003
REMARK INTER + INTRA:          -4.167
REMARK INTER:                  -4.167
REMARK INTRA:                   0.000
REMARK UNBOUND:                 0.000
REMARK SMILES CC1=CC[C@H]2[C@@H](C1)C2(C)C
REMARK SMILES IDX 1 1 2 2 3 3 4 4 5 5 6 6 7 7 8 8 9 9 10 10
REMARK H PARENT
REMARK Flexibility Score: inf
ROOT
ATOM      1  C   UNL     1      30.271  20.536  14.121  1.00  0.00     0.039 C 
ATOM      2  C   UNL     1      30.548  21.755  13.283  1.00  0.00    -0.077 C 
ATOM      3  C   UNL     1      31.395  21.664  12.245  1.00  0.00    -0.028 C 
ATOM      4  C   UNL     1      31.710  22.852  11.379  1.00  0.00     0.031 C 
ATOM      5  C   UNL     1      30.469  23.740  11.147  1.00  0.00     0.003 C 
ATOM      6  C   UNL     1      29.491  23.855  12.340  1.00  0.00     0.003 C 
ATOM      7  C   UNL     1      29.880  23.070  13.611  1.00  0.00     0.034 C 
ATOM      8  C   UNL     1      30.315  25.075  11.895  1.00  0.00    -0.029 C 
ATOM      9  C   UNL     1      31.458  25.608  12.781  1.00  0.00     0.012 C 
ATOM     10  C   UNL     1      29.516  26.142  11.137  1.00  0.00     0.012 C 
ENDROOT
TORSDOF 0
ENDMDL
MODEL 5
REMARK VINA RESULT:    -4.016      1.992      5.355
REMARK INTER + INTRA:          -4.016
REMARK INTER:                  -4.016
REMARK INTRA:                   0.000
REMARK UNBOUND:                 0.000
REMARK SMILES CC1=CC[C@H]2[C@@H](C1)C2(C)C
REMARK SMILES IDX 1 1 2 2 3 3 4 4 5 5 6 6 7 7 8 8 9 9 10 10
REMARK H PARENT
REMARK Flexibility Score: inf
ROOT
ATOM      1  C   UNL     1      30.336  23.682  11.796  1.00  0.00     0.039 C 
ATOM      2  C   UNL     1      30.604  25.146  12.020  1.00  0.00    -0.077 C 
ATOM      3  C   UNL     1      31.562  25.517  12.885  1.00  0.00    -0.028 C 
ATOM      4  C   UNL     1      31.867  26.965  13.149  1.00  0.00     0.031 C 
ATOM      5  C   UNL     1      31.767  27.817  11.866  1.00  0.00     0.003 C 
ATOM      6  C   UNL     1      30.662  27.400  10.867  1.00  0.00     0.003 C 
ATOM      7  C   UNL     1      29.800  26.187  11.278  1.00  0.00     0.034 C 
ATOM      8  C   UNL     1      30.552  28.730  11.631  1.00  0.00    -0.029 C 
ATOM      9  C   UNL     1      29.488  28.910  12.731  1.00  0.00     0.012 C 
ATOM     10  C   UNL     1      30.845  29.977  10.787  1.00  0.00     0.012 C 
ENDROOT
TORSDOF 0
ENDMDL
MODEL 6
REMARK VINA RESULT:    -3.964      2.228      3.921
REMARK INTER + INTRA:          -3.964
REMARK INTER:                  -3.964
REMARK INTRA:                   0.000
REMARK UNBOUND:                 0.000
REMARK SMILES CC1=CC[C@H]2[C@@H](C1)C2(C)C
REMARK SMILES IDX 1 1 2 2 3 3 4 4 5 5 6 6 7 7 8 8 9 9 10 10
REMARK H PARENT
REMARK Flexibility Score: inf
ROOT
ATOM      1  C   UNL     1      30.249  29.844  11.394  1.00  0.00     0.039 C 
ATOM      2  C   UNL     1      30.055  28.357  11.529  1.00  0.00    -0.077 C 
ATOM      3  C   UNL     1      28.822  27.870  11.745  1.00  0.00    -0.028 C 
ATOM      4  C   UNL     1      28.573  26.395  11.892  1.00  0.00     0.031 C 
ATOM      5  C   UNL     1      29.456  25.565  10.937  1.00  0.00     0.003 C 
ATOM      6  C   UNL     1      30.879  26.116  10.686  1.00  0.00     0.003 C 
ATOM      7  C   UNL     1      31.237  27.424  11.424  1.00  0.00     0.034 C 
ATOM      8  C   UNL     1      30.682  24.807  11.470  1.00  0.00    -0.029 C 
ATOM      9  C   UNL     1      30.969  24.756  12.983  1.00  0.00     0.012 C 
ATOM     10  C   UNL     1      31.037  23.536  10.689  1.00  0.00     0.012 C 
ENDROOT
TORSDOF 0
ENDMDL
MODEL 7
REMARK VINA RESULT:    -3.914      1.794      3.523
REMARK INTER + INTRA:          -3.914
REMARK INTER:                  -3.914
REMARK INTRA:                   0.000
REMARK UNBOUND:                 0.000
REMARK SMILES CC1=CC[C@H]2[C@@H](C1)C2(C)C
REMARK SMILES IDX 1 1 2 2 3 3 4 4 5 5 6 6 7 7 8 8 9 9 10 10
REMARK H PARENT
REMARK Flexibility Score: inf
ROOT
ATOM      1  C   UNL     1      26.886  23.744  13.234  1.00  0.00     0.039 C 
ATOM      2  C   UNL     1      28.330  23.823  12.813  1.00  0.00    -0.077 C 
ATOM      3  C   UNL     1      29.240  23.053  13.432  1.00  0.00    -0.028 C 
ATOM      4  C   UNL     1      30.695  23.096  13.055  1.00  0.00     0.031 C 
ATOM      5  C   UNL     1      30.889  23.260  11.533  1.00  0.00     0.003 C 
ATOM      6  C   UNL     1      29.849  24.150  10.813  1.00  0.00     0.003 C 
ATOM      7  C   UNL     1      28.749  24.762  11.708  1.00  0.00     0.034 C 
ATOM      8  C   UNL     1      31.308  24.617  10.943  1.00  0.00    -0.029 C 
ATOM      9  C   UNL     1      31.670  25.792  11.872  1.00  0.00     0.012 C 
ATOM     10  C   UNL     1      32.125  24.525   9.648  1.00  0.00     0.012 C 
ENDROOT
TORSDOF 0
ENDMDL
MODEL 8
REMARK VINA RESULT:    -3.893      1.186      2.400
REMARK INTER + INTRA:          -3.893
REMARK INTER:                  -3.893
REMARK INTRA:                   0.000
REMARK UNBOUND:                 0.000
REMARK SMILES CC1=CC[C@H]2[C@@H](C1)C2(C)C
REMARK SMILES IDX 1 1 2 2 3 3 4 4 5 5 6 6 7 7 8 8 9 9 10 10
REMARK H PARENT
REMARK Flexibility Score: inf
ROOT
ATOM      1  C   UNL     1      31.949  27.521  12.157  1.00  0.00     0.039 C 
ATOM      2  C   UNL     1      31.254  26.186  12.114  1.00  0.00    -0.077 C 
ATOM      3  C   UNL     1      30.564  25.837  11.015  1.00  0.00    -0.028 C 
ATOM      4  C   UNL     1      29.847  24.518  10.922  1.00  0.00     0.031 C 
ATOM      5  C   UNL     1      30.645  23.381  11.594  1.00  0.00     0.003 C 
ATOM      6  C   UNL     1      31.437  23.774  12.862  1.00  0.00     0.003 C 
ATOM      7  C   UNL     1      31.329  25.252  13.298  1.00  0.00     0.034 C 
ATOM      8  C   UNL     1      30.221  22.839  12.968  1.00  0.00    -0.029 C 
ATOM      9  C   UNL     1      28.918  23.328  13.631  1.00  0.00     0.012 C 
ATOM     10  C   UNL     1      30.568  21.365  13.208  1.00  0.00     0.012 C 
ENDROOT
TORSDOF 0
ENDMDL
