MODEL 1
REMARK VINA RESULT:    10.652      0.000      0.000
REMARK INTER + INTRA:          16.179
REMARK INTER:                  15.011
REMARK INTRA:                   1.168
REMARK UNBOUND:                 1.168
REMARK SMILES CC1=CCCC(C)=CCC(C)(C)C=CC1
REMARK SMILES IDX 2 1 3 2 1 3 4 4 5 5 6 6 7 7 8 8 15 10 14 11 13 12 10 13
REMARK SMILES IDX 11 14 12 15 9 16
REMARK H PARENT
REMARK Flexibility Score: 60.00
ROOT
ATOM      1  C   UNL     1      -0.358 -11.392  15.097  1.00  0.00    -0.074 C 
ATOM      2  C   UNL     1       0.462 -11.064  16.127  1.00  0.00    -0.027 C 
ATOM      3  C   UNL     1      -1.559 -10.516  14.844  1.00  0.00     0.039 C 
ENDROOT
BRANCH   2   4
ATOM      4  C   UNL     1       1.710 -11.814  16.531  1.00  0.00     0.032 C 
BRANCH   4   5
ATOM      5  C   UNL     1       1.524 -13.333  16.376  1.00  0.00     0.034 C 
BRANCH   5   6
ATOM      6  C   UNL     1       2.763 -14.086  15.918  1.00  0.00    -0.077 C 
ATOM      7  C   UNL     1       4.001 -14.000  16.777  1.00  0.00     0.039 C 
ATOM      8  C   UNL     1       2.880 -14.742  14.732  1.00  0.00    -0.027 CG0
ATOM      9  G   UNL     1       1.779 -15.139  13.764  1.00  0.00     0.000 G0
ENDBRANCH   5   6
ENDBRANCH   4   5
ENDBRANCH   2   4
BRANCH   1  10
ATOM     10  C   UNL     1      -0.120 -12.582  14.180  1.00  0.00     0.057 C 
BRANCH  10  11
ATOM     11  C   UNL     1       0.748 -12.176  13.016  1.00  0.00    -0.026 C 
ATOM     12  C   UNL     1       1.594 -12.953  12.295  1.00  0.00    -0.024 C 
BRANCH  12  13
ATOM     13  C   UNL     1       1.768 -14.473  12.324  1.00  0.00    -0.014 C 
ATOM     14  C   UNL     1       0.659 -15.125  11.468  1.00  0.00     0.016 C 
ATOM     15  C   UNL     1       3.121 -14.811  11.650  1.00  0.00     0.016 C 
BRANCH  13  16
ATOM     16  C   UNL     1       1.758 -15.104  13.751  1.00  0.00     0.038 CG0
ATOM     17  G   UNL     1       2.872 -14.701  14.702  1.00  0.00     0.000 G0
ENDBRANCH  13  16
ENDBRANCH  12  13
ENDBRANCH  10  11
ENDBRANCH   1  10
TORSDOF 0
ENDMDL
MODEL 2
REMARK VINA RESULT:    10.904      1.262      3.478
REMARK INTER + INTRA:          16.534
REMARK INTER:                   8.681
REMARK INTRA:                   7.854
REMARK UNBOUND:                 1.168
REMARK SMILES CC1=CCCC(C)=CCC(C)(C)C=CC1
REMARK SMILES IDX 2 1 3 2 1 3 4 4 5 5 6 6 7 7 8 8 15 10 14 11 13 12 10 13
REMARK SMILES IDX 11 14 12 15 9 16
REMARK H PARENT
REMARK Flexibility Score: 60.00
ROOT
ATOM      1  C   UNL     1       0.294 -11.539  15.494  1.00  0.00    -0.074 C 
ATOM      2  C   UNL     1      -0.686 -12.367  15.050  1.00  0.00    -0.027 C 
ATOM      3  C   UNL     1      -0.045 -10.081  15.680  1.00  0.00     0.039 C 
ENDROOT
BRANCH   2   4
ATOM      4  C   UNL     1      -0.541 -13.851  14.809  1.00  0.00     0.032 C 
BRANCH   4   5
ATOM      5  C   UNL     1       0.915 -14.308  14.999  1.00  0.00     0.034 C 
BRANCH   5   6
ATOM      6  C   UNL     1       1.648 -14.666  13.716  1.00  0.00    -0.077 C 
ATOM      7  C   UNL     1       0.863 -14.652  12.426  1.00  0.00     0.039 C 
ATOM      8  C   UNL     1       2.931 -15.110  13.652  1.00  0.00    -0.027 CG0
ATOM      9  G   UNL     1       3.998 -15.064  14.732  1.00  0.00     0.000 G0
ENDBRANCH   5   6
ENDBRANCH   4   5
ENDBRANCH   2   4
BRANCH   1  10
ATOM     10  C   UNL     1       1.702 -12.007  15.827  1.00  0.00     0.057 C 
BRANCH  10  11
ATOM     11  C   UNL     1       1.651 -13.293  16.612  1.00  0.00    -0.026 C 
ATOM     12  C   UNL     1       2.561 -14.297  16.630  1.00  0.00    -0.024 C 
BRANCH  12  13
ATOM     13  C   UNL     1       3.965 -14.336  16.022  1.00  0.00    -0.014 C 
ATOM     14  C   UNL     1       4.463 -12.888  15.807  1.00  0.00     0.016 C 
ATOM     15  C   UNL     1       4.914 -14.995  17.054  1.00  0.00     0.016 C 
BRANCH  13  16
ATOM     16  C   UNL     1       4.074 -15.125  14.680  1.00  0.00     0.038 CG0
ATOM     17  G   UNL     1       2.882 -15.073  13.741  1.00  0.00     0.000 G0
ENDBRANCH  13  16
ENDBRANCH  12  13
ENDBRANCH  10  11
ENDBRANCH   1  10
TORSDOF 0
ENDMDL
