MODEL 1
REMARK VINA RESULT:    -4.427      0.000      0.000
REMARK INTER + INTRA:          -5.956
REMARK INTER:                  -5.721
REMARK INTRA:                  -0.236
REMARK UNBOUND:                -0.236
REMARK SMILES CCO[C@@H]1O[C@@H](CO)[C@H](O)[C@H](O)[C@H]1O
REMARK SMILES IDX 4 1 13 2 11 3 9 4 6 5 5 6 3 7 2 8 1 9 14 10 12 12 7 14 8 15
REMARK SMILES IDX 10 17
REMARK H PARENT 14 11 12 13 8 16 10 18
REMARK Flexibility Score: inf
ROOT
ATOM      1  C   UNL     1      59.314 -40.081  46.557  1.00  0.00     0.281 C 
ATOM      2  C   UNL     1      58.980 -41.361  45.770  1.00  0.00     0.202 C 
ATOM      3  C   UNL     1      57.458 -41.471  45.576  1.00  0.00     0.179 C 
ATOM      4  C   UNL     1      56.742 -41.348  46.932  1.00  0.00     0.177 C 
ATOM      5  C   UNL     1      57.241 -40.104  47.709  1.00  0.00     0.178 C 
ATOM      6  O   UNL     1      58.658 -40.076  47.820  1.00  0.00    -0.341 OA
ENDROOT
BRANCH   1   7
ATOM      7  O   UNL     1      60.715 -40.050  46.764  1.00  0.00    -0.350 OA
BRANCH   7   8
ATOM      8  C   UNL     1      61.134 -41.074  47.653  1.00  0.00     0.160 C 
ATOM      9  C   UNL     1      62.343 -40.610  48.462  1.00  0.00     0.035 C 
ENDBRANCH   7   8
ENDBRANCH   1   7
BRANCH   2  10
ATOM     10  O   UNL     1      59.622 -41.312  44.518  1.00  0.00    -0.385 OA
ATOM     11  H   UNL     1      59.509 -40.384  44.173  1.00  0.00     0.211 HD
ENDBRANCH   2  10
BRANCH   3  12
ATOM     12  O   UNL     1      57.150 -42.703  44.975  1.00  0.00    -0.387 OA
ATOM     13  H   UNL     1      57.981 -43.245  44.990  1.00  0.00     0.211 HD
ENDBRANCH   3  12
BRANCH   5  14
ATOM     14  C   UNL     1      56.655 -38.778  47.184  1.00  0.00     0.191 C 
BRANCH  14  15
ATOM     15  O   UNL     1      55.303 -38.953  46.859  1.00  0.00    -0.394 OA
ATOM     16  H   UNL     1      54.783 -38.655  47.652  1.00  0.00     0.210 HD
ENDBRANCH  14  15
ENDBRANCH   5  14
BRANCH   4  17
ATOM     17  O   UNL     1      56.978 -42.507  47.690  1.00  0.00    -0.387 OA
ATOM     18  H   UNL     1      57.737 -42.986  47.258  1.00  0.00     0.211 HD
ENDBRANCH   4  17
TORSDOF 7
ENDMDL
MODEL 2
REMARK VINA RESULT:    -4.139      1.831      3.712
REMARK INTER + INTRA:          -5.585
REMARK INTER:                  -5.389
REMARK INTRA:                  -0.196
REMARK UNBOUND:                -0.236
REMARK SMILES CCO[C@@H]1O[C@@H](CO)[C@H](O)[C@H](O)[C@H]1O
REMARK SMILES IDX 4 1 13 2 11 3 9 4 6 5 5 6 3 7 2 8 1 9 14 10 12 12 7 14 8 15
REMARK SMILES IDX 10 17
REMARK H PARENT 14 11 12 13 8 16 10 18
REMARK Flexibility Score: inf
ROOT
ATOM      1  C   UNL     1      58.616 -39.384  47.012  1.00  0.00     0.281 C 
ATOM      2  C   UNL     1      57.267 -40.092  47.227  1.00  0.00     0.202 C 
ATOM      3  C   UNL     1      57.496 -41.598  47.441  1.00  0.00     0.179 C 
ATOM      4  C   UNL     1      58.346 -42.172  46.294  1.00  0.00     0.177 C 
ATOM      5  C   UNL     1      59.616 -41.315  46.065  1.00  0.00     0.178 C 
ATOM      6  O   UNL     1      59.309 -39.937  45.898  1.00  0.00    -0.341 OA
ENDROOT
BRANCH   1   7
ATOM      7  O   UNL     1      58.355 -38.015  46.760  1.00  0.00    -0.350 OA
BRANCH   7   8
ATOM      8  C   UNL     1      59.385 -37.420  45.985  1.00  0.00     0.160 C 
ATOM      9  C   UNL     1      60.400 -36.730  46.893  1.00  0.00     0.035 C 
ENDBRANCH   7   8
ENDBRANCH   1   7
BRANCH   2  10
ATOM     10  O   UNL     1      56.631 -39.538  48.353  1.00  0.00    -0.385 OA
ATOM     11  H   UNL     1      55.654 -39.696  48.240  1.00  0.00     0.211 HD
ENDBRANCH   2  10
BRANCH   3  12
ATOM     12  O   UNL     1      56.258 -42.257  47.504  1.00  0.00    -0.387 OA
ATOM     13  H   UNL     1      56.451 -43.230  47.481  1.00  0.00     0.211 HD
ENDBRANCH   3  12
BRANCH   5  14
ATOM     14  C   UNL     1      60.718 -41.560  47.115  1.00  0.00     0.191 C 
BRANCH  14  15
ATOM     15  O   UNL     1      60.989 -42.932  47.207  1.00  0.00    -0.394 OA
ATOM     16  H   UNL     1      61.377 -43.201  46.332  1.00  0.00     0.210 HD
ENDBRANCH  14  15
ENDBRANCH   5  14
BRANCH   4  17
ATOM     17  O   UNL     1      57.577 -42.205  45.118  1.00  0.00    -0.387 OA
ATOM     18  H   UNL     1      57.395 -41.260  44.864  1.00  0.00     0.211 HD
ENDBRANCH   4  17
TORSDOF 7
ENDMDL
MODEL 3
REMARK VINA RESULT:    -4.123      1.712      4.489
REMARK INTER + INTRA:          -5.564
REMARK INTER:                  -5.320
REMARK INTRA:                  -0.245
REMARK UNBOUND:                -0.236
REMARK SMILES CCO[C@@H]1O[C@@H](CO)[C@H](O)[C@H](O)[C@H]1O
REMARK SMILES IDX 4 1 13 2 11 3 9 4 6 5 5 6 3 7 2 8 1 9 14 10 12 12 7 14 8 15
REMARK SMILES IDX 10 17
REMARK H PARENT 14 11 12 13 8 16 10 18
REMARK Flexibility Score: inf
ROOT
ATOM      1  C   UNL     1      57.225 -40.469  47.558  1.00  0.00     0.281 C 
ATOM      2  C   UNL     1      58.253 -39.322  47.553  1.00  0.00     0.202 C 
ATOM      3  C   UNL     1      59.146 -39.430  46.306  1.00  0.00     0.179 C 
ATOM      4  C   UNL     1      59.758 -40.838  46.212  1.00  0.00     0.177 C 
ATOM      5  C   UNL     1      58.664 -41.926  46.362  1.00  0.00     0.178 C 
ATOM      6  O   UNL     1      57.876 -41.734  47.529  1.00  0.00    -0.341 OA
ENDROOT
BRANCH   1   7
ATOM      7  O   UNL     1      56.465 -40.367  48.749  1.00  0.00    -0.350 OA
BRANCH   7   8
ATOM      8  C   UNL     1      55.106 -40.716  48.533  1.00  0.00     0.160 C 
ATOM      9  C   UNL     1      54.570 -40.012  47.289  1.00  0.00     0.035 C 
ENDBRANCH   7   8
ENDBRANCH   1   7
BRANCH   2  10
ATOM     10  O   UNL     1      57.569 -38.092  47.550  1.00  0.00    -0.385 OA
ATOM     11  H   UNL     1      57.334 -37.895  46.603  1.00  0.00     0.211 HD
ENDBRANCH   2  10
BRANCH   3  12
ATOM     12  O   UNL     1      60.164 -38.463  46.373  1.00  0.00    -0.387 OA
ATOM     13  H   UNL     1      60.288 -38.114  45.453  1.00  0.00     0.211 HD
ENDBRANCH   3  12
BRANCH   5  14
ATOM     14  C   UNL     1      57.814 -42.119  45.089  1.00  0.00     0.191 C 
BRANCH  14  15
ATOM     15  O   UNL     1      58.555 -42.818  44.126  1.00  0.00    -0.394 OA
ATOM     16  H   UNL     1      59.268 -43.304  44.620  1.00  0.00     0.210 HD
ENDBRANCH  14  15
ENDBRANCH   5  14
BRANCH   4  17
ATOM     17  O   UNL     1      60.723 -40.994  47.221  1.00  0.00    -0.387 OA
ATOM     18  H   UNL     1      60.973 -40.080  47.526  1.00  0.00     0.211 HD
ENDBRANCH   4  17
TORSDOF 7
ENDMDL
MODEL 4
REMARK VINA RESULT:    -4.105      2.358      4.033
REMARK INTER + INTRA:          -5.540
REMARK INTER:                  -5.381
REMARK INTRA:                  -0.159
REMARK UNBOUND:                -0.236
REMARK SMILES CCO[C@@H]1O[C@@H](CO)[C@H](O)[C@H](O)[C@H]1O
REMARK SMILES IDX 4 1 13 2 11 3 9 4 6 5 5 6 3 7 2 8 1 9 14 10 12 12 7 14 8 15
REMARK SMILES IDX 10 17
REMARK H PARENT 14 11 12 13 8 16 10 18
REMARK Flexibility Score: inf
ROOT
ATOM      1  C   UNL     1      55.943 -40.661  46.675  1.00  0.00     0.281 C 
ATOM      2  C   UNL     1      56.147 -40.920  48.179  1.00  0.00     0.202 C 
ATOM      3  C   UNL     1      55.090 -40.151  48.989  1.00  0.00     0.179 C 
ATOM      4  C   UNL     1      55.092 -38.665  48.588  1.00  0.00     0.177 C 
ATOM      5  C   UNL     1      55.018 -38.509  47.048  1.00  0.00     0.178 C 
ATOM      6  O   UNL     1      56.019 -39.271  46.384  1.00  0.00    -0.341 OA
ENDROOT
BRANCH   1   7
ATOM      7  O   UNL     1      56.970 -41.337  45.973  1.00  0.00    -0.350 OA
BRANCH   7   8
ATOM      8  C   UNL     1      58.225 -40.693  46.136  1.00  0.00     0.160 C 
ATOM      9  C   UNL     1      59.275 -41.345  45.240  1.00  0.00     0.035 C 
ENDBRANCH   7   8
ENDBRANCH   1   7
BRANCH   2  10
ATOM     10  O   UNL     1      56.033 -42.300  48.428  1.00  0.00    -0.385 OA
ATOM     11  H   UNL     1      55.657 -42.712  47.603  1.00  0.00     0.211 HD
ENDBRANCH   2  10
BRANCH   3  12
ATOM     12  O   UNL     1      55.361 -40.283  50.361  1.00  0.00    -0.387 OA
ATOM     13  H   UNL     1      55.031 -39.456  50.799  1.00  0.00     0.211 HD
ENDBRANCH   3  12
BRANCH   5  14
ATOM     14  C   UNL     1      53.606 -38.747  46.476  1.00  0.00     0.191 C 
BRANCH  14  15
ATOM     15  O   UNL     1      53.667 -38.814  45.077  1.00  0.00    -0.394 OA
ATOM     16  H   UNL     1      53.189 -38.011  44.737  1.00  0.00     0.210 HD
ENDBRANCH  14  15
ENDBRANCH   5  14
BRANCH   4  17
ATOM     17  O   UNL     1      56.263 -38.056  49.071  1.00  0.00    -0.387 OA
ATOM     18  H   UNL     1      56.094 -37.076  49.088  1.00  0.00     0.211 HD
ENDBRANCH   4  17
TORSDOF 7
ENDMDL
MODEL 5
REMARK VINA RESULT:    -4.050     11.543     13.075
REMARK INTER + INTRA:          -5.470
REMARK INTER:                  -5.288
REMARK INTRA:                  -0.181
REMARK UNBOUND:                -0.236
REMARK SMILES CCO[C@@H]1O[C@@H](CO)[C@H](O)[C@H](O)[C@H]1O
REMARK SMILES IDX 4 1 13 2 11 3 9 4 6 5 5 6 3 7 2 8 1 9 14 10 12 12 7 14 8 15
REMARK SMILES IDX 10 17
REMARK H PARENT 14 11 12 13 8 16 10 18
REMARK Flexibility Score: inf
ROOT
ATOM      1  C   UNL     1      58.885 -39.654  34.085  1.00  0.00     0.281 C 
ATOM      2  C   UNL     1      60.199 -38.997  33.625  1.00  0.00     0.202 C 
ATOM      3  C   UNL     1      61.289 -40.069  33.465  1.00  0.00     0.179 C 
ATOM      4  C   UNL     1      61.407 -40.902  34.753  1.00  0.00     0.177 C 
ATOM      5  C   UNL     1      60.016 -41.408  35.212  1.00  0.00     0.178 C 
ATOM      6  O   UNL     1      59.069 -40.352  35.311  1.00  0.00    -0.341 OA
ENDROOT
BRANCH   1   7
ATOM      7  O   UNL     1      57.928 -38.627  34.277  1.00  0.00    -0.350 OA
BRANCH   7   8
ATOM      8  C   UNL     1      56.640 -39.158  34.551  1.00  0.00     0.160 C 
ATOM      9  C   UNL     1      56.051 -38.502  35.797  1.00  0.00     0.035 C 
ENDBRANCH   7   8
ENDBRANCH   1   7
BRANCH   2  10
ATOM     10  O   UNL     1      59.981 -38.345  32.396  1.00  0.00    -0.385 OA
ATOM     11  H   UNL     1      59.146 -38.727  32.011  1.00  0.00     0.211 HD
ENDBRANCH   2  10
BRANCH   3  12
ATOM     12  O   UNL     1      62.517 -39.450  33.174  1.00  0.00    -0.387 OA
ATOM     13  H   UNL     1      62.934 -39.221  34.044  1.00  0.00     0.211 HD
ENDBRANCH   3  12
BRANCH   5  14
ATOM     14  C   UNL     1      59.497 -42.603  34.388  1.00  0.00     0.191 C 
BRANCH  14  15
ATOM     15  O   UNL     1      58.625 -43.375  35.168  1.00  0.00    -0.394 OA
ATOM     16  H   UNL     1      57.792 -42.841  35.269  1.00  0.00     0.210 HD
ENDBRANCH  14  15
ENDBRANCH   5  14
BRANCH   4  17
ATOM     17  O   UNL     1      61.982 -40.114  35.764  1.00  0.00    -0.387 OA
ATOM     18  H   UNL     1      61.240 -39.615  36.202  1.00  0.00     0.211 HD
ENDBRANCH   4  17
TORSDOF 7
ENDMDL
MODEL 6
REMARK VINA RESULT:    -4.039      1.589      2.607
REMARK INTER + INTRA:          -5.455
REMARK INTER:                  -5.258
REMARK INTRA:                  -0.197
REMARK UNBOUND:                -0.236
REMARK SMILES CCO[C@@H]1O[C@@H](CO)[C@H](O)[C@H](O)[C@H]1O
REMARK SMILES IDX 4 1 13 2 11 3 9 4 6 5 5 6 3 7 2 8 1 9 14 10 12 12 7 14 8 15
REMARK SMILES IDX 10 17
REMARK H PARENT 14 11 12 13 8 16 10 18
REMARK Flexibility Score: inf
ROOT
ATOM      1  C   UNL     1      58.944 -41.040  46.247  1.00  0.00     0.281 C 
ATOM      2  C   UNL     1      57.444 -41.376  46.149  1.00  0.00     0.202 C 
ATOM      3  C   UNL     1      56.625 -40.079  46.046  1.00  0.00     0.179 C 
ATOM      4  C   UNL     1      56.994 -39.127  47.197  1.00  0.00     0.177 C 
ATOM      5  C   UNL     1      58.531 -38.956  47.301  1.00  0.00     0.178 C 
ATOM      6  O   UNL     1      59.204 -40.206  47.370  1.00  0.00    -0.341 OA
ENDROOT
BRANCH   1   7
ATOM      7  O   UNL     1      59.654 -42.256  46.400  1.00  0.00    -0.350 OA
BRANCH   7   8
ATOM      8  C   UNL     1      60.658 -42.153  47.397  1.00  0.00     0.160 C 
ATOM      9  C   UNL     1      60.794 -43.474  48.150  1.00  0.00     0.035 C 
ENDBRANCH   7   8
ENDBRANCH   1   7
BRANCH   2  10
ATOM     10  O   UNL     1      57.226 -42.174  45.010  1.00  0.00    -0.385 OA
ATOM     11  H   UNL     1      57.656 -43.055  45.188  1.00  0.00     0.211 HD
ENDBRANCH   2  10
BRANCH   3  12
ATOM     12  O   UNL     1      55.255 -40.384  46.090  1.00  0.00    -0.387 OA
ATOM     13  H   UNL     1      54.881 -40.153  45.200  1.00  0.00     0.211 HD
ENDBRANCH   3  12
BRANCH   5  14
ATOM     14  C   UNL     1      59.117 -38.018  46.227  1.00  0.00     0.191 C 
BRANCH  14  15
ATOM     15  O   UNL     1      60.460 -37.743  46.519  1.00  0.00    -0.394 OA
ATOM     16  H   UNL     1      60.546 -37.786  47.509  1.00  0.00     0.210 HD
ENDBRANCH  14  15
ENDBRANCH   5  14
BRANCH   4  17
ATOM     17  O   UNL     1      56.491 -39.641  48.404  1.00  0.00    -0.387 OA
ATOM     18  H   UNL     1      56.669 -38.959  49.107  1.00  0.00     0.211 HD
ENDBRANCH   4  17
TORSDOF 7
ENDMDL
MODEL 7
REMARK VINA RESULT:    -4.012     11.505     13.471
REMARK INTER + INTRA:          -5.421
REMARK INTER:                  -5.209
REMARK INTRA:                  -0.212
REMARK UNBOUND:                -0.236
REMARK SMILES CCO[C@@H]1O[C@@H](CO)[C@H](O)[C@H](O)[C@H]1O
REMARK SMILES IDX 4 1 13 2 11 3 9 4 6 5 5 6 3 7 2 8 1 9 14 10 12 12 7 14 8 15
REMARK SMILES IDX 10 17
REMARK H PARENT 14 11 12 13 8 16 10 18
REMARK Flexibility Score: inf
ROOT
ATOM      1  C   UNL     1      59.132 -41.156  33.125  1.00  0.00     0.281 C 
ATOM      2  C   UNL     1      58.334 -40.919  34.420  1.00  0.00     0.202 C 
ATOM      3  C   UNL     1      59.013 -39.823  35.258  1.00  0.00     0.179 C 
ATOM      4  C   UNL     1      60.497 -40.164  35.473  1.00  0.00     0.177 C 
ATOM      5  C   UNL     1      61.183 -40.518  34.130  1.00  0.00     0.178 C 
ATOM      6  O   UNL     1      60.476 -41.523  33.416  1.00  0.00    -0.341 OA
ENDROOT
BRANCH   1   7
ATOM      7  O   UNL     1      58.508 -42.210  32.415  1.00  0.00    -0.350 OA
BRANCH   7   8
ATOM      8  C   UNL     1      58.827 -43.476  32.973  1.00  0.00     0.160 C 
ATOM      9  C   UNL     1      58.905 -44.534  31.875  1.00  0.00     0.035 C 
ENDBRANCH   7   8
ENDBRANCH   1   7
BRANCH   2  10
ATOM     10  O   UNL     1      57.023 -40.529  34.087  1.00  0.00    -0.385 OA
ATOM     11  H   UNL     1      57.099 -39.868  33.346  1.00  0.00     0.211 HD
ENDBRANCH   2  10
BRANCH   3  12
ATOM     12  O   UNL     1      58.358 -39.705  36.495  1.00  0.00    -0.387 OA
ATOM     13  H   UNL     1      57.604 -39.074  36.360  1.00  0.00     0.211 HD
ENDBRANCH   3  12
BRANCH   5  14
ATOM     14  C   UNL     1      61.507 -39.283  33.264  1.00  0.00     0.191 C 
BRANCH  14  15
ATOM     15  O   UNL     1      62.826 -39.364  32.797  1.00  0.00    -0.394 OA
ATOM     16  H   UNL     1      63.266 -38.509  33.051  1.00  0.00     0.210 HD
ENDBRANCH  14  15
ENDBRANCH   5  14
BRANCH   4  17
ATOM     17  O   UNL     1      60.600 -41.250  36.359  1.00  0.00    -0.387 OA
ATOM     18  H   UNL     1      59.683 -41.618  36.475  1.00  0.00     0.211 HD
ENDBRANCH   4  17
TORSDOF 7
ENDMDL
MODEL 8
REMARK VINA RESULT:    -4.011     11.617     13.326
REMARK INTER + INTRA:          -5.419
REMARK INTER:                  -5.226
REMARK INTRA:                  -0.193
REMARK UNBOUND:                -0.236
REMARK SMILES CCO[C@@H]1O[C@@H](CO)[C@H](O)[C@H](O)[C@H]1O
REMARK SMILES IDX 4 1 13 2 11 3 9 4 6 5 5 6 3 7 2 8 1 9 14 10 12 12 7 14 8 15
REMARK SMILES IDX 10 17
REMARK H PARENT 14 11 12 13 8 16 10 18
REMARK Flexibility Score: inf
ROOT
ATOM      1  C   UNL     1      60.687 -41.436  34.616  1.00  0.00     0.281 C 
ATOM      2  C   UNL     1      59.263 -41.931  34.307  1.00  0.00     0.202 C 
ATOM      3  C   UNL     1      59.021 -41.908  32.788  1.00  0.00     0.179 C 
ATOM      4  C   UNL     1      59.353 -40.517  32.220  1.00  0.00     0.177 C 
ATOM      5  C   UNL     1      60.751 -40.046  32.695  1.00  0.00     0.178 C 
ATOM      6  O   UNL     1      60.889 -40.122  34.108  1.00  0.00    -0.341 OA
ENDROOT
BRANCH   1   7
ATOM      7  O   UNL     1      60.846 -41.416  36.023  1.00  0.00    -0.350 OA
BRANCH   7   8
ATOM      8  C   UNL     1      61.701 -40.362  36.438  1.00  0.00     0.160 C 
ATOM      9  C   UNL     1      61.347 -39.919  37.855  1.00  0.00     0.035 C 
ENDBRANCH   7   8
ENDBRANCH   1   7
BRANCH   2  10
ATOM     10  O   UNL     1      59.116 -43.242  34.797  1.00  0.00    -0.385 OA
ATOM     11  H   UNL     1      58.564 -43.739  34.133  1.00  0.00     0.211 HD
ENDBRANCH   2  10
BRANCH   3  12
ATOM     12  O   UNL     1      57.681 -42.233  32.521  1.00  0.00    -0.387 OA
ATOM     13  H   UNL     1      57.461 -43.021  33.083  1.00  0.00     0.211 HD
ENDBRANCH   3  12
BRANCH   5  14
ATOM     14  C   UNL     1      61.914 -40.723  31.942  1.00  0.00     0.191 C 
BRANCH  14  15
ATOM     15  O   UNL     1      63.125 -40.113  32.294  1.00  0.00    -0.394 OA
ATOM     16  H   UNL     1      63.506 -39.741  31.454  1.00  0.00     0.210 HD
ENDBRANCH  14  15
ENDBRANCH   5  14
BRANCH   4  17
ATOM     17  O   UNL     1      58.375 -39.599  32.639  1.00  0.00    -0.387 OA
ATOM     18  H   UNL     1      57.586 -40.130  32.934  1.00  0.00     0.211 HD
ENDBRANCH   4  17
TORSDOF 7
ENDMDL
MODEL 9
REMARK VINA RESULT:    -3.991     11.073     12.782
REMARK INTER + INTRA:          -5.393
REMARK INTER:                  -5.179
REMARK INTRA:                  -0.214
REMARK UNBOUND:                -0.236
REMARK SMILES CCO[C@@H]1O[C@@H](CO)[C@H](O)[C@H](O)[C@H]1O
REMARK SMILES IDX 4 1 13 2 11 3 9 4 6 5 5 6 3 7 2 8 1 9 14 10 12 12 7 14 8 15
REMARK SMILES IDX 10 17
REMARK H PARENT 14 11 12 13 8 16 10 18
REMARK Flexibility Score: inf
ROOT
ATOM      1  C   UNL     1      59.983 -40.850  34.884  1.00  0.00     0.281 C 
ATOM      2  C   UNL     1      58.670 -40.048  34.856  1.00  0.00     0.202 C 
ATOM      3  C   UNL     1      57.560 -40.888  34.203  1.00  0.00     0.179 C 
ATOM      4  C   UNL     1      58.024 -41.402  32.829  1.00  0.00     0.177 C 
ATOM      5  C   UNL     1      59.416 -42.076  32.934  1.00  0.00     0.178 C 
ATOM      6  O   UNL     1      60.370 -41.235  33.570  1.00  0.00    -0.341 OA
ENDROOT
BRANCH   1   7
ATOM      7  O   UNL     1      60.989 -40.021  35.437  1.00  0.00    -0.350 OA
BRANCH   7   8
ATOM      8  C   UNL     1      61.681 -40.671  36.492  1.00  0.00     0.160 C 
ATOM      9  C   UNL     1      61.360 -40.003  37.827  1.00  0.00     0.035 C 
ENDBRANCH   7   8
ENDBRANCH   1   7
BRANCH   2  10
ATOM     10  O   UNL     1      58.307 -39.715  36.175  1.00  0.00    -0.385 OA
ATOM     11  H   UNL     1      57.340 -39.477  36.157  1.00  0.00     0.211 HD
ENDBRANCH   2  10
BRANCH   3  12
ATOM     12  O   UNL     1      56.401 -40.105  34.060  1.00  0.00    -0.387 OA
ATOM     13  H   UNL     1      56.116 -40.187  33.114  1.00  0.00     0.211 HD
ENDBRANCH   3  12
BRANCH   5  14
ATOM     14  C   UNL     1      59.367 -43.492  33.541  1.00  0.00     0.191 C 
BRANCH  14  15
ATOM     15  O   UNL     1      58.243 -44.177  33.058  1.00  0.00    -0.394 OA
ATOM     16  H   UNL     1      57.990 -43.732  32.205  1.00  0.00     0.210 HD
ENDBRANCH  14  15
ENDBRANCH   5  14
BRANCH   4  17
ATOM     17  O   UNL     1      58.084 -40.327  31.926  1.00  0.00    -0.387 OA
ATOM     18  H   UNL     1      57.163 -39.955  31.857  1.00  0.00     0.211 HD
ENDBRANCH   4  17
TORSDOF 7
ENDMDL
