MODEL 1
REMARK VINA RESULT:    -4.247      0.000      0.000
REMARK INTER + INTRA:          -5.908
REMARK INTER:                  -5.488
REMARK INTRA:                  -0.419
REMARK UNBOUND:                -0.419
REMARK SMILES CO[C@@]1(CO)O[C@H](CO)[C@H](O)[C@H]1O
REMARK SMILES IDX 3 1 12 2 10 3 7 4 6 5 2 6 1 7 4 8 5 9 13 11 11 13 8 15 9 16
REMARK H PARENT 5 10 13 12 11 14 9 17
REMARK Flexibility Score: inf
ROOT
ATOM      1  C   UNL     1       3.855  -2.071  20.305  1.00  0.00     0.221 C 
ATOM      2  C   UNL     1       5.262  -1.558  20.636  1.00  0.00     0.207 C 
ATOM      3  C   UNL     1       6.140  -2.610  20.011  1.00  0.00     0.180 C 
ATOM      4  C   UNL     1       5.269  -3.871  20.099  1.00  0.00     0.179 C 
ATOM      5  O   UNL     1       3.923  -3.489  20.307  1.00  0.00    -0.337 OA
ENDROOT
BRANCH   1   6
ATOM      6  O   UNL     1       3.475  -1.565  19.024  1.00  0.00    -0.349 OA
ATOM      7  C   UNL     1       2.257  -0.847  19.054  1.00  0.00     0.198 C 
ENDBRANCH   1   6
BRANCH   1   8
ATOM      8  C   UNL     1       2.853  -1.605  21.380  1.00  0.00     0.224 C 
BRANCH   8   9
ATOM      9  O   UNL     1       3.312  -1.958  22.656  1.00  0.00    -0.391 OA
ATOM     10  H   UNL     1       3.604  -1.112  23.087  1.00  0.00     0.210 HD
ENDBRANCH   8   9
ENDBRANCH   1   8
BRANCH   2  11
ATOM     11  O   UNL     1       5.498  -0.290  20.078  1.00  0.00    -0.385 OA
ATOM     12  H   UNL     1       4.678   0.245  20.235  1.00  0.00     0.211 HD
ENDBRANCH   2  11
BRANCH   3  13
ATOM     13  O   UNL     1       7.360  -2.738  20.698  1.00  0.00    -0.387 OA
ATOM     14  H   UNL     1       7.933  -3.333  20.147  1.00  0.00     0.211 HD
ENDBRANCH   3  13
BRANCH   4  15
ATOM     15  C   UNL     1       5.682  -4.853  21.207  1.00  0.00     0.191 C 
BRANCH  15  16
ATOM     16  O   UNL     1       6.793  -5.606  20.804  1.00  0.00    -0.394 OA
ATOM     17  H   UNL     1       7.379  -5.682  21.603  1.00  0.00     0.210 HD
ENDBRANCH  15  16
ENDBRANCH   4  15
TORSDOF 7
ENDMDL
MODEL 2
REMARK VINA RESULT:    -4.113      1.187      1.198
REMARK INTER + INTRA:          -5.734
REMARK INTER:                  -5.313
REMARK INTRA:                  -0.421
REMARK UNBOUND:                -0.419
REMARK SMILES CO[C@@]1(CO)O[C@H](CO)[C@H](O)[C@H]1O
REMARK SMILES IDX 3 1 12 2 10 3 7 4 6 5 2 6 1 7 4 8 5 9 13 11 11 13 8 15 9 16
REMARK H PARENT 5 10 13 12 11 14 9 17
REMARK Flexibility Score: inf
ROOT
ATOM      1  C   UNL     1       4.696  -2.635  20.909  1.00  0.00     0.221 C 
ATOM      2  C   UNL     1       6.191  -2.311  21.012  1.00  0.00     0.207 C 
ATOM      3  C   UNL     1       6.813  -3.414  20.197  1.00  0.00     0.180 C 
ATOM      4  C   UNL     1       5.818  -4.569  20.380  1.00  0.00     0.179 C 
ATOM      5  O   UNL     1       4.584  -4.048  20.836  1.00  0.00    -0.337 OA
ENDROOT
BRANCH   1   6
ATOM      6  O   UNL     1       4.173  -2.005  19.738  1.00  0.00    -0.349 OA
ATOM      7  C   UNL     1       2.939  -1.354  19.966  1.00  0.00     0.198 C 
ENDBRANCH   1   6
BRANCH   1   8
ATOM      8  C   UNL     1       3.954  -2.127  22.162  1.00  0.00     0.224 C 
BRANCH   8   9
ATOM      9  O   UNL     1       4.509  -2.695  23.317  1.00  0.00    -0.391 OA
ATOM     10  H   UNL     1       5.079  -3.447  23.008  1.00  0.00     0.210 HD
ENDBRANCH   8   9
ENDBRANCH   1   8
BRANCH   2  11
ATOM     11  O   UNL     1       6.487  -1.045  20.478  1.00  0.00    -0.385 OA
ATOM     12  H   UNL     1       7.259  -0.694  20.993  1.00  0.00     0.211 HD
ENDBRANCH   2  11
BRANCH   3  13
ATOM     13  O   UNL     1       8.106  -3.727  20.654  1.00  0.00    -0.387 OA
ATOM     14  H   UNL     1       8.239  -4.695  20.481  1.00  0.00     0.211 HD
ENDBRANCH   3  13
BRANCH   4  15
ATOM     15  C   UNL     1       6.285  -5.662  21.353  1.00  0.00     0.191 C 
BRANCH  15  16
ATOM     16  O   UNL     1       7.045  -6.627  20.678  1.00  0.00    -0.394 OA
ATOM     17  H   UNL     1       6.635  -7.504  20.899  1.00  0.00     0.210 HD
ENDBRANCH  15  16
ENDBRANCH   4  15
TORSDOF 7
ENDMDL
MODEL 3
REMARK VINA RESULT:    -4.047      1.329      4.139
REMARK INTER + INTRA:          -5.650
REMARK INTER:                  -5.062
REMARK INTRA:                  -0.588
REMARK UNBOUND:                -0.419
REMARK SMILES CO[C@@]1(CO)O[C@H](CO)[C@H](O)[C@H]1O
REMARK SMILES IDX 3 1 12 2 10 3 7 4 6 5 2 6 1 7 4 8 5 9 13 11 11 13 8 15 9 16
REMARK H PARENT 5 10 13 12 11 14 9 17
REMARK Flexibility Score: inf
ROOT
ATOM      1  C   UNL     1       5.348  -3.108  20.885  1.00  0.00     0.221 C 
ATOM      2  C   UNL     1       4.562  -2.246  21.881  1.00  0.00     0.207 C 
ATOM      3  C   UNL     1       3.165  -2.306  21.321  1.00  0.00     0.180 C 
ATOM      4  C   UNL     1       3.414  -2.479  19.816  1.00  0.00     0.179 C 
ATOM      5  O   UNL     1       4.741  -2.927  19.615  1.00  0.00    -0.337 OA
ENDROOT
BRANCH   1   6
ATOM      6  O   UNL     1       5.283  -4.470  21.310  1.00  0.00    -0.349 OA
ATOM      7  C   UNL     1       6.497  -5.168  21.113  1.00  0.00     0.198 C 
ENDBRANCH   1   6
BRANCH   1   8
ATOM      8  C   UNL     1       6.816  -2.639  20.821  1.00  0.00     0.224 C 
BRANCH   8   9
ATOM      9  O   UNL     1       6.875  -1.258  20.596  1.00  0.00    -0.391 OA
ATOM     10  H   UNL     1       7.725  -1.094  20.110  1.00  0.00     0.210 HD
ENDBRANCH   8   9
ENDBRANCH   1   8
BRANCH   2  11
ATOM     11  O   UNL     1       4.619  -2.774  23.183  1.00  0.00    -0.385 OA
ATOM     12  H   UNL     1       3.895  -2.333  23.699  1.00  0.00     0.211 HD
ENDBRANCH   2  11
BRANCH   3  13
ATOM     13  O   UNL     1       2.436  -1.143  21.626  1.00  0.00    -0.387 OA
ATOM     14  H   UNL     1       1.546  -1.443  21.946  1.00  0.00     0.211 HD
ENDBRANCH   3  13
BRANCH   4  15
ATOM     15  C   UNL     1       3.189  -1.207  18.984  1.00  0.00     0.191 C 
BRANCH  15  16
ATOM     16  O   UNL     1       4.160  -0.244  19.290  1.00  0.00    -0.394 OA
ATOM     17  H   UNL     1       3.755   0.349  19.975  1.00  0.00     0.210 HD
ENDBRANCH  15  16
ENDBRANCH   4  15
TORSDOF 7
ENDMDL
MODEL 4
REMARK VINA RESULT:    -3.898      1.554      3.834
REMARK INTER + INTRA:          -5.457
REMARK INTER:                  -5.086
REMARK INTRA:                  -0.372
REMARK UNBOUND:                -0.419
REMARK SMILES CO[C@@]1(CO)O[C@H](CO)[C@H](O)[C@H]1O
REMARK SMILES IDX 3 1 12 2 10 3 7 4 6 5 2 6 1 7 4 8 5 9 13 11 11 13 8 15 9 16
REMARK H PARENT 5 10 13 12 11 14 9 17
REMARK Flexibility Score: inf
ROOT
ATOM      1  C   UNL     1       4.678  -2.433  20.680  1.00  0.00     0.221 C 
ATOM      2  C   UNL     1       3.353  -1.681  20.509  1.00  0.00     0.207 C 
ATOM      3  C   UNL     1       3.591  -0.900  19.244  1.00  0.00     0.180 C 
ATOM      4  C   UNL     1       5.109  -0.671  19.271  1.00  0.00     0.179 C 
ATOM      5  O   UNL     1       5.700  -1.591  20.169  1.00  0.00    -0.337 OA
ENDROOT
BRANCH   1   6
ATOM      6  O   UNL     1       4.601  -3.663  19.959  1.00  0.00    -0.349 OA
ATOM      7  C   UNL     1       5.867  -4.148  19.555  1.00  0.00     0.198 C 
ENDBRANCH   1   6
BRANCH   1   8
ATOM      8  C   UNL     1       4.944  -2.709  22.175  1.00  0.00     0.224 C 
BRANCH   8   9
ATOM      9  O   UNL     1       3.852  -2.290  22.946  1.00  0.00    -0.391 OA
ATOM     10  H   UNL     1       4.195  -1.574  23.543  1.00  0.00     0.210 HD
ENDBRANCH   8   9
ENDBRANCH   1   8
BRANCH   2  11
ATOM     11  O   UNL     1       2.268  -2.563  20.374  1.00  0.00    -0.385 OA
ATOM     12  H   UNL     1       2.098  -2.943  21.275  1.00  0.00     0.211 HD
ENDBRANCH   2  11
BRANCH   3  13
ATOM     13  O   UNL     1       2.856   0.298  19.231  1.00  0.00    -0.387 OA
ATOM     14  H   UNL     1       2.258   0.271  20.022  1.00  0.00     0.211 HD
ENDBRANCH   3  13
BRANCH   4  15
ATOM     15  C   UNL     1       5.530   0.752  19.672  1.00  0.00     0.191 C 
BRANCH  15  16
ATOM     16  O   UNL     1       6.711   0.720  20.426  1.00  0.00    -0.394 OA
ATOM     17  H   UNL     1       7.305   1.413  20.036  1.00  0.00     0.210 HD
ENDBRANCH  15  16
ENDBRANCH   4  15
TORSDOF 7
ENDMDL
MODEL 5
REMARK VINA RESULT:    -3.813      1.607      2.297
REMARK INTER + INTRA:          -5.347
REMARK INTER:                  -4.984
REMARK INTRA:                  -0.364
REMARK UNBOUND:                -0.419
REMARK SMILES CO[C@@]1(CO)O[C@H](CO)[C@H](O)[C@H]1O
REMARK SMILES IDX 3 1 12 2 10 3 7 4 6 5 2 6 1 7 4 8 5 9 13 11 11 13 8 15 9 16
REMARK H PARENT 5 10 13 12 11 14 9 17
REMARK Flexibility Score: inf
ROOT
ATOM      1  C   UNL     1       4.303  -1.829  20.127  1.00  0.00     0.221 C 
ATOM      2  C   UNL     1       4.268  -2.359  21.565  1.00  0.00     0.207 C 
ATOM      3  C   UNL     1       5.688  -2.144  22.019  1.00  0.00     0.180 C 
ATOM      4  C   UNL     1       6.481  -2.271  20.710  1.00  0.00     0.179 C 
ATOM      5  O   UNL     1       5.598  -2.107  19.617  1.00  0.00    -0.337 OA
ENDROOT
BRANCH   1   6
ATOM      6  O   UNL     1       4.038  -0.426  20.150  1.00  0.00    -0.349 OA
ATOM      7  C   UNL     1       4.895   0.312  19.301  1.00  0.00     0.198 C 
ENDBRANCH   1   6
BRANCH   1   8
ATOM      8  C   UNL     1       3.249  -2.556  19.267  1.00  0.00     0.224 C 
BRANCH   8   9
ATOM      9  O   UNL     1       1.958  -2.183  19.664  1.00  0.00    -0.391 OA
ATOM     10  H   UNL     1       2.064  -1.700  20.525  1.00  0.00     0.210 HD
ENDBRANCH   8   9
ENDBRANCH   1   8
BRANCH   2  11
ATOM     11  O   UNL     1       3.359  -1.641  22.361  1.00  0.00    -0.385 OA
ATOM     12  H   UNL     1       2.451  -1.930  22.084  1.00  0.00     0.211 HD
ENDBRANCH   2  11
BRANCH   3  13
ATOM     13  O   UNL     1       6.070  -3.091  22.985  1.00  0.00    -0.387 OA
ATOM     14  H   UNL     1       6.413  -3.879  22.488  1.00  0.00     0.211 HD
ENDBRANCH   3  13
BRANCH   4  15
ATOM     15  C   UNL     1       7.229  -3.604  20.548  1.00  0.00     0.191 C 
BRANCH  15  16
ATOM     16  O   UNL     1       6.326  -4.675  20.539  1.00  0.00    -0.394 OA
ATOM     17  H   UNL     1       6.115  -4.866  21.490  1.00  0.00     0.210 HD
ENDBRANCH  15  16
ENDBRANCH   4  15
TORSDOF 7
ENDMDL
MODEL 6
REMARK VINA RESULT:    -3.775      1.675      4.228
REMARK INTER + INTRA:          -5.298
REMARK INTER:                  -4.749
REMARK INTRA:                  -0.550
REMARK UNBOUND:                -0.419
REMARK SMILES CO[C@@]1(CO)O[C@H](CO)[C@H](O)[C@H]1O
REMARK SMILES IDX 3 1 12 2 10 3 7 4 6 5 2 6 1 7 4 8 5 9 13 11 11 13 8 15 9 16
REMARK H PARENT 5 10 13 12 11 14 9 17
REMARK Flexibility Score: inf
ROOT
ATOM      1  C   UNL     1       4.388  -2.311  20.697  1.00  0.00     0.221 C 
ATOM      2  C   UNL     1       4.926  -1.332  19.647  1.00  0.00     0.207 C 
ATOM      3  C   UNL     1       3.883  -0.246  19.659  1.00  0.00     0.180 C 
ATOM      4  C   UNL     1       2.609  -1.008  20.050  1.00  0.00     0.179 C 
ATOM      5  O   UNL     1       2.971  -2.245  20.634  1.00  0.00    -0.337 OA
ENDROOT
BRANCH   1   6
ATOM      6  O   UNL     1       4.875  -1.917  21.980  1.00  0.00    -0.349 OA
ATOM      7  C   UNL     1       5.629  -2.929  22.619  1.00  0.00     0.198 C 
ENDBRANCH   1   6
BRANCH   1   8
ATOM      8  C   UNL     1       4.847  -3.747  20.370  1.00  0.00     0.224 C 
BRANCH   8   9
ATOM      9  O   UNL     1       5.679  -3.745  19.243  1.00  0.00    -0.391 OA
ATOM     10  H   UNL     1       5.557  -4.629  18.809  1.00  0.00     0.210 HD
ENDBRANCH   8   9
ENDBRANCH   1   8
BRANCH   2  11
ATOM     11  O   UNL     1       6.192  -0.835  20.000  1.00  0.00    -0.385 OA
ATOM     12  H   UNL     1       6.753  -0.882  19.182  1.00  0.00     0.211 HD
ENDBRANCH   2  11
BRANCH   3  13
ATOM     13  O   UNL     1       3.780   0.385  18.407  1.00  0.00    -0.387 OA
ATOM     14  H   UNL     1       4.709   0.525  18.084  1.00  0.00     0.211 HD
ENDBRANCH   3  13
BRANCH   4  15
ATOM     15  C   UNL     1       1.644  -1.274  18.884  1.00  0.00     0.191 C 
BRANCH  15  16
ATOM     16  O   UNL     1       0.875  -0.134  18.615  1.00  0.00    -0.394 OA
ATOM     17  H   UNL     1       0.230  -0.398  17.908  1.00  0.00     0.210 HD
ENDBRANCH  15  16
ENDBRANCH   4  15
TORSDOF 7
ENDMDL
MODEL 7
REMARK VINA RESULT:    -3.764     17.828     19.345
REMARK INTER + INTRA:          -5.284
REMARK INTER:                  -4.705
REMARK INTRA:                  -0.579
REMARK UNBOUND:                -0.419
REMARK SMILES CO[C@@]1(CO)O[C@H](CO)[C@H](O)[C@H]1O
REMARK SMILES IDX 3 1 12 2 10 3 7 4 6 5 2 6 1 7 4 8 5 9 13 11 11 13 8 15 9 16
REMARK H PARENT 5 10 13 12 11 14 9 17
REMARK Flexibility Score: inf
ROOT
ATOM      1  C   UNL     1      16.631  -6.621   5.219  1.00  0.00     0.221 C 
ATOM      2  C   UNL     1      16.050  -6.545   6.636  1.00  0.00     0.207 C 
ATOM      3  C   UNL     1      14.708  -7.207   6.467  1.00  0.00     0.180 C 
ATOM      4  C   UNL     1      14.359  -6.889   5.005  1.00  0.00     0.179 C 
ATOM      5  O   UNL     1      15.538  -6.515   4.320  1.00  0.00    -0.337 OA
ENDROOT
BRANCH   1   6
ATOM      6  O   UNL     1      17.313  -7.868   5.072  1.00  0.00    -0.349 OA
ATOM      7  C   UNL     1      18.392  -7.802   4.161  1.00  0.00     0.198 C 
ENDBRANCH   1   6
BRANCH   1   8
ATOM      8  C   UNL     1      17.605  -5.450   4.981  1.00  0.00     0.224 C 
BRANCH   8   9
ATOM      9  O   UNL     1      18.064  -4.944   6.204  1.00  0.00    -0.391 OA
ATOM     10  H   UNL     1      17.273  -4.540   6.649  1.00  0.00     0.210 HD
ENDBRANCH   8   9
ENDBRANCH   1   8
BRANCH   2  11
ATOM     11  O   UNL     1      16.850  -7.233   7.564  1.00  0.00    -0.385 OA
ATOM     12  H   UNL     1      16.510  -6.993   8.465  1.00  0.00     0.211 HD
ENDBRANCH   2  11
BRANCH   3  13
ATOM     13  O   UNL     1      13.764  -6.702   7.378  1.00  0.00    -0.387 OA
ATOM     14  H   UNL     1      13.192  -6.069   6.870  1.00  0.00     0.211 HD
ENDBRANCH   3  13
BRANCH   4  15
ATOM     15  C   UNL     1      13.310  -5.780   4.830  1.00  0.00     0.191 C 
BRANCH  15  16
ATOM     16  O   UNL     1      12.058  -6.212   5.287  1.00  0.00    -0.394 OA
ATOM     17  H   UNL     1      12.026  -5.989   6.255  1.00  0.00     0.210 HD
ENDBRANCH  15  16
ENDBRANCH   4  15
TORSDOF 7
ENDMDL
MODEL 8
REMARK VINA RESULT:    -3.645     17.740     19.248
REMARK INTER + INTRA:          -5.130
REMARK INTER:                  -4.670
REMARK INTRA:                  -0.460
REMARK UNBOUND:                -0.419
REMARK SMILES CO[C@@]1(CO)O[C@H](CO)[C@H](O)[C@H]1O
REMARK SMILES IDX 3 1 12 2 10 3 7 4 6 5 2 6 1 7 4 8 5 9 13 11 11 13 8 15 9 16
REMARK H PARENT 5 10 13 12 11 14 9 17
REMARK Flexibility Score: inf
ROOT
ATOM      1  C   UNL     1      16.183  -7.589   6.695  1.00  0.00     0.221 C 
ATOM      2  C   UNL     1      14.933  -6.952   6.075  1.00  0.00     0.207 C 
ATOM      3  C   UNL     1      15.286  -6.915   4.612  1.00  0.00     0.180 C 
ATOM      4  C   UNL     1      16.816  -6.782   4.639  1.00  0.00     0.179 C 
ATOM      5  O   UNL     1      17.291  -7.166   5.915  1.00  0.00    -0.337 OA
ENDROOT
BRANCH   1   6
ATOM      6  O   UNL     1      16.032  -9.009   6.667  1.00  0.00    -0.349 OA
ATOM      7  C   UNL     1      17.052  -9.686   7.376  1.00  0.00     0.198 C 
ENDBRANCH   1   6
BRANCH   1   8
ATOM      8  C   UNL     1      16.364  -7.101   8.147  1.00  0.00     0.224 C 
BRANCH   8   9
ATOM      9  O   UNL     1      15.247  -6.358   8.551  1.00  0.00    -0.391 OA
ATOM     10  H   UNL     1      14.831  -6.869   9.294  1.00  0.00     0.210 HD
ENDBRANCH   8   9
ENDBRANCH   1   8
BRANCH   2  11
ATOM     11  O   UNL     1      13.784  -7.727   6.309  1.00  0.00    -0.385 OA
ATOM     12  H   UNL     1      13.036  -7.271   5.844  1.00  0.00     0.211 HD
ENDBRANCH   2  11
BRANCH   3  13
ATOM     13  O   UNL     1      14.655  -5.844   3.956  1.00  0.00    -0.387 OA
ATOM     14  H   UNL     1      15.343  -5.421   3.378  1.00  0.00     0.211 HD
ENDBRANCH   3  13
BRANCH   4  15
ATOM     15  C   UNL     1      17.337  -5.372   4.320  1.00  0.00     0.191 C 
BRANCH  15  16
ATOM     16  O   UNL     1      18.173  -4.914   5.347  1.00  0.00    -0.394 OA
ATOM     17  H   UNL     1      17.970  -3.948   5.458  1.00  0.00     0.210 HD
ENDBRANCH  15  16
ENDBRANCH   4  15
TORSDOF 7
ENDMDL
MODEL 9
REMARK VINA RESULT:    -3.627     17.264     18.746
REMARK INTER + INTRA:          -5.106
REMARK INTER:                  -4.593
REMARK INTRA:                  -0.513
REMARK UNBOUND:                -0.419
REMARK SMILES CO[C@@]1(CO)O[C@H](CO)[C@H](O)[C@H]1O
REMARK SMILES IDX 3 1 12 2 10 3 7 4 6 5 2 6 1 7 4 8 5 9 13 11 11 13 8 15 9 16
REMARK H PARENT 5 10 13 12 11 14 9 17
REMARK Flexibility Score: inf
ROOT
ATOM      1  C   UNL     1      16.326  -6.855   6.426  1.00  0.00     0.221 C 
ATOM      2  C   UNL     1      16.360  -8.336   6.820  1.00  0.00     0.207 C 
ATOM      3  C   UNL     1      15.500  -8.969   5.757  1.00  0.00     0.180 C 
ATOM      4  C   UNL     1      14.520  -7.841   5.404  1.00  0.00     0.179 C 
ATOM      5  O   UNL     1      15.050  -6.609   5.855  1.00  0.00    -0.337 OA
ENDROOT
BRANCH   1   6
ATOM      6  O   UNL     1      17.377  -6.607   5.490  1.00  0.00    -0.349 OA
ATOM      7  C   UNL     1      17.665  -5.232   5.334  1.00  0.00     0.198 C 
ENDBRANCH   1   6
BRANCH   1   8
ATOM      8  C   UNL     1      16.507  -5.968   7.675  1.00  0.00     0.224 C 
BRANCH   8   9
ATOM      9  O   UNL     1      15.471  -6.202   8.589  1.00  0.00    -0.391 OA
ATOM     10  H   UNL     1      14.948  -6.963   8.224  1.00  0.00     0.210 HD
ENDBRANCH   8   9
ENDBRANCH   1   8
BRANCH   2  11
ATOM     11  O   UNL     1      17.668  -8.850   6.798  1.00  0.00    -0.385 OA
ATOM     12  H   UNL     1      18.267  -8.112   7.084  1.00  0.00     0.211 HD
ENDBRANCH   2  11
BRANCH   3  13
ATOM     13  O   UNL     1      14.857 -10.124   6.234  1.00  0.00    -0.387 OA
ATOM     14  H   UNL     1      14.819 -10.760   5.474  1.00  0.00     0.211 HD
ENDBRANCH   3  13
BRANCH   4  15
ATOM     15  C   UNL     1      13.110  -8.018   5.989  1.00  0.00     0.191 C 
BRANCH  15  16
ATOM     16  O   UNL     1      12.933  -7.184   7.101  1.00  0.00    -0.394 OA
ATOM     17  H   UNL     1      13.588  -6.445   6.999  1.00  0.00     0.210 HD
ENDBRANCH  15  16
ENDBRANCH   4  15
TORSDOF 7
ENDMDL
