MODEL 1
REMARK VINA RESULT:    -4.815      0.000      0.000
REMARK INTER + INTRA:          -5.451
REMARK INTER:                  -5.237
REMARK INTRA:                  -0.214
REMARK UNBOUND:                -0.214
REMARK SMILES C=C(C)[C@H]1CC=C(C)[C@H](O)C1
REMARK SMILES IDX 8 1 7 2 6 3 5 4 4 5 11 6 9 7 10 8 2 10 1 11 3 12
REMARK H PARENT 10 9
REMARK Flexibility Score: inf
ROOT
ATOM      1  C   UNL     1     126.257 120.109 115.548  1.00  0.00     0.042 C 
ATOM      2  C   UNL     1     125.255 119.040 115.215  1.00  0.00    -0.049 C 
ATOM      3  C   UNL     1     123.978 119.373 114.959  1.00  0.00    -0.025 C 
ATOM      4  C   UNL     1     122.968 118.304 114.634  1.00  0.00     0.035 C 
ATOM      5  C   UNL     1     123.124 117.039 115.526  1.00  0.00     0.021 C 
ATOM      6  C   UNL     1     124.576 116.799 116.045  1.00  0.00     0.044 C 
ATOM      7  C   UNL     1     125.637 117.574 115.247  1.00  0.00     0.140 C 
ENDROOT
BRANCH   7   8
ATOM      8  O   UNL     1     125.714 117.064 113.942  1.00  0.00    -0.389 OA
ATOM      9  H   UNL     1     126.434 116.380 113.946  1.00  0.00     0.211 HD
ENDBRANCH   7   8
BRANCH   5  10
ATOM     10  C   UNL     1     122.126 117.047 116.678  1.00  0.00    -0.077 C 
ATOM     11  C   UNL     1     120.912 116.489 116.541  1.00  0.00     0.008 C 
ATOM     12  C   UNL     1     122.491 117.674 117.998  1.00  0.00     0.039 C 
ENDBRANCH   5  10
TORSDOF 2
ENDMDL
MODEL 2
REMARK VINA RESULT:    -4.772     14.670     15.909
REMARK INTER + INTRA:          -5.404
REMARK INTER:                  -5.258
REMARK INTRA:                  -0.145
REMARK UNBOUND:                -0.214
REMARK SMILES C=C(C)[C@H]1CC=C(C)[C@H](O)C1
REMARK SMILES IDX 8 1 7 2 6 3 5 4 4 5 11 6 9 7 10 8 2 10 1 11 3 12
REMARK H PARENT 10 9
REMARK Flexibility Score: inf
ROOT
ATOM      1  C   UNL     1     119.899 131.751 127.383  1.00  0.00     0.042 C 
ATOM      2  C   UNL     1     119.601 130.660 126.394  1.00  0.00    -0.049 C 
ATOM      3  C   UNL     1     118.327 130.319 126.133  1.00  0.00    -0.025 C 
ATOM      4  C   UNL     1     118.024 129.220 125.149  1.00  0.00     0.035 C 
ATOM      5  C   UNL     1     118.987 128.006 125.288  1.00  0.00     0.021 C 
ATOM      6  C   UNL     1     120.398 128.371 125.846  1.00  0.00     0.044 C 
ATOM      7  C   UNL     1     120.719 129.871 125.741  1.00  0.00     0.140 C 
ENDROOT
BRANCH   7   8
ATOM      8  O   UNL     1     120.845 130.234 124.392  1.00  0.00    -0.389 OA
ATOM      9  H   UNL     1     120.284 131.043 124.261  1.00  0.00     0.211 HD
ENDBRANCH   7   8
BRANCH   5  10
ATOM     10  C   UNL     1     118.351 126.885 126.101  1.00  0.00    -0.077 C 
ATOM     11  C   UNL     1     118.056 125.704 125.532  1.00  0.00     0.008 C 
ATOM     12  C   UNL     1     118.050 127.079 127.563  1.00  0.00     0.039 C 
ENDBRANCH   5  10
TORSDOF 2
ENDMDL
MODEL 3
REMARK VINA RESULT:    -4.573     15.226     16.710
REMARK INTER + INTRA:          -5.187
REMARK INTER:                  -5.073
REMARK INTRA:                  -0.114
REMARK UNBOUND:                -0.214
REMARK SMILES C=C(C)[C@H]1CC=C(C)[C@H](O)C1
REMARK SMILES IDX 8 1 7 2 6 3 5 4 4 5 11 6 9 7 10 8 2 10 1 11 3 12
REMARK H PARENT 10 9
REMARK Flexibility Score: inf
ROOT
ATOM      1  C   UNL     1     113.839 115.610 130.359  1.00  0.00     0.042 C 
ATOM      2  C   UNL     1     113.219 116.537 129.351  1.00  0.00    -0.049 C 
ATOM      3  C   UNL     1     111.998 116.271 128.856  1.00  0.00    -0.025 C 
ATOM      4  C   UNL     1     111.377 117.193 127.840  1.00  0.00     0.035 C 
ATOM      5  C   UNL     1     112.397 117.686 126.774  1.00  0.00     0.021 C 
ATOM      6  C   UNL     1     113.872 117.743 127.280  1.00  0.00     0.044 C 
ATOM      7  C   UNL     1     113.985 117.729 128.813  1.00  0.00     0.140 C 
ENDROOT
BRANCH   7   8
ATOM      8  O   UNL     1     113.459 118.920 129.337  1.00  0.00    -0.389 OA
ATOM      9  H   UNL     1     113.874 119.045 130.231  1.00  0.00     0.211 HD
ENDBRANCH   7   8
BRANCH   5  10
ATOM     10  C   UNL     1     112.291 116.875 125.488  1.00  0.00    -0.077 C 
ATOM     11  C   UNL     1     112.571 115.561 125.478  1.00  0.00     0.008 C 
ATOM     12  C   UNL     1     111.859 117.533 124.204  1.00  0.00     0.039 C 
ENDBRANCH   5  10
TORSDOF 2
ENDMDL
MODEL 4
REMARK VINA RESULT:    -4.453     15.442     17.037
REMARK INTER + INTRA:          -5.057
REMARK INTER:                  -4.948
REMARK INTRA:                  -0.109
REMARK UNBOUND:                -0.214
REMARK SMILES C=C(C)[C@H]1CC=C(C)[C@H](O)C1
REMARK SMILES IDX 8 1 7 2 6 3 5 4 4 5 11 6 9 7 10 8 2 10 1 11 3 12
REMARK H PARENT 10 9
REMARK Flexibility Score: inf
ROOT
ATOM      1  C   UNL     1     112.124 119.175 125.950  1.00  0.00     0.042 C 
ATOM      2  C   UNL     1     112.165 117.915 126.769  1.00  0.00    -0.049 C 
ATOM      3  C   UNL     1     111.322 117.759 127.804  1.00  0.00    -0.025 C 
ATOM      4  C   UNL     1     111.364 116.502 128.632  1.00  0.00     0.035 C 
ATOM      5  C   UNL     1     112.816 116.023 128.923  1.00  0.00     0.021 C 
ATOM      6  C   UNL     1     113.855 116.438 127.835  1.00  0.00     0.044 C 
ATOM      7  C   UNL     1     113.204 116.844 126.503  1.00  0.00     0.140 C 
ENDROOT
BRANCH   7   8
ATOM      8  O   UNL     1     112.603 115.723 125.909  1.00  0.00    -0.389 OA
ATOM      9  H   UNL     1     111.718 115.610 126.344  1.00  0.00     0.211 HD
ENDBRANCH   7   8
BRANCH   5  10
ATOM     10  C   UNL     1     113.275 116.456 130.310  1.00  0.00    -0.077 C 
ATOM     11  C   UNL     1     112.458 117.147 131.122  1.00  0.00     0.008 C 
ATOM     12  C   UNL     1     114.656 116.106 130.799  1.00  0.00     0.039 C 
ENDBRANCH   5  10
TORSDOF 2
ENDMDL
MODEL 5
REMARK VINA RESULT:    -4.386     12.057     14.186
REMARK INTER + INTRA:          -4.985
REMARK INTER:                  -4.777
REMARK INTRA:                  -0.208
REMARK UNBOUND:                -0.214
REMARK SMILES C=C(C)[C@H]1CC=C(C)[C@H](O)C1
REMARK SMILES IDX 8 1 7 2 6 3 5 4 4 5 11 6 9 7 10 8 2 10 1 11 3 12
REMARK H PARENT 10 9
REMARK Flexibility Score: inf
ROOT
ATOM      1  C   UNL     1     114.598 123.596 128.078  1.00  0.00     0.042 C 
ATOM      2  C   UNL     1     114.603 123.107 126.656  1.00  0.00    -0.049 C 
ATOM      3  C   UNL     1     115.162 121.921 126.356  1.00  0.00    -0.025 C 
ATOM      4  C   UNL     1     115.176 121.431 124.932  1.00  0.00     0.035 C 
ATOM      5  C   UNL     1     115.504 122.560 123.912  1.00  0.00     0.021 C 
ATOM      6  C   UNL     1     115.087 123.988 124.384  1.00  0.00     0.044 C 
ATOM      7  C   UNL     1     114.064 123.969 125.532  1.00  0.00     0.140 C 
ENDROOT
BRANCH   7   8
ATOM      8  O   UNL     1     112.843 123.455 125.070  1.00  0.00    -0.389 OA
ATOM      9  H   UNL     1     113.058 122.850 124.312  1.00  0.00     0.211 HD
ENDBRANCH   7   8
BRANCH   5  10
ATOM     10  C   UNL     1     116.970 122.527 123.501  1.00  0.00    -0.077 C 
ATOM     11  C   UNL     1     117.783 123.564 123.764  1.00  0.00     0.008 C 
ATOM     12  C   UNL     1     117.538 121.323 122.797  1.00  0.00     0.039 C 
ENDBRANCH   5  10
TORSDOF 2
ENDMDL
MODEL 6
REMARK VINA RESULT:    -4.371      1.576      4.142
REMARK INTER + INTRA:          -4.968
REMARK INTER:                  -4.760
REMARK INTRA:                  -0.208
REMARK UNBOUND:                -0.214
REMARK SMILES C=C(C)[C@H]1CC=C(C)[C@H](O)C1
REMARK SMILES IDX 8 1 7 2 6 3 5 4 4 5 11 6 9 7 10 8 2 10 1 11 3 12
REMARK H PARENT 10 9
REMARK Flexibility Score: inf
ROOT
ATOM      1  C   UNL     1     121.353 117.839 118.304  1.00  0.00     0.042 C 
ATOM      2  C   UNL     1     122.395 117.432 117.300  1.00  0.00    -0.049 C 
ATOM      3  C   UNL     1     123.662 117.219 117.697  1.00  0.00    -0.025 C 
ATOM      4  C   UNL     1     124.712 116.819 116.693  1.00  0.00     0.035 C 
ATOM      5  C   UNL     1     124.592 117.604 115.355  1.00  0.00     0.021 C 
ATOM      6  C   UNL     1     123.145 118.085 115.023  1.00  0.00     0.044 C 
ATOM      7  C   UNL     1     122.064 117.341 115.824  1.00  0.00     0.140 C 
ENDROOT
BRANCH   7   8
ATOM      8  O   UNL     1     122.016 115.998 115.420  1.00  0.00    -0.389 OA
ATOM      9  H   UNL     1     122.227 115.452 116.223  1.00  0.00     0.211 HD
ENDBRANCH   7   8
BRANCH   5  10
ATOM     10  C   UNL     1     125.579 118.764 115.303  1.00  0.00    -0.077 C 
ATOM     11  C   UNL     1     125.147 120.035 115.258  1.00  0.00     0.008 C 
ATOM     12  C   UNL     1     127.063 118.504 115.310  1.00  0.00     0.039 C 
ENDBRANCH   5  10
TORSDOF 2
ENDMDL
MODEL 7
REMARK VINA RESULT:    -4.290     14.810     16.577
REMARK INTER + INTRA:          -4.880
REMARK INTER:                  -4.687
REMARK INTRA:                  -0.193
REMARK UNBOUND:                -0.214
REMARK SMILES C=C(C)[C@H]1CC=C(C)[C@H](O)C1
REMARK SMILES IDX 8 1 7 2 6 3 5 4 4 5 11 6 9 7 10 8 2 10 1 11 3 12
REMARK H PARENT 10 9
REMARK Flexibility Score: inf
ROOT
ATOM      1  C   UNL     1     112.046 117.440 123.923  1.00  0.00     0.042 C 
ATOM      2  C   UNL     1     112.343 118.027 125.274  1.00  0.00    -0.049 C 
ATOM      3  C   UNL     1     113.418 117.611 125.965  1.00  0.00    -0.025 C 
ATOM      4  C   UNL     1     113.715 118.190 127.324  1.00  0.00     0.035 C 
ATOM      5  C   UNL     1     112.436 118.368 128.192  1.00  0.00     0.021 C 
ATOM      6  C   UNL     1     111.130 118.591 127.368  1.00  0.00     0.044 C 
ATOM      7  C   UNL     1     111.399 119.023 125.917  1.00  0.00     0.140 C 
ENDROOT
BRANCH   7   8
ATOM      8  O   UNL     1     111.966 120.307 125.903  1.00  0.00    -0.389 OA
ATOM      9  H   UNL     1     111.399 120.861 125.305  1.00  0.00     0.211 HD
ENDBRANCH   7   8
BRANCH   5  10
ATOM     10  C   UNL     1     112.271 117.218 129.178  1.00  0.00    -0.077 C 
ATOM     11  C   UNL     1     111.675 116.072 128.807  1.00  0.00     0.008 C 
ATOM     12  C   UNL     1     112.783 117.344 130.589  1.00  0.00     0.039 C 
ENDBRANCH   5  10
TORSDOF 2
ENDMDL
MODEL 8
REMARK VINA RESULT:    -4.274     13.839     15.085
REMARK INTER + INTRA:          -4.862
REMARK INTER:                  -4.734
REMARK INTRA:                  -0.128
REMARK UNBOUND:                -0.214
REMARK SMILES C=C(C)[C@H]1CC=C(C)[C@H](O)C1
REMARK SMILES IDX 8 1 7 2 6 3 5 4 4 5 11 6 9 7 10 8 2 10 1 11 3 12
REMARK H PARENT 10 9
REMARK Flexibility Score: inf
ROOT
ATOM      1  C   UNL     1     118.671 128.449 125.550  1.00  0.00     0.042 C 
ATOM      2  C   UNL     1     118.265 127.118 126.118  1.00  0.00    -0.049 C 
ATOM      3  C   UNL     1     118.428 126.000 125.390  1.00  0.00    -0.025 C 
ATOM      4  C   UNL     1     118.015 124.665 125.952  1.00  0.00     0.035 C 
ATOM      5  C   UNL     1     116.662 124.729 126.718  1.00  0.00     0.021 C 
ATOM      6  C   UNL     1     116.350 126.123 127.347  1.00  0.00     0.044 C 
ATOM      7  C   UNL     1     117.591 127.020 127.472  1.00  0.00     0.140 C 
ENDROOT
BRANCH   7   8
ATOM      8  O   UNL     1     118.476 126.476 128.415  1.00  0.00    -0.389 OA
ATOM      9  H   UNL     1     119.171 125.985 127.903  1.00  0.00     0.211 HD
ENDBRANCH   7   8
BRANCH   5  10
ATOM     10  C   UNL     1     115.508 124.251 125.846  1.00  0.00    -0.077 C 
ATOM     11  C   UNL     1     114.251 124.224 126.321  1.00  0.00     0.008 C 
ATOM     12  C   UNL     1     115.756 123.809 124.428  1.00  0.00     0.039 C 
ENDBRANCH   5  10
TORSDOF 2
ENDMDL
MODEL 9
REMARK VINA RESULT:    -4.138     13.685     15.754
REMARK INTER + INTRA:          -4.714
REMARK INTER:                  -4.507
REMARK INTRA:                  -0.208
REMARK UNBOUND:                -0.214
REMARK SMILES C=C(C)[C@H]1CC=C(C)[C@H](O)C1
REMARK SMILES IDX 8 1 7 2 6 3 5 4 4 5 11 6 9 7 10 8 2 10 1 11 3 12
REMARK H PARENT 10 9
REMARK Flexibility Score: inf
ROOT
ATOM      1  C   UNL     1     114.462 120.712 124.342  1.00  0.00     0.042 C 
ATOM      2  C   UNL     1     113.309 120.223 125.174  1.00  0.00    -0.049 C 
ATOM      3  C   UNL     1     113.469 120.031 126.495  1.00  0.00    -0.025 C 
ATOM      4  C   UNL     1     112.319 119.533 127.331  1.00  0.00     0.035 C 
ATOM      5  C   UNL     1     111.503 118.413 126.623  1.00  0.00     0.021 C 
ATOM      6  C   UNL     1     111.537 118.486 125.065  1.00  0.00     0.044 C 
ATOM      7  C   UNL     1     111.985 119.858 124.534  1.00  0.00     0.140 C 
ENDROOT
BRANCH   7   8
ATOM      8  O   UNL     1     111.015 120.824 124.842  1.00  0.00    -0.389 OA
ATOM      9  H   UNL     1     111.484 121.699 124.869  1.00  0.00     0.211 HD
ENDBRANCH   7   8
BRANCH   5  10
ATOM     10  C   UNL     1     111.916 117.031 127.115  1.00  0.00    -0.077 C 
ATOM     11  C   UNL     1     112.567 116.178 126.306  1.00  0.00     0.008 C 
ATOM     12  C   UNL     1     111.608 116.600 128.524  1.00  0.00     0.039 C 
ENDBRANCH   5  10
TORSDOF 2
ENDMDL
