MODEL 1
REMARK VINA RESULT:    -3.371      0.000      0.000
REMARK INTER + INTRA:          -5.317
REMARK INTER:                  -4.554
REMARK INTRA:                  -0.763
REMARK UNBOUND:                -0.763
REMARK SMILES CCCCCCC=CC(=O)[O-]
REMARK SMILES IDX 5 1 6 2 7 3 8 4 9 5 10 6 11 7 4 8 3 9 2 10 1 11
REMARK H PARENT
REMARK Flexibility Score: inf
ROOT
ATOM      1  C   UNL     1     205.208 196.694 225.640  1.00  0.00     0.004 C 
ENDROOT
BRANCH   1   2
ATOM      2  C   UNL     1     204.935 196.560 224.137  1.00  0.00     0.027 C 
BRANCH   2   3
ATOM      3  C   UNL     1     203.919 195.490 223.860  1.00  0.00    -0.025 C 
ATOM      4  C   UNL     1     203.182 194.956 224.840  1.00  0.00     0.020 C 
BRANCH   4   5
ATOM      5  C   UNL     1     202.189 193.897 224.594  1.00  0.00     0.064 C 
ATOM      6  O   UNL     1     200.976 194.060 224.892  1.00  0.00    -0.545 OA
ATOM      7  O   UNL     1     202.596 192.700 224.023  1.00  0.00    -0.545 OA
ENDBRANCH   4   5
ENDBRANCH   2   3
ENDBRANCH   1   2
BRANCH   1   8
ATOM      8  C   UNL     1     206.630 196.225 225.984  1.00  0.00     0.000 C 
BRANCH   8   9
ATOM      9  C   UNL     1     206.654 194.827 226.621  1.00  0.00    -0.000 C 
BRANCH   9  10
ATOM     10  C   UNL     1     207.129 193.740 225.645  1.00  0.00    -0.003 C 
ATOM     11  C   UNL     1     206.034 192.708 225.395  1.00  0.00     0.004 C 
ENDBRANCH   9  10
ENDBRANCH   8   9
ENDBRANCH   1   8
TORSDOF 6
ENDMDL
MODEL 2
REMARK VINA RESULT:    -3.363      0.590      1.136
REMARK INTER + INTRA:          -5.307
REMARK INTER:                  -4.588
REMARK INTRA:                  -0.718
REMARK UNBOUND:                -0.763
REMARK SMILES CCCCCCC=CC(=O)[O-]
REMARK SMILES IDX 5 1 6 2 7 3 8 4 9 5 10 6 11 7 4 8 3 9 2 10 1 11
REMARK H PARENT
REMARK Flexibility Score: inf
ROOT
ATOM      1  C   UNL     1     204.816 196.620 225.637  1.00  0.00     0.004 C 
ENDROOT
BRANCH   1   2
ATOM      2  C   UNL     1     204.832 196.137 224.181  1.00  0.00     0.027 C 
BRANCH   2   3
ATOM      3  C   UNL     1     203.629 195.293 223.873  1.00  0.00    -0.025 C 
ATOM      4  C   UNL     1     202.918 194.709 224.844  1.00  0.00     0.020 C 
BRANCH   4   5
ATOM      5  C   UNL     1     201.743 193.868 224.564  1.00  0.00     0.064 C 
ATOM      6  O   UNL     1     201.866 192.740 224.016  1.00  0.00    -0.545 OA
ATOM      7  O   UNL     1     200.479 194.324 224.909  1.00  0.00    -0.545 OA
ENDBRANCH   4   5
ENDBRANCH   2   3
ENDBRANCH   1   2
BRANCH   1   8
ATOM      8  C   UNL     1     206.092 196.187 226.373  1.00  0.00     0.000 C 
BRANCH   8   9
ATOM      9  C   UNL     1     206.842 195.059 225.645  1.00  0.00    -0.000 C 
BRANCH   9  10
ATOM     10  C   UNL     1     206.646 193.691 226.316  1.00  0.00    -0.003 C 
ATOM     11  C   UNL     1     206.028 192.688 225.347  1.00  0.00     0.004 C 
ENDBRANCH   9  10
ENDBRANCH   8   9
ENDBRANCH   1   8
TORSDOF 6
ENDMDL
MODEL 3
REMARK VINA RESULT:    -3.306      3.526      5.201
REMARK INTER + INTRA:          -5.229
REMARK INTER:                  -4.820
REMARK INTRA:                  -0.409
REMARK UNBOUND:                -0.763
REMARK SMILES CCCCCCC=CC(=O)[O-]
REMARK SMILES IDX 5 1 6 2 7 3 8 4 9 5 10 6 11 7 4 8 3 9 2 10 1 11
REMARK H PARENT
REMARK Flexibility Score: inf
ROOT
ATOM      1  C   UNL     1     204.741 196.536 224.095  1.00  0.00     0.004 C 
ENDROOT
BRANCH   1   2
ATOM      2  C   UNL     1     204.716 196.507 225.628  1.00  0.00     0.027 C 
BRANCH   2   3
ATOM      3  C   UNL     1     206.106 196.456 226.195  1.00  0.00    -0.025 C 
ATOM      4  C   UNL     1     207.117 195.900 225.518  1.00  0.00     0.020 C 
BRANCH   4   5
ATOM      5  C   UNL     1     208.484 195.828 226.059  1.00  0.00     0.064 C 
ATOM      6  O   UNL     1     208.888 194.805 226.673  1.00  0.00    -0.545 OA
ATOM      7  O   UNL     1     209.342 196.906 225.891  1.00  0.00    -0.545 OA
ENDBRANCH   4   5
ENDBRANCH   2   3
ENDBRANCH   1   2
BRANCH   1   8
ATOM      8  C   UNL     1     203.875 195.409 223.511  1.00  0.00     0.000 C 
BRANCH   8   9
ATOM      9  C   UNL     1     203.367 194.436 224.587  1.00  0.00    -0.000 C 
BRANCH   9  10
ATOM     10  C   UNL     1     202.032 193.778 224.205  1.00  0.00    -0.003 C 
ATOM     11  C   UNL     1     200.911 194.230 225.137  1.00  0.00     0.004 C 
ENDBRANCH   9  10
ENDBRANCH   8   9
ENDBRANCH   1   8
TORSDOF 6
ENDMDL
MODEL 4
REMARK VINA RESULT:    -3.262      2.201      2.833
REMARK INTER + INTRA:          -5.170
REMARK INTER:                  -4.591
REMARK INTRA:                  -0.579
REMARK UNBOUND:                -0.763
REMARK SMILES CCCCCCC=CC(=O)[O-]
REMARK SMILES IDX 5 1 6 2 7 3 8 4 9 5 10 6 11 7 4 8 3 9 2 10 1 11
REMARK H PARENT
REMARK Flexibility Score: inf
ROOT
ATOM      1  C   UNL     1     204.734 196.510 224.654  1.00  0.00     0.004 C 
ENDROOT
BRANCH   1   2
ATOM      2  C   UNL     1     203.731 195.350 224.688  1.00  0.00     0.027 C 
BRANCH   2   3
ATOM      3  C   UNL     1     203.773 194.555 223.415  1.00  0.00    -0.025 C 
ATOM      4  C   UNL     1     204.682 194.804 222.465  1.00  0.00     0.020 C 
BRANCH   4   5
ATOM      5  C   UNL     1     204.734 194.046 221.205  1.00  0.00     0.064 C 
ATOM      6  O   UNL     1     203.783 194.088 220.380  1.00  0.00    -0.545 OA
ATOM      7  O   UNL     1     205.850 193.271 220.920  1.00  0.00    -0.545 OA
ENDBRANCH   4   5
ENDBRANCH   2   3
ENDBRANCH   1   2
BRANCH   1   8
ATOM      8  C   UNL     1     205.434 196.669 226.012  1.00  0.00     0.000 C 
BRANCH   8   9
ATOM      9  C   UNL     1     206.856 196.084 226.016  1.00  0.00    -0.000 C 
BRANCH   9  10
ATOM     10  C   UNL     1     206.978 194.836 226.903  1.00  0.00    -0.003 C 
ATOM     11  C   UNL     1     206.618 193.573 226.127  1.00  0.00     0.004 C 
ENDBRANCH   9  10
ENDBRANCH   8   9
ENDBRANCH   1   8
TORSDOF 6
ENDMDL
MODEL 5
REMARK VINA RESULT:    -3.240      4.374      6.000
REMARK INTER + INTRA:          -5.140
REMARK INTER:                  -4.691
REMARK INTRA:                  -0.449
REMARK UNBOUND:                -0.763
REMARK SMILES CCCCCCC=CC(=O)[O-]
REMARK SMILES IDX 5 1 6 2 7 3 8 4 9 5 10 6 11 7 4 8 3 9 2 10 1 11
REMARK H PARENT
REMARK Flexibility Score: inf
ROOT
ATOM      1  C   UNL     1     206.641 195.351 226.316  1.00  0.00     0.004 C 
ENDROOT
BRANCH   1   2
ATOM      2  C   UNL     1     208.085 195.867 226.278  1.00  0.00     0.027 C 
BRANCH   2   3
ATOM      3  C   UNL     1     208.568 196.031 224.866  1.00  0.00    -0.025 C 
ATOM      4  C   UNL     1     209.756 196.583 224.594  1.00  0.00     0.020 C 
BRANCH   4   5
ATOM      5  C   UNL     1     210.244 196.765 223.217  1.00  0.00     0.064 C 
ATOM      6  O   UNL     1     210.714 195.798 222.560  1.00  0.00    -0.545 OA
ATOM      7  O   UNL     1     210.187 198.023 222.633  1.00  0.00    -0.545 OA
ENDBRANCH   4   5
ENDBRANCH   2   3
ENDBRANCH   1   2
BRANCH   1   8
ATOM      8  C   UNL     1     205.640 196.510 226.204  1.00  0.00     0.000 C 
BRANCH   8   9
ATOM      9  C   UNL     1     204.480 196.199 225.245  1.00  0.00    -0.000 C 
BRANCH   9  10
ATOM     10  C   UNL     1     204.790 196.594 223.793  1.00  0.00    -0.003 C 
ATOM     11  C   UNL     1     204.787 195.372 222.879  1.00  0.00     0.004 C 
ENDBRANCH   9  10
ENDBRANCH   8   9
ENDBRANCH   1   8
TORSDOF 6
ENDMDL
MODEL 6
REMARK VINA RESULT:    -3.226     16.596     18.054
REMARK INTER + INTRA:          -5.121
REMARK INTER:                  -4.502
REMARK INTRA:                  -0.619
REMARK UNBOUND:                -0.763
REMARK SMILES CCCCCCC=CC(=O)[O-]
REMARK SMILES IDX 5 1 6 2 7 3 8 4 9 5 10 6 11 7 4 8 3 9 2 10 1 11
REMARK H PARENT
REMARK Flexibility Score: inf
ROOT
ATOM      1  C   UNL     1     217.509 207.756 223.269  1.00  0.00     0.004 C 
ENDROOT
BRANCH   1   2
ATOM      2  C   UNL     1     217.565 208.032 221.761  1.00  0.00     0.027 C 
BRANCH   2   3
ATOM      3  C   UNL     1     218.368 206.984 221.044  1.00  0.00    -0.025 C 
ATOM      4  C   UNL     1     217.952 206.456 219.888  1.00  0.00     0.020 C 
BRANCH   4   5
ATOM      5  C   UNL     1     218.715 205.419 219.175  1.00  0.00     0.064 C 
ATOM      6  O   UNL     1     219.819 205.684 218.627  1.00  0.00    -0.545 OA
ATOM      7  O   UNL     1     218.212 204.128 219.104  1.00  0.00    -0.545 OA
ENDBRANCH   4   5
ENDBRANCH   2   3
ENDBRANCH   1   2
BRANCH   1   8
ATOM      8  C   UNL     1     216.160 207.136 223.663  1.00  0.00     0.000 C 
BRANCH   8   9
ATOM      9  C   UNL     1     216.318 205.879 224.533  1.00  0.00    -0.000 C 
BRANCH   9  10
ATOM     10  C   UNL     1     217.342 204.888 223.959  1.00  0.00    -0.003 C 
ATOM     11  C   UNL     1     216.808 204.213 222.699  1.00  0.00     0.004 C 
ENDBRANCH   9  10
ENDBRANCH   8   9
ENDBRANCH   1   8
TORSDOF 6
ENDMDL
MODEL 7
REMARK VINA RESULT:    -3.155     16.615     18.145
REMARK INTER + INTRA:          -5.026
REMARK INTER:                  -4.447
REMARK INTRA:                  -0.578
REMARK UNBOUND:                -0.763
REMARK SMILES CCCCCCC=CC(=O)[O-]
REMARK SMILES IDX 5 1 6 2 7 3 8 4 9 5 10 6 11 7 4 8 3 9 2 10 1 11
REMARK H PARENT
REMARK Flexibility Score: inf
ROOT
ATOM      1  C   UNL     1     216.934 205.044 223.749  1.00  0.00     0.004 C 
ENDROOT
BRANCH   1   2
ATOM      2  C   UNL     1     216.266 205.441 222.426  1.00  0.00     0.027 C 
BRANCH   2   3
ATOM      3  C   UNL     1     217.008 204.877 221.249  1.00  0.00    -0.025 C 
ATOM      4  C   UNL     1     217.782 205.647 220.477  1.00  0.00     0.020 C 
BRANCH   4   5
ATOM      5  C   UNL     1     218.509 205.117 219.311  1.00  0.00     0.064 C 
ATOM      6  O   UNL     1     218.252 203.974 218.848  1.00  0.00    -0.545 OA
ATOM      7  O   UNL     1     219.494 205.890 218.712  1.00  0.00    -0.545 OA
ENDBRANCH   4   5
ENDBRANCH   2   3
ENDBRANCH   1   2
BRANCH   1   8
ATOM      8  C   UNL     1     217.285 206.287 224.581  1.00  0.00     0.000 C 
BRANCH   8   9
ATOM      9  C   UNL     1     217.373 207.564 223.730  1.00  0.00    -0.000 C 
BRANCH   9  10
ATOM     10  C   UNL     1     218.814 207.906 223.325  1.00  0.00    -0.003 C 
ATOM     11  C   UNL     1     219.821 207.221 224.244  1.00  0.00     0.004 C 
ENDBRANCH   9  10
ENDBRANCH   8   9
ENDBRANCH   1   8
TORSDOF 6
ENDMDL
MODEL 8
REMARK VINA RESULT:    -3.064      1.748      2.470
REMARK INTER + INTRA:          -4.902
REMARK INTER:                  -4.477
REMARK INTRA:                  -0.425
REMARK UNBOUND:                -0.763
REMARK SMILES CCCCCCC=CC(=O)[O-]
REMARK SMILES IDX 5 1 6 2 7 3 8 4 9 5 10 6 11 7 4 8 3 9 2 10 1 11
REMARK H PARENT
REMARK Flexibility Score: inf
ROOT
ATOM      1  C   UNL     1     204.166 195.806 223.854  1.00  0.00     0.004 C 
ENDROOT
BRANCH   1   2
ATOM      2  C   UNL     1     203.345 195.012 224.878  1.00  0.00     0.027 C 
BRANCH   2   3
ATOM      3  C   UNL     1     202.274 194.201 224.207  1.00  0.00    -0.025 C 
ATOM      4  C   UNL     1     202.055 194.287 222.890  1.00  0.00     0.020 C 
BRANCH   4   5
ATOM      5  C   UNL     1     201.002 193.511 222.214  1.00  0.00     0.064 C 
ATOM      6  O   UNL     1     200.376 192.599 222.817  1.00  0.00    -0.545 OA
ATOM      7  O   UNL     1     200.695 193.788 220.889  1.00  0.00    -0.545 OA
ENDBRANCH   4   5
ENDBRANCH   2   3
ENDBRANCH   1   2
BRANCH   1   8
ATOM      8  C   UNL     1     205.516 196.236 224.448  1.00  0.00     0.000 C 
BRANCH   8   9
ATOM      9  C   UNL     1     205.442 196.492 225.962  1.00  0.00    -0.000 C 
BRANCH   9  10
ATOM     10  C   UNL     1     206.569 195.792 226.736  1.00  0.00    -0.003 C 
ATOM     11  C   UNL     1     206.731 194.345 226.280  1.00  0.00     0.004 C 
ENDBRANCH   9  10
ENDBRANCH   8   9
ENDBRANCH   1   8
TORSDOF 6
ENDMDL
MODEL 9
REMARK VINA RESULT:    -3.058      4.574      6.164
REMARK INTER + INTRA:          -4.894
REMARK INTER:                  -4.378
REMARK INTRA:                  -0.516
REMARK UNBOUND:                -0.763
REMARK SMILES CCCCCCC=CC(=O)[O-]
REMARK SMILES IDX 5 1 6 2 7 3 8 4 9 5 10 6 11 7 4 8 3 9 2 10 1 11
REMARK H PARENT
REMARK Flexibility Score: inf
ROOT
ATOM      1  C   UNL     1     206.573 194.103 223.990  1.00  0.00     0.004 C 
ENDROOT
BRANCH   1   2
ATOM      2  C   UNL     1     207.920 194.429 224.648  1.00  0.00     0.027 C 
BRANCH   2   3
ATOM      3  C   UNL     1     208.404 195.794 224.252  1.00  0.00    -0.025 C 
ATOM      4  C   UNL     1     209.705 196.050 224.076  1.00  0.00     0.020 C 
BRANCH   4   5
ATOM      5  C   UNL     1     210.203 197.384 223.701  1.00  0.00     0.064 C 
ATOM      6  O   UNL     1     210.366 197.701 222.492  1.00  0.00    -0.545 OA
ATOM      7  O   UNL     1     210.498 198.307 224.694  1.00  0.00    -0.545 OA
ENDBRANCH   4   5
ENDBRANCH   2   3
ENDBRANCH   1   2
BRANCH   1   8
ATOM      8  C   UNL     1     205.453 194.032 225.038  1.00  0.00     0.000 C 
BRANCH   8   9
ATOM      9  C   UNL     1     204.290 194.988 224.726  1.00  0.00    -0.000 C 
BRANCH   9  10
ATOM     10  C   UNL     1     204.725 196.461 224.705  1.00  0.00    -0.003 C 
ATOM     11  C   UNL     1     205.125 196.937 226.098  1.00  0.00     0.004 C 
ENDBRANCH   9  10
ENDBRANCH   8   9
ENDBRANCH   1   8
TORSDOF 6
ENDMDL
