MODEL 1
REMARK VINA RESULT:    -4.393      0.000      0.000
REMARK INTER + INTRA:          -8.095
REMARK INTER:                  -6.962
REMARK INTRA:                  -1.133
REMARK UNBOUND:                -1.133
REMARK SMILES CCCCCCCCCCCC(=O)[O-]
REMARK SMILES IDX 7 1 8 2 9 3 10 4 11 5 12 6 13 7 14 8 6 9 5 10 4 11 3 12 2 13
REMARK SMILES IDX 1 14
REMARK H PARENT
REMARK Flexibility Score: inf
ROOT
ATOM      1  C   UNL     1       5.758  -8.756  29.561  1.00  0.00     0.000 C 
ENDROOT
BRANCH   1   2
ATOM      2  C   UNL     1       6.516  -7.892  28.541  1.00  0.00     0.000 C 
BRANCH   2   3
ATOM      3  C   UNL     1       5.576  -7.046  27.669  1.00  0.00     0.000 C 
BRANCH   3   4
ATOM      4  C   UNL     1       5.485  -5.608  28.197  1.00  0.00     0.006 C 
BRANCH   4   5
ATOM      5  C   UNL     1       6.781  -5.197  28.900  1.00  0.00     0.053 C 
BRANCH   5   6
ATOM      6  C   UNL     1       7.675  -4.453  27.958  1.00  0.00     0.041 C 
ATOM      7  O   UNL     1       8.822  -4.897  27.690  1.00  0.00    -0.550 OA
ATOM      8  O   UNL     1       7.221  -3.295  27.339  1.00  0.00    -0.550 OA
ENDBRANCH   5   6
ENDBRANCH   4   5
ENDBRANCH   3   4
ENDBRANCH   2   3
ENDBRANCH   1   2
BRANCH   1   9
ATOM      9  C   UNL     1       5.930  -8.256  31.004  1.00  0.00     0.000 C 
BRANCH   9  10
ATOM     10  C   UNL     1       4.617  -7.674  31.543  1.00  0.00    -0.000 C 
BRANCH  10  11
ATOM     11  C   UNL     1       4.874  -6.749  32.739  1.00  0.00    -0.000 C 
BRANCH  11  12
ATOM     12  C   UNL     1       5.592  -5.469  32.301  1.00  0.00    -0.000 C 
BRANCH  12  13
ATOM     13  C   UNL     1       6.936  -5.318  33.021  1.00  0.00    -0.003 C 
ATOM     14  C   UNL     1       8.080  -5.873  32.178  1.00  0.00     0.004 C 
ENDBRANCH  12  13
ENDBRANCH  11  12
ENDBRANCH  10  11
ENDBRANCH   9  10
ENDBRANCH   1   9
TORSDOF 10
ENDMDL
MODEL 2
REMARK VINA RESULT:    -4.362      1.215      1.755
REMARK INTER + INTRA:          -8.045
REMARK INTER:                  -6.782
REMARK INTRA:                  -1.263
REMARK UNBOUND:                -1.133
REMARK SMILES CCCCCCCCCCCC(=O)[O-]
REMARK SMILES IDX 7 1 8 2 9 3 10 4 11 5 12 6 13 7 14 8 6 9 5 10 4 11 3 12 2 13
REMARK SMILES IDX 1 14
REMARK H PARENT
REMARK Flexibility Score: inf
ROOT
ATOM      1  C   UNL     1       6.587  -8.466  28.970  1.00  0.00     0.000 C 
ENDROOT
BRANCH   1   2
ATOM      2  C   UNL     1       7.500  -7.757  27.957  1.00  0.00     0.000 C 
BRANCH   2   3
ATOM      3  C   UNL     1       8.694  -7.059  28.624  1.00  0.00     0.000 C 
BRANCH   3   4
ATOM      4  C   UNL     1       8.742  -5.573  28.246  1.00  0.00     0.006 C 
BRANCH   4   5
ATOM      5  C   UNL     1       7.456  -4.857  28.668  1.00  0.00     0.053 C 
BRANCH   5   6
ATOM      6  C   UNL     1       6.790  -4.234  27.481  1.00  0.00     0.041 C 
ATOM      7  O   UNL     1       5.904  -4.866  26.848  1.00  0.00    -0.550 OA
ATOM      8  O   UNL     1       7.114  -2.936  27.103  1.00  0.00    -0.550 OA
ENDBRANCH   5   6
ENDBRANCH   4   5
ENDBRANCH   3   4
ENDBRANCH   2   3
ENDBRANCH   1   2
BRANCH   1   9
ATOM      9  C   UNL     1       5.254  -7.732  29.179  1.00  0.00     0.000 C 
BRANCH   9  10
ATOM     10  C   UNL     1       4.775  -7.867  30.630  1.00  0.00    -0.000 C 
BRANCH  10  11
ATOM     11  C   UNL     1       5.870  -7.438  31.614  1.00  0.00    -0.000 C 
BRANCH  11  12
ATOM     12  C   UNL     1       5.477  -6.150  32.347  1.00  0.00    -0.000 C 
BRANCH  12  13
ATOM     13  C   UNL     1       6.718  -5.348  32.754  1.00  0.00    -0.003 C 
ATOM     14  C   UNL     1       7.976  -5.905  32.094  1.00  0.00     0.004 C 
ENDBRANCH  12  13
ENDBRANCH  11  12
ENDBRANCH  10  11
ENDBRANCH   9  10
ENDBRANCH   1   9
TORSDOF 10
ENDMDL
MODEL 3
REMARK VINA RESULT:    -4.360      2.593      4.472
REMARK INTER + INTRA:          -8.041
REMARK INTER:                  -6.737
REMARK INTRA:                  -1.305
REMARK UNBOUND:                -1.133
REMARK SMILES CCCCCCCCCCCC(=O)[O-]
REMARK SMILES IDX 7 1 8 2 9 3 10 4 11 5 12 6 13 7 14 8 6 9 5 10 4 11 3 12 2 13
REMARK SMILES IDX 1 14
REMARK H PARENT
REMARK Flexibility Score: inf
ROOT
ATOM      1  C   UNL     1       5.982  -9.992  29.024  1.00  0.00     0.000 C 
ENDROOT
BRANCH   1   2
ATOM      2  C   UNL     1       4.695  -9.250  29.417  1.00  0.00     0.000 C 
BRANCH   2   3
ATOM      3  C   UNL     1       4.971  -7.864  30.019  1.00  0.00     0.000 C 
BRANCH   3   4
ATOM      4  C   UNL     1       5.786  -7.982  31.314  1.00  0.00     0.006 C 
BRANCH   4   5
ATOM      5  C   UNL     1       6.832  -6.867  31.409  1.00  0.00     0.053 C 
BRANCH   5   6
ATOM      6  C   UNL     1       6.391  -5.818  32.380  1.00  0.00     0.041 C 
ATOM      7  O   UNL     1       5.215  -5.827  32.831  1.00  0.00    -0.550 OA
ATOM      8  O   UNL     1       7.292  -4.859  32.825  1.00  0.00    -0.550 OA
ENDBRANCH   5   6
ENDBRANCH   4   5
ENDBRANCH   3   4
ENDBRANCH   2   3
ENDBRANCH   1   2
BRANCH   1   9
ATOM      9  C   UNL     1       6.482  -9.611  27.623  1.00  0.00     0.000 C 
BRANCH   9  10
ATOM     10  C   UNL     1       7.814  -8.855  27.702  1.00  0.00    -0.000 C 
BRANCH  10  11
ATOM     11  C   UNL     1       7.614  -7.356  27.451  1.00  0.00    -0.000 C 
BRANCH  11  12
ATOM     12  C   UNL     1       8.662  -6.527  28.202  1.00  0.00    -0.000 C 
BRANCH  12  13
ATOM     13  C   UNL     1       8.241  -5.055  28.286  1.00  0.00    -0.003 C 
ATOM     14  C   UNL     1       6.722  -4.914  28.287  1.00  0.00     0.004 C 
ENDBRANCH  12  13
ENDBRANCH  11  12
ENDBRANCH  10  11
ENDBRANCH   9  10
ENDBRANCH   1   9
TORSDOF 10
ENDMDL
MODEL 4
REMARK VINA RESULT:    -4.354      1.338      3.537
REMARK INTER + INTRA:          -8.032
REMARK INTER:                  -6.493
REMARK INTRA:                  -1.539
REMARK UNBOUND:                -1.133
REMARK SMILES CCCCCCCCCCCC(=O)[O-]
REMARK SMILES IDX 7 1 8 2 9 3 10 4 11 5 12 6 13 7 14 8 6 9 5 10 4 11 3 12 2 13
REMARK SMILES IDX 1 14
REMARK H PARENT
REMARK Flexibility Score: inf
ROOT
ATOM      1  C   UNL     1       5.461  -6.804  32.040  1.00  0.00     0.000 C 
ENDROOT
BRANCH   1   2
ATOM      2  C   UNL     1       6.457  -5.702  31.645  1.00  0.00     0.000 C 
BRANCH   2   3
ATOM      3  C   UNL     1       7.563  -6.211  30.709  1.00  0.00     0.000 C 
BRANCH   3   4
ATOM      4  C   UNL     1       7.661  -5.339  29.450  1.00  0.00     0.006 C 
BRANCH   4   5
ATOM      5  C   UNL     1       6.324  -5.297  28.705  1.00  0.00     0.053 C 
BRANCH   5   6
ATOM      6  C   UNL     1       6.508  -4.736  27.330  1.00  0.00     0.041 C 
ATOM      7  O   UNL     1       6.218  -5.430  26.320  1.00  0.00    -0.550 OA
ATOM      8  O   UNL     1       6.953  -3.430  27.165  1.00  0.00    -0.550 OA
ENDBRANCH   5   6
ENDBRANCH   4   5
ENDBRANCH   3   4
ENDBRANCH   2   3
ENDBRANCH   1   2
BRANCH   1   9
ATOM      9  C   UNL     1       5.651  -8.092  31.224  1.00  0.00     0.000 C 
BRANCH   9  10
ATOM     10  C   UNL     1       4.464  -8.323  30.279  1.00  0.00    -0.000 C 
BRANCH  10  11
ATOM     11  C   UNL     1       4.826  -9.323  29.175  1.00  0.00    -0.000 C 
BRANCH  11  12
ATOM     12  C   UNL     1       6.339  -9.354  28.933  1.00  0.00    -0.000 C 
BRANCH  12  13
ATOM     13  C   UNL     1       6.685  -8.803  27.546  1.00  0.00    -0.003 C 
ATOM     14  C   UNL     1       8.151  -8.389  27.467  1.00  0.00     0.004 C 
ENDBRANCH  12  13
ENDBRANCH  11  12
ENDBRANCH  10  11
ENDBRANCH   9  10
ENDBRANCH   1   9
TORSDOF 10
ENDMDL
MODEL 5
REMARK VINA RESULT:    -4.325     13.726     16.253
REMARK INTER + INTRA:          -7.986
REMARK INTER:                  -6.835
REMARK INTRA:                  -1.151
REMARK UNBOUND:                -1.133
REMARK SMILES CCCCCCCCCCCC(=O)[O-]
REMARK SMILES IDX 7 1 8 2 9 3 10 4 11 5 12 6 13 7 14 8 6 9 5 10 4 11 3 12 2 13
REMARK SMILES IDX 1 14
REMARK H PARENT
REMARK Flexibility Score: inf
ROOT
ATOM      1  C   UNL     1      15.153  -8.530  17.585  1.00  0.00     0.000 C 
ENDROOT
BRANCH   1   2
ATOM      2  C   UNL     1      15.243  -7.112  16.999  1.00  0.00     0.000 C 
BRANCH   2   3
ATOM      3  C   UNL     1      13.871  -6.546  16.603  1.00  0.00     0.000 C 
BRANCH   3   4
ATOM      4  C   UNL     1      13.280  -5.698  17.737  1.00  0.00     0.006 C 
BRANCH   4   5
ATOM      5  C   UNL     1      14.385  -4.986  18.523  1.00  0.00     0.053 C 
BRANCH   5   6
ATOM      6  C   UNL     1      14.192  -5.186  19.994  1.00  0.00     0.041 C 
ATOM      7  O   UNL     1      13.430  -4.421  20.642  1.00  0.00    -0.550 OA
ATOM      8  O   UNL     1      14.816  -6.246  20.639  1.00  0.00    -0.550 OA
ENDBRANCH   5   6
ENDBRANCH   4   5
ENDBRANCH   3   4
ENDBRANCH   2   3
ENDBRANCH   1   2
BRANCH   1   9
ATOM      9  C   UNL     1      15.523  -9.617  16.565  1.00  0.00     0.000 C 
BRANCH   9  10
ATOM     10  C   UNL     1      14.291 -10.068  15.770  1.00  0.00    -0.000 C 
BRANCH  10  11
ATOM     11  C   UNL     1      14.296  -9.469  14.359  1.00  0.00    -0.000 C 
BRANCH  11  12
ATOM     12  C   UNL     1      15.727  -9.285  13.843  1.00  0.00    -0.000 C 
BRANCH  12  13
ATOM     13  C   UNL     1      15.838  -8.036  12.962  1.00  0.00    -0.003 C 
ATOM     14  C   UNL     1      14.592  -7.165  13.080  1.00  0.00     0.004 C 
ENDBRANCH  12  13
ENDBRANCH  11  12
ENDBRANCH  10  11
ENDBRANCH   9  10
ENDBRANCH   1   9
TORSDOF 10
ENDMDL
MODEL 6
REMARK VINA RESULT:    -4.319      1.831      4.339
REMARK INTER + INTRA:          -7.977
REMARK INTER:                  -6.805
REMARK INTRA:                  -1.172
REMARK UNBOUND:                -1.133
REMARK SMILES CCCCCCCCCCCC(=O)[O-]
REMARK SMILES IDX 7 1 8 2 9 3 10 4 11 5 12 6 13 7 14 8 6 9 5 10 4 11 3 12 2 13
REMARK SMILES IDX 1 14
REMARK H PARENT
REMARK Flexibility Score: inf
ROOT
ATOM      1  C   UNL     1       6.172  -5.951  32.373  1.00  0.00     0.000 C 
ENDROOT
BRANCH   1   2
ATOM      2  C   UNL     1       5.198  -7.093  32.041  1.00  0.00     0.000 C 
BRANCH   2   3
ATOM      3  C   UNL     1       5.873  -8.242  31.279  1.00  0.00     0.000 C 
BRANCH   3   4
ATOM      4  C   UNL     1       5.076  -8.607  30.019  1.00  0.00     0.006 C 
BRANCH   4   5
ATOM      5  C   UNL     1       6.001  -8.759  28.808  1.00  0.00     0.053 C 
BRANCH   5   6
ATOM      6  C   UNL     1       5.744  -7.672  27.813  1.00  0.00     0.041 C 
ATOM      7  O   UNL     1       4.952  -6.733  28.092  1.00  0.00    -0.550 OA
ATOM      8  O   UNL     1       6.417  -7.669  26.597  1.00  0.00    -0.550 OA
ENDBRANCH   5   6
ENDBRANCH   4   5
ENDBRANCH   3   4
ENDBRANCH   2   3
ENDBRANCH   1   2
BRANCH   1   9
ATOM      9  C   UNL     1       7.528  -6.105  31.668  1.00  0.00     0.000 C 
BRANCH   9  10
ATOM     10  C   UNL     1       7.501  -5.454  30.279  1.00  0.00    -0.000 C 
BRANCH  10  11
ATOM     11  C   UNL     1       8.543  -6.090  29.352  1.00  0.00    -0.000 C 
BRANCH  11  12
ATOM     12  C   UNL     1       8.659  -5.312  28.037  1.00  0.00    -0.000 C 
BRANCH  12  13
ATOM     13  C   UNL     1       7.554  -4.255  27.924  1.00  0.00    -0.003 C 
ATOM     14  C   UNL     1       7.119  -4.063  26.475  1.00  0.00     0.004 C 
ENDBRANCH  12  13
ENDBRANCH  11  12
ENDBRANCH  10  11
ENDBRANCH   9  10
ENDBRANCH   1   9
TORSDOF 10
ENDMDL
MODEL 7
REMARK VINA RESULT:    -4.290      2.456      4.600
REMARK INTER + INTRA:          -7.930
REMARK INTER:                  -6.598
REMARK INTRA:                  -1.333
REMARK UNBOUND:                -1.133
REMARK SMILES CCCCCCCCCCCC(=O)[O-]
REMARK SMILES IDX 7 1 8 2 9 3 10 4 11 5 12 6 13 7 14 8 6 9 5 10 4 11 3 12 2 13
REMARK SMILES IDX 1 14
REMARK H PARENT
REMARK Flexibility Score: inf
ROOT
ATOM      1  C   UNL     1       7.491  -8.702  27.888  1.00  0.00     0.000 C 
ENDROOT
BRANCH   1   2
ATOM      2  C   UNL     1       6.295  -8.076  28.623  1.00  0.00     0.000 C 
BRANCH   2   3
ATOM      3  C   UNL     1       5.849  -8.903  29.838  1.00  0.00     0.000 C 
BRANCH   3   4
ATOM      4  C   UNL     1       5.466  -7.991  31.011  1.00  0.00     0.006 C 
BRANCH   4   5
ATOM      5  C   UNL     1       5.894  -6.545  30.746  1.00  0.00     0.053 C 
BRANCH   5   6
ATOM      6  C   UNL     1       6.622  -5.989  31.929  1.00  0.00     0.041 C 
ATOM      7  O   UNL     1       7.881  -6.004  31.962  1.00  0.00    -0.550 OA
ATOM      8  O   UNL     1       5.912  -5.409  32.973  1.00  0.00    -0.550 OA
ENDBRANCH   5   6
ENDBRANCH   4   5
ENDBRANCH   3   4
ENDBRANCH   2   3
ENDBRANCH   1   2
BRANCH   1   9
ATOM      9  C   UNL     1       8.564  -7.668  27.514  1.00  0.00     0.000 C 
BRANCH   9  10
ATOM     10  C   UNL     1       8.847  -6.722  28.688  1.00  0.00    -0.000 C 
BRANCH  10  11
ATOM     11  C   UNL     1       8.962  -5.270  28.210  1.00  0.00    -0.000 C 
BRANCH  11  12
ATOM     12  C   UNL     1       7.607  -4.557  28.286  1.00  0.00    -0.000 C 
BRANCH  12  13
ATOM     13  C   UNL     1       7.150  -4.094  26.899  1.00  0.00    -0.003 C 
ATOM     14  C   UNL     1       6.203  -5.107  26.263  1.00  0.00     0.004 C 
ENDBRANCH  12  13
ENDBRANCH  11  12
ENDBRANCH  10  11
ENDBRANCH   9  10
ENDBRANCH   1   9
TORSDOF 10
ENDMDL
MODEL 8
REMARK VINA RESULT:    -4.211      1.554      2.231
REMARK INTER + INTRA:          -7.806
REMARK INTER:                  -6.460
REMARK INTRA:                  -1.346
REMARK UNBOUND:                -1.133
REMARK SMILES CCCCCCCCCCCC(=O)[O-]
REMARK SMILES IDX 7 1 8 2 9 3 10 4 11 5 12 6 13 7 14 8 6 9 5 10 4 11 3 12 2 13
REMARK SMILES IDX 1 14
REMARK H PARENT
REMARK Flexibility Score: inf
ROOT
ATOM      1  C   UNL     1       4.949  -8.243  30.343  1.00  0.00     0.000 C 
ENDROOT
BRANCH   1   2
ATOM      2  C   UNL     1       5.814  -8.927  29.273  1.00  0.00     0.000 C 
BRANCH   2   3
ATOM      3  C   UNL     1       5.909  -8.110  27.977  1.00  0.00     0.000 C 
BRANCH   3   4
ATOM      4  C   UNL     1       4.824  -7.026  27.931  1.00  0.00     0.006 C 
BRANCH   4   5
ATOM      5  C   UNL     1       5.445  -5.626  27.943  1.00  0.00     0.053 C 
BRANCH   5   6
ATOM      6  C   UNL     1       5.999  -5.287  26.595  1.00  0.00     0.041 C 
ATOM      7  O   UNL     1       7.092  -4.668  26.498  1.00  0.00    -0.550 OA
ATOM      8  O   UNL     1       5.335  -5.698  25.447  1.00  0.00    -0.550 OA
ENDBRANCH   5   6
ENDBRANCH   4   5
ENDBRANCH   3   4
ENDBRANCH   2   3
ENDBRANCH   1   2
BRANCH   1   9
ATOM      9  C   UNL     1       5.738  -7.906  31.617  1.00  0.00     0.000 C 
BRANCH   9  10
ATOM     10  C   UNL     1       5.529  -6.441  32.021  1.00  0.00    -0.000 C 
BRANCH  10  11
ATOM     11  C   UNL     1       6.870  -5.743  32.276  1.00  0.00    -0.000 C 
BRANCH  11  12
ATOM     12  C   UNL     1       7.979  -6.345  31.407  1.00  0.00    -0.000 C 
BRANCH  12  13
ATOM     13  C   UNL     1       7.999  -5.701  30.017  1.00  0.00    -0.003 C 
ATOM     14  C   UNL     1       8.950  -6.439  29.080  1.00  0.00     0.004 C 
ENDBRANCH  12  13
ENDBRANCH  11  12
ENDBRANCH  10  11
ENDBRANCH   9  10
ENDBRANCH   1   9
TORSDOF 10
ENDMDL
MODEL 9
REMARK VINA RESULT:    -4.176      2.065      3.953
REMARK INTER + INTRA:          -7.751
REMARK INTER:                  -6.194
REMARK INTRA:                  -1.557
REMARK UNBOUND:                -1.133
REMARK SMILES CCCCCCCCCCCC(=O)[O-]
REMARK SMILES IDX 7 1 8 2 9 3 10 4 11 5 12 6 13 7 14 8 6 9 5 10 4 11 3 12 2 13
REMARK SMILES IDX 1 14
REMARK H PARENT
REMARK Flexibility Score: inf
ROOT
ATOM      1  C   UNL     1       6.007  -7.902  31.163  1.00  0.00     0.000 C 
ENDROOT
BRANCH   1   2
ATOM      2  C   UNL     1       4.735  -8.178  30.346  1.00  0.00     0.000 C 
BRANCH   2   3
ATOM      3  C   UNL     1       4.897  -9.362  29.381  1.00  0.00     0.000 C 
BRANCH   3   4
ATOM      4  C   UNL     1       6.344  -9.472  28.886  1.00  0.00     0.006 C 
BRANCH   4   5
ATOM      5  C   UNL     1       6.395  -9.594  27.360  1.00  0.00     0.053 C 
BRANCH   5   6
ATOM      6  C   UNL     1       7.559  -8.829  26.812  1.00  0.00     0.041 C 
ATOM      7  O   UNL     1       7.427  -8.139  25.767  1.00  0.00    -0.550 OA
ATOM      8  O   UNL     1       8.775  -8.838  27.483  1.00  0.00    -0.550 OA
ENDBRANCH   5   6
ENDBRANCH   4   5
ENDBRANCH   3   4
ENDBRANCH   2   3
ENDBRANCH   1   2
BRANCH   1   9
ATOM      9  C   UNL     1       6.008  -6.506  31.805  1.00  0.00     0.000 C 
BRANCH   9  10
ATOM     10  C   UNL     1       7.157  -5.650  31.256  1.00  0.00    -0.000 C 
BRANCH  10  11
ATOM     11  C   UNL     1       7.972  -6.425  30.214  1.00  0.00    -0.000 C 
BRANCH  11  12
ATOM     12  C   UNL     1       8.007  -5.678  28.876  1.00  0.00    -0.000 C 
BRANCH  12  13
ATOM     13  C   UNL     1       6.695  -4.922  28.634  1.00  0.00    -0.003 C 
ATOM     14  C   UNL     1       5.733  -5.744  27.783  1.00  0.00     0.004 C 
ENDBRANCH  12  13
ENDBRANCH  11  12
ENDBRANCH  10  11
ENDBRANCH   9  10
ENDBRANCH   1   9
TORSDOF 10
ENDMDL
