MODEL 1
REMARK VINA RESULT:    -3.935      0.000      0.000
REMARK INTER + INTRA:          -4.297
REMARK INTER:                  -4.280
REMARK INTRA:                  -0.018
REMARK UNBOUND:                -0.018
REMARK SMILES OCc1ccco1
REMARK SMILES IDX 2 1 3 2 5 3 6 4 4 5 7 6 1 7
REMARK H PARENT 1 8
REMARK Flexibility Score: inf
ROOT
ATOM      1  C   UNL     1      11.568 -18.580 -28.393  1.00  0.00     0.231 C 
ENDROOT
BRANCH   1   2
ATOM      2  C   UNL     1      11.781 -18.440 -26.920  1.00  0.00     0.129 A 
ATOM      3  C   UNL     1      12.624 -18.584 -24.897  1.00  0.00     0.042 A 
ATOM      4  C   UNL     1      11.404 -17.937 -24.884  1.00  0.00     0.195 A 
ATOM      5  C   UNL     1      12.868 -18.913 -26.213  1.00  0.00     0.048 A 
ATOM      6  O   UNL     1      10.926 -17.869 -26.105  1.00  0.00    -0.467 OA
ENDBRANCH   1   2
BRANCH   1   7
ATOM      7  O   UNL     1      10.326 -19.177 -28.646  1.00  0.00    -0.388 OA
ATOM      8  H   UNL     1      10.469 -19.833 -29.378  1.00  0.00     0.211 HD
ENDBRANCH   1   7
TORSDOF 2
ENDMDL
MODEL 2
REMARK VINA RESULT:    -3.913      3.729      4.758
REMARK INTER + INTRA:          -4.274
REMARK INTER:                  -4.258
REMARK INTRA:                  -0.015
REMARK UNBOUND:                -0.018
REMARK SMILES OCc1ccco1
REMARK SMILES IDX 2 1 3 2 5 3 6 4 4 5 7 6 1 7
REMARK H PARENT 1 8
REMARK Flexibility Score: inf
ROOT
ATOM      1  C   UNL     1       8.800 -16.725 -31.343  1.00  0.00     0.231 C 
ENDROOT
BRANCH   1   2
ATOM      2  C   UNL     1       8.786 -17.063 -29.887  1.00  0.00     0.129 A 
ATOM      3  C   UNL     1       8.332 -17.073 -27.738  1.00  0.00     0.042 A 
ATOM      4  C   UNL     1       9.319 -17.989 -28.043  1.00  0.00     0.195 A 
ATOM      5  C   UNL     1       7.988 -16.470 -28.929  1.00  0.00     0.048 A 
ATOM      6  O   UNL     1       9.569 -17.958 -29.332  1.00  0.00    -0.467 OA
ENDBRANCH   1   2
BRANCH   1   7
ATOM      7  O   UNL     1       7.649 -15.999 -31.680  1.00  0.00    -0.388 OA
ATOM      8  H   UNL     1       7.454 -16.203 -32.633  1.00  0.00     0.211 HD
ENDBRANCH   1   7
TORSDOF 2
ENDMDL
MODEL 3
REMARK VINA RESULT:    -3.897      2.272      3.360
REMARK INTER + INTRA:          -4.256
REMARK INTER:                  -4.242
REMARK INTRA:                  -0.014
REMARK UNBOUND:                -0.018
REMARK SMILES OCc1ccco1
REMARK SMILES IDX 2 1 3 2 5 3 6 4 4 5 7 6 1 7
REMARK H PARENT 1 8
REMARK Flexibility Score: inf
ROOT
ATOM      1  C   UNL     1      11.869 -18.519 -28.520  1.00  0.00     0.231 C 
ENDROOT
BRANCH   1   2
ATOM      2  C   UNL     1      10.453 -18.139 -28.226  1.00  0.00     0.129 A 
ATOM      3  C   UNL     1       8.618 -17.512 -27.195  1.00  0.00     0.042 A 
ATOM      4  C   UNL     1       8.367 -17.815 -28.519  1.00  0.00     0.195 A 
ATOM      5  C   UNL     1       9.966 -17.724 -27.003  1.00  0.00     0.048 A 
ATOM      6  O   UNL     1       9.481 -18.189 -29.107  1.00  0.00    -0.467 OA
ENDBRANCH   1   2
BRANCH   1   7
ATOM      7  O   UNL     1      12.747 -17.701 -27.797  1.00  0.00    -0.388 OA
ATOM      8  H   UNL     1      13.667 -17.978 -28.049  1.00  0.00     0.211 HD
ENDBRANCH   1   7
TORSDOF 2
ENDMDL
MODEL 4
REMARK VINA RESULT:    -3.885      1.349      3.108
REMARK INTER + INTRA:          -4.244
REMARK INTER:                  -4.228
REMARK INTRA:                  -0.015
REMARK UNBOUND:                -0.018
REMARK SMILES OCc1ccco1
REMARK SMILES IDX 2 1 3 2 5 3 6 4 4 5 7 6 1 7
REMARK H PARENT 1 8
REMARK Flexibility Score: inf
ROOT
ATOM      1  C   UNL     1      11.796 -18.053 -24.401  1.00  0.00     0.231 C 
ENDROOT
BRANCH   1   2
ATOM      2  C   UNL     1      11.596 -18.243 -25.870  1.00  0.00     0.129 A 
ATOM      3  C   UNL     1      11.916 -18.732 -27.987  1.00  0.00     0.042 A 
ATOM      4  C   UNL     1      10.670 -18.169 -27.789  1.00  0.00     0.195 A 
ATOM      5  C   UNL     1      12.517 -18.777 -26.748  1.00  0.00     0.048 A 
ATOM      6  O   UNL     1      10.510 -17.886 -26.516  1.00  0.00    -0.467 OA
ENDBRANCH   1   2
BRANCH   1   7
ATOM      7  O   UNL     1      13.143 -17.774 -24.131  1.00  0.00    -0.388 OA
ATOM      8  H   UNL     1      13.411 -17.042 -24.747  1.00  0.00     0.211 HD
ENDBRANCH   1   7
TORSDOF 2
ENDMDL
MODEL 5
REMARK VINA RESULT:    -3.802      1.865      2.904
REMARK INTER + INTRA:          -4.153
REMARK INTER:                  -4.132
REMARK INTRA:                  -0.021
REMARK UNBOUND:                -0.018
REMARK SMILES OCc1ccco1
REMARK SMILES IDX 2 1 3 2 5 3 6 4 4 5 7 6 1 7
REMARK H PARENT 1 8
REMARK Flexibility Score: inf
ROOT
ATOM      1  C   UNL     1       8.527 -17.584 -28.704  1.00  0.00     0.231 C 
ENDROOT
BRANCH   1   2
ATOM      2  C   UNL     1       9.832 -18.132 -28.222  1.00  0.00     0.129 A 
ATOM      3  C   UNL     1      11.617 -18.545 -27.011  1.00  0.00     0.042 A 
ATOM      4  C   UNL     1      11.671 -19.209 -28.221  1.00  0.00     0.195 A 
ATOM      5  C   UNL     1      10.430 -17.845 -27.012  1.00  0.00     0.048 A 
ATOM      6  O   UNL     1      10.593 -18.940 -28.922  1.00  0.00    -0.467 OA
ENDBRANCH   1   2
BRANCH   1   7
ATOM      7  O   UNL     1       8.454 -17.674 -30.101  1.00  0.00    -0.388 OA
ATOM      8  H   UNL     1       7.899 -16.909 -30.407  1.00  0.00     0.211 HD
ENDBRANCH   1   7
TORSDOF 2
ENDMDL
MODEL 6
REMARK VINA RESULT:    -3.789      2.257      3.211
REMARK INTER + INTRA:          -4.139
REMARK INTER:                  -4.121
REMARK INTRA:                  -0.018
REMARK UNBOUND:                -0.018
REMARK SMILES OCc1ccco1
REMARK SMILES IDX 2 1 3 2 5 3 6 4 4 5 7 6 1 7
REMARK H PARENT 1 8
REMARK Flexibility Score: inf
ROOT
ATOM      1  C   UNL     1      10.952 -18.535 -28.225  1.00  0.00     0.231 C 
ENDROOT
BRANCH   1   2
ATOM      2  C   UNL     1      11.583 -19.888 -28.142  1.00  0.00     0.129 A 
ATOM      3  C   UNL     1      12.735 -21.629 -27.462  1.00  0.00     0.042 A 
ATOM      4  C   UNL     1      12.189 -21.850 -28.711  1.00  0.00     0.195 A 
ATOM      5  C   UNL     1      12.347 -20.359 -27.094  1.00  0.00     0.048 A 
ATOM      6  O   UNL     1      11.510 -20.792 -29.090  1.00  0.00    -0.467 OA
ENDBRANCH   1   2
BRANCH   1   7
ATOM      7  O   UNL     1       9.665 -18.637 -28.769  1.00  0.00    -0.388 OA
ATOM      8  H   UNL     1       9.225 -19.405 -28.318  1.00  0.00     0.211 HD
ENDBRANCH   1   7
TORSDOF 2
ENDMDL
MODEL 7
REMARK VINA RESULT:    -3.670      2.141      2.851
REMARK INTER + INTRA:          -4.010
REMARK INTER:                  -3.994
REMARK INTRA:                  -0.016
REMARK UNBOUND:                -0.018
REMARK SMILES OCc1ccco1
REMARK SMILES IDX 2 1 3 2 5 3 6 4 4 5 7 6 1 7
REMARK H PARENT 1 8
REMARK Flexibility Score: inf
ROOT
ATOM      1  C   UNL     1      11.966 -21.904 -29.072  1.00  0.00     0.231 C 
ENDROOT
BRANCH   1   2
ATOM      2  C   UNL     1      12.066 -20.591 -28.365  1.00  0.00     0.129 A 
ATOM      3  C   UNL     1      12.368 -19.051 -26.828  1.00  0.00     0.042 A 
ATOM      4  C   UNL     1      11.936 -18.492 -28.015  1.00  0.00     0.195 A 
ATOM      5  C   UNL     1      12.449 -20.408 -27.051  1.00  0.00     0.048 A 
ATOM      6  O   UNL     1      11.762 -19.437 -28.911  1.00  0.00    -0.467 OA
ENDBRANCH   1   2
BRANCH   1   7
ATOM      7  O   UNL     1      10.621 -22.243 -29.271  1.00  0.00    -0.388 OA
ATOM      8  H   UNL     1      10.415 -22.976 -28.633  1.00  0.00     0.211 HD
ENDBRANCH   1   7
TORSDOF 2
ENDMDL
MODEL 8
REMARK VINA RESULT:    -3.645      3.779      4.518
REMARK INTER + INTRA:          -3.983
REMARK INTER:                  -3.961
REMARK INTRA:                  -0.021
REMARK UNBOUND:                -0.018
REMARK SMILES OCc1ccco1
REMARK SMILES IDX 2 1 3 2 5 3 6 4 4 5 7 6 1 7
REMARK H PARENT 1 8
REMARK Flexibility Score: inf
ROOT
ATOM      1  C   UNL     1       8.835 -16.780 -31.144  1.00  0.00     0.231 C 
ENDROOT
BRANCH   1   2
ATOM      2  C   UNL     1       8.762 -16.899 -29.655  1.00  0.00     0.129 A 
ATOM      3  C   UNL     1       9.104 -17.531 -27.580  1.00  0.00     0.042 A 
ATOM      4  C   UNL     1       8.101 -16.584 -27.654  1.00  0.00     0.195 A 
ATOM      5  C   UNL     1       9.530 -17.738 -28.874  1.00  0.00     0.048 A 
ATOM      6  O   UNL     1       7.919 -16.229 -28.905  1.00  0.00    -0.467 OA
ENDBRANCH   1   2
BRANCH   1   7
ATOM      7  O   UNL     1       7.746 -16.037 -31.621  1.00  0.00    -0.388 OA
ATOM      8  H   UNL     1       6.950 -16.337 -31.108  1.00  0.00     0.211 HD
ENDBRANCH   1   7
TORSDOF 2
ENDMDL
MODEL 9
REMARK VINA RESULT:    -3.550      3.330      3.738
REMARK INTER + INTRA:          -3.879
REMARK INTER:                  -3.867
REMARK INTRA:                  -0.013
REMARK UNBOUND:                -0.018
REMARK SMILES OCc1ccco1
REMARK SMILES IDX 2 1 3 2 5 3 6 4 4 5 7 6 1 7
REMARK H PARENT 1 8
REMARK Flexibility Score: inf
ROOT
ATOM      1  C   UNL     1      11.617 -23.376 -26.984  1.00  0.00     0.231 C 
ENDROOT
BRANCH   1   2
ATOM      2  C   UNL     1      11.797 -21.895 -27.083  1.00  0.00     0.129 A 
ATOM      3  C   UNL     1      12.161 -19.871 -27.854  1.00  0.00     0.042 A 
ATOM      4  C   UNL     1      11.993 -19.859 -26.483  1.00  0.00     0.195 A 
ATOM      5  C   UNL     1      12.038 -21.187 -28.244  1.00  0.00     0.048 A 
ATOM      6  O   UNL     1      11.780 -21.082 -26.053  1.00  0.00    -0.467 OA
ENDBRANCH   1   2
BRANCH   1   7
ATOM      7  O   UNL     1      10.278 -23.715 -27.223  1.00  0.00    -0.388 OA
ATOM      8  H   UNL     1       9.979 -24.256 -26.445  1.00  0.00     0.211 HD
ENDBRANCH   1   7
TORSDOF 2
ENDMDL
