MODEL 1
REMARK VINA RESULT:    -6.649      0.000      0.000
REMARK INTER + INTRA:          -7.963
REMARK INTER:                  -8.010
REMARK INTRA:                   0.047
REMARK UNBOUND:                 0.047
REMARK SMILES O=c1c(O)c(-c2ccc(O)c(O)c2)oc2cc(O)cc(O)c12
REMARK SMILES IDX 5 1 3 2 2 3 1 4 22 5 20 6 19 7 17 8 16 9 15 10 14 11 6 12
REMARK SMILES IDX 7 13 8 14 9 15 13 16 11 17 10 18 12 20 4 22 21 24 18 26
REMARK H PARENT 10 19 12 21 4 23 21 25 18 27
REMARK Flexibility Score: inf
ROOT
ATOM      1  C   UNL     1       6.091  27.456  59.428  1.00  0.00     0.180 A 
ATOM      2  C   UNL     1       5.639  26.806  60.593  1.00  0.00     0.208 A 
ATOM      3  C   UNL     1       6.547  26.032  61.332  1.00  0.00     0.238 A 
ATOM      4  O   UNL     1       6.152  25.436  62.371  1.00  0.00    -0.285 OA
ATOM      5  C   UNL     1       7.888  25.936  60.908  1.00  0.00     0.111 A 
ATOM      6  C   UNL     1       8.867  25.180  61.598  1.00  0.00     0.134 A 
ATOM      7  C   UNL     1      10.184  25.143  61.117  1.00  0.00     0.093 A 
ATOM      8  C   UNL     1      10.542  25.845  59.966  1.00  0.00     0.123 A 
ATOM      9  C   UNL     1       9.580  26.594  59.279  1.00  0.00     0.094 A 
ATOM     10  C   UNL     1       8.262  26.643  59.740  1.00  0.00     0.146 A 
ATOM     11  O   UNL     1       7.367  27.356  59.067  1.00  0.00    -0.452 OA
ENDROOT
BRANCH   1  12
ATOM     12  C   UNL     1       5.189  28.275  58.585  1.00  0.00     0.025 A 
ATOM     13  C   UNL     1       5.648  29.498  58.072  1.00  0.00     0.016 A 
ATOM     14  C   UNL     1       4.822  30.278  57.257  1.00  0.00     0.051 A 
ATOM     15  C   UNL     1       3.533  29.838  56.931  1.00  0.00     0.157 A 
ATOM     16  C   UNL     1       3.903  27.827  58.238  1.00  0.00     0.062 A 
ATOM     17  C   UNL     1       3.074  28.604  57.420  1.00  0.00     0.158 A 
BRANCH  15  18
ATOM     18  O   UNL     1       2.711  30.619  56.120  1.00  0.00    -0.504 OA
ATOM     19  H   UNL     1       1.964  31.183  56.507  1.00  0.00     0.293 HD
ENDBRANCH  15  18
BRANCH  17  20
ATOM     20  O   UNL     1       1.800  28.130  57.102  1.00  0.00    -0.504 OA
ATOM     21  H   UNL     1       1.649  27.195  56.745  1.00  0.00     0.293 HD
ENDBRANCH  17  20
ENDBRANCH   1  12
BRANCH   2  22
ATOM     22  O   UNL     1       4.317  26.957  61.018  1.00  0.00    -0.502 OA
ATOM     23  H   UNL     1       4.074  27.103  61.991  1.00  0.00     0.293 HD
ENDBRANCH   2  22
BRANCH   6  24
ATOM     24  O   UNL     1       8.541  24.469  62.754  1.00  0.00    -0.507 OA
ATOM     25  H   UNL     1       8.145  24.926  63.568  1.00  0.00     0.293 HD
ENDBRANCH   6  24
BRANCH   8  26
ATOM     26  O   UNL     1      11.858  25.793  59.509  1.00  0.00    -0.508 OA
ATOM     27  H   UNL     1      12.604  26.283  59.987  1.00  0.00     0.293 HD
ENDBRANCH   8  26
TORSDOF 6
ENDMDL
MODEL 2
REMARK VINA RESULT:    -6.355      1.249      6.655
REMARK INTER + INTRA:          -7.609
REMARK INTER:                  -7.456
REMARK INTRA:                  -0.152
REMARK UNBOUND:                 0.047
REMARK SMILES O=c1c(O)c(-c2ccc(O)c(O)c2)oc2cc(O)cc(O)c12
REMARK SMILES IDX 5 1 3 2 2 3 1 4 22 5 20 6 19 7 17 8 16 9 15 10 14 11 6 12
REMARK SMILES IDX 7 13 8 14 9 15 13 16 11 17 10 18 12 20 4 22 21 24 18 26
REMARK H PARENT 10 19 12 21 4 23 21 25 18 27
REMARK Flexibility Score: inf
ROOT
ATOM      1  C   UNL     1       7.231  26.883  59.989  1.00  0.00     0.180 A 
ATOM      2  C   UNL     1       6.231  26.113  60.614  1.00  0.00     0.208 A 
ATOM      3  C   UNL     1       4.885  26.394  60.334  1.00  0.00     0.238 A 
ATOM      4  O   UNL     1       3.979  25.718  60.896  1.00  0.00    -0.285 OA
ATOM      5  C   UNL     1       4.562  27.420  59.423  1.00  0.00     0.111 A 
ATOM      6  C   UNL     1       3.231  27.765  59.083  1.00  0.00     0.134 A 
ATOM      7  C   UNL     1       2.992  28.793  58.160  1.00  0.00     0.093 A 
ATOM      8  C   UNL     1       4.053  29.483  57.571  1.00  0.00     0.123 A 
ATOM      9  C   UNL     1       5.371  29.148  57.903  1.00  0.00     0.094 A 
ATOM     10  C   UNL     1       5.630  28.128  58.822  1.00  0.00     0.146 A 
ATOM     11  O   UNL     1       6.889  27.834  59.125  1.00  0.00    -0.452 OA
ENDROOT
BRANCH   1  12
ATOM     12  C   UNL     1       8.672  26.660  60.248  1.00  0.00     0.025 A 
ATOM     13  C   UNL     1       9.179  26.859  61.542  1.00  0.00     0.016 A 
ATOM     14  C   UNL     1      10.531  26.634  61.814  1.00  0.00     0.051 A 
ATOM     15  C   UNL     1      11.392  26.192  60.802  1.00  0.00     0.157 A 
ATOM     16  C   UNL     1       9.534  26.196  59.239  1.00  0.00     0.062 A 
ATOM     17  C   UNL     1      10.888  25.968  59.510  1.00  0.00     0.158 A 
BRANCH  15  18
ATOM     18  O   UNL     1      12.740  25.971  61.076  1.00  0.00    -0.504 OA
ATOM     19  H   UNL     1      13.370  26.733  61.294  1.00  0.00     0.293 HD
ENDBRANCH  15  18
BRANCH  17  20
ATOM     20  O   UNL     1      11.717  25.514  58.482  1.00  0.00    -0.504 OA
ATOM     21  H   UNL     1      12.727  25.573  58.541  1.00  0.00     0.293 HD
ENDBRANCH  17  20
ENDBRANCH   1  12
BRANCH   2  22
ATOM     22  O   UNL     1       6.579  25.069  61.475  1.00  0.00    -0.502 OA
ATOM     23  H   UNL     1       6.534  25.159  62.483  1.00  0.00     0.293 HD
ENDBRANCH   2  22
BRANCH   6  24
ATOM     24  O   UNL     1       2.148  27.093  59.653  1.00  0.00    -0.507 OA
ATOM     25  H   UNL     1       2.193  26.708  60.590  1.00  0.00     0.293 HD
ENDBRANCH   6  24
BRANCH   8  26
ATOM     26  O   UNL     1       3.789  30.500  56.657  1.00  0.00    -0.508 OA
ATOM     27  H   UNL     1       4.427  30.709  55.898  1.00  0.00     0.293 HD
ENDBRANCH   8  26
TORSDOF 6
ENDMDL
MODEL 3
REMARK VINA RESULT:    -5.925      1.499      3.289
REMARK INTER + INTRA:          -7.091
REMARK INTER:                  -7.268
REMARK INTRA:                   0.177
REMARK UNBOUND:                 0.047
REMARK SMILES O=c1c(O)c(-c2ccc(O)c(O)c2)oc2cc(O)cc(O)c12
REMARK SMILES IDX 5 1 3 2 2 3 1 4 22 5 20 6 19 7 17 8 16 9 15 10 14 11 6 12
REMARK SMILES IDX 7 13 8 14 9 15 13 16 11 17 10 18 12 20 4 22 21 24 18 26
REMARK H PARENT 10 19 12 21 4 23 21 25 18 27
REMARK Flexibility Score: inf
ROOT
ATOM      1  C   UNL     1       5.732  27.103  59.654  1.00  0.00     0.180 A 
ATOM      2  C   UNL     1       7.117  26.885  59.516  1.00  0.00     0.208 A 
ATOM      3  C   UNL     1       7.753  25.989  60.389  1.00  0.00     0.238 A 
ATOM      4  O   UNL     1       8.994  25.793  60.283  1.00  0.00    -0.285 OA
ATOM      5  C   UNL     1       6.995  25.312  61.367  1.00  0.00     0.111 A 
ATOM      6  C   UNL     1       7.557  24.390  62.283  1.00  0.00     0.134 A 
ATOM      7  C   UNL     1       6.734  23.751  63.221  1.00  0.00     0.093 A 
ATOM      8  C   UNL     1       5.363  24.012  63.261  1.00  0.00     0.123 A 
ATOM      9  C   UNL     1       4.801  24.923  62.360  1.00  0.00     0.094 A 
ATOM     10  C   UNL     1       5.604  25.572  61.418  1.00  0.00     0.146 A 
ATOM     11  O   UNL     1       5.048  26.436  60.578  1.00  0.00    -0.452 OA
ENDROOT
BRANCH   1  12
ATOM     12  C   UNL     1       4.995  28.047  58.784  1.00  0.00     0.025 A 
ATOM     13  C   UNL     1       5.597  29.260  58.416  1.00  0.00     0.016 A 
ATOM     14  C   UNL     1       4.928  30.157  57.579  1.00  0.00     0.051 A 
ATOM     15  C   UNL     1       3.655  29.847  57.084  1.00  0.00     0.157 A 
ATOM     16  C   UNL     1       3.726  27.730  58.269  1.00  0.00     0.062 A 
ATOM     17  C   UNL     1       3.054  28.625  57.428  1.00  0.00     0.158 A 
BRANCH  15  18
ATOM     18  O   UNL     1       2.990  30.745  56.251  1.00  0.00    -0.504 OA
ATOM     19  H   UNL     1       1.990  30.687  56.100  1.00  0.00     0.293 HD
ENDBRANCH  15  18
BRANCH  17  20
ATOM     20  O   UNL     1       1.793  28.279  56.940  1.00  0.00    -0.504 OA
ATOM     21  H   UNL     1       0.970  28.276  57.532  1.00  0.00     0.293 HD
ENDBRANCH  17  20
ENDBRANCH   1  12
BRANCH   2  22
ATOM     22  O   UNL     1       7.836  27.530  58.507  1.00  0.00    -0.502 OA
ATOM     23  H   UNL     1       8.849  27.563  58.499  1.00  0.00     0.293 HD
ENDBRANCH   2  22
BRANCH   6  24
ATOM     24  O   UNL     1       8.923  24.105  62.266  1.00  0.00    -0.507 OA
ATOM     25  H   UNL     1       9.545  24.516  61.578  1.00  0.00     0.293 HD
ENDBRANCH   6  24
BRANCH   8  26
ATOM     26  O   UNL     1       4.567  23.363  64.202  1.00  0.00    -0.508 OA
ATOM     27  H   UNL     1       3.631  23.686  64.417  1.00  0.00     0.293 HD
ENDBRANCH   8  26
TORSDOF 6
ENDMDL
MODEL 4
REMARK VINA RESULT:    -5.642      1.424      2.213
REMARK INTER + INTRA:          -6.750
REMARK INTER:                  -6.594
REMARK INTRA:                  -0.156
REMARK UNBOUND:                 0.047
REMARK SMILES O=c1c(O)c(-c2ccc(O)c(O)c2)oc2cc(O)cc(O)c12
REMARK SMILES IDX 5 1 3 2 2 3 1 4 22 5 20 6 19 7 17 8 16 9 15 10 14 11 6 12
REMARK SMILES IDX 7 13 8 14 9 15 13 16 11 17 10 18 12 20 4 22 21 24 18 26
REMARK H PARENT 10 19 12 21 4 23 21 25 18 27
REMARK Flexibility Score: inf
ROOT
ATOM      1  C   UNL     1       7.220  26.964  60.084  1.00  0.00     0.180 A 
ATOM      2  C   UNL     1       7.279  26.973  61.491  1.00  0.00     0.208 A 
ATOM      3  C   UNL     1       8.463  26.561  62.122  1.00  0.00     0.238 A 
ATOM      4  O   UNL     1       8.525  26.553  63.382  1.00  0.00    -0.285 OA
ATOM      5  C   UNL     1       9.569  26.169  61.341  1.00  0.00     0.111 A 
ATOM      6  C   UNL     1      10.800  25.745  61.897  1.00  0.00     0.134 A 
ATOM      7  C   UNL     1      11.858  25.379  61.052  1.00  0.00     0.093 A 
ATOM      8  C   UNL     1      11.711  25.431  59.665  1.00  0.00     0.123 A 
ATOM      9  C   UNL     1      10.498  25.849  59.108  1.00  0.00     0.094 A 
ATOM     10  C   UNL     1       9.431  26.215  59.933  1.00  0.00     0.146 A 
ATOM     11  O   UNL     1       8.288  26.603  59.379  1.00  0.00    -0.452 OA
ENDROOT
BRANCH   1  12
ATOM     12  C   UNL     1       6.000  27.367  59.346  1.00  0.00     0.025 A 
ATOM     13  C   UNL     1       4.824  26.615  59.495  1.00  0.00     0.016 A 
ATOM     14  C   UNL     1       3.656  26.988  58.825  1.00  0.00     0.051 A 
ATOM     15  C   UNL     1       3.642  28.126  58.010  1.00  0.00     0.157 A 
ATOM     16  C   UNL     1       5.977  28.521  58.543  1.00  0.00     0.062 A 
ATOM     17  C   UNL     1       4.807  28.898  57.873  1.00  0.00     0.158 A 
BRANCH  15  18
ATOM     18  O   UNL     1       2.476  28.495  57.341  1.00  0.00    -0.504 OA
ATOM     19  H   UNL     1       2.305  29.452  57.061  1.00  0.00     0.293 HD
ENDBRANCH  15  18
BRANCH  17  20
ATOM     20  O   UNL     1       4.823  30.046  57.079  1.00  0.00    -0.504 OA
ATOM     21  H   UNL     1       4.289  30.873  57.320  1.00  0.00     0.293 HD
ENDBRANCH  17  20
ENDBRANCH   1  12
BRANCH   2  22
ATOM     22  O   UNL     1       6.185  27.412  62.241  1.00  0.00    -0.502 OA
ATOM     23  H   UNL     1       5.245  27.069  62.082  1.00  0.00     0.293 HD
ENDBRANCH   2  22
BRANCH   6  24
ATOM     24  O   UNL     1      10.979  25.684  63.280  1.00  0.00    -0.507 OA
ATOM     25  H   UNL     1      11.847  25.971  63.719  1.00  0.00     0.293 HD
ENDBRANCH   6  24
BRANCH   8  26
ATOM     26  O   UNL     1      12.777  25.064  58.846  1.00  0.00    -0.508 OA
ATOM     27  H   UNL     1      13.655  25.570  58.861  1.00  0.00     0.293 HD
ENDBRANCH   8  26
TORSDOF 6
ENDMDL
MODEL 5
REMARK VINA RESULT:    -5.517      2.440      3.197
REMARK INTER + INTRA:          -6.599
REMARK INTER:                  -6.312
REMARK INTRA:                  -0.288
REMARK UNBOUND:                 0.047
REMARK SMILES O=c1c(O)c(-c2ccc(O)c(O)c2)oc2cc(O)cc(O)c12
REMARK SMILES IDX 5 1 3 2 2 3 1 4 22 5 20 6 19 7 17 8 16 9 15 10 14 11 6 12
REMARK SMILES IDX 7 13 8 14 9 15 13 16 11 17 10 18 12 20 4 22 21 24 18 26
REMARK H PARENT 10 19 12 21 4 23 21 25 18 27
REMARK Flexibility Score: inf
ROOT
ATOM      1  C   UNL     1       4.343  26.936  60.782  1.00  0.00     0.180 A 
ATOM      2  C   UNL     1       3.466  26.857  61.881  1.00  0.00     0.208 A 
ATOM      3  C   UNL     1       3.699  25.884  62.866  1.00  0.00     0.238 A 
ATOM      4  O   UNL     1       2.914  25.796  63.850  1.00  0.00    -0.285 OA
ATOM      5  C   UNL     1       4.810  25.025  62.748  1.00  0.00     0.111 A 
ATOM      6  C   UNL     1       5.119  24.021  63.698  1.00  0.00     0.134 A 
ATOM      7  C   UNL     1       6.249  23.211  63.513  1.00  0.00     0.093 A 
ATOM      8  C   UNL     1       7.076  23.385  62.402  1.00  0.00     0.123 A 
ATOM      9  C   UNL     1       6.776  24.375  61.459  1.00  0.00     0.094 A 
ATOM     10  C   UNL     1       5.654  25.191  61.623  1.00  0.00     0.146 A 
ATOM     11  O   UNL     1       5.389  26.118  60.712  1.00  0.00    -0.452 OA
ENDROOT
BRANCH   1  12
ATOM     12  C   UNL     1       4.152  27.922  59.694  1.00  0.00     0.025 A 
ATOM     13  C   UNL     1       5.006  29.033  59.612  1.00  0.00     0.016 A 
ATOM     14  C   UNL     1       4.858  29.965  58.582  1.00  0.00     0.051 A 
ATOM     15  C   UNL     1       3.865  29.792  57.609  1.00  0.00     0.157 A 
ATOM     16  C   UNL     1       3.170  27.740  58.704  1.00  0.00     0.062 A 
ATOM     17  C   UNL     1       3.021  28.670  57.669  1.00  0.00     0.158 A 
BRANCH  15  18
ATOM     18  O   UNL     1       3.719  30.724  56.583  1.00  0.00    -0.504 OA
ATOM     19  H   UNL     1       2.832  31.176  56.400  1.00  0.00     0.293 HD
ENDBRANCH  15  18
BRANCH  17  20
ATOM     20  O   UNL     1       2.032  28.460  56.707  1.00  0.00    -0.504 OA
ATOM     21  H   UNL     1       2.095  27.715  56.024  1.00  0.00     0.293 HD
ENDBRANCH  17  20
ENDBRANCH   1  12
BRANCH   2  22
ATOM     22  O   UNL     1       2.400  27.753  62.000  1.00  0.00    -0.502 OA
ATOM     23  H   UNL     1       2.514  28.682  62.387  1.00  0.00     0.293 HD
ENDBRANCH   2  22
BRANCH   6  24
ATOM     24  O   UNL     1       4.313  23.824  64.820  1.00  0.00    -0.507 OA
ATOM     25  H   UNL     1       4.306  22.943  65.323  1.00  0.00     0.293 HD
ENDBRANCH   6  24
BRANCH   8  26
ATOM     26  O   UNL     1       8.193  22.569  62.242  1.00  0.00    -0.508 OA
ATOM     27  H   UNL     1       8.314  21.992  61.418  1.00  0.00     0.293 HD
ENDBRANCH   8  26
TORSDOF 6
ENDMDL
MODEL 6
REMARK VINA RESULT:    -5.492      5.192      6.948
REMARK INTER + INTRA:          -6.569
REMARK INTER:                  -6.280
REMARK INTRA:                  -0.289
REMARK UNBOUND:                 0.047
REMARK SMILES O=c1c(O)c(-c2ccc(O)c(O)c2)oc2cc(O)cc(O)c12
REMARK SMILES IDX 5 1 3 2 2 3 1 4 22 5 20 6 19 7 17 8 16 9 15 10 14 11 6 12
REMARK SMILES IDX 7 13 8 14 9 15 13 16 11 17 10 18 12 20 4 22 21 24 18 26
REMARK H PARENT 10 19 12 21 4 23 21 25 18 27
REMARK Flexibility Score: inf
ROOT
ATOM      1  C   UNL     1       5.189  31.520  62.158  1.00  0.00     0.180 A 
ATOM      2  C   UNL     1       5.381  30.493  63.103  1.00  0.00     0.208 A 
ATOM      3  C   UNL     1       4.951  29.194  62.789  1.00  0.00     0.238 A 
ATOM      4  O   UNL     1       5.108  28.268  63.631  1.00  0.00    -0.285 OA
ATOM      5  C   UNL     1       4.359  28.940  61.535  1.00  0.00     0.111 A 
ATOM      6  C   UNL     1       3.902  27.659  61.139  1.00  0.00     0.134 A 
ATOM      7  C   UNL     1       3.331  27.485  59.870  1.00  0.00     0.093 A 
ATOM      8  C   UNL     1       3.208  28.562  58.991  1.00  0.00     0.123 A 
ATOM      9  C   UNL     1       3.657  29.830  59.376  1.00  0.00     0.094 A 
ATOM     10  C   UNL     1       4.227  30.025  60.637  1.00  0.00     0.146 A 
ATOM     11  O   UNL     1       4.640  31.239  60.980  1.00  0.00    -0.452 OA
ENDROOT
BRANCH   1  12
ATOM     12  C   UNL     1       5.598  32.918  62.423  1.00  0.00     0.025 A 
ATOM     13  C   UNL     1       4.795  33.729  63.240  1.00  0.00     0.016 A 
ATOM     14  C   UNL     1       5.172  35.045  63.520  1.00  0.00     0.051 A 
ATOM     15  C   UNL     1       6.365  35.564  63.002  1.00  0.00     0.157 A 
ATOM     16  C   UNL     1       6.806  33.436  61.921  1.00  0.00     0.062 A 
ATOM     17  C   UNL     1       7.187  34.752  62.203  1.00  0.00     0.158 A 
BRANCH  15  18
ATOM     18  O   UNL     1       6.737  36.877  63.282  1.00  0.00    -0.504 OA
ATOM     19  H   UNL     1       6.829  37.212  64.234  1.00  0.00     0.293 HD
ENDBRANCH  15  18
BRANCH  17  20
ATOM     20  O   UNL     1       8.389  35.235  61.683  1.00  0.00    -0.504 OA
ATOM     21  H   UNL     1       8.945  35.929  62.169  1.00  0.00     0.293 HD
ENDBRANCH  17  20
ENDBRANCH   1  12
BRANCH   2  22
ATOM     22  O   UNL     1       6.017  30.761  64.318  1.00  0.00    -0.502 OA
ATOM     23  H   UNL     1       5.501  30.914  65.177  1.00  0.00     0.293 HD
ENDBRANCH   2  22
BRANCH   6  24
ATOM     24  O   UNL     1       4.012  26.562  61.995  1.00  0.00    -0.507 OA
ATOM     25  H   UNL     1       4.201  26.675  62.985  1.00  0.00     0.293 HD
ENDBRANCH   6  24
BRANCH   8  26
ATOM     26  O   UNL     1       2.638  28.363  57.735  1.00  0.00    -0.508 OA
ATOM     27  H   UNL     1       2.641  29.091  57.031  1.00  0.00     0.293 HD
ENDBRANCH   8  26
TORSDOF 6
ENDMDL
MODEL 7
REMARK VINA RESULT:    -5.439      1.366      1.750
REMARK INTER + INTRA:          -6.506
REMARK INTER:                  -6.183
REMARK INTRA:                  -0.323
REMARK UNBOUND:                 0.047
REMARK SMILES O=c1c(O)c(-c2ccc(O)c(O)c2)oc2cc(O)cc(O)c12
REMARK SMILES IDX 5 1 3 2 2 3 1 4 22 5 20 6 19 7 17 8 16 9 15 10 14 11 6 12
REMARK SMILES IDX 7 13 8 14 9 15 13 16 11 17 10 18 12 20 4 22 21 24 18 26
REMARK H PARENT 10 19 12 21 4 23 21 25 18 27
REMARK Flexibility Score: inf
ROOT
ATOM      1  C   UNL     1       6.577  26.676  60.162  1.00  0.00     0.180 A 
ATOM      2  C   UNL     1       6.172  25.763  61.155  1.00  0.00     0.208 A 
ATOM      3  C   UNL     1       7.148  24.990  61.804  1.00  0.00     0.238 A 
ATOM      4  O   UNL     1       6.797  24.161  62.688  1.00  0.00    -0.285 OA
ATOM      5  C   UNL     1       8.507  25.157  61.466  1.00  0.00     0.111 A 
ATOM      6  C   UNL     1       9.553  24.421  62.075  1.00  0.00     0.134 A 
ATOM      7  C   UNL     1      10.882  24.651  61.689  1.00  0.00     0.093 A 
ATOM      8  C   UNL     1      11.186  25.600  60.712  1.00  0.00     0.123 A 
ATOM      9  C   UNL     1      10.157  26.330  60.106  1.00  0.00     0.094 A 
ATOM     10  C   UNL     1       8.826  26.115  60.474  1.00  0.00     0.146 A 
ATOM     11  O   UNL     1       7.869  26.816  59.880  1.00  0.00    -0.452 OA
ENDROOT
BRANCH   1  12
ATOM     12  C   UNL     1       5.605  27.512  59.420  1.00  0.00     0.025 A 
ATOM     13  C   UNL     1       5.048  27.027  58.227  1.00  0.00     0.016 A 
ATOM     14  C   UNL     1       4.114  27.789  57.521  1.00  0.00     0.051 A 
ATOM     15  C   UNL     1       3.711  29.040  58.006  1.00  0.00     0.157 A 
ATOM     16  C   UNL     1       5.183  28.758  59.915  1.00  0.00     0.062 A 
ATOM     17  C   UNL     1       4.246  29.523  59.212  1.00  0.00     0.158 A 
BRANCH  15  18
ATOM     18  O   UNL     1       2.780  29.799  57.299  1.00  0.00    -0.504 OA
ATOM     19  H   UNL     1       2.356  29.458  56.445  1.00  0.00     0.293 HD
ENDBRANCH  15  18
BRANCH  17  20
ATOM     20  O   UNL     1       3.854  30.759  59.730  1.00  0.00    -0.504 OA
ATOM     21  H   UNL     1       4.048  31.026  60.688  1.00  0.00     0.293 HD
ENDBRANCH  17  20
ENDBRANCH   1  12
BRANCH   2  22
ATOM     22  O   UNL     1       4.824  25.653  61.506  1.00  0.00    -0.502 OA
ATOM     23  H   UNL     1       4.388  26.271  62.180  1.00  0.00     0.293 HD
ENDBRANCH   2  22
BRANCH   6  24
ATOM     24  O   UNL     1       9.282  23.466  63.056  1.00  0.00    -0.507 OA
ATOM     25  H   UNL     1       8.377  23.014  63.124  1.00  0.00     0.293 HD
ENDBRANCH   6  24
BRANCH   8  26
ATOM     26  O   UNL     1      12.514  25.811  60.348  1.00  0.00    -0.508 OA
ATOM     27  H   UNL     1      12.868  26.739  60.151  1.00  0.00     0.293 HD
ENDBRANCH   8  26
TORSDOF 6
ENDMDL
MODEL 8
REMARK VINA RESULT:    -5.420      2.068      3.678
REMARK INTER + INTRA:          -6.482
REMARK INTER:                  -6.155
REMARK INTRA:                  -0.328
REMARK UNBOUND:                 0.047
REMARK SMILES O=c1c(O)c(-c2ccc(O)c(O)c2)oc2cc(O)cc(O)c12
REMARK SMILES IDX 5 1 3 2 2 3 1 4 22 5 20 6 19 7 17 8 16 9 15 10 14 11 6 12
REMARK SMILES IDX 7 13 8 14 9 15 13 16 11 17 10 18 12 20 4 22 21 24 18 26
REMARK H PARENT 10 19 12 21 4 23 21 25 18 27
REMARK Flexibility Score: inf
ROOT
ATOM      1  C   UNL     1       6.399  26.470  60.363  1.00  0.00     0.180 A 
ATOM      2  C   UNL     1       7.798  26.394  60.223  1.00  0.00     0.208 A 
ATOM      3  C   UNL     1       8.512  25.493  61.028  1.00  0.00     0.238 A 
ATOM      4  O   UNL     1       9.767  25.424  60.921  1.00  0.00    -0.285 OA
ATOM      5  C   UNL     1       7.817  24.671  61.939  1.00  0.00     0.111 A 
ATOM      6  C   UNL     1       8.460  23.734  62.784  1.00  0.00     0.134 A 
ATOM      7  C   UNL     1       7.697  22.946  63.658  1.00  0.00     0.093 A 
ATOM      8  C   UNL     1       6.308  23.074  63.704  1.00  0.00     0.123 A 
ATOM      9  C   UNL     1       5.666  23.999  62.873  1.00  0.00     0.094 A 
ATOM     10  C   UNL     1       6.408  24.795  61.996  1.00  0.00     0.146 A 
ATOM     11  O   UNL     1       5.776  25.669  61.222  1.00  0.00    -0.452 OA
ENDROOT
BRANCH   1  12
ATOM     12  C   UNL     1       5.579  27.409  59.563  1.00  0.00     0.025 A 
ATOM     13  C   UNL     1       5.072  26.997  58.321  1.00  0.00     0.016 A 
ATOM     14  C   UNL     1       4.279  27.859  57.559  1.00  0.00     0.051 A 
ATOM     15  C   UNL     1       3.967  29.138  58.035  1.00  0.00     0.157 A 
ATOM     16  C   UNL     1       5.246  28.686  60.048  1.00  0.00     0.062 A 
ATOM     17  C   UNL     1       4.450  29.551  59.288  1.00  0.00     0.158 A 
BRANCH  15  18
ATOM     18  O   UNL     1       3.177  29.996  57.272  1.00  0.00    -0.504 OA
ATOM     19  H   UNL     1       2.975  30.941  57.575  1.00  0.00     0.293 HD
ENDBRANCH  15  18
BRANCH  17  20
ATOM     20  O   UNL     1       4.145  30.814  59.798  1.00  0.00    -0.504 OA
ATOM     21  H   UNL     1       4.740  31.278  60.474  1.00  0.00     0.293 HD
ENDBRANCH  17  20
ENDBRANCH   1  12
BRANCH   2  22
ATOM     22  O   UNL     1       8.457  27.184  59.278  1.00  0.00    -0.502 OA
ATOM     23  H   UNL     1       8.134  28.110  59.025  1.00  0.00     0.293 HD
ENDBRANCH   2  22
BRANCH   6  24
ATOM     24  O   UNL     1       9.847  23.580  62.760  1.00  0.00    -0.507 OA
ATOM     25  H   UNL     1      10.419  24.012  62.043  1.00  0.00     0.293 HD
ENDBRANCH   6  24
BRANCH   8  26
ATOM     26  O   UNL     1       5.572  22.279  64.580  1.00  0.00    -0.508 OA
ATOM     27  H   UNL     1       5.197  22.651  65.444  1.00  0.00     0.293 HD
ENDBRANCH   8  26
TORSDOF 6
ENDMDL
MODEL 9
REMARK VINA RESULT:    -5.221      2.349      6.849
REMARK INTER + INTRA:          -6.242
REMARK INTER:                  -6.297
REMARK INTRA:                   0.055
REMARK UNBOUND:                 0.047
REMARK SMILES O=c1c(O)c(-c2ccc(O)c(O)c2)oc2cc(O)cc(O)c12
REMARK SMILES IDX 5 1 3 2 2 3 1 4 22 5 20 6 19 7 17 8 16 9 15 10 14 11 6 12
REMARK SMILES IDX 7 13 8 14 9 15 13 16 11 17 10 18 12 20 4 22 21 24 18 26
REMARK H PARENT 10 19 12 21 4 23 21 25 18 27
REMARK Flexibility Score: inf
ROOT
ATOM      1  C   UNL     1       6.012  25.952  61.416  1.00  0.00     0.180 A 
ATOM      2  C   UNL     1       4.770  26.169  62.044  1.00  0.00     0.208 A 
ATOM      3  C   UNL     1       3.918  27.163  61.538  1.00  0.00     0.238 A 
ATOM      4  O   UNL     1       2.808  27.374  62.098  1.00  0.00    -0.285 OA
ATOM      5  C   UNL     1       4.310  27.905  60.405  1.00  0.00     0.111 A 
ATOM      6  C   UNL     1       3.509  28.921  59.829  1.00  0.00     0.134 A 
ATOM      7  C   UNL     1       3.966  29.609  58.696  1.00  0.00     0.093 A 
ATOM      8  C   UNL     1       5.203  29.303  58.126  1.00  0.00     0.123 A 
ATOM      9  C   UNL     1       6.000  28.301  58.691  1.00  0.00     0.094 A 
ATOM     10  C   UNL     1       5.564  27.604  59.822  1.00  0.00     0.146 A 
ATOM     11  O   UNL     1       6.341  26.662  60.341  1.00  0.00    -0.452 OA
ENDROOT
BRANCH   1  12
ATOM     12  C   UNL     1       6.973  24.936  61.904  1.00  0.00     0.025 A 
ATOM     13  C   UNL     1       8.313  25.298  62.111  1.00  0.00     0.016 A 
ATOM     14  C   UNL     1       9.233  24.361  62.590  1.00  0.00     0.051 A 
ATOM     15  C   UNL     1       8.822  23.054  62.884  1.00  0.00     0.157 A 
ATOM     16  C   UNL     1       6.560  23.630  62.220  1.00  0.00     0.062 A 
ATOM     17  C   UNL     1       7.478  22.690  62.703  1.00  0.00     0.158 A 
BRANCH  15  18
ATOM     18  O   UNL     1       9.742  22.122  63.361  1.00  0.00    -0.504 OA
ATOM     19  H   UNL     1      10.377  22.342  64.118  1.00  0.00     0.293 HD
ENDBRANCH  15  18
BRANCH  17  20
ATOM     20  O   UNL     1       7.034  21.401  63.000  1.00  0.00    -0.504 OA
ATOM     21  H   UNL     1       7.183  20.622  62.369  1.00  0.00     0.293 HD
ENDBRANCH  17  20
ENDBRANCH   1  12
BRANCH   2  22
ATOM     22  O   UNL     1       4.384  25.386  63.135  1.00  0.00    -0.502 OA
ATOM     23  H   UNL     1       3.495  24.902  63.167  1.00  0.00     0.293 HD
ENDBRANCH   2  22
BRANCH   6  24
ATOM     24  O   UNL     1       2.267  29.250  60.373  1.00  0.00    -0.507 OA
ATOM     25  H   UNL     1       2.141  30.069  60.958  1.00  0.00     0.293 HD
ENDBRANCH   6  24
BRANCH   8  26
ATOM     26  O   UNL     1       5.634  30.000  57.000  1.00  0.00    -0.508 OA
ATOM     27  H   UNL     1       4.978  30.450  56.373  1.00  0.00     0.293 HD
ENDBRANCH   8  26
TORSDOF 6
ENDMDL
