MODEL 1
REMARK VINA RESULT:    -4.331      0.000      0.000
REMARK INTER + INTRA:          -4.738
REMARK INTER:                  -4.711
REMARK INTRA:                  -0.027
REMARK UNBOUND:                -0.027
REMARK SMILES CC1(C)[C@@H]2CC=C(CO)[C@H]1C2
REMARK SMILES IDX 8 1 7 2 1 3 2 4 4 5 3 6 10 7 5 8 11 9 6 10 9 11
REMARK H PARENT 9 12
REMARK Flexibility Score: inf
ROOT
ATOM      1  C   UNL     1      33.993  23.312  30.552  1.00  0.00     0.187 C 
ENDROOT
BRANCH   1   2
ATOM      2  C   UNL     1      33.070  22.959  31.685  1.00  0.00    -0.045 C 
ATOM      3  C   UNL     1      32.273  24.825  35.016  1.00  0.00     0.012 C 
ATOM      4  C   UNL     1      32.598  23.649  34.061  1.00  0.00    -0.026 C 
ATOM      5  C   UNL     1      31.373  22.720  33.836  1.00  0.00    -0.000 C 
ATOM      6  C   UNL     1      33.942  23.012  34.512  1.00  0.00     0.012 C 
ATOM      7  C   UNL     1      32.430  24.039  32.568  1.00  0.00     0.023 C 
ATOM      8  C   UNL     1      31.823  21.375  33.169  1.00  0.00     0.031 C 
ATOM      9  C   UNL     1      30.945  23.640  32.673  1.00  0.00     0.013 C 
ATOM     10  C   UNL     1      32.751  21.662  31.971  1.00  0.00    -0.025 C 
ENDBRANCH   1   2
BRANCH   1  11
ATOM     11  O   UNL     1      35.055  22.401  30.487  1.00  0.00    -0.392 OA
ATOM     12  H   UNL     1      34.703  21.590  30.033  1.00  0.00     0.211 HD
ENDBRANCH   1  11
TORSDOF 2
ENDMDL
MODEL 2
REMARK VINA RESULT:    -4.306      1.158      2.399
REMARK INTER + INTRA:          -4.711
REMARK INTER:                  -4.649
REMARK INTRA:                  -0.063
REMARK UNBOUND:                -0.027
REMARK SMILES CC1(C)[C@@H]2CC=C(CO)[C@H]1C2
REMARK SMILES IDX 8 1 7 2 1 3 2 4 4 5 3 6 10 7 5 8 11 9 6 10 9 11
REMARK H PARENT 9 12
REMARK Flexibility Score: inf
ROOT
ATOM      1  C   UNL     1      33.923  22.811  31.055  1.00  0.00     0.187 C 
ENDROOT
BRANCH   1   2
ATOM      2  C   UNL     1      32.972  23.379  32.071  1.00  0.00    -0.045 C 
ATOM      3  C   UNL     1      31.428  21.813  35.293  1.00  0.00     0.012 C 
ATOM      4  C   UNL     1      31.501  22.607  33.964  1.00  0.00    -0.026 C 
ATOM      5  C   UNL     1      31.395  24.141  34.192  1.00  0.00    -0.000 C 
ATOM      6  C   UNL     1      30.539  21.939  32.943  1.00  0.00     0.012 C 
ATOM      7  C   UNL     1      32.962  22.890  33.527  1.00  0.00     0.023 C 
ATOM      8  C   UNL     1      31.116  24.876  32.836  1.00  0.00     0.031 C 
ATOM      9  C   UNL     1      32.926  24.174  34.379  1.00  0.00     0.013 C 
ATOM     10  C   UNL     1      32.083  24.364  31.749  1.00  0.00    -0.025 C 
ENDBRANCH   1   2
BRANCH   1  11
ATOM     11  O   UNL     1      33.925  21.411  31.120  1.00  0.00    -0.392 OA
ATOM     12  H   UNL     1      34.869  21.125  31.005  1.00  0.00     0.211 HD
ENDBRANCH   1  11
TORSDOF 2
ENDMDL
MODEL 3
REMARK VINA RESULT:    -4.295      1.448      3.182
REMARK INTER + INTRA:          -4.699
REMARK INTER:                  -4.660
REMARK INTRA:                  -0.040
REMARK UNBOUND:                -0.027
REMARK SMILES CC1(C)[C@@H]2CC=C(CO)[C@H]1C2
REMARK SMILES IDX 8 1 7 2 1 3 2 4 4 5 3 6 10 7 5 8 11 9 6 10 9 11
REMARK H PARENT 9 12
REMARK Flexibility Score: inf
ROOT
ATOM      1  C   UNL     1      33.805  23.091  30.982  1.00  0.00     0.187 C 
ENDROOT
BRANCH   1   2
ATOM      2  C   UNL     1      33.366  22.278  32.168  1.00  0.00    -0.045 C 
ATOM      3  C   UNL     1      30.781  19.372  32.467  1.00  0.00     0.012 C 
ATOM      4  C   UNL     1      31.535  20.677  32.825  1.00  0.00    -0.026 C 
ATOM      5  C   UNL     1      32.461  20.500  34.061  1.00  0.00    -0.000 C 
ATOM      6  C   UNL     1      30.513  21.848  32.823  1.00  0.00     0.012 C 
ATOM      7  C   UNL     1      32.847  20.841  32.012  1.00  0.00     0.023 C 
ATOM      8  C   UNL     1      32.922  21.897  34.602  1.00  0.00     0.031 C 
ATOM      9  C   UNL     1      33.576  20.033  33.103  1.00  0.00     0.013 C 
ATOM     10  C   UNL     1      33.420  22.777  33.438  1.00  0.00    -0.025 C 
ENDBRANCH   1   2
BRANCH   1  11
ATOM     11  O   UNL     1      34.862  22.453  30.320  1.00  0.00    -0.392 OA
ATOM     12  H   UNL     1      35.445  23.173  29.960  1.00  0.00     0.211 HD
ENDBRANCH   1  11
TORSDOF 2
ENDMDL
MODEL 4
REMARK VINA RESULT:    -4.198      1.517      2.796
REMARK INTER + INTRA:          -4.593
REMARK INTER:                  -4.571
REMARK INTRA:                  -0.023
REMARK UNBOUND:                -0.027
REMARK SMILES CC1(C)[C@@H]2CC=C(CO)[C@H]1C2
REMARK SMILES IDX 8 1 7 2 1 3 2 4 4 5 3 6 10 7 5 8 11 9 6 10 9 11
REMARK H PARENT 9 12
REMARK Flexibility Score: inf
ROOT
ATOM      1  C   UNL     1      34.801  21.072  34.223  1.00  0.00     0.187 C 
ENDROOT
BRANCH   1   2
ATOM      2  C   UNL     1      33.854  22.021  33.543  1.00  0.00    -0.045 C 
ATOM      3  C   UNL     1      30.109  22.849  34.253  1.00  0.00     0.012 C 
ATOM      4  C   UNL     1      31.388  22.525  33.441  1.00  0.00    -0.026 C 
ATOM      5  C   UNL     1      31.915  23.761  32.660  1.00  0.00    -0.000 C 
ATOM      6  C   UNL     1      31.150  21.200  32.664  1.00  0.00     0.012 C 
ATOM      7  C   UNL     1      32.677  22.660  34.295  1.00  0.00     0.023 C 
ATOM      8  C   UNL     1      32.974  23.320  31.592  1.00  0.00     0.031 C 
ATOM      9  C   UNL     1      32.724  24.153  33.914  1.00  0.00     0.013 C 
ATOM     10  C   UNL     1      34.004  22.366  32.230  1.00  0.00    -0.025 C 
ENDBRANCH   1   2
BRANCH   1  11
ATOM     11  O   UNL     1      36.088  21.199  33.683  1.00  0.00    -0.392 OA
ATOM     12  H   UNL     1      36.533  20.320  33.805  1.00  0.00     0.211 HD
ENDBRANCH   1  11
TORSDOF 2
ENDMDL
MODEL 5
REMARK VINA RESULT:    -4.076      1.608      2.266
REMARK INTER + INTRA:          -4.461
REMARK INTER:                  -4.418
REMARK INTRA:                  -0.043
REMARK UNBOUND:                -0.027
REMARK SMILES CC1(C)[C@@H]2CC=C(CO)[C@H]1C2
REMARK SMILES IDX 8 1 7 2 1 3 2 4 4 5 3 6 10 7 5 8 11 9 6 10 9 11
REMARK H PARENT 9 12
REMARK Flexibility Score: inf
ROOT
ATOM      1  C   UNL     1      34.643  20.508  33.960  1.00  0.00     0.187 C 
ENDROOT
BRANCH   1   2
ATOM      2  C   UNL     1      33.471  21.333  33.508  1.00  0.00    -0.045 C 
ATOM      3  C   UNL     1      32.437  24.997  34.357  1.00  0.00     0.012 C 
ATOM      4  C   UNL     1      32.288  23.476  34.105  1.00  0.00    -0.026 C 
ATOM      5  C   UNL     1      31.564  23.171  32.764  1.00  0.00    -0.000 C 
ATOM      6  C   UNL     1      31.752  22.816  35.407  1.00  0.00     0.012 C 
ATOM      7  C   UNL     1      33.545  22.865  33.431  1.00  0.00     0.023 C 
ATOM      8  C   UNL     1      31.120  21.669  32.713  1.00  0.00     0.031 C 
ATOM      9  C   UNL     1      32.937  23.225  32.062  1.00  0.00     0.013 C 
ATOM     10  C   UNL     1      32.290  20.757  33.135  1.00  0.00    -0.025 C 
ENDBRANCH   1   2
BRANCH   1  11
ATOM     11  O   UNL     1      35.843  21.108  33.559  1.00  0.00    -0.392 OA
ATOM     12  H   UNL     1      35.816  22.044  33.891  1.00  0.00     0.211 HD
ENDBRANCH   1  11
TORSDOF 2
ENDMDL
MODEL 6
REMARK VINA RESULT:    -3.954      2.278      3.214
REMARK INTER + INTRA:          -4.328
REMARK INTER:                  -4.273
REMARK INTRA:                  -0.055
REMARK UNBOUND:                -0.027
REMARK SMILES CC1(C)[C@@H]2CC=C(CO)[C@H]1C2
REMARK SMILES IDX 8 1 7 2 1 3 2 4 4 5 3 6 10 7 5 8 11 9 6 10 9 11
REMARK H PARENT 9 12
REMARK Flexibility Score: inf
ROOT
ATOM      1  C   UNL     1      30.039  20.904  32.677  1.00  0.00     0.187 C 
ENDROOT
BRANCH   1   2
ATOM      2  C   UNL     1      31.382  21.528  32.937  1.00  0.00    -0.045 C 
ATOM      3  C   UNL     1      32.346  25.034  34.351  1.00  0.00     0.012 C 
ATOM      4  C   UNL     1      32.384  23.785  33.433  1.00  0.00    -0.026 C 
ATOM      5  C   UNL     1      33.639  22.907  33.691  1.00  0.00    -0.000 C 
ATOM      6  C   UNL     1      32.079  24.240  31.979  1.00  0.00     0.012 C 
ATOM      7  C   UNL     1      31.575  22.598  34.021  1.00  0.00     0.023 C 
ATOM      8  C   UNL     1      33.828  21.871  32.529  1.00  0.00     0.031 C 
ATOM      9  C   UNL     1      32.843  22.167  34.785  1.00  0.00     0.013 C 
ATOM     10  C   UNL     1      32.491  21.164  32.229  1.00  0.00    -0.025 C 
ENDBRANCH   1   2
BRANCH   1  11
ATOM     11  O   UNL     1      29.014  21.779  33.058  1.00  0.00    -0.392 OA
ATOM     12  H   UNL     1      29.081  21.879  34.044  1.00  0.00     0.211 HD
ENDBRANCH   1  11
TORSDOF 2
ENDMDL
MODEL 7
REMARK VINA RESULT:    -3.923      2.384      3.607
REMARK INTER + INTRA:          -4.295
REMARK INTER:                  -4.272
REMARK INTRA:                  -0.023
REMARK UNBOUND:                -0.027
REMARK SMILES CC1(C)[C@@H]2CC=C(CO)[C@H]1C2
REMARK SMILES IDX 8 1 7 2 1 3 2 4 4 5 3 6 10 7 5 8 11 9 6 10 9 11
REMARK H PARENT 9 12
REMARK Flexibility Score: inf
ROOT
ATOM      1  C   UNL     1      30.439  20.022  32.660  1.00  0.00     0.187 C 
ENDROOT
BRANCH   1   2
ATOM      2  C   UNL     1      31.424  21.157  32.709  1.00  0.00    -0.045 C 
ATOM      3  C   UNL     1      35.119  21.289  33.954  1.00  0.00     0.012 C 
ATOM      4  C   UNL     1      33.645  21.725  33.753  1.00  0.00    -0.026 C 
ATOM      5  C   UNL     1      33.518  22.938  32.790  1.00  0.00    -0.000 C 
ATOM      6  C   UNL     1      32.966  21.809  35.149  1.00  0.00     0.012 C 
ATOM      7  C   UNL     1      32.938  20.912  32.636  1.00  0.00     0.023 C 
ATOM      8  C   UNL     1      32.085  23.565  32.889  1.00  0.00     0.031 C 
ATOM      9  C   UNL     1      33.459  21.942  31.614  1.00  0.00     0.013 C 
ATOM     10  C   UNL     1      31.016  22.456  32.810  1.00  0.00    -0.025 C 
ENDBRANCH   1   2
BRANCH   1  11
ATOM     11  O   UNL     1      29.128  20.515  32.664  1.00  0.00    -0.392 OA
ATOM     12  H   UNL     1      29.199  21.504  32.733  1.00  0.00     0.211 HD
ENDBRANCH   1  11
TORSDOF 2
ENDMDL
MODEL 8
REMARK VINA RESULT:    -3.920      1.759      2.947
REMARK INTER + INTRA:          -4.291
REMARK INTER:                  -4.267
REMARK INTRA:                  -0.024
REMARK UNBOUND:                -0.027
REMARK SMILES CC1(C)[C@@H]2CC=C(CO)[C@H]1C2
REMARK SMILES IDX 8 1 7 2 1 3 2 4 4 5 3 6 10 7 5 8 11 9 6 10 9 11
REMARK H PARENT 9 12
REMARK Flexibility Score: inf
ROOT
ATOM      1  C   UNL     1      32.116  19.444  32.211  1.00  0.00     0.187 C 
ENDROOT
BRANCH   1   2
ATOM      2  C   UNL     1      32.611  20.729  32.813  1.00  0.00    -0.045 C 
ATOM      3  C   UNL     1      31.946  24.443  31.823  1.00  0.00     0.012 C 
ATOM      4  C   UNL     1      32.736  23.184  32.259  1.00  0.00    -0.026 C 
ATOM      5  C   UNL     1      33.177  23.253  33.748  1.00  0.00    -0.000 C 
ATOM      6  C   UNL     1      33.812  22.883  31.178  1.00  0.00     0.012 C 
ATOM      7  C   UNL     1      31.801  22.030  32.710  1.00  0.00     0.023 C 
ATOM      8  C   UNL     1      34.255  22.157  34.050  1.00  0.00     0.031 C 
ATOM      9  C   UNL     1      31.821  22.625  34.132  1.00  0.00     0.013 C 
ATOM     10  C   UNL     1      33.797  20.796  33.487  1.00  0.00    -0.025 C 
ENDBRANCH   1   2
BRANCH   1  11
ATOM     11  O   UNL     1      33.197  18.640  31.825  1.00  0.00    -0.392 OA
ATOM     12  H   UNL     1      33.000  17.724  32.154  1.00  0.00     0.211 HD
ENDBRANCH   1  11
TORSDOF 2
ENDMDL
MODEL 9
REMARK VINA RESULT:    -3.911      2.083      3.234
REMARK INTER + INTRA:          -4.282
REMARK INTER:                  -4.219
REMARK INTRA:                  -0.063
REMARK UNBOUND:                -0.027
REMARK SMILES CC1(C)[C@@H]2CC=C(CO)[C@H]1C2
REMARK SMILES IDX 8 1 7 2 1 3 2 4 4 5 3 6 10 7 5 8 11 9 6 10 9 11
REMARK H PARENT 9 12
REMARK Flexibility Score: inf
ROOT
ATOM      1  C   UNL     1      32.227  24.657  33.842  1.00  0.00     0.187 C 
ENDROOT
BRANCH   1   2
ATOM      2  C   UNL     1      32.545  23.347  33.177  1.00  0.00    -0.045 C 
ATOM      3  C   UNL     1      33.098  19.785  34.669  1.00  0.00     0.012 C 
ATOM      4  C   UNL     1      33.335  21.031  33.780  1.00  0.00    -0.026 C 
ATOM      5  C   UNL     1      32.956  20.774  32.295  1.00  0.00    -0.000 C 
ATOM      6  C   UNL     1      34.747  21.598  34.099  1.00  0.00     0.012 C 
ATOM      7  C   UNL     1      32.127  22.006  33.798  1.00  0.00     0.023 C 
ATOM      8  C   UNL     1      33.531  21.909  31.380  1.00  0.00     0.031 C 
ATOM      9  C   UNL     1      31.513  21.202  32.635  1.00  0.00     0.013 C 
ATOM     10  C   UNL     1      33.211  23.290  31.986  1.00  0.00    -0.025 C 
ENDBRANCH   1   2
BRANCH   1  11
ATOM     11  O   UNL     1      33.029  24.834  34.977  1.00  0.00    -0.392 OA
ATOM     12  H   UNL     1      33.971  24.800  34.664  1.00  0.00     0.211 HD
ENDBRANCH   1  11
TORSDOF 2
ENDMDL
