MODEL 1
REMARK VINA RESULT:    46.496      0.000      0.000
REMARK INTER + INTRA:          68.949
REMARK INTER:                  69.600
REMARK INTRA:                  -0.651
REMARK UNBOUND:                -0.651
REMARK SMILES COC(=O)C1=CO[C@@H](O[C@@H]2O[C@H](CO)[C@H](O)[C@H](O)[C@H]2O)[C@H]2C(CO)=CC[C@H]12
REMARK SMILES IDX 9 1 8 2 5 3 6 4 27 5 7 6 21 7 26 8 22 9 25 10 3 11 4 12 2 13
REMARK SMILES IDX 1 14 23 15 24 16 10 18 19 19 11 20 17 21 12 22 15 23 20 24
REMARK SMILES IDX 18 26 13 28 14 29 16 31
REMARK H PARENT 24 17 20 25 18 27 14 30 16 32
REMARK Flexibility Score: inf
ROOT
ATOM      1  O   UNL     1      16.870  55.328  22.232  1.00  0.00    -0.310 OA
ENDROOT
BRANCH   1   2
ATOM      2  C   UNL     1      15.794  55.926  22.940  1.00  0.00     0.316 C 
ATOM      3  C   UNL     1      15.894  58.812  22.406  1.00  0.00     0.076 C 
ATOM      4  C   UNL     1      14.949  58.037  21.824  1.00  0.00     0.202 C 
ATOM      5  C   UNL     1      16.973  58.087  23.170  1.00  0.00     0.047 C 
ATOM      6  O   UNL     1      14.914  56.638  22.035  1.00  0.00    -0.471 OA
ATOM      7  C   UNL     1      16.333  56.945  23.956  1.00  0.00     0.094 C 
ATOM      8  C   UNL     1      17.810  58.804  24.227  1.00  0.00     0.037 C 
ATOM      9  C   UNL     1      17.400  56.595  24.945  1.00  0.00    -0.039 C 
ATOM     10  C   UNL     1      18.179  57.667  25.133  1.00  0.00    -0.024 C 
BRANCH   3  11
ATOM     11  C   UNL     1      15.932  60.271  22.175  1.00  0.00     0.337 C 
ATOM     12  O   UNL     1      17.041  60.857  22.023  1.00  0.00    -0.246 OA
BRANCH  11  13
ATOM     13  O   UNL     1      14.738  61.004  22.106  1.00  0.00    -0.466 OA
ATOM     14  C   UNL     1      14.217  61.506  20.882  1.00  0.00     0.282 C 
ENDBRANCH  11  13
ENDBRANCH   3  11
BRANCH   9  15
ATOM     15  C   UNL     1      17.342  55.478  25.953  1.00  0.00     0.187 C 
BRANCH  15  16
ATOM     16  O   UNL     1      16.029  55.033  26.125  1.00  0.00    -0.392 OA
ATOM     17  H   UNL     1      15.991  54.124  25.725  1.00  0.00     0.211 HD
ENDBRANCH  15  16
ENDBRANCH   9  15
ENDBRANCH   1   2
BRANCH   1  18
ATOM     18  C   UNL     1      17.121  54.003  22.679  1.00  0.00     0.286 C 
ATOM     19  C   UNL     1      15.849  53.141  22.516  1.00  0.00     0.202 C 
ATOM     20  O   UNL     1      18.264  53.452  22.031  1.00  0.00    -0.341 OA
ATOM     21  C   UNL     1      15.569  52.819  21.037  1.00  0.00     0.179 C 
ATOM     22  C   UNL     1      18.083  53.155  20.648  1.00  0.00     0.178 C 
ATOM     23  C   UNL     1      16.846  52.258  20.384  1.00  0.00     0.177 C 
BRANCH  19  24
ATOM     24  O   UNL     1      15.996  51.955  23.262  1.00  0.00    -0.385 OA
ATOM     25  H   UNL     1      15.783  52.174  24.206  1.00  0.00     0.211 HD
ENDBRANCH  19  24
BRANCH  21  26
ATOM     26  O   UNL     1      15.118  53.976  20.371  1.00  0.00    -0.387 OA
ATOM     27  H   UNL     1      15.663  54.740  20.701  1.00  0.00     0.211 HD
ENDBRANCH  21  26
BRANCH  22  28
ATOM     28  C   UNL     1      18.185  54.418  19.755  1.00  0.00     0.191 C 
BRANCH  28  29
ATOM     29  O   UNL     1      17.401  54.282  18.602  1.00  0.00    -0.394 OA
ATOM     30  H   UNL     1      17.182  53.313  18.518  1.00  0.00     0.210 HD
ENDBRANCH  28  29
ENDBRANCH  22  28
BRANCH  23  31
ATOM     31  O   UNL     1      16.657  52.064  19.002  1.00  0.00    -0.387 OA
ATOM     32  H   UNL     1      17.271  51.335  18.728  1.00  0.00     0.211 HD
ENDBRANCH  23  31
ENDBRANCH   1  18
TORSDOF 11
ENDMDL
MODEL 2
REMARK VINA RESULT:    47.152      0.731      2.279
REMARK INTER + INTRA:          69.931
REMARK INTER:                  70.332
REMARK INTRA:                  -0.401
REMARK UNBOUND:                -0.651
REMARK SMILES COC(=O)C1=CO[C@@H](O[C@@H]2O[C@H](CO)[C@H](O)[C@H](O)[C@H]2O)[C@H]2C(CO)=CC[C@H]12
REMARK SMILES IDX 9 1 8 2 5 3 6 4 27 5 7 6 21 7 26 8 22 9 25 10 3 11 4 12 2 13
REMARK SMILES IDX 1 14 23 15 24 16 10 18 19 19 11 20 17 21 12 22 15 23 20 24
REMARK SMILES IDX 18 26 13 28 14 29 16 31
REMARK H PARENT 24 17 20 25 18 27 14 30 16 32
REMARK Flexibility Score: inf
ROOT
ATOM      1  O   UNL     1      16.777  55.157  22.412  1.00  0.00    -0.310 OA
ENDROOT
BRANCH   1   2
ATOM      2  C   UNL     1      15.730  55.841  23.086  1.00  0.00     0.316 C 
ATOM      3  C   UNL     1      15.976  58.690  22.419  1.00  0.00     0.076 C 
ATOM      4  C   UNL     1      14.996  57.937  21.867  1.00  0.00     0.202 C 
ATOM      5  C   UNL     1      17.015  57.949  23.222  1.00  0.00     0.047 C 
ATOM      6  O   UNL     1      14.890  56.553  22.144  1.00  0.00    -0.471 OA
ATOM      7  C   UNL     1      16.315  56.878  24.056  1.00  0.00     0.094 C 
ATOM      8  C   UNL     1      17.883  58.671  24.249  1.00  0.00     0.037 C 
ATOM      9  C   UNL     1      17.360  56.521  25.067  1.00  0.00    -0.039 C 
ATOM     10  C   UNL     1      18.192  57.560  25.210  1.00  0.00    -0.024 C 
BRANCH   3  11
ATOM     11  C   UNL     1      16.088  60.133  22.120  1.00  0.00     0.337 C 
ATOM     12  O   UNL     1      17.228  60.662  21.987  1.00  0.00    -0.246 OA
BRANCH  11  13
ATOM     13  O   UNL     1      14.932  60.912  21.967  1.00  0.00    -0.466 OA
ATOM     14  C   UNL     1      14.302  61.107  20.707  1.00  0.00     0.282 C 
ENDBRANCH  11  13
ENDBRANCH   3  11
BRANCH   9  15
ATOM     15  C   UNL     1      17.242  55.457  26.125  1.00  0.00     0.187 C 
BRANCH  15  16
ATOM     16  O   UNL     1      15.973  54.874  26.104  1.00  0.00    -0.392 OA
ATOM     17  H   UNL     1      16.107  53.932  25.818  1.00  0.00     0.211 HD
ENDBRANCH  15  16
ENDBRANCH   9  15
ENDBRANCH   1   2
BRANCH   1  18
ATOM     18  C   UNL     1      16.489  54.984  21.031  1.00  0.00     0.286 C 
ATOM     19  C   UNL     1      17.799  54.764  20.242  1.00  0.00     0.202 C 
ATOM     20  O   UNL     1      15.529  53.949  20.836  1.00  0.00    -0.341 OA
ATOM     21  C   UNL     1      18.395  53.371  20.513  1.00  0.00     0.179 C 
ATOM     22  C   UNL     1      16.007  52.632  21.097  1.00  0.00     0.178 C 
ATOM     23  C   UNL     1      17.305  52.300  20.315  1.00  0.00     0.177 C 
BRANCH  19  24
ATOM     24  O   UNL     1      17.543  54.934  18.867  1.00  0.00    -0.385 OA
ATOM     25  H   UNL     1      18.160  55.639  18.539  1.00  0.00     0.211 HD
ENDBRANCH  19  24
BRANCH  21  26
ATOM     26  O   UNL     1      18.931  53.323  21.815  1.00  0.00    -0.387 OA
ATOM     27  H   UNL     1      18.916  54.249  22.177  1.00  0.00     0.211 HD
ENDBRANCH  21  26
BRANCH  22  28
ATOM     28  C   UNL     1      16.048  52.309  22.612  1.00  0.00     0.191 C 
BRANCH  28  29
ATOM     29  O   UNL     1      15.968  50.927  22.832  1.00  0.00    -0.394 OA
ATOM     30  H   UNL     1      15.333  50.794  23.589  1.00  0.00     0.210 HD
ENDBRANCH  28  29
ENDBRANCH  22  28
BRANCH  23  31
ATOM     31  O   UNL     1      17.789  51.025  20.671  1.00  0.00    -0.387 OA
ATOM     32  H   UNL     1      18.325  50.698  19.903  1.00  0.00     0.211 HD
ENDBRANCH  23  31
ENDBRANCH   1  18
TORSDOF 11
ENDMDL
MODEL 3
REMARK VINA RESULT:    47.421      7.894     10.769
REMARK INTER + INTRA:          70.333
REMARK INTER:                  69.982
REMARK INTRA:                   0.351
REMARK UNBOUND:                -0.651
REMARK SMILES COC(=O)C1=CO[C@@H](O[C@@H]2O[C@H](CO)[C@H](O)[C@H](O)[C@H]2O)[C@H]2C(CO)=CC[C@H]12
REMARK SMILES IDX 9 1 8 2 5 3 6 4 27 5 7 6 21 7 26 8 22 9 25 10 3 11 4 12 2 13
REMARK SMILES IDX 1 14 23 15 24 16 10 18 19 19 11 20 17 21 12 22 15 23 20 24
REMARK SMILES IDX 18 26 13 28 14 29 16 31
REMARK H PARENT 24 17 20 25 18 27 14 30 16 32
REMARK Flexibility Score: inf
ROOT
ATOM      1  O   UNL     1      23.315  52.526  18.949  1.00  0.00    -0.310 OA
ENDROOT
BRANCH   1   2
ATOM      2  C   UNL     1      23.579  51.139  19.106  1.00  0.00     0.316 C 
ATOM      3  C   UNL     1      24.289  50.697  21.920  1.00  0.00     0.076 C 
ATOM      4  C   UNL     1      23.081  50.312  21.448  1.00  0.00     0.202 C 
ATOM      5  C   UNL     1      25.143  51.513  20.984  1.00  0.00     0.047 C 
ATOM      6  O   UNL     1      22.705  50.557  20.105  1.00  0.00    -0.471 OA
ATOM      7  C   UNL     1      25.025  50.927  19.579  1.00  0.00     0.094 C 
ATOM      8  C   UNL     1      26.652  51.624  21.184  1.00  0.00     0.037 C 
ATOM      9  C   UNL     1      26.192  51.543  18.872  1.00  0.00    -0.039 C 
ATOM     10  C   UNL     1      27.121  51.868  19.780  1.00  0.00    -0.024 C 
BRANCH   3  11
ATOM     11  C   UNL     1      24.672  50.446  23.326  1.00  0.00     0.337 C 
ATOM     12  O   UNL     1      24.537  49.291  23.820  1.00  0.00    -0.246 OA
BRANCH  11  13
ATOM     13  O   UNL     1      25.202  51.484  24.106  1.00  0.00    -0.466 OA
ATOM     14  C   UNL     1      25.687  51.278  25.427  1.00  0.00     0.282 C 
ENDBRANCH  11  13
ENDBRANCH   3  11
BRANCH   9  15
ATOM     15  C   UNL     1      26.541  51.368  17.419  1.00  0.00     0.187 C 
BRANCH  15  16
ATOM     16  O   UNL     1      25.745  50.381  16.832  1.00  0.00    -0.392 OA
ATOM     17  H   UNL     1      25.999  49.525  17.269  1.00  0.00     0.211 HD
ENDBRANCH  15  16
ENDBRANCH   9  15
ENDBRANCH   1   2
BRANCH   1  18
ATOM     18  C   UNL     1      23.643  52.979  17.643  1.00  0.00     0.286 C 
ATOM     19  C   UNL     1      22.467  53.789  17.054  1.00  0.00     0.202 C 
ATOM     20  O   UNL     1      24.877  53.691  17.644  1.00  0.00    -0.341 OA
ATOM     21  C   UNL     1      22.333  55.165  17.731  1.00  0.00     0.179 C 
ATOM     22  C   UNL     1      24.832  54.965  18.281  1.00  0.00     0.178 C 
ATOM     23  C   UNL     1      23.702  55.872  17.729  1.00  0.00     0.177 C 
BRANCH  19  24
ATOM     24  O   UNL     1      22.657  53.936  15.666  1.00  0.00    -0.385 OA
ATOM     25  H   UNL     1      23.300  54.680  15.536  1.00  0.00     0.211 HD
ENDBRANCH  19  24
BRANCH  21  26
ATOM     26  O   UNL     1      21.838  55.010  19.041  1.00  0.00    -0.387 OA
ATOM     27  H   UNL     1      20.908  54.665  18.968  1.00  0.00     0.211 HD
ENDBRANCH  21  26
BRANCH  22  28
ATOM     28  C   UNL     1      24.894  54.855  19.826  1.00  0.00     0.191 C 
BRANCH  28  29
ATOM     29  O   UNL     1      25.681  55.878  20.371  1.00  0.00    -0.394 OA
ATOM     30  H   UNL     1      25.536  56.684  19.804  1.00  0.00     0.210 HD
ENDBRANCH  28  29
ENDBRANCH  22  28
BRANCH  23  31
ATOM     31  O   UNL     1      23.639  57.083  18.446  1.00  0.00    -0.387 OA
ATOM     32  H   UNL     1      24.381  57.065  19.104  1.00  0.00     0.211 HD
ENDBRANCH  23  31
ENDBRANCH   1  18
TORSDOF 11
ENDMDL
MODEL 4
REMARK VINA RESULT:    47.447      2.003      6.304
REMARK INTER + INTRA:          70.373
REMARK INTER:                  68.869
REMARK INTRA:                   1.504
REMARK UNBOUND:                -0.651
REMARK SMILES COC(=O)C1=CO[C@@H](O[C@@H]2O[C@H](CO)[C@H](O)[C@H](O)[C@H]2O)[C@H]2C(CO)=CC[C@H]12
REMARK SMILES IDX 9 1 8 2 5 3 6 4 27 5 7 6 21 7 26 8 22 9 25 10 3 11 4 12 2 13
REMARK SMILES IDX 1 14 23 15 24 16 10 18 19 19 11 20 17 21 12 22 15 23 20 24
REMARK SMILES IDX 18 26 13 28 14 29 16 31
REMARK H PARENT 24 17 20 25 18 27 14 30 16 32
REMARK Flexibility Score: inf
ROOT
ATOM      1  O   UNL     1      16.287  54.739  22.773  1.00  0.00    -0.310 OA
ENDROOT
BRANCH   1   2
ATOM      2  C   UNL     1      17.400  53.966  22.343  1.00  0.00     0.316 C 
ATOM      3  C   UNL     1      17.105  53.542  19.453  1.00  0.00     0.076 C 
ATOM      4  C   UNL     1      18.021  54.416  19.929  1.00  0.00     0.202 C 
ATOM      5  C   UNL     1      16.146  52.963  20.463  1.00  0.00     0.047 C 
ATOM      6  O   UNL     1      18.147  54.665  21.317  1.00  0.00    -0.471 OA
ATOM      7  C   UNL     1      16.919  52.639  21.739  1.00  0.00     0.094 C 
ATOM      8  C   UNL     1      15.387  51.669  20.182  1.00  0.00     0.037 C 
ATOM      9  C   UNL     1      15.977  51.729  22.465  1.00  0.00    -0.039 C 
ATOM     10  C   UNL     1      15.169  51.146  21.571  1.00  0.00    -0.024 C 
BRANCH   3  11
ATOM     11  C   UNL     1      16.972  53.291  18.002  1.00  0.00     0.337 C 
ATOM     12  O   UNL     1      17.651  53.969  17.181  1.00  0.00    -0.246 OA
BRANCH  11  13
ATOM     13  O   UNL     1      16.106  52.291  17.537  1.00  0.00    -0.466 OA
ATOM     14  C   UNL     1      14.924  52.583  16.802  1.00  0.00     0.282 C 
ENDBRANCH  11  13
ENDBRANCH   3  11
BRANCH   9  15
ATOM     15  C   UNL     1      16.192  51.139  23.832  1.00  0.00     0.187 C 
BRANCH  15  16
ATOM     16  O   UNL     1      16.183  49.743  23.778  1.00  0.00    -0.392 OA
ATOM     17  H   UNL     1      16.610  49.431  24.619  1.00  0.00     0.211 HD
ENDBRANCH  15  16
ENDBRANCH   9  15
ENDBRANCH   1   2
BRANCH   1  18
ATOM     18  C   UNL     1      16.402  56.096  22.367  1.00  0.00     0.286 C 
ATOM     19  C   UNL     1      15.270  56.934  23.002  1.00  0.00     0.202 C 
ATOM     20  O   UNL     1      17.705  56.603  22.641  1.00  0.00    -0.341 OA
ATOM     21  C   UNL     1      15.499  57.141  24.511  1.00  0.00     0.179 C 
ATOM     22  C   UNL     1      17.995  56.792  24.024  1.00  0.00     0.178 C 
ATOM     23  C   UNL     1      16.931  57.660  24.746  1.00  0.00     0.177 C 
BRANCH  19  24
ATOM     24  O   UNL     1      15.187  58.175  22.339  1.00  0.00    -0.385 OA
ATOM     25  H   UNL     1      15.573  58.049  21.434  1.00  0.00     0.211 HD
ENDBRANCH  19  24
BRANCH  21  26
ATOM     26  O   UNL     1      15.271  55.934  25.201  1.00  0.00    -0.387 OA
ATOM     27  H   UNL     1      14.295  55.749  25.160  1.00  0.00     0.211 HD
ENDBRANCH  21  26
BRANCH  22  28
ATOM     28  C   UNL     1      18.360  55.466  24.737  1.00  0.00     0.191 C 
BRANCH  28  29
ATOM     29  O   UNL     1      17.745  55.386  25.993  1.00  0.00    -0.394 OA
ATOM     30  H   UNL     1      16.868  54.933  25.854  1.00  0.00     0.210 HD
ENDBRANCH  28  29
ENDBRANCH  22  28
BRANCH  23  31
ATOM     31  O   UNL     1      17.210  57.747  26.124  1.00  0.00    -0.387 OA
ATOM     32  H   UNL     1      18.175  57.957  26.208  1.00  0.00     0.211 HD
ENDBRANCH  23  31
ENDBRANCH   1  18
TORSDOF 11
ENDMDL
MODEL 5
REMARK VINA RESULT:    48.735      2.231      6.333
REMARK INTER + INTRA:          72.300
REMARK INTER:                  72.926
REMARK INTRA:                  -0.626
REMARK UNBOUND:                -0.651
REMARK SMILES COC(=O)C1=CO[C@@H](O[C@@H]2O[C@H](CO)[C@H](O)[C@H](O)[C@H]2O)[C@H]2C(CO)=CC[C@H]12
REMARK SMILES IDX 9 1 8 2 5 3 6 4 27 5 7 6 21 7 26 8 22 9 25 10 3 11 4 12 2 13
REMARK SMILES IDX 1 14 23 15 24 16 10 18 19 19 11 20 17 21 12 22 15 23 20 24
REMARK SMILES IDX 18 26 13 28 14 29 16 31
REMARK H PARENT 24 17 20 25 18 27 14 30 16 32
REMARK Flexibility Score: inf
ROOT
ATOM      1  O   UNL     1      17.041  54.659  22.935  1.00  0.00    -0.310 OA
ENDROOT
BRANCH   1   2
ATOM      2  C   UNL     1      17.921  53.720  22.333  1.00  0.00     0.316 C 
ATOM      3  C   UNL     1      17.177  53.520  19.500  1.00  0.00     0.076 C 
ATOM      4  C   UNL     1      18.298  54.182  19.871  1.00  0.00     0.202 C 
ATOM      5  C   UNL     1      16.266  53.073  20.614  1.00  0.00     0.047 C 
ATOM      6  O   UNL     1      18.648  54.325  21.235  1.00  0.00    -0.471 OA
ATOM      7  C   UNL     1      17.122  52.540  21.761  1.00  0.00     0.094 C 
ATOM      8  C   UNL     1      15.245  51.959  20.401  1.00  0.00     0.037 C 
ATOM      9  C   UNL     1      16.126  51.780  22.582  1.00  0.00    -0.039 C 
ATOM     10  C   UNL     1      15.113  51.407  21.790  1.00  0.00    -0.024 C 
BRANCH   3  11
ATOM     11  C   UNL     1      16.812  53.380  18.074  1.00  0.00     0.337 C 
ATOM     12  O   UNL     1      17.263  54.200  17.225  1.00  0.00    -0.246 OA
BRANCH  11  13
ATOM     13  O   UNL     1      15.980  52.330  17.661  1.00  0.00    -0.466 OA
ATOM     14  C   UNL     1      14.752  52.549  16.977  1.00  0.00     0.282 C 
ENDBRANCH  11  13
ENDBRANCH   3  11
BRANCH   9  15
ATOM     15  C   UNL     1      16.401  51.085  23.887  1.00  0.00     0.187 C 
BRANCH  15  16
ATOM     16  O   UNL     1      16.292  49.699  23.745  1.00  0.00    -0.392 OA
ATOM     17  H   UNL     1      17.219  49.358  23.643  1.00  0.00     0.211 HD
ENDBRANCH  15  16
ENDBRANCH   9  15
ENDBRANCH   1   2
BRANCH   1  18
ATOM     18  C   UNL     1      17.747  55.610  23.721  1.00  0.00     0.286 C 
ATOM     19  C   UNL     1      17.298  57.041  23.347  1.00  0.00     0.202 C 
ATOM     20  O   UNL     1      17.619  55.322  25.110  1.00  0.00    -0.341 OA
ATOM     21  C   UNL     1      15.880  57.342  23.865  1.00  0.00     0.179 C 
ATOM     22  C   UNL     1      16.320  55.553  25.652  1.00  0.00     0.178 C 
ATOM     23  C   UNL     1      15.795  56.983  25.361  1.00  0.00     0.177 C 
BRANCH  19  24
ATOM     24  O   UNL     1      18.224  57.966  23.868  1.00  0.00    -0.385 OA
ATOM     25  H   UNL     1      17.703  58.671  24.332  1.00  0.00     0.211 HD
ENDBRANCH  19  24
BRANCH  21  26
ATOM     26  O   UNL     1      14.930  56.626  23.111  1.00  0.00    -0.387 OA
ATOM     27  H   UNL     1      14.820  57.102  22.245  1.00  0.00     0.211 HD
ENDBRANCH  21  26
BRANCH  22  28
ATOM     28  C   UNL     1      15.331  54.406  25.322  1.00  0.00     0.191 C 
BRANCH  28  29
ATOM     29  O   UNL     1      14.184  54.488  26.123  1.00  0.00    -0.394 OA
ATOM     30  H   UNL     1      13.537  55.070  25.637  1.00  0.00     0.210 HD
ENDBRANCH  28  29
ENDBRANCH  22  28
BRANCH  23  31
ATOM     31  O   UNL     1      14.478  57.137  25.837  1.00  0.00    -0.387 OA
ATOM     32  H   UNL     1      14.006  56.283  25.654  1.00  0.00     0.211 HD
ENDBRANCH  23  31
ENDBRANCH   1  18
TORSDOF 11
ENDMDL
MODEL 6
REMARK VINA RESULT:    49.288      1.793      6.165
REMARK INTER + INTRA:          73.128
REMARK INTER:                  72.228
REMARK INTRA:                   0.900
REMARK UNBOUND:                -0.651
REMARK SMILES COC(=O)C1=CO[C@@H](O[C@@H]2O[C@H](CO)[C@H](O)[C@H](O)[C@H]2O)[C@H]2C(CO)=CC[C@H]12
REMARK SMILES IDX 9 1 8 2 5 3 6 4 27 5 7 6 21 7 26 8 22 9 25 10 3 11 4 12 2 13
REMARK SMILES IDX 1 14 23 15 24 16 10 18 19 19 11 20 17 21 12 22 15 23 20 24
REMARK SMILES IDX 18 26 13 28 14 29 16 31
REMARK H PARENT 24 17 20 25 18 27 14 30 16 32
REMARK Flexibility Score: inf
ROOT
ATOM      1  O   UNL     1      16.249  54.778  22.814  1.00  0.00    -0.310 OA
ENDROOT
BRANCH   1   2
ATOM      2  C   UNL     1      17.394  54.056  22.382  1.00  0.00     0.316 C 
ATOM      3  C   UNL     1      17.146  53.678  19.481  1.00  0.00     0.076 C 
ATOM      4  C   UNL     1      18.024  54.576  19.984  1.00  0.00     0.202 C 
ATOM      5  C   UNL     1      16.199  53.044  20.469  1.00  0.00     0.047 C 
ATOM      6  O   UNL     1      18.125  54.803  21.378  1.00  0.00    -0.471 OA
ATOM      7  C   UNL     1      16.970  52.724  21.747  1.00  0.00     0.094 C 
ATOM      8  C   UNL     1      15.493  51.729  20.154  1.00  0.00     0.037 C 
ATOM      9  C   UNL     1      16.055  51.765  22.444  1.00  0.00    -0.039 C 
ATOM     10  C   UNL     1      15.280  51.170  21.530  1.00  0.00    -0.024 C 
BRANCH   3  11
ATOM     11  C   UNL     1      17.038  53.452  18.024  1.00  0.00     0.337 C 
ATOM     12  O   UNL     1      17.649  54.212  17.222  1.00  0.00    -0.246 OA
BRANCH  11  13
ATOM     13  O   UNL     1      16.273  52.384  17.533  1.00  0.00    -0.466 OA
ATOM     14  C   UNL     1      14.948  52.553  17.045  1.00  0.00     0.282 C 
ENDBRANCH  11  13
ENDBRANCH   3  11
BRANCH   9  15
ATOM     15  C   UNL     1      16.278  51.157  23.803  1.00  0.00     0.187 C 
BRANCH  15  16
ATOM     16  O   UNL     1      16.295  49.762  23.725  1.00  0.00    -0.392 OA
ATOM     17  H   UNL     1      15.501  49.505  23.186  1.00  0.00     0.211 HD
ENDBRANCH  15  16
ENDBRANCH   9  15
ENDBRANCH   1   2
BRANCH   1  18
ATOM     18  C   UNL     1      16.259  54.987  24.219  1.00  0.00     0.286 C 
ATOM     19  C   UNL     1      17.714  55.120  24.723  1.00  0.00     0.202 C 
ATOM     20  O   UNL     1      15.433  56.091  24.578  1.00  0.00    -0.341 OA
ATOM     21  C   UNL     1      18.338  56.463  24.301  1.00  0.00     0.179 C 
ATOM     22  C   UNL     1      15.938  57.367  24.191  1.00  0.00     0.178 C 
ATOM     23  C   UNL     1      17.387  57.613  24.686  1.00  0.00     0.177 C 
BRANCH  19  24
ATOM     24  O   UNL     1      17.731  54.985  26.125  1.00  0.00    -0.385 OA
ATOM     25  H   UNL     1      17.247  54.147  26.344  1.00  0.00     0.211 HD
ENDBRANCH  19  24
BRANCH  21  26
ATOM     26  O   UNL     1      18.600  56.457  22.917  1.00  0.00    -0.387 OA
ATOM     27  H   UNL     1      19.470  55.994  22.782  1.00  0.00     0.211 HD
ENDBRANCH  21  26
BRANCH  22  28
ATOM     28  C   UNL     1      15.692  57.669  22.691  1.00  0.00     0.191 C 
BRANCH  28  29
ATOM     29  O   UNL     1      15.834  59.038  22.425  1.00  0.00    -0.394 OA
ATOM     30  H   UNL     1      15.488  59.187  21.503  1.00  0.00     0.210 HD
ENDBRANCH  28  29
ENDBRANCH  22  28
BRANCH  23  31
ATOM     31  O   UNL     1      17.875  58.845  24.208  1.00  0.00    -0.387 OA
ATOM     32  H   UNL     1      17.212  59.535  24.467  1.00  0.00     0.211 HD
ENDBRANCH  23  31
ENDBRANCH   1  18
TORSDOF 11
ENDMDL
