MODEL 1
REMARK VINA RESULT:    -5.223      0.000      0.000
REMARK INTER + INTRA:          -5.223
REMARK INTER:                  -5.223
REMARK INTRA:                   0.000
REMARK UNBOUND:                 0.000
REMARK SMILES C=C1CCC[C@]2(C)CC(=O)C(=C(C)C)C[C@H]12
REMARK SMILES IDX 13 1 12 2 11 3 15 4 16 5 2 6 1 7 3 8 4 9 5 10 6 11 8 12 9 13
REMARK SMILES IDX 10 14 7 15 14 16
REMARK H PARENT
REMARK Flexibility Score: inf
ROOT
ATOM      1  C   UNL     1      55.628 -17.822  -3.397  1.00  0.00     0.039 C 
ATOM      2  C   UNL     1      55.801 -18.591  -2.107  1.00  0.00    -0.070 C 
ATOM      3  C   UNL     1      56.993 -18.587  -1.440  1.00  0.00    -0.006 C 
ATOM      4  C   UNL     1      58.220 -17.875  -1.986  1.00  0.00     0.047 C 
ATOM      5  C   UNL     1      59.099 -17.304  -0.844  1.00  0.00     0.025 C 
ATOM      6  C   UNL     1      60.293 -16.583  -1.461  1.00  0.00    -0.073 C 
ATOM      7  C   UNL     1      60.194 -15.291  -1.810  1.00  0.00     0.008 C 
ATOM      8  C   UNL     1      61.573 -17.324  -1.774  1.00  0.00     0.031 C 
ATOM      9  C   UNL     1      61.566 -18.748  -1.219  1.00  0.00     0.005 C 
ATOM     10  C   UNL     1      61.022 -18.747   0.210  1.00  0.00     0.008 C 
ATOM     11  C   UNL     1      59.507 -18.372   0.265  1.00  0.00    -0.018 C 
ATOM     12  C   UNL     1      58.674 -19.684   0.138  1.00  0.00     0.088 C 
ATOM     13  C   UNL     1      57.250 -19.390  -0.217  1.00  0.00     0.159 C 
ATOM     14  O   UNL     1      56.326 -19.785   0.543  1.00  0.00    -0.295 OA
ATOM     15  C   UNL     1      59.228 -17.768   1.664  1.00  0.00     0.012 C 
ATOM     16  C   UNL     1      54.615 -19.387  -1.615  1.00  0.00     0.039 C 
ENDROOT
TORSDOF 0
ENDMDL
MODEL 2
REMARK VINA RESULT:    -5.140      4.239      6.494
REMARK INTER + INTRA:          -5.140
REMARK INTER:                  -5.140
REMARK INTRA:                   0.000
REMARK UNBOUND:                 0.000
REMARK SMILES C=C1CCC[C@]2(C)CC(=O)C(=C(C)C)C[C@H]12
REMARK SMILES IDX 13 1 12 2 11 3 15 4 16 5 2 6 1 7 3 8 4 9 5 10 6 11 8 12 9 13
REMARK SMILES IDX 10 14 7 15 14 16
REMARK H PARENT
REMARK Flexibility Score: inf
ROOT
ATOM      1  C   UNL     1      53.916 -17.498  -3.368  1.00  0.00     0.039 C 
ATOM      2  C   UNL     1      55.422 -17.374  -3.326  1.00  0.00    -0.070 C 
ATOM      3  C   UNL     1      56.071 -16.426  -4.065  1.00  0.00    -0.006 C 
ATOM      4  C   UNL     1      55.331 -15.500  -5.016  1.00  0.00     0.047 C 
ATOM      5  C   UNL     1      56.005 -14.106  -5.088  1.00  0.00     0.025 C 
ATOM      6  C   UNL     1      55.200 -13.222  -6.035  1.00  0.00    -0.073 C 
ATOM      7  C   UNL     1      54.158 -12.513  -5.574  1.00  0.00     0.008 C 
ATOM      8  C   UNL     1      55.497 -13.196  -7.518  1.00  0.00     0.031 C 
ATOM      9  C   UNL     1      56.772 -13.964  -7.863  1.00  0.00     0.005 C 
ATOM     10  C   UNL     1      57.876 -13.618  -6.865  1.00  0.00     0.008 C 
ATOM     11  C   UNL     1      57.560 -14.148  -5.429  1.00  0.00    -0.018 C 
ATOM     12  C   UNL     1      58.141 -15.589  -5.302  1.00  0.00     0.088 C 
ATOM     13  C   UNL     1      57.550 -16.310  -4.131  1.00  0.00     0.159 C 
ATOM     14  O   UNL     1      58.308 -16.752  -3.226  1.00  0.00    -0.295 OA
ATOM     15  C   UNL     1      58.315 -13.243  -4.424  1.00  0.00     0.012 C 
ATOM     16  C   UNL     1      56.171 -18.362  -2.463  1.00  0.00     0.039 C 
ENDROOT
TORSDOF 0
ENDMDL
MODEL 3
REMARK VINA RESULT:    -4.926      1.995      4.795
REMARK INTER + INTRA:          -4.926
REMARK INTER:                  -4.926
REMARK INTRA:                   0.000
REMARK UNBOUND:                 0.000
REMARK SMILES C=C1CCC[C@]2(C)CC(=O)C(=C(C)C)C[C@H]12
REMARK SMILES IDX 13 1 12 2 11 3 15 4 16 5 2 6 1 7 3 8 4 9 5 10 6 11 8 12 9 13
REMARK SMILES IDX 10 14 7 15 14 16
REMARK H PARENT
REMARK Flexibility Score: inf
ROOT
ATOM      1  C   UNL     1      59.867 -17.875  -2.848  1.00  0.00     0.039 C 
ATOM      2  C   UNL     1      60.146 -18.338  -1.436  1.00  0.00    -0.070 C 
ATOM      3  C   UNL     1      59.130 -18.525  -0.542  1.00  0.00    -0.006 C 
ATOM      4  C   UNL     1      57.683 -18.215  -0.892  1.00  0.00     0.047 C 
ATOM      5  C   UNL     1      56.707 -19.184  -0.177  1.00  0.00     0.025 C 
ATOM      6  C   UNL     1      55.281 -18.836  -0.590  1.00  0.00    -0.073 C 
ATOM      7  C   UNL     1      54.749 -19.376  -1.697  1.00  0.00     0.008 C 
ATOM      8  C   UNL     1      54.476 -17.812   0.178  1.00  0.00     0.031 C 
ATOM      9  C   UNL     1      55.176 -17.376   1.465  1.00  0.00     0.005 C 
ATOM     10  C   UNL     1      55.738 -18.597   2.192  1.00  0.00     0.008 C 
ATOM     11  C   UNL     1      56.907 -19.268   1.402  1.00  0.00    -0.018 C 
ATOM     12  C   UNL     1      58.244 -18.605   1.851  1.00  0.00     0.088 C 
ATOM     13  C   UNL     1      59.346 -18.895   0.880  1.00  0.00     0.159 C 
ATOM     14  O   UNL     1      60.391 -19.475   1.279  1.00  0.00    -0.295 OA
ATOM     15  C   UNL     1      56.954 -20.759   1.819  1.00  0.00     0.012 C 
ATOM     16  C   UNL     1      61.593 -18.545  -1.052  1.00  0.00     0.039 C 
ENDROOT
TORSDOF 0
ENDMDL
MODEL 4
REMARK VINA RESULT:    -4.919      2.602      5.147
REMARK INTER + INTRA:          -4.919
REMARK INTER:                  -4.919
REMARK INTRA:                   0.000
REMARK UNBOUND:                 0.000
REMARK SMILES C=C1CCC[C@]2(C)CC(=O)C(=C(C)C)C[C@H]12
REMARK SMILES IDX 13 1 12 2 11 3 15 4 16 5 2 6 1 7 3 8 4 9 5 10 6 11 8 12 9 13
REMARK SMILES IDX 10 14 7 15 14 16
REMARK H PARENT
REMARK Flexibility Score: inf
ROOT
ATOM      1  C   UNL     1      61.613 -20.205   4.982  1.00  0.00     0.039 C 
ATOM      2  C   UNL     1      60.120 -20.129   4.757  1.00  0.00    -0.070 C 
ATOM      3  C   UNL     1      59.608 -19.639   3.589  1.00  0.00    -0.006 C 
ATOM      4  C   UNL     1      60.499 -19.083   2.490  1.00  0.00     0.047 C 
ATOM      5  C   UNL     1      59.903 -19.356   1.086  1.00  0.00     0.025 C 
ATOM      6  C   UNL     1      60.855 -18.797   0.033  1.00  0.00    -0.073 C 
ATOM      7  C   UNL     1      61.865 -19.550  -0.429  1.00  0.00     0.008 C 
ATOM      8  C   UNL     1      60.740 -17.366  -0.440  1.00  0.00     0.031 C 
ATOM      9  C   UNL     1      59.481 -16.682   0.094  1.00  0.00     0.005 C 
ATOM     10  C   UNL     1      58.283 -17.621  -0.037  1.00  0.00     0.008 C 
ATOM     11  C   UNL     1      58.399 -18.861   0.905  1.00  0.00    -0.018 C 
ATOM     12  C   UNL     1      57.742 -18.500   2.272  1.00  0.00     0.088 C 
ATOM     13  C   UNL     1      58.154 -19.460   3.343  1.00  0.00     0.159 C 
ATOM     14  O   UNL     1      57.275 -20.114   3.965  1.00  0.00    -0.295 OA
ATOM     15  C   UNL     1      57.571 -20.006   0.271  1.00  0.00     0.012 C 
ATOM     16  C   UNL     1      59.229 -20.583   5.890  1.00  0.00     0.039 C 
ENDROOT
TORSDOF 0
ENDMDL
MODEL 5
REMARK VINA RESULT:    -4.896      1.911      4.664
REMARK INTER + INTRA:          -4.896
REMARK INTER:                  -4.896
REMARK INTRA:                   0.000
REMARK UNBOUND:                 0.000
REMARK SMILES C=C1CCC[C@]2(C)CC(=O)C(=C(C)C)C[C@H]12
REMARK SMILES IDX 13 1 12 2 11 3 15 4 16 5 2 6 1 7 3 8 4 9 5 10 6 11 8 12 9 13
REMARK SMILES IDX 10 14 7 15 14 16
REMARK H PARENT
REMARK Flexibility Score: inf
ROOT
ATOM      1  C   UNL     1      61.506 -17.636  -1.629  1.00  0.00     0.039 C 
ATOM      2  C   UNL     1      60.300 -18.290  -0.994  1.00  0.00    -0.070 C 
ATOM      3  C   UNL     1      59.033 -17.925  -1.351  1.00  0.00    -0.006 C 
ATOM      4  C   UNL     1      58.766 -16.807  -2.344  1.00  0.00     0.047 C 
ATOM      5  C   UNL     1      57.493 -17.085  -3.182  1.00  0.00     0.025 C 
ATOM      6  C   UNL     1      57.299 -15.940  -4.172  1.00  0.00    -0.073 C 
ATOM      7  C   UNL     1      57.900 -15.978  -5.372  1.00  0.00     0.008 C 
ATOM      8  C   UNL     1      56.510 -14.708  -3.793  1.00  0.00     0.031 C 
ATOM      9  C   UNL     1      55.804 -14.868  -2.446  1.00  0.00     0.005 C 
ATOM     10  C   UNL     1      55.144 -16.244  -2.364  1.00  0.00     0.008 C 
ATOM     11  C   UNL     1      56.193 -17.399  -2.316  1.00  0.00    -0.018 C 
ATOM     12  C   UNL     1      56.548 -17.676  -0.823  1.00  0.00     0.088 C 
ATOM     13  C   UNL     1      57.811 -18.469  -0.703  1.00  0.00     0.159 C 
ATOM     14  O   UNL     1      57.795 -19.579  -0.107  1.00  0.00    -0.295 OA
ATOM     15  C   UNL     1      55.512 -18.670  -2.883  1.00  0.00     0.012 C 
ATOM     16  C   UNL     1      60.561 -19.329   0.072  1.00  0.00     0.039 C 
ENDROOT
TORSDOF 0
ENDMDL
MODEL 6
REMARK VINA RESULT:    -4.855      2.148      5.274
REMARK INTER + INTRA:          -4.855
REMARK INTER:                  -4.855
REMARK INTRA:                   0.000
REMARK UNBOUND:                 0.000
REMARK SMILES C=C1CCC[C@]2(C)CC(=O)C(=C(C)C)C[C@H]12
REMARK SMILES IDX 13 1 12 2 11 3 15 4 16 5 2 6 1 7 3 8 4 9 5 10 6 11 8 12 9 13
REMARK SMILES IDX 10 14 7 15 14 16
REMARK H PARENT
REMARK Flexibility Score: inf
ROOT
ATOM      1  C   UNL     1      57.006 -20.695   1.026  1.00  0.00     0.039 C 
ATOM      2  C   UNL     1      57.907 -19.704   0.325  1.00  0.00    -0.070 C 
ATOM      3  C   UNL     1      57.418 -18.867  -0.638  1.00  0.00    -0.006 C 
ATOM      4  C   UNL     1      55.972 -18.932  -1.103  1.00  0.00     0.047 C 
ATOM      5  C   UNL     1      55.440 -17.531  -1.497  1.00  0.00     0.025 C 
ATOM      6  C   UNL     1      53.983 -17.664  -1.928  1.00  0.00    -0.073 C 
ATOM      7  C   UNL     1      53.001 -17.601  -1.015  1.00  0.00     0.008 C 
ATOM      8  C   UNL     1      53.620 -17.961  -3.365  1.00  0.00     0.031 C 
ATOM      9  C   UNL     1      54.834 -17.892  -4.292  1.00  0.00     0.005 C 
ATOM     10  C   UNL     1      55.672 -16.657  -3.962  1.00  0.00     0.008 C 
ATOM     11  C   UNL     1      56.346 -16.760  -2.557  1.00  0.00    -0.018 C 
ATOM     12  C   UNL     1      57.737 -17.440  -2.730  1.00  0.00     0.088 C 
ATOM     13  C   UNL     1      58.267 -17.933  -1.420  1.00  0.00     0.159 C 
ATOM     14  O   UNL     1      59.380 -17.515  -1.002  1.00  0.00    -0.295 OA
ATOM     15  C   UNL     1      56.585 -15.315  -2.050  1.00  0.00     0.012 C 
ATOM     16  C   UNL     1      59.368 -19.708   0.710  1.00  0.00     0.039 C 
ENDROOT
TORSDOF 0
ENDMDL
MODEL 7
REMARK VINA RESULT:    -4.790      9.662     11.524
REMARK INTER + INTRA:          -4.790
REMARK INTER:                  -4.790
REMARK INTRA:                   0.000
REMARK UNBOUND:                 0.000
REMARK SMILES C=C1CCC[C@]2(C)CC(=O)C(=C(C)C)C[C@H]12
REMARK SMILES IDX 13 1 12 2 11 3 15 4 16 5 2 6 1 7 3 8 4 9 5 10 6 11 8 12 9 13
REMARK SMILES IDX 10 14 7 15 14 16
REMARK H PARENT
REMARK Flexibility Score: inf
ROOT
ATOM      1  C   UNL     1      57.270  -8.006   3.631  1.00  0.00     0.039 C 
ATOM      2  C   UNL     1      55.763  -8.100   3.551  1.00  0.00    -0.070 C 
ATOM      3  C   UNL     1      55.123  -8.127   2.344  1.00  0.00    -0.006 C 
ATOM      4  C   UNL     1      55.875  -7.995   1.030  1.00  0.00     0.047 C 
ATOM      5  C   UNL     1      55.200  -8.819  -0.095  1.00  0.00     0.025 C 
ATOM      6  C   UNL     1      56.016  -8.663  -1.374  1.00  0.00    -0.073 C 
ATOM      7  C   UNL     1      57.051  -9.483  -1.617  1.00  0.00     0.008 C 
ATOM      8  C   UNL     1      55.741  -7.534  -2.341  1.00  0.00     0.031 C 
ATOM      9  C   UNL     1      54.471  -6.763  -1.980  1.00  0.00     0.005 C 
ATOM     10  C   UNL     1      53.353  -7.740  -1.618  1.00  0.00     0.008 C 
ATOM     11  C   UNL     1      53.649  -8.511  -0.293  1.00  0.00    -0.018 C 
ATOM     12  C   UNL     1      53.069  -7.683   0.894  1.00  0.00     0.088 C 
ATOM     13  C   UNL     1      53.644  -8.132   2.201  1.00  0.00     0.159 C 
ATOM     14  O   UNL     1      52.875  -8.539   3.113  1.00  0.00    -0.295 OA
ATOM     15  C   UNL     1      52.878  -9.854  -0.355  1.00  0.00     0.012 C 
ATOM     16  C   UNL     1      55.003  -8.126   4.857  1.00  0.00     0.039 C 
ENDROOT
TORSDOF 0
ENDMDL
MODEL 8
REMARK VINA RESULT:    -4.779     10.361     11.767
REMARK INTER + INTRA:          -4.779
REMARK INTER:                  -4.779
REMARK INTRA:                   0.000
REMARK UNBOUND:                 0.000
REMARK SMILES C=C1CCC[C@]2(C)CC(=O)C(=C(C)C)C[C@H]12
REMARK SMILES IDX 13 1 12 2 11 3 15 4 16 5 2 6 1 7 3 8 4 9 5 10 6 11 8 12 9 13
REMARK SMILES IDX 10 14 7 15 14 16
REMARK H PARENT
REMARK Flexibility Score: inf
ROOT
ATOM      1  C   UNL     1      57.018  -8.480   0.102  1.00  0.00     0.039 C 
ATOM      2  C   UNL     1      55.575  -8.090   0.329  1.00  0.00    -0.070 C 
ATOM      3  C   UNL     1      54.983  -8.266   1.547  1.00  0.00    -0.006 C 
ATOM      4  C   UNL     1      55.710  -8.921   2.710  1.00  0.00     0.047 C 
ATOM      5  C   UNL     1      55.265  -8.321   4.067  1.00  0.00     0.025 C 
ATOM      6  C   UNL     1      56.049  -9.002   5.184  1.00  0.00    -0.073 C 
ATOM      7  C   UNL     1      57.249  -8.526   5.553  1.00  0.00     0.008 C 
ATOM      8  C   UNL     1      55.541 -10.270   5.832  1.00  0.00     0.031 C 
ATOM      9  C   UNL     1      54.121 -10.617   5.383  1.00  0.00     0.005 C 
ATOM     10  C   UNL     1      53.250  -9.361   5.392  1.00  0.00     0.008 C 
ATOM     11  C   UNL     1      53.689  -8.331   4.303  1.00  0.00    -0.018 C 
ATOM     12  C   UNL     1      52.911  -8.646   2.990  1.00  0.00     0.088 C 
ATOM     13  C   UNL     1      53.548  -7.983   1.809  1.00  0.00     0.159 C 
ATOM     14  O   UNL     1      52.875  -7.181   1.107  1.00  0.00    -0.295 OA
ATOM     15  C   UNL     1      53.249  -6.927   4.788  1.00  0.00     0.012 C 
ATOM     16  C   UNL     1      54.816  -7.536  -0.854  1.00  0.00     0.039 C 
ENDROOT
TORSDOF 0
ENDMDL
MODEL 9
REMARK VINA RESULT:    -4.655      2.370      5.087
REMARK INTER + INTRA:          -4.655
REMARK INTER:                  -4.655
REMARK INTRA:                   0.000
REMARK UNBOUND:                 0.000
REMARK SMILES C=C1CCC[C@]2(C)CC(=O)C(=C(C)C)C[C@H]12
REMARK SMILES IDX 13 1 12 2 11 3 15 4 16 5 2 6 1 7 3 8 4 9 5 10 6 11 8 12 9 13
REMARK SMILES IDX 10 14 7 15 14 16
REMARK H PARENT
REMARK Flexibility Score: inf
ROOT
ATOM      1  C   UNL     1      61.863 -19.377  -0.497  1.00  0.00     0.039 C 
ATOM      2  C   UNL     1      60.599 -18.630  -0.858  1.00  0.00    -0.070 C 
ATOM      3  C   UNL     1      59.500 -18.674  -0.048  1.00  0.00    -0.006 C 
ATOM      4  C   UNL     1      59.461 -19.522   1.213  1.00  0.00     0.047 C 
ATOM      5  C   UNL     1      58.600 -18.857   2.317  1.00  0.00     0.025 C 
ATOM      6  C   UNL     1      58.626 -19.745   3.557  1.00  0.00    -0.073 C 
ATOM      7  C   UNL     1      59.605 -19.606   4.465  1.00  0.00     0.008 C 
ATOM      8  C   UNL     1      57.613 -20.851   3.745  1.00  0.00     0.031 C 
ATOM      9  C   UNL     1      56.508 -20.806   2.688  1.00  0.00     0.005 C 
ATOM     10  C   UNL     1      56.031 -19.367   2.495  1.00  0.00     0.008 C 
ATOM     11  C   UNL     1      57.129 -18.462   1.851  1.00  0.00    -0.018 C 
ATOM     12  C   UNL     1      56.975 -18.534   0.302  1.00  0.00     0.088 C 
ATOM     13  C   UNL     1      58.204 -18.033  -0.390  1.00  0.00     0.159 C 
ATOM     14  O   UNL     1      58.115 -17.068  -1.195  1.00  0.00    -0.295 OA
ATOM     15  C   UNL     1      56.844 -17.003   2.288  1.00  0.00     0.012 C 
ATOM     16  C   UNL     1      60.597 -17.871  -2.164  1.00  0.00     0.039 C 
ENDROOT
TORSDOF 0
ENDMDL
