MODEL 1
REMARK VINA RESULT:    -3.211      0.000      0.000
REMARK INTER + INTRA:          -8.128
REMARK INTER:                  -5.839
REMARK INTRA:                  -2.289
REMARK UNBOUND:                -2.289
REMARK SMILES CCCCCCCCCCCCCCCC(=O)[O-]
REMARK SMILES IDX 9 1 10 2 11 3 12 4 13 5 14 6 15 7 16 8 17 9 18 10 8 11 7 12
REMARK SMILES IDX 6 13 5 14 4 15 3 16 2 17 1 18
REMARK H PARENT
REMARK Flexibility Score: inf
ROOT
ATOM      1  C   UNL     1      63.483  32.755  58.679  1.00  0.00     0.000 C 
ENDROOT
BRANCH   1   2
ATOM      2  C   UNL     1      62.053  32.416  59.121  1.00  0.00     0.000 C 
BRANCH   2   3
ATOM      3  C   UNL     1      61.969  32.269  60.647  1.00  0.00     0.000 C 
BRANCH   3   4
ATOM      4  C   UNL     1      60.988  31.169  61.081  1.00  0.00     0.000 C 
BRANCH   4   5
ATOM      5  C   UNL     1      61.695  29.974  61.742  1.00  0.00     0.000 C 
BRANCH   5   6
ATOM      6  C   UNL     1      63.227  30.068  61.650  1.00  0.00     0.006 C 
BRANCH   6   7
ATOM      7  C   UNL     1      63.851  28.859  60.942  1.00  0.00     0.053 C 
BRANCH   7   8
ATOM      8  C   UNL     1      64.086  29.163  59.497  1.00  0.00     0.041 C 
ATOM      9  O   UNL     1      65.209  29.584  59.113  1.00  0.00    -0.550 OA
ATOM     10  O   UNL     1      63.050  29.032  58.580  1.00  0.00    -0.550 OA
ENDBRANCH   7   8
ENDBRANCH   6   7
ENDBRANCH   5   6
ENDBRANCH   4   5
ENDBRANCH   3   4
ENDBRANCH   2   3
ENDBRANCH   1   2
BRANCH   1  11
ATOM     11  C   UNL     1      64.387  33.016  59.894  1.00  0.00     0.000 C 
BRANCH  11  12
ATOM     12  C   UNL     1      64.692  34.508  60.088  1.00  0.00    -0.000 C 
BRANCH  12  13
ATOM     13  C   UNL     1      64.390  34.992  61.518  1.00  0.00    -0.000 C 
BRANCH  13  14
ATOM     14  C   UNL     1      64.077  36.503  61.567  1.00  0.00    -0.000 C 
BRANCH  14  15
ATOM     15  C   UNL     1      62.816  36.894  60.776  1.00  0.00    -0.000 C 
BRANCH  15  16
ATOM     16  C   UNL     1      61.677  35.874  60.925  1.00  0.00    -0.000 C 
BRANCH  16  17
ATOM     17  C   UNL     1      60.691  35.915  59.747  1.00  0.00    -0.003 C 
ATOM     18  C   UNL     1      61.394  35.929  58.390  1.00  0.00     0.004 C 
ENDBRANCH  16  17
ENDBRANCH  15  16
ENDBRANCH  14  15
ENDBRANCH  13  14
ENDBRANCH  12  13
ENDBRANCH  11  12
ENDBRANCH   1  11
TORSDOF 14
ENDMDL
MODEL 2
REMARK VINA RESULT:    -3.148     10.993     12.977
REMARK INTER + INTRA:          -8.013
REMARK INTER:                  -5.494
REMARK INTRA:                  -2.519
REMARK UNBOUND:                -2.289
REMARK SMILES CCCCCCCCCCCCCCCC(=O)[O-]
REMARK SMILES IDX 9 1 10 2 11 3 12 4 13 5 14 6 15 7 16 8 17 9 18 10 8 11 7 12
REMARK SMILES IDX 6 13 5 14 4 15 3 16 2 17 1 18
REMARK H PARENT
REMARK Flexibility Score: inf
ROOT
ATOM      1  C   UNL     1      56.130  26.936  52.929  1.00  0.00     0.000 C 
ENDROOT
BRANCH   1   2
ATOM      2  C   UNL     1      57.431  27.363  52.237  1.00  0.00     0.000 C 
BRANCH   2   3
ATOM      3  C   UNL     1      57.840  28.781  52.661  1.00  0.00     0.000 C 
BRANCH   3   4
ATOM      4  C   UNL     1      58.156  29.688  51.461  1.00  0.00     0.000 C 
BRANCH   4   5
ATOM      5  C   UNL     1      57.883  29.000  50.112  1.00  0.00     0.000 C 
BRANCH   5   6
ATOM      6  C   UNL     1      59.121  28.976  49.200  1.00  0.00     0.006 C 
BRANCH   6   7
ATOM      7  C   UNL     1      59.825  27.614  49.197  1.00  0.00     0.053 C 
BRANCH   7   8
ATOM      8  C   UNL     1      61.066  27.665  50.031  1.00  0.00     0.041 C 
ATOM      9  O   UNL     1      61.025  27.337  51.247  1.00  0.00    -0.550 OA
ATOM     10  O   UNL     1      62.256  28.124  49.481  1.00  0.00    -0.550 OA
ENDBRANCH   7   8
ENDBRANCH   6   7
ENDBRANCH   5   6
ENDBRANCH   4   5
ENDBRANCH   3   4
ENDBRANCH   2   3
ENDBRANCH   1   2
BRANCH   1  11
ATOM     11  C   UNL     1      55.387  28.153  53.502  1.00  0.00     0.000 C 
BRANCH  11  12
ATOM     12  C   UNL     1      54.044  28.404  52.800  1.00  0.00    -0.000 C 
BRANCH  12  13
ATOM     13  C   UNL     1      54.082  29.634  51.876  1.00  0.00    -0.000 C 
BRANCH  13  14
ATOM     14  C   UNL     1      54.404  29.254  50.414  1.00  0.00    -0.000 C 
BRANCH  14  15
ATOM     15  C   UNL     1      53.777  27.919  49.975  1.00  0.00    -0.000 C 
BRANCH  15  16
ATOM     16  C   UNL     1      54.826  26.864  49.591  1.00  0.00    -0.000 C 
BRANCH  16  17
ATOM     17  C   UNL     1      54.272  25.433  49.651  1.00  0.00    -0.003 C 
ATOM     18  C   UNL     1      53.429  25.179  50.900  1.00  0.00     0.004 C 
ENDBRANCH  16  17
ENDBRANCH  15  16
ENDBRANCH  14  15
ENDBRANCH  13  14
ENDBRANCH  12  13
ENDBRANCH  11  12
ENDBRANCH   1  11
TORSDOF 14
ENDMDL
MODEL 3
REMARK VINA RESULT:    -3.130      1.854      3.240
REMARK INTER + INTRA:          -7.980
REMARK INTER:                  -5.679
REMARK INTRA:                  -2.300
REMARK UNBOUND:                -2.289
REMARK SMILES CCCCCCCCCCCCCCCC(=O)[O-]
REMARK SMILES IDX 9 1 10 2 11 3 12 4 13 5 14 6 15 7 16 8 17 9 18 10 8 11 7 12
REMARK SMILES IDX 6 13 5 14 4 15 3 16 2 17 1 18
REMARK H PARENT
REMARK Flexibility Score: inf
ROOT
ATOM      1  C   UNL     1      63.140  32.179  58.956  1.00  0.00     0.000 C 
ENDROOT
BRANCH   1   2
ATOM      2  C   UNL     1      64.136  32.127  60.121  1.00  0.00     0.000 C 
BRANCH   2   3
ATOM      3  C   UNL     1      65.157  30.997  59.922  1.00  0.00     0.000 C 
BRANCH   3   4
ATOM      4  C   UNL     1      64.877  29.782  60.821  1.00  0.00     0.000 C 
BRANCH   4   5
ATOM      5  C   UNL     1      64.226  28.617  60.056  1.00  0.00     0.000 C 
BRANCH   5   6
ATOM      6  C   UNL     1      62.705  28.547  60.268  1.00  0.00     0.006 C 
BRANCH   6   7
ATOM      7  C   UNL     1      62.259  29.226  61.569  1.00  0.00     0.053 C 
BRANCH   7   8
ATOM      8  C   UNL     1      61.000  30.003  61.347  1.00  0.00     0.041 C 
ATOM      9  O   UNL     1      60.739  31.003  62.067  1.00  0.00    -0.550 OA
ATOM     10  O   UNL     1      60.090  29.593  60.382  1.00  0.00    -0.550 OA
ENDBRANCH   7   8
ENDBRANCH   6   7
ENDBRANCH   5   6
ENDBRANCH   4   5
ENDBRANCH   3   4
ENDBRANCH   2   3
ENDBRANCH   1   2
BRANCH   1  11
ATOM     11  C   UNL     1      61.972  33.127  59.272  1.00  0.00     0.000 C 
BRANCH  11  12
ATOM     12  C   UNL     1      62.156  33.857  60.611  1.00  0.00    -0.000 C 
BRANCH  12  13
ATOM     13  C   UNL     1      61.767  35.343  60.531  1.00  0.00    -0.000 C 
BRANCH  13  14
ATOM     14  C   UNL     1      62.909  36.269  61.005  1.00  0.00    -0.000 C 
BRANCH  14  15
ATOM     15  C   UNL     1      64.087  35.514  61.643  1.00  0.00    -0.000 C 
BRANCH  15  16
ATOM     16  C   UNL     1      65.396  35.674  60.854  1.00  0.00    -0.000 C 
BRANCH  16  17
ATOM     17  C   UNL     1      65.163  36.172  59.419  1.00  0.00    -0.003 C 
ATOM     18  C   UNL     1      65.409  35.086  58.372  1.00  0.00     0.004 C 
ENDBRANCH  16  17
ENDBRANCH  15  16
ENDBRANCH  14  15
ENDBRANCH  13  14
ENDBRANCH  12  13
ENDBRANCH  11  12
ENDBRANCH   1  11
TORSDOF 14
ENDMDL
MODEL 4
REMARK VINA RESULT:    -3.085     11.762     13.223
REMARK INTER + INTRA:          -7.899
REMARK INTER:                  -6.052
REMARK INTRA:                  -1.846
REMARK UNBOUND:                -2.289
REMARK SMILES CCCCCCCCCCCCCCCC(=O)[O-]
REMARK SMILES IDX 9 1 10 2 11 3 12 4 13 5 14 6 15 7 16 8 17 9 18 10 8 11 7 12
REMARK SMILES IDX 6 13 5 14 4 15 3 16 2 17 1 18
REMARK H PARENT
REMARK Flexibility Score: inf
ROOT
ATOM      1  C   UNL     1      57.673  27.999  50.939  1.00  0.00     0.000 C 
ENDROOT
BRANCH   1   2
ATOM      2  C   UNL     1      57.871  29.194  49.996  1.00  0.00     0.000 C 
BRANCH   2   3
ATOM      3  C   UNL     1      59.193  29.071  49.224  1.00  0.00     0.000 C 
BRANCH   3   4
ATOM      4  C   UNL     1      60.338  28.529  50.094  1.00  0.00     0.000 C 
BRANCH   4   5
ATOM      5  C   UNL     1      60.914  27.208  49.557  1.00  0.00     0.000 C 
BRANCH   5   6
ATOM      6  C   UNL     1      60.861  26.075  50.595  1.00  0.00     0.006 C 
BRANCH   6   7
ATOM      7  C   UNL     1      60.110  24.840  50.082  1.00  0.00     0.053 C 
BRANCH   7   8
ATOM      8  C   UNL     1      61.027  23.660  50.018  1.00  0.00     0.041 C 
ATOM      9  O   UNL     1      62.271  23.818  50.137  1.00  0.00    -0.550 OA
ATOM     10  O   UNL     1      60.513  22.392  49.775  1.00  0.00    -0.550 OA
ENDBRANCH   7   8
ENDBRANCH   6   7
ENDBRANCH   5   6
ENDBRANCH   4   5
ENDBRANCH   3   4
ENDBRANCH   2   3
ENDBRANCH   1   2
BRANCH   1  11
ATOM     11  C   UNL     1      56.970  26.839  50.216  1.00  0.00     0.000 C 
BRANCH  11  12
ATOM     12  C   UNL     1      56.193  25.932  51.182  1.00  0.00    -0.000 C 
BRANCH  12  13
ATOM     13  C   UNL     1      54.682  25.919  50.895  1.00  0.00    -0.000 C 
BRANCH  13  14
ATOM     14  C   UNL     1      54.319  26.758  49.650  1.00  0.00    -0.000 C 
BRANCH  14  15
ATOM     15  C   UNL     1      53.374  27.932  49.954  1.00  0.00    -0.000 C 
BRANCH  15  16
ATOM     16  C   UNL     1      54.119  29.262  50.151  1.00  0.00    -0.000 C 
BRANCH  16  17
ATOM     17  C   UNL     1      54.309  29.618  51.634  1.00  0.00    -0.003 C 
ATOM     18  C   UNL     1      53.346  30.706  52.107  1.00  0.00     0.004 C 
ENDBRANCH  16  17
ENDBRANCH  15  16
ENDBRANCH  14  15
ENDBRANCH  13  14
ENDBRANCH  12  13
ENDBRANCH  11  12
ENDBRANCH   1  11
TORSDOF 14
ENDMDL
MODEL 5
REMARK VINA RESULT:    -3.071      1.394      3.069
REMARK INTER + INTRA:          -7.874
REMARK INTER:                  -6.166
REMARK INTRA:                  -1.707
REMARK UNBOUND:                -2.289
REMARK SMILES CCCCCCCCCCCCCCCC(=O)[O-]
REMARK SMILES IDX 9 1 10 2 11 3 12 4 13 5 14 6 15 7 16 8 17 9 18 10 8 11 7 12
REMARK SMILES IDX 6 13 5 14 4 15 3 16 2 17 1 18
REMARK H PARENT
REMARK Flexibility Score: inf
ROOT
ATOM      1  C   UNL     1      62.164  31.664  59.609  1.00  0.00     0.000 C 
ENDROOT
BRANCH   1   2
ATOM      2  C   UNL     1      61.265  31.926  60.824  1.00  0.00     0.000 C 
BRANCH   2   3
ATOM      3  C   UNL     1      60.937  30.618  61.559  1.00  0.00     0.000 C 
BRANCH   3   4
ATOM      4  C   UNL     1      62.192  29.792  61.883  1.00  0.00     0.000 C 
BRANCH   4   5
ATOM      5  C   UNL     1      62.091  28.342  61.381  1.00  0.00     0.000 C 
BRANCH   5   6
ATOM      6  C   UNL     1      63.467  27.706  61.128  1.00  0.00     0.006 C 
BRANCH   6   7
ATOM      7  C   UNL     1      64.220  28.372  59.969  1.00  0.00     0.053 C 
BRANCH   7   8
ATOM      8  C   UNL     1      65.491  28.991  60.459  1.00  0.00     0.041 C 
ATOM      9  O   UNL     1      65.740  30.202  60.215  1.00  0.00    -0.550 OA
ATOM     10  O   UNL     1      66.424  28.219  61.139  1.00  0.00    -0.550 OA
ENDBRANCH   7   8
ENDBRANCH   6   7
ENDBRANCH   5   6
ENDBRANCH   4   5
ENDBRANCH   3   4
ENDBRANCH   2   3
ENDBRANCH   1   2
BRANCH   1  11
ATOM     11  C   UNL     1      61.421  31.968  58.299  1.00  0.00     0.000 C 
BRANCH  11  12
ATOM     12  C   UNL     1      60.303  33.005  58.486  1.00  0.00    -0.000 C 
BRANCH  12  13
ATOM     13  C   UNL     1      60.617  34.343  57.796  1.00  0.00    -0.000 C 
BRANCH  13  14
ATOM     14  C   UNL     1      61.608  35.201  58.613  1.00  0.00    -0.000 C 
BRANCH  14  15
ATOM     15  C   UNL     1      61.139  35.476  60.052  1.00  0.00    -0.000 C 
BRANCH  15  16
ATOM     16  C   UNL     1      62.295  35.845  60.996  1.00  0.00    -0.000 C 
BRANCH  16  17
ATOM     17  C   UNL     1      63.509  34.917  60.831  1.00  0.00    -0.003 C 
ATOM     18  C   UNL     1      64.677  35.310  61.734  1.00  0.00     0.004 C 
ENDBRANCH  16  17
ENDBRANCH  15  16
ENDBRANCH  14  15
ENDBRANCH  13  14
ENDBRANCH  12  13
ENDBRANCH  11  12
ENDBRANCH   1  11
TORSDOF 14
ENDMDL
MODEL 6
REMARK VINA RESULT:    -3.065      2.717      5.804
REMARK INTER + INTRA:          -7.863
REMARK INTER:                  -5.981
REMARK INTRA:                  -1.881
REMARK UNBOUND:                -2.289
REMARK SMILES CCCCCCCCCCCCCCCC(=O)[O-]
REMARK SMILES IDX 9 1 10 2 11 3 12 4 13 5 14 6 15 7 16 8 17 9 18 10 8 11 7 12
REMARK SMILES IDX 6 13 5 14 4 15 3 16 2 17 1 18
REMARK H PARENT
REMARK Flexibility Score: inf
ROOT
ATOM      1  C   UNL     1      62.642  34.455  60.654  1.00  0.00     0.000 C 
ENDROOT
BRANCH   1   2
ATOM      2  C   UNL     1      62.933  35.916  61.024  1.00  0.00     0.000 C 
BRANCH   2   3
ATOM      3  C   UNL     1      61.654  36.763  60.966  1.00  0.00     0.000 C 
BRANCH   3   4
ATOM      4  C   UNL     1      60.496  36.038  60.263  1.00  0.00     0.000 C 
BRANCH   4   5
ATOM      5  C   UNL     1      60.068  36.734  58.959  1.00  0.00     0.000 C 
BRANCH   5   6
ATOM      6  C   UNL     1      60.178  35.811  57.734  1.00  0.00     0.006 C 
BRANCH   6   7
ATOM      7  C   UNL     1      59.919  34.339  58.079  1.00  0.00     0.053 C 
BRANCH   7   8
ATOM      8  C   UNL     1      58.635  33.877  57.468  1.00  0.00     0.041 C 
ATOM      9  O   UNL     1      57.993  34.636  56.694  1.00  0.00    -0.550 OA
ATOM     10  O   UNL     1      58.120  32.628  57.791  1.00  0.00    -0.550 OA
ENDBRANCH   7   8
ENDBRANCH   6   7
ENDBRANCH   5   6
ENDBRANCH   4   5
ENDBRANCH   3   4
ENDBRANCH   2   3
ENDBRANCH   1   2
BRANCH   1  11
ATOM     11  C   UNL     1      63.909  33.594  60.775  1.00  0.00     0.000 C 
BRANCH  11  12
ATOM     12  C   UNL     1      64.111  32.674  59.562  1.00  0.00    -0.000 C 
BRANCH  12  13
ATOM     13  C   UNL     1      64.669  31.295  59.952  1.00  0.00    -0.000 C 
BRANCH  13  14
ATOM     14  C   UNL     1      64.072  30.780  61.281  1.00  0.00    -0.000 C 
BRANCH  14  15
ATOM     15  C   UNL     1      63.010  29.684  61.092  1.00  0.00    -0.000 C 
BRANCH  15  16
ATOM     16  C   UNL     1      61.709  29.975  61.856  1.00  0.00    -0.000 C 
BRANCH  16  17
ATOM     17  C   UNL     1      60.991  31.232  61.341  1.00  0.00    -0.003 C 
ATOM     18  C   UNL     1      60.616  31.132  59.863  1.00  0.00     0.004 C 
ENDBRANCH  16  17
ENDBRANCH  15  16
ENDBRANCH  14  15
ENDBRANCH  13  14
ENDBRANCH  12  13
ENDBRANCH  11  12
ENDBRANCH   1  11
TORSDOF 14
ENDMDL
MODEL 7
REMARK VINA RESULT:    -3.003     10.624     12.702
REMARK INTER + INTRA:          -7.750
REMARK INTER:                  -5.682
REMARK INTRA:                  -2.068
REMARK UNBOUND:                -2.289
REMARK SMILES CCCCCCCCCCCCCCCC(=O)[O-]
REMARK SMILES IDX 9 1 10 2 11 3 12 4 13 5 14 6 15 7 16 8 17 9 18 10 8 11 7 12
REMARK SMILES IDX 6 13 5 14 4 15 3 16 2 17 1 18
REMARK H PARENT
REMARK Flexibility Score: inf
ROOT
ATOM      1  C   UNL     1      59.809  26.091  51.140  1.00  0.00     0.000 C 
ENDROOT
BRANCH   1   2
ATOM      2  C   UNL     1      60.708  26.889  50.187  1.00  0.00     0.000 C 
BRANCH   2   3
ATOM      3  C   UNL     1      59.877  27.581  49.097  1.00  0.00     0.000 C 
BRANCH   3   4
ATOM      4  C   UNL     1      59.529  29.035  49.453  1.00  0.00     0.000 C 
BRANCH   4   5
ATOM      5  C   UNL     1      58.051  29.210  49.842  1.00  0.00     0.000 C 
BRANCH   5   6
ATOM      6  C   UNL     1      57.853  29.364  51.359  1.00  0.00     0.006 C 
BRANCH   6   7
ATOM      7  C   UNL     1      59.097  29.919  52.062  1.00  0.00     0.053 C 
BRANCH   7   8
ATOM      8  C   UNL     1      59.491  29.035  53.203  1.00  0.00     0.041 C 
ATOM      9  O   UNL     1      58.609  28.534  53.949  1.00  0.00    -0.550 OA
ATOM     10  O   UNL     1      60.834  28.805  53.474  1.00  0.00    -0.550 OA
ENDBRANCH   7   8
ENDBRANCH   6   7
ENDBRANCH   5   6
ENDBRANCH   4   5
ENDBRANCH   3   4
ENDBRANCH   2   3
ENDBRANCH   1   2
BRANCH   1  11
ATOM     11  C   UNL     1      58.659  25.416  50.376  1.00  0.00     0.000 C 
BRANCH  11  12
ATOM     12  C   UNL     1      57.284  25.740  50.980  1.00  0.00    -0.000 C 
BRANCH  12  13
ATOM     13  C   UNL     1      56.222  26.032  49.906  1.00  0.00    -0.000 C 
BRANCH  13  14
ATOM     14  C   UNL     1      54.800  26.117  50.502  1.00  0.00    -0.000 C 
BRANCH  14  15
ATOM     15  C   UNL     1      53.924  27.201  49.850  1.00  0.00    -0.000 C 
BRANCH  15  16
ATOM     16  C   UNL     1      54.448  28.623  50.103  1.00  0.00    -0.000 C 
BRANCH  16  17
ATOM     17  C   UNL     1      53.338  29.589  50.549  1.00  0.00    -0.003 C 
ATOM     18  C   UNL     1      53.819  30.599  51.590  1.00  0.00     0.004 C 
ENDBRANCH  16  17
ENDBRANCH  15  16
ENDBRANCH  14  15
ENDBRANCH  13  14
ENDBRANCH  12  13
ENDBRANCH  11  12
ENDBRANCH   1  11
TORSDOF 14
ENDMDL
MODEL 8
REMARK VINA RESULT:    -2.977     10.777     12.961
REMARK INTER + INTRA:          -7.702
REMARK INTER:                  -5.401
REMARK INTRA:                  -2.301
REMARK UNBOUND:                -2.289
REMARK SMILES CCCCCCCCCCCCCCCC(=O)[O-]
REMARK SMILES IDX 9 1 10 2 11 3 12 4 13 5 14 6 15 7 16 8 17 9 18 10 8 11 7 12
REMARK SMILES IDX 6 13 5 14 4 15 3 16 2 17 1 18
REMARK H PARENT
REMARK Flexibility Score: inf
ROOT
ATOM      1  C   UNL     1      56.697  29.528  52.121  1.00  0.00     0.000 C 
ENDROOT
BRANCH   1   2
ATOM      2  C   UNL     1      58.101  29.402  51.516  1.00  0.00     0.000 C 
BRANCH   2   3
ATOM      3  C   UNL     1      58.030  29.205  49.995  1.00  0.00     0.000 C 
BRANCH   3   4
ATOM      4  C   UNL     1      59.419  29.163  49.339  1.00  0.00     0.000 C 
BRANCH   4   5
ATOM      5  C   UNL     1      59.901  27.728  49.069  1.00  0.00     0.000 C 
BRANCH   5   6
ATOM      6  C   UNL     1      60.872  27.218  50.146  1.00  0.00     0.006 C 
BRANCH   6   7
ATOM      7  C   UNL     1      61.087  25.701  50.075  1.00  0.00     0.053 C 
BRANCH   7   8
ATOM      8  C   UNL     1      61.612  25.186  51.379  1.00  0.00     0.041 C 
ATOM      9  O   UNL     1      61.460  23.974  51.687  1.00  0.00    -0.550 OA
ATOM     10  O   UNL     1      62.222  26.054  52.275  1.00  0.00    -0.550 OA
ENDBRANCH   7   8
ENDBRANCH   6   7
ENDBRANCH   5   6
ENDBRANCH   4   5
ENDBRANCH   3   4
ENDBRANCH   2   3
ENDBRANCH   1   2
BRANCH   1  11
ATOM     11  C   UNL     1      55.616  29.388  51.037  1.00  0.00     0.000 C 
BRANCH  11  12
ATOM     12  C   UNL     1      54.488  28.433  51.454  1.00  0.00    -0.000 C 
BRANCH  12  13
ATOM     13  C   UNL     1      53.697  27.892  50.250  1.00  0.00    -0.000 C 
BRANCH  13  14
ATOM     14  C   UNL     1      54.435  26.735  49.541  1.00  0.00    -0.000 C 
BRANCH  14  15
ATOM     15  C   UNL     1      55.280  25.872  50.494  1.00  0.00    -0.000 C 
BRANCH  15  16
ATOM     16  C   UNL     1      56.778  25.894  50.149  1.00  0.00    -0.000 C 
BRANCH  16  17
ATOM     17  C   UNL     1      57.670  25.683  51.382  1.00  0.00    -0.003 C 
ATOM     18  C   UNL     1      56.904  25.834  52.696  1.00  0.00     0.004 C 
ENDBRANCH  16  17
ENDBRANCH  15  16
ENDBRANCH  14  15
ENDBRANCH  13  14
ENDBRANCH  12  13
ENDBRANCH  11  12
ENDBRANCH   1  11
TORSDOF 14
ENDMDL
MODEL 9
REMARK VINA RESULT:    -2.942     10.594     12.961
REMARK INTER + INTRA:          -7.639
REMARK INTER:                  -4.805
REMARK INTRA:                  -2.834
REMARK UNBOUND:                -2.289
REMARK SMILES CCCCCCCCCCCCCCCC(=O)[O-]
REMARK SMILES IDX 9 1 10 2 11 3 12 4 13 5 14 6 15 7 16 8 17 9 18 10 8 11 7 12
REMARK SMILES IDX 6 13 5 14 4 15 3 16 2 17 1 18
REMARK H PARENT
REMARK Flexibility Score: inf
ROOT
ATOM      1  C   UNL     1      60.877  28.783  51.680  1.00  0.00     0.000 C 
ENDROOT
BRANCH   1   2
ATOM      2  C   UNL     1      60.054  28.200  52.837  1.00  0.00     0.000 C 
BRANCH   2   3
ATOM      3  C   UNL     1      58.551  28.261  52.527  1.00  0.00     0.000 C 
BRANCH   3   4
ATOM      4  C   UNL     1      58.215  29.277  51.425  1.00  0.00     0.000 C 
BRANCH   4   5
ATOM      5  C   UNL     1      57.128  28.767  50.463  1.00  0.00     0.000 C 
BRANCH   5   6
ATOM      6  C   UNL     1      56.324  27.594  51.047  1.00  0.00     0.006 C 
BRANCH   6   7
ATOM      7  C   UNL     1      56.099  26.469  50.030  1.00  0.00     0.053 C 
BRANCH   7   8
ATOM      8  C   UNL     1      54.647  26.354  49.690  1.00  0.00     0.041 C 
ATOM      9  O   UNL     1      54.130  25.222  49.496  1.00  0.00    -0.550 OA
ATOM     10  O   UNL     1      53.875  27.499  49.538  1.00  0.00    -0.550 OA
ENDBRANCH   7   8
ENDBRANCH   6   7
ENDBRANCH   5   6
ENDBRANCH   4   5
ENDBRANCH   3   4
ENDBRANCH   2   3
ENDBRANCH   1   2
BRANCH   1  11
ATOM     11  C   UNL     1      62.082  27.886  51.356  1.00  0.00     0.000 C 
BRANCH  11  12
ATOM     12  C   UNL     1      61.914  27.138  50.025  1.00  0.00    -0.000 C 
BRANCH  12  13
ATOM     13  C   UNL     1      60.584  27.467  49.325  1.00  0.00    -0.000 C 
BRANCH  13  14
ATOM     14  C   UNL     1      59.638  26.249  49.271  1.00  0.00    -0.000 C 
BRANCH  14  15
ATOM     15  C   UNL     1      60.096  25.076  50.155  1.00  0.00    -0.000 C 
BRANCH  15  16
ATOM     16  C   UNL     1      59.123  24.779  51.306  1.00  0.00    -0.000 C 
BRANCH  16  17
ATOM     17  C   UNL     1      59.846  24.488  52.630  1.00  0.00    -0.003 C 
ATOM     18  C   UNL     1      61.361  24.373  52.460  1.00  0.00     0.004 C 
ENDBRANCH  16  17
ENDBRANCH  15  16
ENDBRANCH  14  15
ENDBRANCH  13  14
ENDBRANCH  12  13
ENDBRANCH  11  12
ENDBRANCH   1  11
TORSDOF 14
ENDMDL
