MODEL 1
REMARK VINA RESULT:    -3.494      0.000      0.000
REMARK INTER + INTRA:          -4.002
REMARK INTER:                  -3.903
REMARK INTRA:                  -0.099
REMARK UNBOUND:                -0.099
REMARK SMILES O=C([O-])c1ccccc1C(=O)[O-]
REMARK SMILES IDX 4 1 9 2 5 3 8 4 6 5 7 6 2 7 1 8 3 9 10 10 11 11 12 12
REMARK H PARENT
REMARK Flexibility Score: inf
ROOT
ATOM      1  C   UNL     1      23.761  30.524   7.233  1.00  0.00     0.006 A 
ATOM      2  C   UNL     1      23.010  31.069   6.153  1.00  0.00     0.006 A 
ATOM      3  C   UNL     1      23.528  30.999   8.537  1.00  0.00     0.010 A 
ATOM      4  C   UNL     1      22.011  32.021   6.428  1.00  0.00     0.010 A 
ATOM      5  C   UNL     1      22.547  31.961   8.782  1.00  0.00     0.001 A 
ATOM      6  C   UNL     1      21.782  32.461   7.732  1.00  0.00     0.001 A 
ENDROOT
BRANCH   1   7
ATOM      7  C   UNL     1      24.736  29.422   7.063  1.00  0.00     0.072 C 
ATOM      8  O   UNL     1      25.947  29.580   7.371  1.00  0.00    -0.545 OA
ATOM      9  O   UNL     1      24.335  28.217   6.496  1.00  0.00    -0.545 OA
ENDBRANCH   1   7
BRANCH   2  10
ATOM     10  C   UNL     1      23.275  30.734   4.735  1.00  0.00     0.072 C 
ATOM     11  O   UNL     1      24.106  31.398   4.060  1.00  0.00    -0.545 OA
ATOM     12  O   UNL     1      22.556  29.720   4.113  1.00  0.00    -0.545 OA
ENDBRANCH   2  10
TORSDOF 2
ENDMDL
MODEL 2
REMARK VINA RESULT:    -3.470      0.087      2.883
REMARK INTER + INTRA:          -3.975
REMARK INTER:                  -3.907
REMARK INTRA:                  -0.068
REMARK UNBOUND:                -0.099
REMARK SMILES O=C([O-])c1ccccc1C(=O)[O-]
REMARK SMILES IDX 4 1 9 2 5 3 8 4 6 5 7 6 2 7 1 8 3 9 10 10 11 11 12 12
REMARK H PARENT
REMARK Flexibility Score: inf
ROOT
ATOM      1  C   UNL     1      22.976  31.119   6.156  1.00  0.00     0.006 A 
ATOM      2  C   UNL     1      23.744  30.543   7.208  1.00  0.00     0.006 A 
ATOM      3  C   UNL     1      21.984  32.066   6.471  1.00  0.00     0.010 A 
ATOM      4  C   UNL     1      23.533  30.984   8.527  1.00  0.00     0.010 A 
ATOM      5  C   UNL     1      21.778  32.471   7.791  1.00  0.00     0.001 A 
ATOM      6  C   UNL     1      22.559  31.941   8.815  1.00  0.00     0.001 A 
ENDROOT
BRANCH   1   7
ATOM      7  C   UNL     1      23.217  30.822   4.724  1.00  0.00     0.072 C 
ATOM      8  O   UNL     1      24.026  31.512   4.050  1.00  0.00    -0.545 OA
ATOM      9  O   UNL     1      22.498  29.815   4.091  1.00  0.00    -0.545 OA
ENDBRANCH   1   7
BRANCH   2  10
ATOM     10  C   UNL     1      24.713  29.444   6.993  1.00  0.00     0.072 C 
ATOM     11  O   UNL     1      25.921  29.577   7.321  1.00  0.00    -0.545 OA
ATOM     12  O   UNL     1      24.309  28.273   6.362  1.00  0.00    -0.545 OA
ENDBRANCH   2  10
TORSDOF 2
ENDMDL
MODEL 3
REMARK VINA RESULT:    -3.297      2.063      3.496
REMARK INTER + INTRA:          -3.782
REMARK INTER:                  -3.560
REMARK INTRA:                  -0.222
REMARK UNBOUND:                -0.099
REMARK SMILES O=C([O-])c1ccccc1C(=O)[O-]
REMARK SMILES IDX 4 1 9 2 5 3 8 4 6 5 7 6 2 7 1 8 3 9 10 10 11 11 12 12
REMARK H PARENT
REMARK Flexibility Score: inf
ROOT
ATOM      1  C   UNL     1      22.696  31.310   4.941  1.00  0.00     0.006 A 
ATOM      2  C   UNL     1      23.732  30.338   4.846  1.00  0.00     0.006 A 
ATOM      3  C   UNL     1      22.334  31.803   6.208  1.00  0.00     0.010 A 
ATOM      4  C   UNL     1      24.409  29.944   6.014  1.00  0.00     0.010 A 
ATOM      5  C   UNL     1      23.005  31.380   7.357  1.00  0.00     0.001 A 
ATOM      6  C   UNL     1      24.048  30.463   7.259  1.00  0.00     0.001 A 
ENDROOT
BRANCH   1   7
ATOM      7  C   UNL     1      22.019  31.888   3.756  1.00  0.00     0.072 C 
ATOM      8  O   UNL     1      22.387  32.993   3.278  1.00  0.00    -0.545 OA
ATOM      9  O   UNL     1      20.920  31.244   3.199  1.00  0.00    -0.545 OA
ENDBRANCH   1   7
BRANCH   2  10
ATOM     10  C   UNL     1      24.091  29.661   3.578  1.00  0.00     0.072 C 
ATOM     11  O   UNL     1      25.054  30.072   2.878  1.00  0.00    -0.545 OA
ATOM     12  O   UNL     1      23.323  28.601   3.112  1.00  0.00    -0.545 OA
ENDBRANCH   2  10
TORSDOF 2
ENDMDL
MODEL 4
REMARK VINA RESULT:    -3.258      2.021      2.771
REMARK INTER + INTRA:          -3.737
REMARK INTER:                  -3.526
REMARK INTRA:                  -0.211
REMARK UNBOUND:                -0.099
REMARK SMILES O=C([O-])c1ccccc1C(=O)[O-]
REMARK SMILES IDX 4 1 9 2 5 3 8 4 6 5 7 6 2 7 1 8 3 9 10 10 11 11 12 12
REMARK H PARENT
REMARK Flexibility Score: inf
ROOT
ATOM      1  C   UNL     1      23.682  30.287   4.911  1.00  0.00     0.006 A 
ATOM      2  C   UNL     1      22.660  31.276   4.974  1.00  0.00     0.006 A 
ATOM      3  C   UNL     1      24.361  29.928   6.090  1.00  0.00     0.010 A 
ATOM      4  C   UNL     1      22.313  31.821   6.223  1.00  0.00     0.010 A 
ATOM      5  C   UNL     1      24.014  30.499   7.315  1.00  0.00     0.001 A 
ATOM      6  C   UNL     1      22.984  31.434   7.384  1.00  0.00     0.001 A 
ENDROOT
BRANCH   1   7
ATOM      7  C   UNL     1      24.024  29.557   3.668  1.00  0.00     0.072 C 
ATOM      8  O   UNL     1      23.405  28.509   3.344  1.00  0.00    -0.545 OA
ATOM      9  O   UNL     1      25.084  29.987   2.877  1.00  0.00    -0.545 OA
ENDBRANCH   1   7
BRANCH   2  10
ATOM     10  C   UNL     1      21.984  31.817   3.772  1.00  0.00     0.072 C 
ATOM     11  O   UNL     1      22.340  32.917   3.272  1.00  0.00    -0.545 OA
ATOM     12  O   UNL     1      20.901  31.144   3.219  1.00  0.00    -0.545 OA
ENDBRANCH   2  10
TORSDOF 2
ENDMDL
MODEL 5
REMARK VINA RESULT:    -3.131      1.907      3.994
REMARK INTER + INTRA:          -3.596
REMARK INTER:                  -3.708
REMARK INTRA:                   0.112
REMARK UNBOUND:                -0.099
REMARK SMILES O=C([O-])c1ccccc1C(=O)[O-]
REMARK SMILES IDX 4 1 9 2 5 3 8 4 6 5 7 6 2 7 1 8 3 9 10 10 11 11 12 12
REMARK H PARENT
REMARK Flexibility Score: inf
ROOT
ATOM      1  C   UNL     1      23.609  30.921   5.675  1.00  0.00     0.006 A 
ATOM      2  C   UNL     1      24.335  29.709   5.492  1.00  0.00     0.006 A 
ATOM      3  C   UNL     1      23.345  31.736   4.558  1.00  0.00     0.010 A 
ATOM      4  C   UNL     1      24.712  29.329   4.191  1.00  0.00     0.010 A 
ATOM      5  C   UNL     1      23.750  31.349   3.280  1.00  0.00     0.001 A 
ATOM      6  C   UNL     1      24.420  30.142   3.095  1.00  0.00     0.001 A 
ENDROOT
BRANCH   1   7
ATOM      7  C   UNL     1      23.051  31.338   6.982  1.00  0.00     0.072 C 
ATOM      8  O   UNL     1      21.848  31.697   7.084  1.00  0.00    -0.545 OA
ATOM      9  O   UNL     1      23.872  31.403   8.102  1.00  0.00    -0.545 OA
ENDBRANCH   1   7
BRANCH   2  10
ATOM     10  C   UNL     1      24.777  28.855   6.618  1.00  0.00     0.072 C 
ATOM     11  O   UNL     1      25.827  29.125   7.258  1.00  0.00    -0.545 OA
ATOM     12  O   UNL     1      24.069  27.703   6.938  1.00  0.00    -0.545 OA
ENDBRANCH   2  10
TORSDOF 2
ENDMDL
MODEL 6
REMARK VINA RESULT:    -3.130      1.903      3.522
REMARK INTER + INTRA:          -3.595
REMARK INTER:                  -3.691
REMARK INTRA:                   0.096
REMARK UNBOUND:                -0.099
REMARK SMILES O=C([O-])c1ccccc1C(=O)[O-]
REMARK SMILES IDX 4 1 9 2 5 3 8 4 6 5 7 6 2 7 1 8 3 9 10 10 11 11 12 12
REMARK H PARENT
REMARK Flexibility Score: inf
ROOT
ATOM      1  C   UNL     1      24.330  29.692   5.500  1.00  0.00     0.006 A 
ATOM      2  C   UNL     1      23.610  30.909   5.675  1.00  0.00     0.006 A 
ATOM      3  C   UNL     1      24.705  29.299   4.202  1.00  0.00     0.010 A 
ATOM      4  C   UNL     1      23.352  31.716   4.552  1.00  0.00     0.010 A 
ATOM      5  C   UNL     1      24.417  30.106   3.101  1.00  0.00     0.001 A 
ATOM      6  C   UNL     1      23.753  31.317   3.277  1.00  0.00     0.001 A 
ENDROOT
BRANCH   1   7
ATOM      7  C   UNL     1      24.769  28.844   6.633  1.00  0.00     0.072 C 
ATOM      8  O   UNL     1      24.084  27.852   6.999  1.00  0.00    -0.545 OA
ATOM      9  O   UNL     1      25.912  29.176   7.351  1.00  0.00    -0.545 OA
ENDBRANCH   1   7
BRANCH   2  10
ATOM     10  C   UNL     1      23.055  31.339   6.979  1.00  0.00     0.072 C 
ATOM     11  O   UNL     1      21.851  31.693   7.082  1.00  0.00    -0.545 OA
ATOM     12  O   UNL     1      23.880  31.420   8.094  1.00  0.00    -0.545 OA
ENDBRANCH   2  10
TORSDOF 2
ENDMDL
MODEL 7
REMARK VINA RESULT:    -3.113      2.200      4.086
REMARK INTER + INTRA:          -3.576
REMARK INTER:                  -3.384
REMARK INTRA:                  -0.192
REMARK UNBOUND:                -0.099
REMARK SMILES O=C([O-])c1ccccc1C(=O)[O-]
REMARK SMILES IDX 4 1 9 2 5 3 8 4 6 5 7 6 2 7 1 8 3 9 10 10 11 11 12 12
REMARK H PARENT
REMARK Flexibility Score: inf
ROOT
ATOM      1  C   UNL     1      23.950  28.147   5.640  1.00  0.00     0.006 A 
ATOM      2  C   UNL     1      24.271  29.387   6.261  1.00  0.00     0.006 A 
ATOM      3  C   UNL     1      24.854  27.074   5.743  1.00  0.00     0.010 A 
ATOM      4  C   UNL     1      25.454  29.486   7.016  1.00  0.00     0.010 A 
ATOM      5  C   UNL     1      26.033  27.203   6.480  1.00  0.00     0.001 A 
ATOM      6  C   UNL     1      26.326  28.402   7.125  1.00  0.00     0.001 A 
ENDROOT
BRANCH   1   7
ATOM      7  C   UNL     1      22.667  27.903   4.940  1.00  0.00     0.072 C 
ATOM      8  O   UNL     1      21.766  27.202   5.471  1.00  0.00    -0.545 OA
ATOM      9  O   UNL     1      22.470  28.393   3.653  1.00  0.00    -0.545 OA
ENDBRANCH   1   7
BRANCH   2  10
ATOM     10  C   UNL     1      23.452  30.610   6.096  1.00  0.00     0.072 C 
ATOM     11  O   UNL     1      22.633  30.963   6.985  1.00  0.00    -0.545 OA
ATOM     12  O   UNL     1      23.533  31.348   4.921  1.00  0.00    -0.545 OA
ENDBRANCH   2  10
TORSDOF 2
ENDMDL
MODEL 8
REMARK VINA RESULT:    -3.094      2.187      4.040
REMARK INTER + INTRA:          -3.555
REMARK INTER:                  -3.373
REMARK INTRA:                  -0.182
REMARK UNBOUND:                -0.099
REMARK SMILES O=C([O-])c1ccccc1C(=O)[O-]
REMARK SMILES IDX 4 1 9 2 5 3 8 4 6 5 7 6 2 7 1 8 3 9 10 10 11 11 12 12
REMARK H PARENT
REMARK Flexibility Score: inf
ROOT
ATOM      1  C   UNL     1      24.299  29.389   6.264  1.00  0.00     0.006 A 
ATOM      2  C   UNL     1      23.950  28.159   5.638  1.00  0.00     0.006 A 
ATOM      3  C   UNL     1      25.493  29.466   7.006  1.00  0.00     0.010 A 
ATOM      4  C   UNL     1      24.839  27.073   5.723  1.00  0.00     0.010 A 
ATOM      5  C   UNL     1      26.349  28.367   7.095  1.00  0.00     0.001 A 
ATOM      6  C   UNL     1      26.029  27.178   6.445  1.00  0.00     0.001 A 
ENDROOT
BRANCH   1   7
ATOM      7  C   UNL     1      23.497  30.627   6.118  1.00  0.00     0.072 C 
ATOM      8  O   UNL     1      22.698  30.987   7.022  1.00  0.00    -0.545 OA
ATOM      9  O   UNL     1      23.570  31.370   4.945  1.00  0.00    -0.545 OA
ENDBRANCH   1   7
BRANCH   2  10
ATOM     10  C   UNL     1      22.655  27.941   4.953  1.00  0.00     0.072 C 
ATOM     11  O   UNL     1      21.758  27.232   5.481  1.00  0.00    -0.545 OA
ATOM     12  O   UNL     1      22.442  28.464   3.683  1.00  0.00    -0.545 OA
ENDBRANCH   2  10
TORSDOF 2
ENDMDL
MODEL 9
REMARK VINA RESULT:    -3.055      1.487      3.452
REMARK INTER + INTRA:          -3.512
REMARK INTER:                  -3.355
REMARK INTRA:                  -0.157
REMARK UNBOUND:                -0.099
REMARK SMILES O=C([O-])c1ccccc1C(=O)[O-]
REMARK SMILES IDX 4 1 9 2 5 3 8 4 6 5 7 6 2 7 1 8 3 9 10 10 11 11 12 12
REMARK H PARENT
REMARK Flexibility Score: inf
ROOT
ATOM      1  C   UNL     1      23.687  29.868   4.719  1.00  0.00     0.006 A 
ATOM      2  C   UNL     1      23.941  29.826   6.119  1.00  0.00     0.006 A 
ATOM      3  C   UNL     1      22.800  30.837   4.213  1.00  0.00     0.010 A 
ATOM      4  C   UNL     1      23.349  30.794   6.950  1.00  0.00     0.010 A 
ATOM      5  C   UNL     1      22.207  31.773   5.060  1.00  0.00     0.001 A 
ATOM      6  C   UNL     1      22.490  31.760   6.424  1.00  0.00     0.001 A 
ENDROOT
BRANCH   1   7
ATOM      7  C   UNL     1      24.368  28.981   3.747  1.00  0.00     0.072 C 
ATOM      8  O   UNL     1      25.432  29.343   3.179  1.00  0.00    -0.545 OA
ATOM      9  O   UNL     1      23.800  27.760   3.401  1.00  0.00    -0.545 OA
ENDBRANCH   1   7
BRANCH   2  10
ATOM     10  C   UNL     1      24.749  28.764   6.762  1.00  0.00     0.072 C 
ATOM     11  O   UNL     1      24.333  27.576   6.807  1.00  0.00    -0.545 OA
ATOM     12  O   UNL     1      25.951  29.083   7.383  1.00  0.00    -0.545 OA
ENDBRANCH   2  10
TORSDOF 2
ENDMDL
