MODEL 1
REMARK VINA RESULT:    -4.642      0.000      0.000
REMARK INTER + INTRA:         -13.569
REMARK INTER:                 -10.613
REMARK INTRA:                  -2.956
REMARK UNBOUND:                -2.956
REMARK SMILES CCCCCCCCCCCCCCCCCCCCCCCC(=O)[O-]
REMARK SMILES IDX 13 1 14 2 15 3 16 4 17 5 18 6 19 7 20 8 21 9 22 10 23 11
REMARK SMILES IDX 24 12 25 13 26 14 12 15 11 16 10 17 9 18 8 19 7 20 6 21 5 22
REMARK SMILES IDX 4 23 3 24 2 25 1 26
REMARK H PARENT
REMARK Flexibility Score: inf
ROOT
ATOM      1  C   UNL     1      15.302  67.131  34.671  1.00  0.00     0.000 C 
ENDROOT
BRANCH   1   2
ATOM      2  C   UNL     1      16.474  66.285  35.207  1.00  0.00     0.000 C 
BRANCH   2   3
ATOM      3  C   UNL     1      17.076  65.294  34.192  1.00  0.00     0.000 C 
BRANCH   3   4
ATOM      4  C   UNL     1      17.010  63.815  34.620  1.00  0.00     0.000 C 
BRANCH   4   5
ATOM      5  C   UNL     1      16.467  62.849  33.547  1.00  0.00     0.000 C 
BRANCH   5   6
ATOM      6  C   UNL     1      14.937  62.847  33.374  1.00  0.00     0.000 C 
BRANCH   6   7
ATOM      7  C   UNL     1      14.463  63.749  32.222  1.00  0.00     0.000 C 
BRANCH   7   8
ATOM      8  C   UNL     1      13.029  64.270  32.422  1.00  0.00     0.000 C 
BRANCH   8   9
ATOM      9  C   UNL     1      12.142  63.410  33.339  1.00  0.00     0.000 C 
BRANCH   9  10
ATOM     10  C   UNL     1      11.149  62.533  32.561  1.00  0.00     0.006 C 
BRANCH  10  11
ATOM     11  C   UNL     1      11.513  61.049  32.684  1.00  0.00     0.053 C 
BRANCH  11  12
ATOM     12  C   UNL     1      10.629  60.215  31.811  1.00  0.00     0.041 C 
ATOM     13  O   UNL     1       9.381  60.391  31.822  1.00  0.00    -0.550 OA
ATOM     14  O   UNL     1      11.177  59.216  31.017  1.00  0.00    -0.550 OA
ENDBRANCH  11  12
ENDBRANCH  10  11
ENDBRANCH   9  10
ENDBRANCH   8   9
ENDBRANCH   7   8
ENDBRANCH   6   7
ENDBRANCH   5   6
ENDBRANCH   4   5
ENDBRANCH   3   4
ENDBRANCH   2   3
ENDBRANCH   1   2
BRANCH   1  15
ATOM     15  C   UNL     1      15.268  67.313  33.139  1.00  0.00     0.000 C 
BRANCH  15  16
ATOM     16  C   UNL     1      15.504  68.753  32.645  1.00  0.00     0.000 C 
BRANCH  16  17
ATOM     17  C   UNL     1      16.897  69.288  33.014  1.00  0.00     0.000 C 
BRANCH  17  18
ATOM     18  C   UNL     1      16.844  70.533  33.918  1.00  0.00    -0.000 C 
BRANCH  18  19
ATOM     19  C   UNL     1      17.872  70.561  35.064  1.00  0.00    -0.000 C 
BRANCH  19  20
ATOM     20  C   UNL     1      18.427  69.165  35.400  1.00  0.00    -0.000 C 
BRANCH  20  21
ATOM     21  C   UNL     1      19.043  69.093  36.809  1.00  0.00    -0.000 C 
BRANCH  21  22
ATOM     22  C   UNL     1      18.329  68.136  37.786  1.00  0.00    -0.000 C 
BRANCH  22  23
ATOM     23  C   UNL     1      19.285  67.423  38.766  1.00  0.00    -0.000 C 
BRANCH  23  24
ATOM     24  C   UNL     1      20.168  66.380  38.057  1.00  0.00    -0.000 C 
BRANCH  24  25
ATOM     25  C   UNL     1      19.349  65.394  37.212  1.00  0.00    -0.003 C 
ATOM     26  C   UNL     1      18.762  64.255  38.046  1.00  0.00     0.004 C 
ENDBRANCH  24  25
ENDBRANCH  23  24
ENDBRANCH  22  23
ENDBRANCH  21  22
ENDBRANCH  20  21
ENDBRANCH  19  20
ENDBRANCH  18  19
ENDBRANCH  17  18
ENDBRANCH  16  17
ENDBRANCH  15  16
ENDBRANCH   1  15
TORSDOF 22
ENDMDL
MODEL 2
REMARK VINA RESULT:    -4.632      3.406      8.529
REMARK INTER + INTRA:         -13.545
REMARK INTER:                 -10.894
REMARK INTRA:                  -2.651
REMARK UNBOUND:                -2.956
REMARK SMILES CCCCCCCCCCCCCCCCCCCCCCCC(=O)[O-]
REMARK SMILES IDX 13 1 14 2 15 3 16 4 17 5 18 6 19 7 20 8 21 9 22 10 23 11
REMARK SMILES IDX 24 12 25 13 26 14 12 15 11 16 10 17 9 18 8 19 7 20 6 21 5 22
REMARK SMILES IDX 4 23 3 24 2 25 1 26
REMARK H PARENT
REMARK Flexibility Score: inf
ROOT
ATOM      1  C   UNL     1      15.276  67.617  33.381  1.00  0.00     0.000 C 
ENDROOT
BRANCH   1   2
ATOM      2  C   UNL     1      15.620  69.024  32.852  1.00  0.00     0.000 C 
BRANCH   2   3
ATOM      3  C   UNL     1      16.729  69.757  33.630  1.00  0.00     0.000 C 
BRANCH   3   4
ATOM      4  C   UNL     1      17.756  68.831  34.312  1.00  0.00     0.000 C 
BRANCH   4   5
ATOM      5  C   UNL     1      17.907  69.032  35.834  1.00  0.00     0.000 C 
BRANCH   5   6
ATOM      6  C   UNL     1      19.326  69.386  36.315  1.00  0.00     0.000 C 
BRANCH   6   7
ATOM      7  C   UNL     1      19.561  69.038  37.796  1.00  0.00     0.000 C 
BRANCH   7   8
ATOM      8  C   UNL     1      18.349  69.367  38.686  1.00  0.00     0.000 C 
BRANCH   8   9
ATOM      9  C   UNL     1      17.926  68.249  39.655  1.00  0.00     0.000 C 
BRANCH   9  10
ATOM     10  C   UNL     1      18.428  66.861  39.225  1.00  0.00     0.006 C 
BRANCH  10  11
ATOM     11  C   UNL     1      17.396  66.155  38.339  1.00  0.00     0.053 C 
BRANCH  11  12
ATOM     12  C   UNL     1      18.047  65.604  37.109  1.00  0.00     0.041 C 
ATOM     13  O   UNL     1      19.247  65.220  37.145  1.00  0.00    -0.550 OA
ATOM     14  O   UNL     1      17.344  65.552  35.912  1.00  0.00    -0.550 OA
ENDBRANCH  11  12
ENDBRANCH  10  11
ENDBRANCH   9  10
ENDBRANCH   8   9
ENDBRANCH   7   8
ENDBRANCH   6   7
ENDBRANCH   5   6
ENDBRANCH   4   5
ENDBRANCH   3   4
ENDBRANCH   2   3
ENDBRANCH   1   2
BRANCH   1  15
ATOM     15  C   UNL     1      14.877  66.588  32.304  1.00  0.00     0.000 C 
BRANCH  15  16
ATOM     16  C   UNL     1      14.374  65.236  32.844  1.00  0.00     0.000 C 
BRANCH  16  17
ATOM     17  C   UNL     1      15.515  64.329  33.335  1.00  0.00     0.000 C 
BRANCH  17  18
ATOM     18  C   UNL     1      16.704  64.277  32.358  1.00  0.00    -0.000 C 
BRANCH  18  19
ATOM     19  C   UNL     1      16.531  63.327  31.159  1.00  0.00    -0.000 C 
BRANCH  19  20
ATOM     20  C   UNL     1      16.339  61.860  31.584  1.00  0.00    -0.000 C 
BRANCH  20  21
ATOM     21  C   UNL     1      14.944  61.314  31.228  1.00  0.00    -0.000 C 
BRANCH  21  22
ATOM     22  C   UNL     1      14.009  62.319  30.526  1.00  0.00    -0.000 C 
BRANCH  22  23
ATOM     23  C   UNL     1      12.508  62.044  30.767  1.00  0.00    -0.000 C 
BRANCH  23  24
ATOM     24  C   UNL     1      11.781  63.273  31.342  1.00  0.00    -0.000 C 
BRANCH  24  25
ATOM     25  C   UNL     1      11.246  63.027  32.760  1.00  0.00    -0.003 C 
ATOM     26  C   UNL     1      11.978  61.891  33.474  1.00  0.00     0.004 C 
ENDBRANCH  24  25
ENDBRANCH  23  24
ENDBRANCH  22  23
ENDBRANCH  21  22
ENDBRANCH  20  21
ENDBRANCH  19  20
ENDBRANCH  18  19
ENDBRANCH  17  18
ENDBRANCH  16  17
ENDBRANCH  15  16
ENDBRANCH   1  15
TORSDOF 22
ENDMDL
MODEL 3
REMARK VINA RESULT:    -4.564      2.769      7.821
REMARK INTER + INTRA:         -13.390
REMARK INTER:                 -10.530
REMARK INTRA:                  -2.860
REMARK UNBOUND:                -2.956
REMARK SMILES CCCCCCCCCCCCCCCCCCCCCCCC(=O)[O-]
REMARK SMILES IDX 13 1 14 2 15 3 16 4 17 5 18 6 19 7 20 8 21 9 22 10 23 11
REMARK SMILES IDX 24 12 25 13 26 14 12 15 11 16 10 17 9 18 8 19 7 20 6 21 5 22
REMARK SMILES IDX 4 23 3 24 2 25 1 26
REMARK H PARENT
REMARK Flexibility Score: inf
ROOT
ATOM      1  C   UNL     1      15.621  69.270  33.290  1.00  0.00     0.000 C 
ENDROOT
BRANCH   1   2
ATOM      2  C   UNL     1      17.137  69.550  33.331  1.00  0.00     0.000 C 
BRANCH   2   3
ATOM      3  C   UNL     1      17.645  70.181  34.641  1.00  0.00     0.000 C 
BRANCH   3   4
ATOM      4  C   UNL     1      18.293  69.187  35.626  1.00  0.00     0.000 C 
BRANCH   4   5
ATOM      5  C   UNL     1      17.305  68.253  36.354  1.00  0.00     0.000 C 
BRANCH   5   6
ATOM      6  C   UNL     1      17.947  67.227  37.307  1.00  0.00     0.000 C 
BRANCH   6   7
ATOM      7  C   UNL     1      19.455  67.460  37.509  1.00  0.00     0.000 C 
BRANCH   7   8
ATOM      8  C   UNL     1      20.112  66.384  38.391  1.00  0.00     0.000 C 
BRANCH   8   9
ATOM      9  C   UNL     1      19.136  65.397  39.057  1.00  0.00     0.000 C 
BRANCH   9  10
ATOM     10  C   UNL     1      19.214  63.983  38.461  1.00  0.00     0.006 C 
BRANCH  10  11
ATOM     11  C   UNL     1      17.851  63.541  37.919  1.00  0.00     0.053 C 
BRANCH  11  12
ATOM     12  C   UNL     1      17.916  63.327  36.439  1.00  0.00     0.041 C 
ATOM     13  O   UNL     1      18.640  64.071  35.723  1.00  0.00    -0.550 OA
ATOM     14  O   UNL     1      17.149  62.335  35.843  1.00  0.00    -0.550 OA
ENDBRANCH  11  12
ENDBRANCH  10  11
ENDBRANCH   9  10
ENDBRANCH   8   9
ENDBRANCH   7   8
ENDBRANCH   6   7
ENDBRANCH   5   6
ENDBRANCH   4   5
ENDBRANCH   3   4
ENDBRANCH   2   3
ENDBRANCH   1   2
BRANCH   1  15
ATOM     15  C   UNL     1      15.124  68.520  32.037  1.00  0.00     0.000 C 
BRANCH  15  16
ATOM     16  C   UNL     1      14.865  67.014  32.234  1.00  0.00     0.000 C 
BRANCH  16  17
ATOM     17  C   UNL     1      14.941  66.586  33.709  1.00  0.00     0.000 C 
BRANCH  17  18
ATOM     18  C   UNL     1      16.082  65.591  33.989  1.00  0.00    -0.000 C 
BRANCH  18  19
ATOM     19  C   UNL     1      16.327  64.543  32.888  1.00  0.00    -0.000 C 
BRANCH  19  20
ATOM     20  C   UNL     1      15.355  63.353  32.971  1.00  0.00    -0.000 C 
BRANCH  20  21
ATOM     21  C   UNL     1      15.023  62.757  31.590  1.00  0.00    -0.000 C 
BRANCH  21  22
ATOM     22  C   UNL     1      13.555  62.920  31.145  1.00  0.00    -0.000 C 
BRANCH  22  23
ATOM     23  C   UNL     1      12.733  63.863  32.050  1.00  0.00    -0.000 C 
BRANCH  23  24
ATOM     24  C   UNL     1      11.439  63.199  32.553  1.00  0.00    -0.000 C 
BRANCH  24  25
ATOM     25  C   UNL     1      11.539  61.667  32.584  1.00  0.00    -0.003 C 
ATOM     26  C   UNL     1      10.492  60.993  31.697  1.00  0.00     0.004 C 
ENDBRANCH  24  25
ENDBRANCH  23  24
ENDBRANCH  22  23
ENDBRANCH  21  22
ENDBRANCH  20  21
ENDBRANCH  19  20
ENDBRANCH  18  19
ENDBRANCH  17  18
ENDBRANCH  16  17
ENDBRANCH  15  16
ENDBRANCH   1  15
TORSDOF 22
ENDMDL
MODEL 4
REMARK VINA RESULT:    -4.537      4.301      8.864
REMARK INTER + INTRA:         -13.329
REMARK INTER:                 -10.208
REMARK INTRA:                  -3.121
REMARK UNBOUND:                -2.956
REMARK SMILES CCCCCCCCCCCCCCCCCCCCCCCC(=O)[O-]
REMARK SMILES IDX 13 1 14 2 15 3 16 4 17 5 18 6 19 7 20 8 21 9 22 10 23 11
REMARK SMILES IDX 24 12 25 13 26 14 12 15 11 16 10 17 9 18 8 19 7 20 6 21 5 22
REMARK SMILES IDX 4 23 3 24 2 25 1 26
REMARK H PARENT
REMARK Flexibility Score: inf
ROOT
ATOM      1  C   UNL     1      14.919  63.694  31.351  1.00  0.00     0.000 C 
ENDROOT
BRANCH   1   2
ATOM      2  C   UNL     1      14.690  64.051  32.834  1.00  0.00     0.000 C 
BRANCH   2   3
ATOM      3  C   UNL     1      15.975  64.307  33.645  1.00  0.00     0.000 C 
BRANCH   3   4
ATOM      4  C   UNL     1      16.414  65.784  33.706  1.00  0.00     0.000 C 
BRANCH   4   5
ATOM      5  C   UNL     1      15.260  66.808  33.724  1.00  0.00     0.000 C 
BRANCH   5   6
ATOM      6  C   UNL     1      15.066  67.607  32.423  1.00  0.00     0.000 C 
BRANCH   6   7
ATOM      7  C   UNL     1      15.305  69.116  32.605  1.00  0.00     0.000 C 
BRANCH   7   8
ATOM      8  C   UNL     1      16.761  69.450  32.972  1.00  0.00     0.000 C 
BRANCH   8   9
ATOM      9  C   UNL     1      16.961  70.054  34.373  1.00  0.00     0.000 C 
BRANCH   9  10
ATOM     10  C   UNL     1      18.185  69.480  35.104  1.00  0.00     0.006 C 
BRANCH  10  11
ATOM     11  C   UNL     1      17.757  68.596  36.280  1.00  0.00     0.053 C 
BRANCH  11  12
ATOM     12  C   UNL     1      18.694  68.766  37.435  1.00  0.00     0.041 C 
ATOM     13  O   UNL     1      18.556  69.739  38.225  1.00  0.00    -0.550 OA
ATOM     14  O   UNL     1      19.743  67.875  37.618  1.00  0.00    -0.550 OA
ENDBRANCH  11  12
ENDBRANCH  10  11
ENDBRANCH   9  10
ENDBRANCH   8   9
ENDBRANCH   7   8
ENDBRANCH   6   7
ENDBRANCH   5   6
ENDBRANCH   4   5
ENDBRANCH   3   4
ENDBRANCH   2   3
ENDBRANCH   1   2
BRANCH   1  15
ATOM     15  C   UNL     1      14.086  62.508  30.824  1.00  0.00     0.000 C 
BRANCH  15  16
ATOM     16  C   UNL     1      12.631  62.847  30.446  1.00  0.00     0.000 C 
BRANCH  16  17
ATOM     17  C   UNL     1      11.603  62.156  31.357  1.00  0.00     0.000 C 
BRANCH  17  18
ATOM     18  C   UNL     1      11.895  60.659  31.567  1.00  0.00    -0.000 C 
BRANCH  18  19
ATOM     19  C   UNL     1      11.791  60.165  33.022  1.00  0.00    -0.000 C 
BRANCH  19  20
ATOM     20  C   UNL     1      12.318  61.192  34.039  1.00  0.00    -0.000 C 
BRANCH  20  21
ATOM     21  C   UNL     1      13.835  61.074  34.274  1.00  0.00    -0.000 C 
BRANCH  21  22
ATOM     22  C   UNL     1      14.450  59.710  33.898  1.00  0.00    -0.000 C 
BRANCH  22  23
ATOM     23  C   UNL     1      15.408  59.774  32.688  1.00  0.00    -0.000 C 
BRANCH  23  24
ATOM     24  C   UNL     1      16.872  59.974  33.120  1.00  0.00    -0.000 C 
BRANCH  24  25
ATOM     25  C   UNL     1      17.526  61.183  32.436  1.00  0.00    -0.003 C 
ATOM     26  C   UNL     1      17.627  61.014  30.920  1.00  0.00     0.004 C 
ENDBRANCH  24  25
ENDBRANCH  23  24
ENDBRANCH  22  23
ENDBRANCH  21  22
ENDBRANCH  20  21
ENDBRANCH  19  20
ENDBRANCH  18  19
ENDBRANCH  17  18
ENDBRANCH  16  17
ENDBRANCH  15  16
ENDBRANCH   1  15
TORSDOF 22
ENDMDL
MODEL 5
REMARK VINA RESULT:    -4.525      4.331     10.152
REMARK INTER + INTRA:         -13.302
REMARK INTER:                 -10.835
REMARK INTRA:                  -2.467
REMARK UNBOUND:                -2.956
REMARK SMILES CCCCCCCCCCCCCCCCCCCCCCCC(=O)[O-]
REMARK SMILES IDX 13 1 14 2 15 3 16 4 17 5 18 6 19 7 20 8 21 9 22 10 23 11
REMARK SMILES IDX 24 12 25 13 26 14 12 15 11 16 10 17 9 18 8 19 7 20 6 21 5 22
REMARK SMILES IDX 4 23 3 24 2 25 1 26
REMARK H PARENT
REMARK Flexibility Score: inf
ROOT
ATOM      1  C   UNL     1      15.072  63.868  33.234  1.00  0.00     0.000 C 
ENDROOT
BRANCH   1   2
ATOM      2  C   UNL     1      14.289  65.088  32.708  1.00  0.00     0.000 C 
BRANCH   2   3
ATOM      3  C   UNL     1      14.905  66.455  33.059  1.00  0.00     0.000 C 
BRANCH   3   4
ATOM      4  C   UNL     1      15.925  66.424  34.215  1.00  0.00     0.000 C 
BRANCH   4   5
ATOM      5  C   UNL     1      15.635  67.407  35.368  1.00  0.00     0.000 C 
BRANCH   5   6
ATOM      6  C   UNL     1      16.680  68.521  35.563  1.00  0.00     0.000 C 
BRANCH   6   7
ATOM      7  C   UNL     1      17.900  68.062  36.380  1.00  0.00     0.000 C 
BRANCH   7   8
ATOM      8  C   UNL     1      17.515  67.204  37.598  1.00  0.00     0.000 C 
BRANCH   8   9
ATOM      9  C   UNL     1      17.889  67.804  38.965  1.00  0.00     0.000 C 
BRANCH   9  10
ATOM     10  C   UNL     1      19.328  68.339  39.012  1.00  0.00     0.006 C 
BRANCH  10  11
ATOM     11  C   UNL     1      20.040  67.889  40.292  1.00  0.00     0.053 C 
BRANCH  11  12
ATOM     12  C   UNL     1      20.230  66.405  40.295  1.00  0.00     0.041 C 
ATOM     13  O   UNL     1      20.103  65.752  41.366  1.00  0.00    -0.550 OA
ATOM     14  O   UNL     1      20.588  65.745  39.126  1.00  0.00    -0.550 OA
ENDBRANCH  11  12
ENDBRANCH  10  11
ENDBRANCH   9  10
ENDBRANCH   8   9
ENDBRANCH   7   8
ENDBRANCH   6   7
ENDBRANCH   5   6
ENDBRANCH   4   5
ENDBRANCH   3   4
ENDBRANCH   2   3
ENDBRANCH   1   2
BRANCH   1  15
ATOM     15  C   UNL     1      15.195  62.689  32.247  1.00  0.00     0.000 C 
BRANCH  15  16
ATOM     16  C   UNL     1      14.746  62.993  30.805  1.00  0.00     0.000 C 
BRANCH  16  17
ATOM     17  C   UNL     1      13.529  62.159  30.372  1.00  0.00     0.000 C 
BRANCH  17  18
ATOM     18  C   UNL     1      12.199  62.924  30.499  1.00  0.00    -0.000 C 
BRANCH  18  19
ATOM     19  C   UNL     1      11.167  62.298  31.453  1.00  0.00    -0.000 C 
BRANCH  19  20
ATOM     20  C   UNL     1      11.522  62.506  32.936  1.00  0.00    -0.000 C 
BRANCH  20  21
ATOM     21  C   UNL     1      11.902  61.195  33.648  1.00  0.00    -0.000 C 
BRANCH  21  22
ATOM     22  C   UNL     1      11.924  59.944  32.746  1.00  0.00    -0.000 C 
BRANCH  22  23
ATOM     23  C   UNL     1      10.954  58.833  33.203  1.00  0.00    -0.000 C 
BRANCH  23  24
ATOM     24  C   UNL     1       9.986  58.413  32.082  1.00  0.00    -0.000 C 
BRANCH  24  25
ATOM     25  C   UNL     1       8.765  59.339  31.984  1.00  0.00    -0.003 C 
ATOM     26  C   UNL     1       8.556  59.884  30.571  1.00  0.00     0.004 C 
ENDBRANCH  24  25
ENDBRANCH  23  24
ENDBRANCH  22  23
ENDBRANCH  21  22
ENDBRANCH  20  21
ENDBRANCH  19  20
ENDBRANCH  18  19
ENDBRANCH  17  18
ENDBRANCH  16  17
ENDBRANCH  15  16
ENDBRANCH   1  15
TORSDOF 22
ENDMDL
MODEL 6
REMARK VINA RESULT:    -4.497      4.133      7.781
REMARK INTER + INTRA:         -13.238
REMARK INTER:                  -9.902
REMARK INTRA:                  -3.336
REMARK UNBOUND:                -2.956
REMARK SMILES CCCCCCCCCCCCCCCCCCCCCCCC(=O)[O-]
REMARK SMILES IDX 13 1 14 2 15 3 16 4 17 5 18 6 19 7 20 8 21 9 22 10 23 11
REMARK SMILES IDX 24 12 25 13 26 14 12 15 11 16 10 17 9 18 8 19 7 20 6 21 5 22
REMARK SMILES IDX 4 23 3 24 2 25 1 26
REMARK H PARENT
REMARK Flexibility Score: inf
ROOT
ATOM      1  C   UNL     1      12.298  62.727  33.707  1.00  0.00     0.000 C 
ENDROOT
BRANCH   1   2
ATOM      2  C   UNL     1      12.272  61.229  34.069  1.00  0.00     0.000 C 
BRANCH   2   3
ATOM      3  C   UNL     1      13.608  60.489  33.866  1.00  0.00     0.000 C 
BRANCH   3   4
ATOM      4  C   UNL     1      14.825  61.167  34.526  1.00  0.00     0.000 C 
BRANCH   4   5
ATOM      5  C   UNL     1      15.483  60.361  35.666  1.00  0.00     0.000 C 
BRANCH   5   6
ATOM      6  C   UNL     1      16.683  61.041  36.348  1.00  0.00     0.000 C 
BRANCH   6   7
ATOM      7  C   UNL     1      17.483  61.944  35.392  1.00  0.00     0.000 C 
BRANCH   7   8
ATOM      8  C   UNL     1      18.288  63.029  36.129  1.00  0.00     0.000 C 
BRANCH   8   9
ATOM      9  C   UNL     1      17.445  64.114  36.821  1.00  0.00     0.000 C 
BRANCH   9  10
ATOM     10  C   UNL     1      17.862  65.539  36.427  1.00  0.00     0.006 C 
BRANCH  10  11
ATOM     11  C   UNL     1      19.068  66.005  37.248  1.00  0.00     0.053 C 
BRANCH  11  12
ATOM     12  C   UNL     1      18.697  67.165  38.118  1.00  0.00     0.041 C 
ATOM     13  O   UNL     1      17.504  67.319  38.495  1.00  0.00    -0.550 OA
ATOM     14  O   UNL     1      19.658  68.100  38.480  1.00  0.00    -0.550 OA
ENDBRANCH  11  12
ENDBRANCH  10  11
ENDBRANCH   9  10
ENDBRANCH   8   9
ENDBRANCH   7   8
ENDBRANCH   6   7
ENDBRANCH   5   6
ENDBRANCH   4   5
ENDBRANCH   3   4
ENDBRANCH   2   3
ENDBRANCH   1   2
BRANCH   1  15
ATOM     15  C   UNL     1      11.486  63.116  32.454  1.00  0.00     0.000 C 
BRANCH  15  16
ATOM     16  C   UNL     1      12.324  63.598  31.255  1.00  0.00     0.000 C 
BRANCH  16  17
ATOM     17  C   UNL     1      12.947  62.439  30.459  1.00  0.00     0.000 C 
BRANCH  17  18
ATOM     18  C   UNL     1      14.437  62.221  30.781  1.00  0.00    -0.000 C 
BRANCH  18  19
ATOM     19  C   UNL     1      15.260  63.505  30.987  1.00  0.00    -0.000 C 
BRANCH  19  20
ATOM     20  C   UNL     1      16.371  63.339  32.039  1.00  0.00    -0.000 C 
BRANCH  20  21
ATOM     21  C   UNL     1      16.469  64.540  32.997  1.00  0.00    -0.000 C 
BRANCH  21  22
ATOM     22  C   UNL     1      15.117  65.123  33.454  1.00  0.00    -0.000 C 
BRANCH  22  23
ATOM     23  C   UNL     1      14.808  66.515  32.861  1.00  0.00    -0.000 C 
BRANCH  23  24
ATOM     24  C   UNL     1      15.553  67.639  33.604  1.00  0.00    -0.000 C 
BRANCH  24  25
ATOM     25  C   UNL     1      15.601  68.944  32.798  1.00  0.00    -0.003 C 
ATOM     26  C   UNL     1      16.865  69.758  33.076  1.00  0.00     0.004 C 
ENDBRANCH  24  25
ENDBRANCH  23  24
ENDBRANCH  22  23
ENDBRANCH  21  22
ENDBRANCH  20  21
ENDBRANCH  19  20
ENDBRANCH  18  19
ENDBRANCH  17  18
ENDBRANCH  16  17
ENDBRANCH  15  16
ENDBRANCH   1  15
TORSDOF 22
ENDMDL
MODEL 7
REMARK VINA RESULT:    -4.478      3.463      7.251
REMARK INTER + INTRA:         -13.193
REMARK INTER:                  -9.449
REMARK INTRA:                  -3.744
REMARK UNBOUND:                -2.956
REMARK SMILES CCCCCCCCCCCCCCCCCCCCCCCC(=O)[O-]
REMARK SMILES IDX 13 1 14 2 15 3 16 4 17 5 18 6 19 7 20 8 21 9 22 10 23 11
REMARK SMILES IDX 24 12 25 13 26 14 12 15 11 16 10 17 9 18 8 19 7 20 6 21 5 22
REMARK SMILES IDX 4 23 3 24 2 25 1 26
REMARK H PARENT
REMARK Flexibility Score: inf
ROOT
ATOM      1  C   UNL     1      18.757  69.005  37.777  1.00  0.00     0.000 C 
ENDROOT
BRANCH   1   2
ATOM      2  C   UNL     1      17.995  68.698  39.082  1.00  0.00     0.000 C 
BRANCH   2   3
ATOM      3  C   UNL     1      18.585  67.550  39.922  1.00  0.00     0.000 C 
BRANCH   3   4
ATOM      4  C   UNL     1      20.026  67.150  39.545  1.00  0.00     0.000 C 
BRANCH   4   5
ATOM      5  C   UNL     1      20.178  65.728  38.966  1.00  0.00     0.000 C 
BRANCH   5   6
ATOM      6  C   UNL     1      18.923  64.841  39.058  1.00  0.00     0.000 C 
BRANCH   6   7
ATOM      7  C   UNL     1      19.238  63.342  38.912  1.00  0.00     0.000 C 
BRANCH   7   8
ATOM      8  C   UNL     1      18.950  62.806  37.499  1.00  0.00     0.000 C 
BRANCH   8   9
ATOM      9  C   UNL     1      20.193  62.404  36.685  1.00  0.00     0.000 C 
BRANCH   9  10
ATOM     10  C   UNL     1      20.553  63.428  35.597  1.00  0.00     0.006 C 
BRANCH  10  11
ATOM     11  C   UNL     1      20.802  62.736  34.252  1.00  0.00     0.053 C 
BRANCH  11  12
ATOM     12  C   UNL     1      19.599  62.850  33.370  1.00  0.00     0.041 C 
ATOM     13  O   UNL     1      18.619  62.072  33.530  1.00  0.00    -0.550 OA
ATOM     14  O   UNL     1      19.573  63.786  32.344  1.00  0.00    -0.550 OA
ENDBRANCH  11  12
ENDBRANCH  10  11
ENDBRANCH   9  10
ENDBRANCH   8   9
ENDBRANCH   7   8
ENDBRANCH   6   7
ENDBRANCH   5   6
ENDBRANCH   4   5
ENDBRANCH   3   4
ENDBRANCH   2   3
ENDBRANCH   1   2
BRANCH   1  15
ATOM     15  C   UNL     1      18.352  68.145  36.561  1.00  0.00     0.000 C 
BRANCH  15  16
ATOM     16  C   UNL     1      16.859  67.772  36.491  1.00  0.00     0.000 C 
BRANCH  16  17
ATOM     17  C   UNL     1      16.616  66.261  36.633  1.00  0.00     0.000 C 
BRANCH  17  18
ATOM     18  C   UNL     1      17.492  65.419  35.687  1.00  0.00    -0.000 C 
BRANCH  18  19
ATOM     19  C   UNL     1      17.157  65.547  34.190  1.00  0.00    -0.000 C 
BRANCH  19  20
ATOM     20  C   UNL     1      16.060  64.567  33.739  1.00  0.00    -0.000 C 
BRANCH  20  21
ATOM     21  C   UNL     1      14.909  65.263  32.991  1.00  0.00    -0.000 C 
BRANCH  21  22
ATOM     22  C   UNL     1      14.833  66.791  33.186  1.00  0.00    -0.000 C 
BRANCH  22  23
ATOM     23  C   UNL     1      14.794  67.585  31.862  1.00  0.00    -0.000 C 
BRANCH  23  24
ATOM     24  C   UNL     1      15.163  69.066  32.065  1.00  0.00    -0.000 C 
BRANCH  24  25
ATOM     25  C   UNL     1      15.930  69.306  33.373  1.00  0.00    -0.003 C 
ATOM     26  C   UNL     1      17.442  69.382  33.160  1.00  0.00     0.004 C 
ENDBRANCH  24  25
ENDBRANCH  23  24
ENDBRANCH  22  23
ENDBRANCH  21  22
ENDBRANCH  20  21
ENDBRANCH  19  20
ENDBRANCH  18  19
ENDBRANCH  17  18
ENDBRANCH  16  17
ENDBRANCH  15  16
ENDBRANCH   1  15
TORSDOF 22
ENDMDL
MODEL 8
REMARK VINA RESULT:    -4.472      4.241      9.244
REMARK INTER + INTRA:         -13.181
REMARK INTER:                  -9.624
REMARK INTRA:                  -3.556
REMARK UNBOUND:                -2.956
REMARK SMILES CCCCCCCCCCCCCCCCCCCCCCCC(=O)[O-]
REMARK SMILES IDX 13 1 14 2 15 3 16 4 17 5 18 6 19 7 20 8 21 9 22 10 23 11
REMARK SMILES IDX 24 12 25 13 26 14 12 15 11 16 10 17 9 18 8 19 7 20 6 21 5 22
REMARK SMILES IDX 4 23 3 24 2 25 1 26
REMARK H PARENT
REMARK Flexibility Score: inf
ROOT
ATOM      1  C   UNL     1      16.565  60.962  33.647  1.00  0.00     0.000 C 
ENDROOT
BRANCH   1   2
ATOM      2  C   UNL     1      17.268  62.328  33.509  1.00  0.00     0.000 C 
BRANCH   2   3
ATOM      3  C   UNL     1      16.606  63.479  34.290  1.00  0.00     0.000 C 
BRANCH   3   4
ATOM      4  C   UNL     1      16.824  64.879  33.681  1.00  0.00     0.000 C 
BRANCH   4   5
ATOM      5  C   UNL     1      15.868  65.972  34.202  1.00  0.00     0.000 C 
BRANCH   5   6
ATOM      6  C   UNL     1      15.220  66.852  33.117  1.00  0.00     0.000 C 
BRANCH   6   7
ATOM      7  C   UNL     1      15.541  68.347  33.289  1.00  0.00     0.000 C 
BRANCH   7   8
ATOM      8  C   UNL     1      16.298  68.650  34.594  1.00  0.00     0.000 C 
BRANCH   8   9
ATOM      9  C   UNL     1      17.620  69.419  34.421  1.00  0.00     0.000 C 
BRANCH   9  10
ATOM     10  C   UNL     1      18.390  69.592  35.739  1.00  0.00     0.006 C 
BRANCH  10  11
ATOM     11  C   UNL     1      18.309  68.322  36.593  1.00  0.00     0.053 C 
BRANCH  11  12
ATOM     12  C   UNL     1      18.239  68.669  38.047  1.00  0.00     0.041 C 
ATOM     13  O   UNL     1      17.534  67.975  38.830  1.00  0.00    -0.550 OA
ATOM     14  O   UNL     1      18.916  69.780  38.532  1.00  0.00    -0.550 OA
ENDBRANCH  11  12
ENDBRANCH  10  11
ENDBRANCH   9  10
ENDBRANCH   8   9
ENDBRANCH   7   8
ENDBRANCH   6   7
ENDBRANCH   5   6
ENDBRANCH   4   5
ENDBRANCH   3   4
ENDBRANCH   2   3
ENDBRANCH   1   2
BRANCH   1  15
ATOM     15  C   UNL     1      15.208  60.991  34.381  1.00  0.00     0.000 C 
BRANCH  15  16
ATOM     16  C   UNL     1      14.130  60.057  33.800  1.00  0.00     0.000 C 
BRANCH  16  17
ATOM     17  C   UNL     1      14.611  59.294  32.555  1.00  0.00     0.000 C 
BRANCH  17  18
ATOM     18  C   UNL     1      13.867  59.708  31.272  1.00  0.00    -0.000 C 
BRANCH  18  19
ATOM     19  C   UNL     1      14.561  60.793  30.428  1.00  0.00    -0.000 C 
BRANCH  19  20
ATOM     20  C   UNL     1      13.783  62.121  30.407  1.00  0.00    -0.000 C 
BRANCH  20  21
ATOM     21  C   UNL     1      14.327  63.146  31.418  1.00  0.00    -0.000 C 
BRANCH  21  22
ATOM     22  C   UNL     1      13.254  64.001  32.123  1.00  0.00    -0.000 C 
BRANCH  22  23
ATOM     23  C   UNL     1      12.416  63.218  33.157  1.00  0.00    -0.000 C 
BRANCH  23  24
ATOM     24  C   UNL     1      11.080  62.731  32.568  1.00  0.00    -0.000 C 
BRANCH  24  25
ATOM     25  C   UNL     1      10.958  61.201  32.574  1.00  0.00    -0.003 C 
ATOM     26  C   UNL     1      10.088  60.679  31.430  1.00  0.00     0.004 C 
ENDBRANCH  24  25
ENDBRANCH  23  24
ENDBRANCH  22  23
ENDBRANCH  21  22
ENDBRANCH  20  21
ENDBRANCH  19  20
ENDBRANCH  18  19
ENDBRANCH  17  18
ENDBRANCH  16  17
ENDBRANCH  15  16
ENDBRANCH   1  15
TORSDOF 22
ENDMDL
MODEL 9
REMARK VINA RESULT:    -4.446      4.268      8.321
REMARK INTER + INTRA:         -13.120
REMARK INTER:                  -9.577
REMARK INTRA:                  -3.542
REMARK UNBOUND:                -2.956
REMARK SMILES CCCCCCCCCCCCCCCCCCCCCCCC(=O)[O-]
REMARK SMILES IDX 13 1 14 2 15 3 16 4 17 5 18 6 19 7 20 8 21 9 22 10 23 11
REMARK SMILES IDX 24 12 25 13 26 14 12 15 11 16 10 17 9 18 8 19 7 20 6 21 5 22
REMARK SMILES IDX 4 23 3 24 2 25 1 26
REMARK H PARENT
REMARK Flexibility Score: inf
ROOT
ATOM      1  C   UNL     1      15.639  61.183  34.107  1.00  0.00     0.000 C 
ENDROOT
BRANCH   1   2
ATOM      2  C   UNL     1      15.888  61.357  32.595  1.00  0.00     0.000 C 
BRANCH   2   3
ATOM      3  C   UNL     1      17.044  62.308  32.234  1.00  0.00     0.000 C 
BRANCH   3   4
ATOM      4  C   UNL     1      18.017  62.609  33.391  1.00  0.00     0.000 C 
BRANCH   4   5
ATOM      5  C   UNL     1      18.173  64.103  33.741  1.00  0.00     0.000 C 
BRANCH   5   6
ATOM      6  C   UNL     1      17.391  64.576  34.980  1.00  0.00     0.000 C 
BRANCH   6   7
ATOM      7  C   UNL     1      17.593  63.662  36.201  1.00  0.00     0.000 C 
BRANCH   7   8
ATOM      8  C   UNL     1      19.001  63.781  36.811  1.00  0.00     0.000 C 
BRANCH   8   9
ATOM      9  C   UNL     1      19.457  65.216  37.129  1.00  0.00     0.000 C 
BRANCH   9  10
ATOM     10  C   UNL     1      18.493  65.956  38.069  1.00  0.00     0.006 C 
BRANCH  10  11
ATOM     11  C   UNL     1      18.156  67.349  37.526  1.00  0.00     0.053 C 
BRANCH  11  12
ATOM     12  C   UNL     1      19.232  68.327  37.880  1.00  0.00     0.041 C 
ATOM     13  O   UNL     1      19.657  69.142  37.017  1.00  0.00    -0.550 OA
ATOM     14  O   UNL     1      19.796  68.314  39.149  1.00  0.00    -0.550 OA
ENDBRANCH  11  12
ENDBRANCH  10  11
ENDBRANCH   9  10
ENDBRANCH   8   9
ENDBRANCH   7   8
ENDBRANCH   6   7
ENDBRANCH   5   6
ENDBRANCH   4   5
ENDBRANCH   3   4
ENDBRANCH   2   3
ENDBRANCH   1   2
BRANCH   1  15
ATOM     15  C   UNL     1      14.159  61.033  34.518  1.00  0.00     0.000 C 
BRANCH  15  16
ATOM     16  C   UNL     1      13.254  60.362  33.468  1.00  0.00     0.000 C 
BRANCH  16  17
ATOM     17  C   UNL     1      11.880  61.043  33.344  1.00  0.00     0.000 C 
BRANCH  17  18
ATOM     18  C   UNL     1      11.919  62.543  33.689  1.00  0.00    -0.000 C 
BRANCH  18  19
ATOM     19  C   UNL     1      11.928  63.496  32.480  1.00  0.00    -0.000 C 
BRANCH  19  20
ATOM     20  C   UNL     1      13.348  63.797  31.969  1.00  0.00    -0.000 C 
BRANCH  20  21
ATOM     21  C   UNL     1      14.154  64.685  32.935  1.00  0.00    -0.000 C 
BRANCH  21  22
ATOM     22  C   UNL     1      15.200  65.599  32.264  1.00  0.00    -0.000 C 
BRANCH  22  23
ATOM     23  C   UNL     1      15.047  67.091  32.631  1.00  0.00    -0.000 C 
BRANCH  23  24
ATOM     24  C   UNL     1      15.439  67.370  34.093  1.00  0.00    -0.000 C 
BRANCH  24  25
ATOM     25  C   UNL     1      16.713  68.217  34.208  1.00  0.00    -0.003 C 
ATOM     26  C   UNL     1      16.788  69.310  33.141  1.00  0.00     0.004 C 
ENDBRANCH  24  25
ENDBRANCH  23  24
ENDBRANCH  22  23
ENDBRANCH  21  22
ENDBRANCH  20  21
ENDBRANCH  19  20
ENDBRANCH  18  19
ENDBRANCH  17  18
ENDBRANCH  16  17
ENDBRANCH  15  16
ENDBRANCH   1  15
TORSDOF 22
ENDMDL
