MODEL 1
REMARK VINA RESULT:    -3.528      0.000      0.000
REMARK INTER + INTRA:          -4.477
REMARK INTER:                  -4.972
REMARK INTRA:                   0.495
REMARK UNBOUND:                 0.495
REMARK SMILES CC1=CCC(=C(C)C)C(=O)CC(C)=CCC1
REMARK SMILES IDX 12 1 14 2 13 3 15 4 16 5 2 6 1 7 3 8 11 10 9 11 10 12 5 13
REMARK SMILES IDX 6 14 7 15 8 16 4 17
REMARK H PARENT
REMARK Flexibility Score: 60.00
ROOT
ATOM      1  C   UNL     1     152.735 161.067 201.155  1.00  0.00    -0.070 C 
ATOM      2  C   UNL     1     153.687 160.174 201.515  1.00  0.00    -0.027 C 
ATOM      3  C   UNL     1     152.195 161.993 202.215  1.00  0.00     0.039 C 
ENDROOT
BRANCH   2   4
ATOM      4  C   UNL     1     154.295 159.133 200.602  1.00  0.00     0.032 C 
BRANCH   4   5
ATOM      5  C   UNL     1     154.060 157.711 201.129  1.00  0.00     0.034 C 
BRANCH   5   6
ATOM      6  C   UNL     1     152.589 157.368 201.319  1.00  0.00    -0.077 C 
ATOM      7  C   UNL     1     152.110 156.954 202.689  1.00  0.00     0.039 C 
ATOM      8  C   UNL     1     151.682 157.398 200.316  1.00  0.00    -0.023 CG0
ATOM      9  G   UNL     1     151.955 157.851 198.901  1.00  0.00     0.000 G0
ENDBRANCH   5   6
ENDBRANCH   4   5
ENDBRANCH   2   4
BRANCH   1  10
ATOM     10  C   UNL     1     152.199 161.176 199.741  1.00  0.00     0.111 C 
BRANCH  10  11
ATOM     11  C   UNL     1     151.049 160.232 199.525  1.00  0.00     0.163 C 
ATOM     12  O   UNL     1     149.996 160.373 200.203  1.00  0.00    -0.294 OA
BRANCH  11  13
ATOM     13  C   UNL     1     151.139 159.120 198.544  1.00  0.00    -0.002 C 
ATOM     14  C   UNL     1     150.528 159.221 197.333  1.00  0.00    -0.069 C 
ATOM     15  C   UNL     1     150.652 158.122 196.302  1.00  0.00     0.039 C 
ATOM     16  C   UNL     1     149.668 160.416 196.988  1.00  0.00     0.039 C 
BRANCH  13  17
ATOM     17  C   UNL     1     151.924 157.865 198.914  1.00  0.00     0.066 CG0
ATOM     18  G   UNL     1     151.680 157.390 200.326  1.00  0.00     0.000 G0
ENDBRANCH  13  17
ENDBRANCH  11  13
ENDBRANCH  10  11
ENDBRANCH   1  10
TORSDOF 0
ENDMDL
MODEL 2
REMARK VINA RESULT:    -3.447      2.309      3.952
REMARK INTER + INTRA:          -4.363
REMARK INTER:                  -4.929
REMARK INTRA:                   0.566
REMARK UNBOUND:                 0.495
REMARK SMILES CC1=CCC(=C(C)C)C(=O)CC(C)=CCC1
REMARK SMILES IDX 12 1 14 2 13 3 15 4 16 5 2 6 1 7 3 8 11 10 9 11 10 12 5 13
REMARK SMILES IDX 6 14 7 15 8 16 4 17
REMARK H PARENT
REMARK Flexibility Score: 60.00
ROOT
ATOM      1  C   UNL     1     150.802 160.340 199.152  1.00  0.00    -0.070 C 
ATOM      2  C   UNL     1     150.536 160.457 200.474  1.00  0.00    -0.027 C 
ATOM      3  C   UNL     1     149.782 159.651 198.281  1.00  0.00     0.039 C 
ENDROOT
BRANCH   2   4
ATOM      4  C   UNL     1     151.468 161.060 201.500  1.00  0.00     0.032 C 
BRANCH   4   5
ATOM      5  C   UNL     1     151.791 160.067 202.626  1.00  0.00     0.034 C 
BRANCH   5   6
ATOM      6  C   UNL     1     152.554 158.839 202.153  1.00  0.00    -0.077 C 
ATOM      7  C   UNL     1     151.998 157.471 202.468  1.00  0.00     0.039 C 
ATOM      8  C   UNL     1     153.722 158.903 201.475  1.00  0.00    -0.023 CG0
ATOM      9  G   UNL     1     154.396 160.172 201.009  1.00  0.00     0.000 G0
ENDBRANCH   5   6
ENDBRANCH   4   5
ENDBRANCH   2   4
BRANCH   1  10
ATOM     10  C   UNL     1     152.070 160.873 198.515  1.00  0.00     0.111 C 
BRANCH  10  11
ATOM     11  C   UNL     1     153.215 159.917 198.707  1.00  0.00     0.163 C 
ATOM     12  O   UNL     1     153.138 158.755 198.225  1.00  0.00    -0.294 OA
BRANCH  11  13
ATOM     13  C   UNL     1     154.426 160.308 199.474  1.00  0.00    -0.002 C 
ATOM     14  C   UNL     1     155.523 160.786 198.827  1.00  0.00    -0.069 C 
ATOM     15  C   UNL     1     156.746 161.237 199.593  1.00  0.00     0.039 C 
ATOM     16  C   UNL     1     155.579 160.843 197.317  1.00  0.00     0.039 C 
BRANCH  13  17
ATOM     17  C   UNL     1     154.421 160.166 200.993  1.00  0.00     0.066 CG0
ATOM     18  G   UNL     1     153.714 158.926 201.485  1.00  0.00     0.000 G0
ENDBRANCH  13  17
ENDBRANCH  11  13
ENDBRANCH  10  11
ENDBRANCH   1  10
TORSDOF 0
ENDMDL
MODEL 3
REMARK VINA RESULT:    -3.203      1.448      3.884
REMARK INTER + INTRA:          -4.020
REMARK INTER:                  -4.503
REMARK INTRA:                   0.483
REMARK UNBOUND:                 0.495
REMARK SMILES CC1=CCC(=C(C)C)C(=O)CC(C)=CCC1
REMARK SMILES IDX 12 1 14 2 13 3 15 4 16 5 2 6 1 7 3 8 11 10 9 11 10 12 5 13
REMARK SMILES IDX 6 14 7 15 8 16 4 17
REMARK H PARENT
REMARK Flexibility Score: 60.00
ROOT
ATOM      1  C   UNL     1     152.833 160.909 201.256  1.00  0.00    -0.070 C 
ATOM      2  C   UNL     1     152.710 161.182 199.936  1.00  0.00    -0.027 C 
ATOM      3  C   UNL     1     152.215 161.869 202.240  1.00  0.00     0.039 C 
ENDROOT
BRANCH   2   4
ATOM      4  C   UNL     1     153.316 160.367 198.816  1.00  0.00     0.032 C 
BRANCH   4   5
ATOM      5  C   UNL     1     152.255 159.923 197.800  1.00  0.00     0.034 C 
BRANCH   5   6
ATOM      6  C   UNL     1     151.083 159.182 198.428  1.00  0.00    -0.077 C 
ATOM      7  C   UNL     1     149.685 159.699 198.194  1.00  0.00     0.039 C 
ATOM      8  C   UNL     1     151.227 158.086 199.208  1.00  0.00    -0.023 CG0
ATOM      9  G   UNL     1     152.532 157.383 199.499  1.00  0.00     0.000 G0
ENDBRANCH   5   6
ENDBRANCH   4   5
ENDBRANCH   2   4
BRANCH   1  10
ATOM     10  C   UNL     1     153.558 159.684 201.780  1.00  0.00     0.111 C 
BRANCH  10  11
ATOM     11  C   UNL     1     152.635 158.500 201.853  1.00  0.00     0.163 C 
ATOM     12  O   UNL     1     151.666 158.518 202.659  1.00  0.00    -0.294 OA
BRANCH  11  13
ATOM     13  C   UNL     1     152.856 157.297 201.009  1.00  0.00    -0.002 C 
ATOM     14  C   UNL     1     153.344 156.152 201.559  1.00  0.00    -0.069 C 
ATOM     15  C   UNL     1     153.528 154.904 200.727  1.00  0.00     0.039 C 
ATOM     16  C   UNL     1     153.761 156.098 203.011  1.00  0.00     0.039 C 
BRANCH  13  17
ATOM     17  C   UNL     1     152.531 157.365 199.520  1.00  0.00     0.066 CG0
ATOM     18  G   UNL     1     151.238 158.082 199.212  1.00  0.00     0.000 G0
ENDBRANCH  13  17
ENDBRANCH  11  13
ENDBRANCH  10  11
ENDBRANCH   1  10
TORSDOF 0
ENDMDL
MODEL 4
REMARK VINA RESULT:    -3.162      2.524      3.655
REMARK INTER + INTRA:          -3.961
REMARK INTER:                  -4.431
REMARK INTRA:                   0.470
REMARK UNBOUND:                 0.495
REMARK SMILES CC1=CCC(=C(C)C)C(=O)CC(C)=CCC1
REMARK SMILES IDX 12 1 14 2 13 3 15 4 16 5 2 6 1 7 3 8 11 10 9 11 10 12 5 13
REMARK SMILES IDX 6 14 7 15 8 16 4 17
REMARK H PARENT
REMARK Flexibility Score: 60.00
ROOT
ATOM      1  C   UNL     1     156.183 159.391 200.501  1.00  0.00    -0.070 C 
ATOM      2  C   UNL     1     156.347 158.127 200.956  1.00  0.00    -0.027 C 
ATOM      3  C   UNL     1     157.006 159.831 199.318  1.00  0.00     0.039 C 
ENDROOT
BRANCH   2   4
ATOM      4  C   UNL     1     155.653 157.538 202.164  1.00  0.00     0.032 C 
BRANCH   4   5
ATOM      5  C   UNL     1     154.506 156.602 201.758  1.00  0.00     0.034 C 
BRANCH   5   6
ATOM      6  C   UNL     1     153.225 156.832 202.547  1.00  0.00    -0.077 C 
ATOM      7  C   UNL     1     153.058 156.144 203.880  1.00  0.00     0.039 C 
ATOM      8  C   UNL     1     152.211 157.613 202.110  1.00  0.00    -0.023 CG0
ATOM      9  G   UNL     1     152.222 158.435 200.843  1.00  0.00     0.000 G0
ENDBRANCH   5   6
ENDBRANCH   4   5
ENDBRANCH   2   4
BRANCH   1  10
ATOM     10  C   UNL     1     155.210 160.372 201.126  1.00  0.00     0.111 C 
BRANCH  10  11
ATOM     11  C   UNL     1     153.898 160.375 200.392  1.00  0.00     0.163 C 
ATOM     12  O   UNL     1     153.850 160.818 199.213  1.00  0.00    -0.294 OA
BRANCH  11  13
ATOM     13  C   UNL     1     152.652 159.888 201.038  1.00  0.00    -0.002 C 
ATOM     14  C   UNL     1     151.906 160.724 201.809  1.00  0.00    -0.069 C 
ATOM     15  C   UNL     1     150.609 160.261 202.432  1.00  0.00     0.039 C 
ATOM     16  C   UNL     1     152.366 162.133 202.106  1.00  0.00     0.039 C 
BRANCH  13  17
ATOM     17  C   UNL     1     152.224 158.439 200.826  1.00  0.00     0.066 CG0
ATOM     18  G   UNL     1     152.190 157.623 202.096  1.00  0.00     0.000 G0
ENDBRANCH  13  17
ENDBRANCH  11  13
ENDBRANCH  10  11
ENDBRANCH   1  10
TORSDOF 0
ENDMDL
MODEL 5
REMARK VINA RESULT:    -3.097      1.869      2.482
REMARK INTER + INTRA:          -3.870
REMARK INTER:                  -4.424
REMARK INTRA:                   0.554
REMARK UNBOUND:                 0.495
REMARK SMILES CC1=CCC(=C(C)C)C(=O)CC(C)=CCC1
REMARK SMILES IDX 12 1 14 2 13 3 15 4 16 5 2 6 1 7 3 8 11 10 9 11 10 12 5 13
REMARK SMILES IDX 6 14 7 15 8 16 4 17
REMARK H PARENT
REMARK Flexibility Score: 60.00
ROOT
ATOM      1  C   UNL     1     154.644 160.611 200.174  1.00  0.00    -0.070 C 
ATOM      2  C   UNL     1     153.977 160.805 201.335  1.00  0.00    -0.027 C 
ATOM      3  C   UNL     1     156.106 160.252 200.248  1.00  0.00     0.039 C 
ENDROOT
BRANCH   2   4
ATOM      4  C   UNL     1     152.529 161.228 201.448  1.00  0.00     0.032 C 
BRANCH   4   5
ATOM      5  C   UNL     1     151.686 160.174 202.179  1.00  0.00     0.034 C 
BRANCH   5   6
ATOM      6  C   UNL     1     152.044 158.743 201.804  1.00  0.00    -0.077 C 
ATOM      7  C   UNL     1     152.653 157.846 202.854  1.00  0.00     0.039 C 
ATOM      8  C   UNL     1     151.860 158.229 200.566  1.00  0.00    -0.023 CG0
ATOM      9  G   UNL     1     151.204 158.945 199.409  1.00  0.00     0.000 G0
ENDBRANCH   5   6
ENDBRANCH   4   5
ENDBRANCH   2   4
BRANCH   1  10
ATOM     10  C   UNL     1     153.986 160.734 198.813  1.00  0.00     0.111 C 
BRANCH  10  11
ATOM     11  C   UNL     1     153.514 159.395 198.317  1.00  0.00     0.163 C 
ATOM     12  O   UNL     1     154.363 158.515 198.010  1.00  0.00    -0.294 OA
BRANCH  11  13
ATOM     13  C   UNL     1     152.068 159.097 198.161  1.00  0.00    -0.002 C 
ATOM     14  C   UNL     1     151.526 158.955 196.921  1.00  0.00    -0.069 C 
ATOM     15  C   UNL     1     150.067 158.601 196.743  1.00  0.00     0.039 C 
ATOM     16  C   UNL     1     152.351 159.189 195.675  1.00  0.00     0.039 C 
BRANCH  13  17
ATOM     17  C   UNL     1     151.200 158.953 199.408  1.00  0.00     0.066 CG0
ATOM     18  G   UNL     1     151.881 158.224 200.542  1.00  0.00     0.000 G0
ENDBRANCH  13  17
ENDBRANCH  11  13
ENDBRANCH  10  11
ENDBRANCH   1  10
TORSDOF 0
ENDMDL
MODEL 6
REMARK VINA RESULT:    -3.052      2.282      4.910
REMARK INTER + INTRA:          -3.807
REMARK INTER:                  -4.391
REMARK INTRA:                   0.584
REMARK UNBOUND:                 0.495
REMARK SMILES CC1=CCC(=C(C)C)C(=O)CC(C)=CCC1
REMARK SMILES IDX 12 1 14 2 13 3 15 4 16 5 2 6 1 7 3 8 11 10 9 11 10 12 5 13
REMARK SMILES IDX 6 14 7 15 8 16 4 17
REMARK H PARENT
REMARK Flexibility Score: 60.00
ROOT
ATOM      1  C   UNL     1     152.076 157.977 203.020  1.00  0.00    -0.070 C 
ATOM      2  C   UNL     1     151.697 159.276 203.015  1.00  0.00    -0.027 C 
ATOM      3  C   UNL     1     152.744 157.437 204.259  1.00  0.00     0.039 C 
ENDROOT
BRANCH   2   4
ATOM      4  C   UNL     1     151.072 159.997 201.843  1.00  0.00     0.032 C 
BRANCH   4   5
ATOM      5  C   UNL     1     152.011 161.070 201.272  1.00  0.00     0.034 C 
BRANCH   5   6
ATOM      6  C   UNL     1     152.626 160.689 199.933  1.00  0.00    -0.077 C 
ATOM      7  C   UNL     1     152.013 161.237 198.668  1.00  0.00     0.039 C 
ATOM      8  C   UNL     1     153.692 159.865 199.811  1.00  0.00    -0.023 CG0
ATOM      9  G   UNL     1     154.480 159.277 200.957  1.00  0.00     0.000 G0
ENDBRANCH   5   6
ENDBRANCH   4   5
ENDBRANCH   2   4
BRANCH   1  10
ATOM     10  C   UNL     1     151.854 157.048 201.842  1.00  0.00     0.111 C 
BRANCH  10  11
ATOM     11  C   UNL     1     152.939 157.210 200.814  1.00  0.00     0.163 C 
ATOM     12  O   UNL     1     152.732 156.830 199.630  1.00  0.00    -0.294 OA
BRANCH  11  13
ATOM     13  C   UNL     1     154.260 157.789 201.172  1.00  0.00    -0.002 C 
ATOM     14  C   UNL     1     155.236 156.999 201.695  1.00  0.00    -0.069 C 
ATOM     15  C   UNL     1     156.603 157.558 202.017  1.00  0.00     0.039 C 
ATOM     16  C   UNL     1     154.978 155.543 202.014  1.00  0.00     0.039 C 
BRANCH  13  17
ATOM     17  C   UNL     1     154.504 159.278 200.946  1.00  0.00     0.066 CG0
ATOM     18  G   UNL     1     153.685 159.864 199.821  1.00  0.00     0.000 G0
ENDBRANCH  13  17
ENDBRANCH  11  13
ENDBRANCH  10  11
ENDBRANCH   1  10
TORSDOF 0
ENDMDL
MODEL 7
REMARK VINA RESULT:    -3.010      1.908      3.921
REMARK INTER + INTRA:          -3.747
REMARK INTER:                  -4.241
REMARK INTRA:                   0.494
REMARK UNBOUND:                 0.495
REMARK SMILES CC1=CCC(=C(C)C)C(=O)CC(C)=CCC1
REMARK SMILES IDX 12 1 14 2 13 3 15 4 16 5 2 6 1 7 3 8 11 10 9 11 10 12 5 13
REMARK SMILES IDX 6 14 7 15 8 16 4 17
REMARK H PARENT
REMARK Flexibility Score: 60.00
ROOT
ATOM      1  C   UNL     1     151.767 160.778 201.245  1.00  0.00    -0.070 C 
ATOM      2  C   UNL     1     151.727 161.175 199.952  1.00  0.00    -0.027 C 
ATOM      3  C   UNL     1     152.211 161.778 202.282  1.00  0.00     0.039 C 
ENDROOT
BRANCH   2   4
ATOM      4  C   UNL     1     151.367 160.292 198.779  1.00  0.00     0.032 C 
BRANCH   4   5
ATOM      5  C   UNL     1     152.512 160.208 197.761  1.00  0.00     0.034 C 
BRANCH   5   6
ATOM      6  C   UNL     1     153.814 159.684 198.351  1.00  0.00    -0.077 C 
ATOM      7  C   UNL     1     155.047 160.551 198.277  1.00  0.00     0.039 C 
ATOM      8  C   UNL     1     153.933 158.467 198.928  1.00  0.00    -0.023 CG0
ATOM      9  G   UNL     1     152.803 157.491 199.156  1.00  0.00     0.000 G0
ENDBRANCH   5   6
ENDBRANCH   4   5
ENDBRANCH   2   4
BRANCH   1  10
ATOM     10  C   UNL     1     151.383 159.380 201.691  1.00  0.00     0.111 C 
BRANCH  10  11
ATOM     11  C   UNL     1     152.545 158.434 201.566  1.00  0.00     0.163 C 
ATOM     12  O   UNL     1     153.590 158.645 202.238  1.00  0.00    -0.294 OA
BRANCH  11  13
ATOM     13  C   UNL     1     152.495 157.268 200.647  1.00  0.00    -0.002 C 
ATOM     14  C   UNL     1     152.176 156.033 201.121  1.00  0.00    -0.069 C 
ATOM     15  C   UNL     1     152.069 154.845 200.193  1.00  0.00     0.039 C 
ATOM     16  C   UNL     1     151.958 155.795 202.598  1.00  0.00     0.039 C 
BRANCH  13  17
ATOM     17  C   UNL     1     152.806 157.474 199.167  1.00  0.00     0.066 CG0
ATOM     18  G   UNL     1     153.934 158.446 198.914  1.00  0.00     0.000 G0
ENDBRANCH  13  17
ENDBRANCH  11  13
ENDBRANCH  10  11
ENDBRANCH   1  10
TORSDOF 0
ENDMDL
MODEL 8
REMARK VINA RESULT:    -3.002      1.975      4.445
REMARK INTER + INTRA:          -3.736
REMARK INTER:                  -4.188
REMARK INTRA:                   0.452
REMARK UNBOUND:                 0.495
REMARK SMILES CC1=CCC(=C(C)C)C(=O)CC(C)=CCC1
REMARK SMILES IDX 12 1 14 2 13 3 15 4 16 5 2 6 1 7 3 8 11 10 9 11 10 12 5 13
REMARK SMILES IDX 6 14 7 15 8 16 4 17
REMARK H PARENT
REMARK Flexibility Score: 60.00
ROOT
ATOM      1  C   UNL     1     154.953 160.214 200.962  1.00  0.00    -0.070 C 
ATOM      2  C   UNL     1     153.845 160.980 201.088  1.00  0.00    -0.027 C 
ATOM      3  C   UNL     1     156.090 160.741 200.126  1.00  0.00     0.039 C 
ENDROOT
BRANCH   2   4
ATOM      4  C   UNL     1     152.591 160.585 201.834  1.00  0.00     0.032 C 
BRANCH   4   5
ATOM      5  C   UNL     1     151.359 160.595 200.917  1.00  0.00     0.034 C 
BRANCH   5   6
ATOM      6  C   UNL     1     151.493 159.682 199.708  1.00  0.00    -0.077 C 
ATOM      7  C   UNL     1     151.346 160.276 198.328  1.00  0.00     0.039 C 
ATOM      8  C   UNL     1     151.722 158.352 199.800  1.00  0.00    -0.023 CG0
ATOM      9  G   UNL     1     151.966 157.593 201.083  1.00  0.00     0.000 G0
ENDBRANCH   5   6
ENDBRANCH   4   5
ENDBRANCH   2   4
BRANCH   1  10
ATOM     10  C   UNL     1     155.097 158.858 201.627  1.00  0.00     0.111 C 
BRANCH  10  11
ATOM     11  C   UNL     1     154.537 157.767 200.757  1.00  0.00     0.163 C 
ATOM     12  O   UNL     1     155.058 157.543 199.632  1.00  0.00    -0.294 OA
BRANCH  11  13
ATOM     13  C   UNL     1     153.364 156.963 201.189  1.00  0.00    -0.002 C 
ATOM     14  C   UNL     1     153.536 155.704 201.673  1.00  0.00    -0.069 C 
ATOM     15  C   UNL     1     152.361 154.890 202.165  1.00  0.00     0.039 C 
ATOM     16  C   UNL     1     154.901 155.054 201.698  1.00  0.00     0.039 C 
BRANCH  13  17
ATOM     17  C   UNL     1     151.968 157.569 201.081  1.00  0.00     0.066 CG0
ATOM     18  G   UNL     1     151.741 158.348 199.807  1.00  0.00     0.000 G0
ENDBRANCH  13  17
ENDBRANCH  11  13
ENDBRANCH  10  11
ENDBRANCH   1  10
TORSDOF 0
ENDMDL
MODEL 9
REMARK VINA RESULT:    -2.961      1.551      4.165
REMARK INTER + INTRA:          -3.678
REMARK INTER:                  -4.327
REMARK INTRA:                   0.650
REMARK UNBOUND:                 0.495
REMARK SMILES CC1=CCC(=C(C)C)C(=O)CC(C)=CCC1
REMARK SMILES IDX 12 1 14 2 13 3 15 4 16 5 2 6 1 7 3 8 11 10 9 11 10 12 5 13
REMARK SMILES IDX 6 14 7 15 8 16 4 17
REMARK H PARENT
REMARK Flexibility Score: 60.00
ROOT
ATOM      1  C   UNL     1     152.771 161.051 200.570  1.00  0.00    -0.070 C 
ATOM      2  C   UNL     1     151.754 161.152 199.684  1.00  0.00    -0.027 C 
ATOM      3  C   UNL     1     152.514 161.466 201.996  1.00  0.00     0.039 C 
ENDROOT
BRANCH   2   4
ATOM      4  C   UNL     1     151.850 160.840 198.207  1.00  0.00     0.032 C 
BRANCH   4   5
ATOM      5  C   UNL     1     150.840 159.761 197.789  1.00  0.00     0.034 C 
BRANCH   5   6
ATOM      6  C   UNL     1     151.481 158.418 197.471  1.00  0.00    -0.077 C 
ATOM      7  C   UNL     1     151.658 158.021 196.026  1.00  0.00     0.039 C 
ATOM      8  C   UNL     1     151.890 157.545 198.420  1.00  0.00    -0.023 CG0
ATOM      9  G   UNL     1     151.860 157.792 199.910  1.00  0.00     0.000 G0
ENDBRANCH   5   6
ENDBRANCH   4   5
ENDBRANCH   2   4
BRANCH   1  10
ATOM     10  C   UNL     1     154.147 160.538 200.192  1.00  0.00     0.111 C 
BRANCH  10  11
ATOM     11  C   UNL     1     154.098 159.082 199.820  1.00  0.00     0.163 C 
ATOM     12  O   UNL     1     154.812 158.662 198.870  1.00  0.00    -0.294 OA
BRANCH  11  13
ATOM     13  C   UNL     1     153.207 158.133 200.536  1.00  0.00    -0.002 C 
ATOM     14  C   UNL     1     153.595 157.586 201.720  1.00  0.00    -0.069 C 
ATOM     15  C   UNL     1     152.681 156.659 202.488  1.00  0.00     0.039 C 
ATOM     16  C   UNL     1     154.970 157.851 202.290  1.00  0.00     0.039 C 
BRANCH  13  17
ATOM     17  C   UNL     1     151.854 157.780 199.925  1.00  0.00     0.066 CG0
ATOM     18  G   UNL     1     151.904 157.543 198.434  1.00  0.00     0.000 G0
ENDBRANCH  13  17
ENDBRANCH  11  13
ENDBRANCH  10  11
ENDBRANCH   1  10
TORSDOF 0
ENDMDL
