MODEL 1
REMARK VINA RESULT:    -3.625      0.000      0.000
REMARK INTER + INTRA:          -5.237
REMARK INTER:                  -4.896
REMARK INTRA:                  -0.341
REMARK UNBOUND:                -0.341
REMARK SMILES CCCCCCC=CC(=O)[O-]
REMARK SMILES IDX 5 1 6 2 7 3 8 4 9 5 10 6 11 7 4 8 3 9 2 10 1 11
REMARK H PARENT
REMARK Flexibility Score: inf
ROOT
ATOM      1  C   UNL     1      57.789  28.242  50.187  1.00  0.00     0.004 C 
ENDROOT
BRANCH   1   2
ATOM      2  C   UNL     1      56.465  28.941  50.532  1.00  0.00     0.027 C 
BRANCH   2   3
ATOM      3  C   UNL     1      55.288  28.135  50.064  1.00  0.00    -0.025 C 
ATOM      4  C   UNL     1      55.424  26.864  49.671  1.00  0.00     0.020 C 
BRANCH   4   5
ATOM      5  C   UNL     1      54.282  26.068  49.196  1.00  0.00     0.064 C 
ATOM      6  O   UNL     1      53.287  26.650  48.690  1.00  0.00    -0.545 OA
ATOM      7  O   UNL     1      54.285  24.681  49.295  1.00  0.00    -0.545 OA
ENDBRANCH   4   5
ENDBRANCH   2   3
ENDBRANCH   1   2
BRANCH   1   8
ATOM      8  C   UNL     1      58.833  29.209  49.605  1.00  0.00     0.000 C 
BRANCH   8   9
ATOM      9  C   UNL     1      60.051  28.479  49.012  1.00  0.00    -0.000 C 
BRANCH   9  10
ATOM     10  C   UNL     1      60.038  26.973  49.313  1.00  0.00    -0.003 C 
ATOM     11  C   UNL     1      61.419  26.435  49.689  1.00  0.00     0.004 C 
ENDBRANCH   9  10
ENDBRANCH   8   9
ENDBRANCH   1   8
TORSDOF 6
ENDMDL
MODEL 2
REMARK VINA RESULT:    -3.549     14.063     14.985
REMARK INTER + INTRA:          -5.135
REMARK INTER:                  -4.743
REMARK INTRA:                  -0.393
REMARK UNBOUND:                -0.341
REMARK SMILES CCCCCCC=CC(=O)[O-]
REMARK SMILES IDX 5 1 6 2 7 3 8 4 9 5 10 6 11 7 4 8 3 9 2 10 1 11
REMARK H PARENT
REMARK Flexibility Score: inf
ROOT
ATOM      1  C   UNL     1      62.143  32.618  59.981  1.00  0.00     0.004 C 
ENDROOT
BRANCH   1   2
ATOM      2  C   UNL     1      61.552  34.033  59.874  1.00  0.00     0.027 C 
BRANCH   2   3
ATOM      3  C   UNL     1      62.528  35.066  60.359  1.00  0.00    -0.025 C 
ATOM      4  C   UNL     1      63.786  34.743  60.676  1.00  0.00     0.020 C 
BRANCH   4   5
ATOM      5  C   UNL     1      64.747  35.742  61.168  1.00  0.00     0.064 C 
ATOM      6  O   UNL     1      65.982  35.516  61.069  1.00  0.00    -0.545 OA
ATOM      7  O   UNL     1      64.315  36.933  61.738  1.00  0.00    -0.545 OA
ENDBRANCH   4   5
ENDBRANCH   2   3
ENDBRANCH   1   2
BRANCH   1   8
ATOM      8  C   UNL     1      61.216  31.648  60.732  1.00  0.00     0.000 C 
BRANCH   8   9
ATOM      9  C   UNL     1      61.962  30.417  61.275  1.00  0.00    -0.000 C 
BRANCH   9  10
ATOM     10  C   UNL     1      63.474  30.483  61.014  1.00  0.00    -0.003 C 
ATOM     11  C   UNL     1      64.101  29.102  60.819  1.00  0.00     0.004 C 
ENDBRANCH   9  10
ENDBRANCH   8   9
ENDBRANCH   1   8
TORSDOF 6
ENDMDL
MODEL 3
REMARK VINA RESULT:    -3.529      3.670      5.820
REMARK INTER + INTRA:          -5.108
REMARK INTER:                  -4.793
REMARK INTRA:                  -0.315
REMARK UNBOUND:                -0.341
REMARK SMILES CCCCCCC=CC(=O)[O-]
REMARK SMILES IDX 5 1 6 2 7 3 8 4 9 5 10 6 11 7 4 8 3 9 2 10 1 11
REMARK H PARENT
REMARK Flexibility Score: inf
ROOT
ATOM      1  C   UNL     1      57.914  28.281  50.124  1.00  0.00     0.004 C 
ENDROOT
BRANCH   1   2
ATOM      2  C   UNL     1      58.880  29.299  49.499  1.00  0.00     0.027 C 
BRANCH   2   3
ATOM      3  C   UNL     1      60.273  28.744  49.416  1.00  0.00    -0.025 C 
ATOM      4  C   UNL     1      60.516  27.440  49.580  1.00  0.00     0.020 C 
BRANCH   4   5
ATOM      5  C   UNL     1      61.877  26.886  49.517  1.00  0.00     0.064 C 
ATOM      6  O   UNL     1      62.079  25.695  49.872  1.00  0.00    -0.545 OA
ATOM      7  O   UNL     1      62.944  27.655  49.070  1.00  0.00    -0.545 OA
ENDBRANCH   4   5
ENDBRANCH   2   3
ENDBRANCH   1   2
BRANCH   1   8
ATOM      8  C   UNL     1      56.532  28.885  50.421  1.00  0.00     0.000 C 
BRANCH   8   9
ATOM      9  C   UNL     1      55.379  27.930  50.069  1.00  0.00    -0.000 C 
BRANCH   9  10
ATOM     10  C   UNL     1      55.873  26.522  49.704  1.00  0.00    -0.003 C 
ATOM     11  C   UNL     1      54.820  25.701  48.959  1.00  0.00     0.004 C 
ENDBRANCH   9  10
ENDBRANCH   8   9
ENDBRANCH   1   8
TORSDOF 6
ENDMDL
MODEL 4
REMARK VINA RESULT:    -3.525     14.126     15.082
REMARK INTER + INTRA:          -5.102
REMARK INTER:                  -4.627
REMARK INTRA:                  -0.475
REMARK UNBOUND:                -0.341
REMARK SMILES CCCCCCC=CC(=O)[O-]
REMARK SMILES IDX 5 1 6 2 7 3 8 4 9 5 10 6 11 7 4 8 3 9 2 10 1 11
REMARK H PARENT
REMARK Flexibility Score: inf
ROOT
ATOM      1  C   UNL     1      62.319  33.352  58.990  1.00  0.00     0.004 C 
ENDROOT
BRANCH   1   2
ATOM      2  C   UNL     1      61.778  34.286  60.084  1.00  0.00     0.027 C 
BRANCH   2   3
ATOM      3  C   UNL     1      62.829  35.259  60.534  1.00  0.00    -0.025 C 
ATOM      4  C   UNL     1      64.070  34.860  60.829  1.00  0.00     0.020 C 
BRANCH   4   5
ATOM      5  C   UNL     1      65.104  35.801  61.286  1.00  0.00     0.064 C 
ATOM      6  O   UNL     1      66.276  35.701  60.836  1.00  0.00    -0.545 OA
ATOM      7  O   UNL     1      64.809  36.800  62.206  1.00  0.00    -0.545 OA
ENDBRANCH   4   5
ENDBRANCH   2   3
ENDBRANCH   1   2
BRANCH   1   8
ATOM      8  C   UNL     1      62.170  31.866  59.356  1.00  0.00     0.000 C 
BRANCH   8   9
ATOM      9  C   UNL     1      61.260  31.645  60.577  1.00  0.00    -0.000 C 
BRANCH   9  10
ATOM     10  C   UNL     1      61.736  30.484  61.462  1.00  0.00    -0.003 C 
ATOM     11  C   UNL     1      63.176  30.065  61.162  1.00  0.00     0.004 C 
ENDBRANCH   9  10
ENDBRANCH   8   9
ENDBRANCH   1   8
TORSDOF 6
ENDMDL
MODEL 5
REMARK VINA RESULT:    -3.498     12.815     13.713
REMARK INTER + INTRA:          -5.065
REMARK INTER:                  -4.781
REMARK INTRA:                  -0.285
REMARK UNBOUND:                -0.341
REMARK SMILES CCCCCCC=CC(=O)[O-]
REMARK SMILES IDX 5 1 6 2 7 3 8 4 9 5 10 6 11 7 4 8 3 9 2 10 1 11
REMARK H PARENT
REMARK Flexibility Score: inf
ROOT
ATOM      1  C   UNL     1      61.226  31.847  60.196  1.00  0.00     0.004 C 
ENDROOT
BRANCH   1   2
ATOM      2  C   UNL     1      61.179  30.815  61.334  1.00  0.00     0.027 C 
BRANCH   2   3
ATOM      3  C   UNL     1      62.451  30.019  61.397  1.00  0.00    -0.025 C 
ATOM      4  C   UNL     1      62.693  29.020  60.542  1.00  0.00     0.020 C 
BRANCH   4   5
ATOM      5  C   UNL     1      63.928  28.223  60.603  1.00  0.00     0.064 C 
ATOM      6  O   UNL     1      65.042  28.807  60.662  1.00  0.00    -0.545 OA
ATOM      7  O   UNL     1      63.885  26.834  60.597  1.00  0.00    -0.545 OA
ENDBRANCH   4   5
ENDBRANCH   2   3
ENDBRANCH   1   2
BRANCH   1   8
ATOM      8  C   UNL     1      62.469  32.748  60.268  1.00  0.00     0.000 C 
BRANCH   8   9
ATOM      9  C   UNL     1      62.146  34.226  59.985  1.00  0.00    -0.000 C 
BRANCH   9  10
ATOM     10  C   UNL     1      63.158  35.183  60.632  1.00  0.00    -0.003 C 
ATOM     11  C   UNL     1      64.497  34.511  60.934  1.00  0.00     0.004 C 
ENDBRANCH   9  10
ENDBRANCH   8   9
ENDBRANCH   1   8
TORSDOF 6
ENDMDL
MODEL 6
REMARK VINA RESULT:    -3.482      3.197      5.538
REMARK INTER + INTRA:          -5.045
REMARK INTER:                  -4.707
REMARK INTRA:                  -0.338
REMARK UNBOUND:                -0.341
REMARK SMILES CCCCCCC=CC(=O)[O-]
REMARK SMILES IDX 5 1 6 2 7 3 8 4 9 5 10 6 11 7 4 8 3 9 2 10 1 11
REMARK H PARENT
REMARK Flexibility Score: inf
ROOT
ATOM      1  C   UNL     1      58.736  29.004  49.869  1.00  0.00     0.004 C 
ENDROOT
BRANCH   1   2
ATOM      2  C   UNL     1      59.889  28.404  49.048  1.00  0.00     0.027 C 
BRANCH   2   3
ATOM      3  C   UNL     1      60.075  26.947  49.359  1.00  0.00    -0.025 C 
ATOM      4  C   UNL     1      61.278  26.443  49.650  1.00  0.00     0.020 C 
BRANCH   4   5
ATOM      5  C   UNL     1      61.477  25.015  49.941  1.00  0.00     0.064 C 
ATOM      6  O   UNL     1      62.639  24.531  49.910  1.00  0.00    -0.545 OA
ATOM      7  O   UNL     1      60.402  24.191  50.253  1.00  0.00    -0.545 OA
ENDBRANCH   4   5
ENDBRANCH   2   3
ENDBRANCH   1   2
BRANCH   1   8
ATOM      8  C   UNL     1      57.640  27.975  50.187  1.00  0.00     0.000 C 
BRANCH   8   9
ATOM      9  C   UNL     1      56.229  28.587  50.168  1.00  0.00    -0.000 C 
BRANCH   9  10
ATOM     10  C   UNL     1      55.134  27.535  49.938  1.00  0.00    -0.003 C 
ATOM     11  C   UNL     1      55.694  26.196  49.458  1.00  0.00     0.004 C 
ENDBRANCH   9  10
ENDBRANCH   8   9
ENDBRANCH   1   8
TORSDOF 6
ENDMDL
MODEL 7
REMARK VINA RESULT:    -3.456     13.279     14.130
REMARK INTER + INTRA:          -5.010
REMARK INTER:                  -4.534
REMARK INTRA:                  -0.476
REMARK UNBOUND:                -0.341
REMARK SMILES CCCCCCC=CC(=O)[O-]
REMARK SMILES IDX 5 1 6 2 7 3 8 4 9 5 10 6 11 7 4 8 3 9 2 10 1 11
REMARK H PARENT
REMARK Flexibility Score: inf
ROOT
ATOM      1  C   UNL     1      62.293  34.207  59.390  1.00  0.00     0.004 C 
ENDROOT
BRANCH   1   2
ATOM      2  C   UNL     1      61.154  33.175  59.365  1.00  0.00     0.027 C 
BRANCH   2   3
ATOM      3  C   UNL     1      61.542  31.922  60.095  1.00  0.00    -0.025 C 
ATOM      4  C   UNL     1      62.823  31.606  60.309  1.00  0.00     0.020 C 
BRANCH   4   5
ATOM      5  C   UNL     1      63.217  30.374  61.009  1.00  0.00     0.064 C 
ATOM      6  O   UNL     1      64.421  30.006  60.987  1.00  0.00    -0.545 OA
ATOM      7  O   UNL     1      62.282  29.610  61.696  1.00  0.00    -0.545 OA
ENDBRANCH   4   5
ENDBRANCH   2   3
ENDBRANCH   1   2
BRANCH   1   8
ATOM      8  C   UNL     1      61.959  35.433  60.255  1.00  0.00     0.000 C 
BRANCH   8   9
ATOM      9  C   UNL     1      63.203  36.042  60.925  1.00  0.00    -0.000 C 
BRANCH   9  10
ATOM     10  C   UNL     1      64.351  35.031  61.063  1.00  0.00    -0.003 C 
ATOM     11  C   UNL     1      65.726  35.699  61.092  1.00  0.00     0.004 C 
ENDBRANCH   9  10
ENDBRANCH   8   9
ENDBRANCH   1   8
TORSDOF 6
ENDMDL
MODEL 8
REMARK VINA RESULT:    -3.411     13.863     14.737
REMARK INTER + INTRA:          -4.949
REMARK INTER:                  -4.385
REMARK INTRA:                  -0.563
REMARK UNBOUND:                -0.341
REMARK SMILES CCCCCCC=CC(=O)[O-]
REMARK SMILES IDX 5 1 6 2 7 3 8 4 9 5 10 6 11 7 4 8 3 9 2 10 1 11
REMARK H PARENT
REMARK Flexibility Score: inf
ROOT
ATOM      1  C   UNL     1      61.619  35.857  60.262  1.00  0.00     0.004 C 
ENDROOT
BRANCH   1   2
ATOM      2  C   UNL     1      61.382  34.399  59.837  1.00  0.00     0.027 C 
BRANCH   2   3
ATOM      3  C   UNL     1      62.627  33.576  60.004  1.00  0.00    -0.025 C 
ATOM      4  C   UNL     1      62.571  32.289  60.363  1.00  0.00     0.020 C 
BRANCH   4   5
ATOM      5  C   UNL     1      63.782  31.477  60.546  1.00  0.00     0.064 C 
ATOM      6  O   UNL     1      64.884  31.896  60.103  1.00  0.00    -0.545 OA
ATOM      7  O   UNL     1      63.732  30.252  61.201  1.00  0.00    -0.545 OA
ENDBRANCH   4   5
ENDBRANCH   2   3
ENDBRANCH   1   2
BRANCH   1   8
ATOM      8  C   UNL     1      63.066  36.314  60.018  1.00  0.00     0.000 C 
BRANCH   8   9
ATOM      9  C   UNL     1      63.724  36.899  61.279  1.00  0.00    -0.000 C 
BRANCH   9  10
ATOM     10  C   UNL     1      64.920  36.065  61.759  1.00  0.00    -0.003 C 
ATOM     11  C   UNL     1      65.782  35.550  60.606  1.00  0.00     0.004 C 
ENDBRANCH   9  10
ENDBRANCH   8   9
ENDBRANCH   1   8
TORSDOF 6
ENDMDL
MODEL 9
REMARK VINA RESULT:    -3.374      3.212      5.359
REMARK INTER + INTRA:          -4.898
REMARK INTER:                  -4.451
REMARK INTRA:                  -0.447
REMARK UNBOUND:                -0.341
REMARK SMILES CCCCCCC=CC(=O)[O-]
REMARK SMILES IDX 5 1 6 2 7 3 8 4 9 5 10 6 11 7 4 8 3 9 2 10 1 11
REMARK H PARENT
REMARK Flexibility Score: inf
ROOT
ATOM      1  C   UNL     1      54.762  28.629  50.125  1.00  0.00     0.004 C 
ENDROOT
BRANCH   1   2
ATOM      2  C   UNL     1      55.993  28.073  50.858  1.00  0.00     0.027 C 
BRANCH   2   3
ATOM      3  C   UNL     1      57.264  28.627  50.280  1.00  0.00    -0.025 C 
ATOM      4  C   UNL     1      58.328  27.848  50.059  1.00  0.00     0.020 C 
BRANCH   4   5
ATOM      5  C   UNL     1      59.583  28.381  49.509  1.00  0.00     0.064 C 
ATOM      6  O   UNL     1      59.779  29.625  49.499  1.00  0.00    -0.545 OA
ATOM      7  O   UNL     1      60.560  27.533  49.000  1.00  0.00    -0.545 OA
ENDBRANCH   4   5
ENDBRANCH   2   3
ENDBRANCH   1   2
BRANCH   1   8
ATOM      8  C   UNL     1      53.980  27.539  49.375  1.00  0.00     0.000 C 
BRANCH   8   9
ATOM      9  C   UNL     1      54.800  26.253  49.174  1.00  0.00    -0.000 C 
BRANCH   9  10
ATOM     10  C   UNL     1      54.019  24.990  49.566  1.00  0.00    -0.003 C 
ATOM     11  C   UNL     1      54.000  24.753  51.077  1.00  0.00     0.004 C 
ENDBRANCH   9  10
ENDBRANCH   8   9
ENDBRANCH   1   8
TORSDOF 6
ENDMDL
