MODEL 1
REMARK VINA RESULT:    -4.442      0.000      0.000
REMARK INTER + INTRA:          -4.961
REMARK INTER:                  -4.961
REMARK INTRA:                   0.000
REMARK UNBOUND:                 0.000
REMARK SMILES Oc1cc(O)c2c(ccc3ccc(O)c(O)c32)c1
REMARK SMILES IDX 9 1 8 2 7 3 18 4 2 5 3 6 4 7 6 8 17 9 10 10 11 11 12 12
REMARK SMILES IDX 13 13 15 14 16 15 1 17 5 19 14 21
REMARK H PARENT 16 16 1 18 5 20 14 22
REMARK Flexibility Score: inf
ROOT
ATOM      1  C   UNL     1     114.713 129.657 109.260  1.00  0.00     0.009 A 
ATOM      2  C   UNL     1     114.070 130.654 108.537  1.00  0.00     0.009 A 
ATOM      3  C   UNL     1     114.807 131.546 107.751  1.00  0.00    -0.010 A 
ATOM      4  C   UNL     1     114.139 132.588 107.091  1.00  0.00     0.055 A 
ATOM      5  C   UNL     1     114.858 133.566 106.410  1.00  0.00     0.119 A 
ATOM      6  C   UNL     1     116.254 133.542 106.435  1.00  0.00     0.093 A 
ATOM      7  C   UNL     1     116.941 132.521 107.107  1.00  0.00     0.127 A 
ATOM      8  C   UNL     1     116.223 131.424 107.663  1.00  0.00     0.035 A 
ATOM      9  C   UNL     1     116.847 130.262 108.225  1.00  0.00     0.039 A 
ATOM     10  C   UNL     1     116.087 129.447 109.110  1.00  0.00    -0.014 A 
ATOM     11  C   UNL     1     116.698 128.394 109.802  1.00  0.00     0.013 A 
ATOM     12  C   UNL     1     118.040 128.101 109.591  1.00  0.00     0.051 A 
ATOM     13  C   UNL     1     118.770 128.787 108.621  1.00  0.00     0.158 A 
ATOM     14  C   UNL     1     118.150 129.811 107.868  1.00  0.00     0.166 A 
ENDROOT
BRANCH  14  15
ATOM     15  O   UNL     1     118.757 130.288 106.703  1.00  0.00    -0.504 OA
ATOM     16  H   UNL     1     119.753 130.259 106.535  1.00  0.00     0.293 HD
ENDBRANCH  14  15
BRANCH   5  17
ATOM     17  O   UNL     1     114.178 134.581 105.742  1.00  0.00    -0.508 OA
ATOM     18  H   UNL     1     113.565 134.383 104.959  1.00  0.00     0.293 HD
ENDBRANCH   5  17
BRANCH   7  19
ATOM     19  O   UNL     1     118.314 132.662 107.299  1.00  0.00    -0.507 OA
ATOM     20  H   UNL     1     118.698 133.328 107.961  1.00  0.00     0.293 HD
ENDBRANCH   7  19
BRANCH  13  21
ATOM     21  O   UNL     1     120.103 128.422 108.428  1.00  0.00    -0.504 OA
ATOM     22  H   UNL     1     120.763 128.978 107.903  1.00  0.00     0.293 HD
ENDBRANCH  13  21
TORSDOF 4
ENDMDL
MODEL 2
REMARK VINA RESULT:    -4.326     10.109     13.180
REMARK INTER + INTRA:          -4.832
REMARK INTER:                  -4.832
REMARK INTRA:                   0.000
REMARK UNBOUND:                 0.000
REMARK SMILES Oc1cc(O)c2c(ccc3ccc(O)c(O)c32)c1
REMARK SMILES IDX 9 1 8 2 7 3 18 4 2 5 3 6 4 7 6 8 17 9 10 10 11 11 12 12
REMARK SMILES IDX 13 13 15 14 16 15 1 17 5 19 14 21
REMARK H PARENT 16 16 1 18 5 20 14 22
REMARK Flexibility Score: inf
ROOT
ATOM      1  C   UNL     1     128.131 125.456 108.490  1.00  0.00     0.009 A 
ATOM      2  C   UNL     1     126.840 125.793 108.102  1.00  0.00     0.009 A 
ATOM      3  C   UNL     1     125.937 124.801 107.710  1.00  0.00    -0.010 A 
ATOM      4  C   UNL     1     124.665 125.176 107.253  1.00  0.00     0.055 A 
ATOM      5  C   UNL     1     123.792 124.223 106.733  1.00  0.00     0.119 A 
ATOM      6  C   UNL     1     124.210 122.896 106.612  1.00  0.00     0.093 A 
ATOM      7  C   UNL     1     125.485 122.505 107.043  1.00  0.00     0.127 A 
ATOM      8  C   UNL     1     126.323 123.429 107.729  1.00  0.00     0.035 A 
ATOM      9  C   UNL     1     127.568 123.078 108.344  1.00  0.00     0.039 A 
ATOM     10  C   UNL     1     128.504 124.114 108.621  1.00  0.00    -0.014 A 
ATOM     11  C   UNL     1     129.791 123.803 109.074  1.00  0.00     0.013 A 
ATOM     12  C   UNL     1     130.152 122.481 109.310  1.00  0.00     0.051 A 
ATOM     13  C   UNL     1     129.211 121.460 109.190  1.00  0.00     0.158 A 
ATOM     14  C   UNL     1     127.888 121.765 108.795  1.00  0.00     0.166 A 
ENDROOT
BRANCH  14  15
ATOM     15  O   UNL     1     126.870 120.822 108.965  1.00  0.00    -0.504 OA
ATOM     16  H   UNL     1     126.564 120.188 108.240  1.00  0.00     0.293 HD
ENDBRANCH  14  15
BRANCH   5  17
ATOM     17  O   UNL     1     122.525 124.611 106.304  1.00  0.00    -0.508 OA
ATOM     18  H   UNL     1     122.373 124.994 105.378  1.00  0.00     0.293 HD
ENDBRANCH   5  17
BRANCH   7  19
ATOM     19  O   UNL     1     125.940 121.234 106.695  1.00  0.00    -0.507 OA
ATOM     20  H   UNL     1     126.719 121.098 106.061  1.00  0.00     0.293 HD
ENDBRANCH   7  19
BRANCH  13  21
ATOM     21  O   UNL     1     129.622 120.157 109.478  1.00  0.00    -0.504 OA
ATOM     22  H   UNL     1     129.122 119.539 110.102  1.00  0.00     0.293 HD
ENDBRANCH  13  21
TORSDOF 4
ENDMDL
MODEL 3
REMARK VINA RESULT:    -4.323      9.039     10.936
REMARK INTER + INTRA:          -4.828
REMARK INTER:                  -4.828
REMARK INTRA:                   0.000
REMARK UNBOUND:                 0.000
REMARK SMILES Oc1cc(O)c2c(ccc3ccc(O)c(O)c32)c1
REMARK SMILES IDX 9 1 8 2 7 3 18 4 2 5 3 6 4 7 6 8 17 9 10 10 11 11 12 12
REMARK SMILES IDX 13 13 15 14 16 15 1 17 5 19 14 21
REMARK H PARENT 16 16 1 18 5 20 14 22
REMARK Flexibility Score: inf
ROOT
ATOM      1  C   UNL     1     123.508 128.039 108.395  1.00  0.00     0.009 A 
ATOM      2  C   UNL     1     123.189 126.733 108.045  1.00  0.00     0.009 A 
ATOM      3  C   UNL     1     124.195 125.829 107.690  1.00  0.00    -0.010 A 
ATOM      4  C   UNL     1     123.838 124.539 107.269  1.00  0.00     0.055 A 
ATOM      5  C   UNL     1     124.806 123.662 106.787  1.00  0.00     0.119 A 
ATOM      6  C   UNL     1     126.129 124.091 106.665  1.00  0.00     0.093 A 
ATOM      7  C   UNL     1     126.502 125.383 107.060  1.00  0.00     0.127 A 
ATOM      8  C   UNL     1     125.562 126.231 107.711  1.00  0.00     0.035 A 
ATOM      9  C   UNL     1     125.894 127.499 108.289  1.00  0.00     0.039 A 
ATOM     10  C   UNL     1     124.844 128.431 108.527  1.00  0.00    -0.014 A 
ATOM     11  C   UNL     1     125.137 129.735 108.943  1.00  0.00     0.013 A 
ATOM     12  C   UNL     1     126.452 130.118 109.180  1.00  0.00     0.051 A 
ATOM     13  C   UNL     1     127.485 129.185 109.100  1.00  0.00     0.158 A 
ATOM     14  C   UNL     1     127.199 127.847 108.742  1.00  0.00     0.166 A 
ENDROOT
BRANCH  14  15
ATOM     15  O   UNL     1     128.151 126.846 108.954  1.00  0.00    -0.504 OA
ATOM     16  H   UNL     1     127.963 125.987 109.451  1.00  0.00     0.293 HD
ENDBRANCH  14  15
BRANCH   5  17
ATOM     17  O   UNL     1     124.436 122.378 106.394  1.00  0.00    -0.508 OA
ATOM     18  H   UNL     1     123.675 122.221 105.743  1.00  0.00     0.293 HD
ENDBRANCH   5  17
BRANCH   7  19
ATOM     19  O   UNL     1     127.772 125.841 106.710  1.00  0.00    -0.507 OA
ATOM     20  H   UNL     1     127.916 126.492 105.946  1.00  0.00     0.293 HD
ENDBRANCH   7  19
BRANCH  13  21
ATOM     21  O   UNL     1     128.780 129.620 109.386  1.00  0.00    -0.504 OA
ATOM     22  H   UNL     1     129.528 129.632 108.706  1.00  0.00     0.293 HD
ENDBRANCH  13  21
TORSDOF 4
ENDMDL
MODEL 4
REMARK VINA RESULT:    -4.308      8.706     12.550
REMARK INTER + INTRA:          -4.812
REMARK INTER:                  -4.812
REMARK INTRA:                   0.000
REMARK UNBOUND:                 0.000
REMARK SMILES Oc1cc(O)c2c(ccc3ccc(O)c(O)c32)c1
REMARK SMILES IDX 9 1 8 2 7 3 18 4 2 5 3 6 4 7 6 8 17 9 10 10 11 11 12 12
REMARK SMILES IDX 13 13 15 14 16 15 1 17 5 19 14 21
REMARK H PARENT 16 16 1 18 5 20 14 22
REMARK Flexibility Score: inf
ROOT
ATOM      1  C   UNL     1     123.970 123.022 106.556  1.00  0.00     0.009 A 
ATOM      2  C   UNL     1     124.778 122.023 107.083  1.00  0.00     0.009 A 
ATOM      3  C   UNL     1     125.923 122.352 107.817  1.00  0.00    -0.010 A 
ATOM      4  C   UNL     1     126.760 121.324 108.274  1.00  0.00     0.055 A 
ATOM      5  C   UNL     1     127.972 121.624 108.892  1.00  0.00     0.119 A 
ATOM      6  C   UNL     1     128.381 122.954 109.003  1.00  0.00     0.093 A 
ATOM      7  C   UNL     1     127.568 123.995 108.533  1.00  0.00     0.127 A 
ATOM      8  C   UNL     1     126.256 123.716 108.054  1.00  0.00     0.035 A 
ATOM      9  C   UNL     1     125.301 124.725 107.705  1.00  0.00     0.039 A 
ATOM     10  C   UNL     1     124.212 124.365 106.861  1.00  0.00    -0.014 A 
ATOM     11  C   UNL     1     123.344 125.346 106.368  1.00  0.00     0.013 A 
ATOM     12  C   UNL     1     123.504 126.676 106.741  1.00  0.00     0.051 A 
ATOM     13  C   UNL     1     124.467 127.036 107.682  1.00  0.00     0.158 A 
ATOM     14  C   UNL     1     125.311 126.046 108.238  1.00  0.00     0.166 A 
ENDROOT
BRANCH  14  15
ATOM     15  O   UNL     1     126.058 126.327 109.386  1.00  0.00    -0.504 OA
ATOM     16  H   UNL     1     125.786 126.041 110.317  1.00  0.00     0.293 HD
ENDBRANCH  14  15
BRANCH   5  17
ATOM     17  O   UNL     1     128.780 120.591 109.359  1.00  0.00    -0.508 OA
ATOM     18  H   UNL     1     129.785 120.600 109.223  1.00  0.00     0.293 HD
ENDBRANCH   5  17
BRANCH   7  19
ATOM     19  O   UNL     1     128.111 125.277 108.456  1.00  0.00    -0.507 OA
ATOM     20  H   UNL     1     127.564 126.105 108.662  1.00  0.00     0.293 HD
ENDBRANCH   7  19
BRANCH  13  21
ATOM     21  O   UNL     1     124.554 128.381 108.045  1.00  0.00    -0.504 OA
ATOM     22  H   UNL     1     123.892 129.084 107.745  1.00  0.00     0.293 HD
ENDBRANCH  13  21
TORSDOF 4
ENDMDL
MODEL 5
REMARK VINA RESULT:    -4.303      9.405     11.562
REMARK INTER + INTRA:          -4.806
REMARK INTER:                  -4.806
REMARK INTRA:                   0.000
REMARK UNBOUND:                 0.000
REMARK SMILES Oc1cc(O)c2c(ccc3ccc(O)c(O)c32)c1
REMARK SMILES IDX 9 1 8 2 7 3 18 4 2 5 3 6 4 7 6 8 17 9 10 10 11 11 12 12
REMARK SMILES IDX 13 13 15 14 16 15 1 17 5 19 14 21
REMARK H PARENT 16 16 1 18 5 20 14 22
REMARK Flexibility Score: inf
ROOT
ATOM      1  C   UNL     1     125.535 120.901 108.489  1.00  0.00     0.009 A 
ATOM      2  C   UNL     1     125.879 122.190 108.103  1.00  0.00     0.009 A 
ATOM      3  C   UNL     1     124.892 123.100 107.713  1.00  0.00    -0.010 A 
ATOM      4  C   UNL     1     125.273 124.370 107.257  1.00  0.00     0.055 A 
ATOM      5  C   UNL     1     124.325 125.249 106.739  1.00  0.00     0.119 A 
ATOM      6  C   UNL     1     122.995 124.839 106.619  1.00  0.00     0.093 A 
ATOM      7  C   UNL     1     122.597 123.565 107.050  1.00  0.00     0.127 A 
ATOM      8  C   UNL     1     123.518 122.722 107.733  1.00  0.00     0.035 A 
ATOM      9  C   UNL     1     123.160 121.478 108.347  1.00  0.00     0.039 A 
ATOM     10  C   UNL     1     124.191 120.536 108.622  1.00  0.00    -0.014 A 
ATOM     11  C   UNL     1     123.874 119.250 109.074  1.00  0.00     0.013 A 
ATOM     12  C   UNL     1     122.550 118.897 109.311  1.00  0.00     0.051 A 
ATOM     13  C   UNL     1     121.534 119.843 109.194  1.00  0.00     0.158 A 
ATOM     14  C   UNL     1     121.846 121.165 108.799  1.00  0.00     0.166 A 
ENDROOT
BRANCH  14  15
ATOM     15  O   UNL     1     120.909 122.188 108.972  1.00  0.00    -0.504 OA
ATOM     16  H   UNL     1     120.967 122.887 109.700  1.00  0.00     0.293 HD
ENDBRANCH  14  15
BRANCH   5  17
ATOM     17  O   UNL     1     124.720 126.514 106.311  1.00  0.00    -0.508 OA
ATOM     18  H   UNL     1     124.059 127.279 106.238  1.00  0.00     0.293 HD
ENDBRANCH   5  17
BRANCH   7  19
ATOM     19  O   UNL     1     121.323 123.118 106.703  1.00  0.00    -0.507 OA
ATOM     20  H   UNL     1     120.505 123.711 106.788  1.00  0.00     0.293 HD
ENDBRANCH   7  19
BRANCH  13  21
ATOM     21  O   UNL     1     120.229 119.439 109.482  1.00  0.00    -0.504 OA
ATOM     22  H   UNL     1     119.418 119.772 108.979  1.00  0.00     0.293 HD
ENDBRANCH  13  21
TORSDOF 4
ENDMDL
MODEL 6
REMARK VINA RESULT:    -4.303      9.955     11.705
REMARK INTER + INTRA:          -4.806
REMARK INTER:                  -4.806
REMARK INTRA:                   0.000
REMARK UNBOUND:                 0.000
REMARK SMILES Oc1cc(O)c2c(ccc3ccc(O)c(O)c32)c1
REMARK SMILES IDX 9 1 8 2 7 3 18 4 2 5 3 6 4 7 6 8 17 9 10 10 11 11 12 12
REMARK SMILES IDX 13 13 15 14 16 15 1 17 5 19 14 21
REMARK H PARENT 16 16 1 18 5 20 14 22
REMARK Flexibility Score: inf
ROOT
ATOM      1  C   UNL     1     123.104 125.034 106.543  1.00  0.00     0.009 A 
ATOM      2  C   UNL     1     122.090 124.235 107.059  1.00  0.00     0.009 A 
ATOM      3  C   UNL     1     122.399 123.084 107.792  1.00  0.00    -0.010 A 
ATOM      4  C   UNL     1     121.357 122.258 108.237  1.00  0.00     0.055 A 
ATOM      5  C   UNL     1     121.636 121.041 108.853  1.00  0.00     0.119 A 
ATOM      6  C   UNL     1     122.961 120.614 108.974  1.00  0.00     0.093 A 
ATOM      7  C   UNL     1     124.015 121.417 108.516  1.00  0.00     0.127 A 
ATOM      8  C   UNL     1     123.757 122.733 108.039  1.00  0.00     0.035 A 
ATOM      9  C   UNL     1     124.781 123.678 107.702  1.00  0.00     0.039 A 
ATOM     10  C   UNL     1     124.441 124.773 106.860  1.00  0.00    -0.014 A 
ATOM     11  C   UNL     1     125.437 125.631 106.378  1.00  0.00     0.013 A 
ATOM     12  C   UNL     1     126.761 125.454 106.761  1.00  0.00     0.051 A 
ATOM     13  C   UNL     1     127.101 124.482 107.702  1.00  0.00     0.158 A 
ATOM     14  C   UNL     1     126.097 123.649 108.247  1.00  0.00     0.166 A 
ENDROOT
BRANCH  14  15
ATOM     15  O   UNL     1     126.358 122.895 109.394  1.00  0.00    -0.504 OA
ATOM     16  H   UNL     1     126.185 123.223 110.334  1.00  0.00     0.293 HD
ENDBRANCH  14  15
BRANCH   5  17
ATOM     17  O   UNL     1     120.589 120.243 109.308  1.00  0.00    -0.508 OA
ATOM     18  H   UNL     1     119.765 120.075 108.742  1.00  0.00     0.293 HD
ENDBRANCH   5  17
BRANCH   7  19
ATOM     19  O   UNL     1     125.291 120.857 108.447  1.00  0.00    -0.507 OA
ATOM     20  H   UNL     1     125.518 119.982 108.906  1.00  0.00     0.293 HD
ENDBRANCH   7  19
BRANCH  13  21
ATOM     21  O   UNL     1     128.442 124.377 108.076  1.00  0.00    -0.504 OA
ATOM     22  H   UNL     1     128.813 123.604 108.610  1.00  0.00     0.293 HD
ENDBRANCH  13  21
TORSDOF 4
ENDMDL
MODEL 7
REMARK VINA RESULT:    -4.293      8.652     10.633
REMARK INTER + INTRA:          -4.794
REMARK INTER:                  -4.794
REMARK INTRA:                   0.000
REMARK UNBOUND:                 0.000
REMARK SMILES Oc1cc(O)c2c(ccc3ccc(O)c(O)c32)c1
REMARK SMILES IDX 9 1 8 2 7 3 18 4 2 5 3 6 4 7 6 8 17 9 10 10 11 11 12 12
REMARK SMILES IDX 13 13 15 14 16 15 1 17 5 19 14 21
REMARK H PARENT 16 16 1 18 5 20 14 22
REMARK Flexibility Score: inf
ROOT
ATOM      1  C   UNL     1     126.032 124.040 106.563  1.00  0.00     0.009 A 
ATOM      2  C   UNL     1     127.025 124.851 107.100  1.00  0.00     0.009 A 
ATOM      3  C   UNL     1     126.687 125.987 107.842  1.00  0.00    -0.010 A 
ATOM      4  C   UNL     1     127.708 126.827 108.309  1.00  0.00     0.055 A 
ATOM      5  C   UNL     1     127.399 128.031 108.937  1.00  0.00     0.119 A 
ATOM      6  C   UNL     1     126.066 128.431 109.048  1.00  0.00     0.093 A 
ATOM      7  C   UNL     1     125.031 127.615 108.568  1.00  0.00     0.127 A 
ATOM      8  C   UNL     1     125.320 126.310 108.079  1.00  0.00     0.035 A 
ATOM      9  C   UNL     1     124.318 125.350 107.720  1.00  0.00     0.039 A 
ATOM     10  C   UNL     1     124.687 124.271 106.868  1.00  0.00    -0.014 A 
ATOM     11  C   UNL     1     123.713 123.401 106.365  1.00  0.00     0.013 A 
ATOM     12  C   UNL     1     122.381 123.549 106.736  1.00  0.00     0.051 A 
ATOM     13  C   UNL     1     122.013 124.502 107.684  1.00  0.00     0.158 A 
ATOM     14  C   UNL     1     122.996 125.348 108.250  1.00  0.00     0.166 A 
ENDROOT
BRANCH  14  15
ATOM     15  O   UNL     1     122.707 126.083 109.403  1.00  0.00    -0.504 OA
ATOM     16  H   UNL     1     121.967 125.847 110.049  1.00  0.00     0.293 HD
ENDBRANCH  14  15
BRANCH   5  17
ATOM     17  O   UNL     1     128.426 128.843 109.413  1.00  0.00    -0.508 OA
ATOM     18  H   UNL     1     128.830 129.577 108.843  1.00  0.00     0.293 HD
ENDBRANCH   5  17
BRANCH   7  19
ATOM     19  O   UNL     1     123.747 128.151 108.493  1.00  0.00    -0.507 OA
ATOM     20  H   UNL     1     123.035 127.937 109.182  1.00  0.00     0.293 HD
ENDBRANCH   7  19
BRANCH  13  21
ATOM     21  O   UNL     1     120.667 124.578 108.044  1.00  0.00    -0.504 OA
ATOM     22  H   UNL     1     120.274 125.340 108.581  1.00  0.00     0.293 HD
ENDBRANCH  13  21
TORSDOF 4
ENDMDL
MODEL 8
REMARK VINA RESULT:    -4.272      6.393      9.513
REMARK INTER + INTRA:          -4.772
REMARK INTER:                  -4.772
REMARK INTRA:                   0.000
REMARK UNBOUND:                 0.000
REMARK SMILES Oc1cc(O)c2c(ccc3ccc(O)c(O)c32)c1
REMARK SMILES IDX 9 1 8 2 7 3 18 4 2 5 3 6 4 7 6 8 17 9 10 10 11 11 12 12
REMARK SMILES IDX 13 13 15 14 16 15 1 17 5 19 14 21
REMARK H PARENT 16 16 1 18 5 20 14 22
REMARK Flexibility Score: inf
ROOT
ATOM      1  C   UNL     1     124.971 125.911 106.570  1.00  0.00     0.009 A 
ATOM      2  C   UNL     1     124.191 126.937 107.090  1.00  0.00     0.009 A 
ATOM      3  C   UNL     1     123.042 126.646 107.832  1.00  0.00    -0.010 A 
ATOM      4  C   UNL     1     122.234 127.700 108.282  1.00  0.00     0.055 A 
ATOM      5  C   UNL     1     121.018 127.439 108.909  1.00  0.00     0.119 A 
ATOM      6  C   UNL     1     120.575 126.121 109.036  1.00  0.00     0.093 A 
ATOM      7  C   UNL     1     121.359 125.054 108.574  1.00  0.00     0.127 A 
ATOM      8  C   UNL     1     122.674 125.293 108.086  1.00  0.00     0.035 A 
ATOM      9  C   UNL     1     123.602 124.256 107.744  1.00  0.00     0.039 A 
ATOM     10  C   UNL     1     124.695 124.578 106.892  1.00  0.00    -0.014 A 
ATOM     11  C   UNL     1     125.535 123.570 106.406  1.00  0.00     0.013 A 
ATOM     12  C   UNL     1     125.343 122.249 106.794  1.00  0.00     0.051 A 
ATOM     13  C   UNL     1     124.375 121.925 107.743  1.00  0.00     0.158 A 
ATOM     14  C   UNL     1     123.559 122.942 108.292  1.00  0.00     0.166 A 
ENDROOT
BRANCH  14  15
ATOM     15  O   UNL     1     122.811 122.693 109.446  1.00  0.00    -0.504 OA
ATOM     16  H   UNL     1     122.082 121.996 109.504  1.00  0.00     0.293 HD
ENDBRANCH  14  15
BRANCH   5  17
ATOM     17  O   UNL     1     120.239 128.498 109.368  1.00  0.00    -0.508 OA
ATOM     18  H   UNL     1     120.375 129.443 109.028  1.00  0.00     0.293 HD
ENDBRANCH   5  17
BRANCH   7  19
ATOM     19  O   UNL     1     120.781 123.786 108.514  1.00  0.00    -0.507 OA
ATOM     20  H   UNL     1     121.007 123.129 107.776  1.00  0.00     0.293 HD
ENDBRANCH   7  19
BRANCH  13  21
ATOM     21  O   UNL     1     124.254 120.586 108.122  1.00  0.00    -0.504 OA
ATOM     22  H   UNL     1     123.366 120.122 108.255  1.00  0.00     0.293 HD
ENDBRANCH  13  21
TORSDOF 4
ENDMDL
MODEL 9
REMARK VINA RESULT:    -4.256      8.393     10.486
REMARK INTER + INTRA:          -4.754
REMARK INTER:                  -4.754
REMARK INTRA:                   0.000
REMARK UNBOUND:                 0.000
REMARK SMILES Oc1cc(O)c2c(ccc3ccc(O)c(O)c32)c1
REMARK SMILES IDX 9 1 8 2 7 3 18 4 2 5 3 6 4 7 6 8 17 9 10 10 11 11 12 12
REMARK SMILES IDX 13 13 15 14 16 15 1 17 5 19 14 21
REMARK H PARENT 16 16 1 18 5 20 14 22
REMARK Flexibility Score: inf
ROOT
ATOM      1  C   UNL     1     126.819 124.654 107.036  1.00  0.00     0.009 A 
ATOM      2  C   UNL     1     125.719 123.953 106.558  1.00  0.00     0.009 A 
ATOM      3  C   UNL     1     124.424 124.329 106.929  1.00  0.00    -0.010 A 
ATOM      4  C   UNL     1     123.336 123.559 106.492  1.00  0.00     0.055 A 
ATOM      5  C   UNL     1     122.050 123.831 106.950  1.00  0.00     0.119 A 
ATOM      6  C   UNL     1     121.851 124.838 107.896  1.00  0.00     0.093 A 
ATOM      7  C   UNL     1     122.928 125.606 108.362  1.00  0.00     0.127 A 
ATOM      8  C   UNL     1     124.218 125.454 107.780  1.00  0.00     0.035 A 
ATOM      9  C   UNL     1     125.336 126.300 108.077  1.00  0.00     0.039 A 
ATOM     10  C   UNL     1     126.644 125.823 107.784  1.00  0.00    -0.014 A 
ATOM     11  C   UNL     1     127.770 126.545 108.198  1.00  0.00     0.013 A 
ATOM     12  C   UNL     1     127.621 127.761 108.854  1.00  0.00     0.051 A 
ATOM     13  C   UNL     1     126.357 128.324 109.022  1.00  0.00     0.158 A 
ATOM     14  C   UNL     1     125.213 127.638 108.552  1.00  0.00     0.166 A 
ENDROOT
BRANCH  14  15
ATOM     15  O   UNL     1     123.993 128.309 108.433  1.00  0.00    -0.504 OA
ATOM     16  H   UNL     1     123.098 127.891 108.648  1.00  0.00     0.293 HD
ENDBRANCH  14  15
BRANCH   5  17
ATOM     17  O   UNL     1     120.979 123.069 106.488  1.00  0.00    -0.508 OA
ATOM     18  H   UNL     1     121.101 122.362 105.773  1.00  0.00     0.293 HD
ENDBRANCH   5  17
BRANCH   7  19
ATOM     19  O   UNL     1     122.722 126.436 109.463  1.00  0.00    -0.507 OA
ATOM     20  H   UNL     1     122.459 127.409 109.359  1.00  0.00     0.293 HD
ENDBRANCH   7  19
BRANCH  13  21
ATOM     21  O   UNL     1     126.275 129.566 109.653  1.00  0.00    -0.504 OA
ATOM     22  H   UNL     1     126.503 130.440 109.198  1.00  0.00     0.293 HD
ENDBRANCH  13  21
TORSDOF 4
ENDMDL
