MODEL 1
REMARK VINA RESULT:    -3.369      0.000      0.000
REMARK INTER + INTRA:          -3.369
REMARK INTER:                  -3.369
REMARK INTRA:                   0.000
REMARK UNBOUND:                 0.000
REMARK SMILES CC1(C)O[C@]2(C)CC[C@H]1CC2
REMARK SMILES IDX 1 1 2 2 9 3 10 4 11 5 5 6 4 7 7 8 8 9 6 10 3 11
REMARK H PARENT
REMARK Flexibility Score: inf
ROOT
ATOM      1  C   UNL     1       8.435   2.756   9.007  1.00  0.00     0.042 C 
ATOM      2  C   UNL     1       8.713   2.405   7.530  1.00  0.00     0.066 C 
ATOM      3  C   UNL     1       7.892   1.129   7.095  1.00  0.00     0.021 C 
ATOM      4  C   UNL     1       6.384   1.459   7.200  1.00  0.00     0.009 C 
ATOM      5  C   UNL     1       6.096   2.770   6.430  1.00  0.00     0.035 C 
ATOM      6  C   UNL     1       7.395   3.270   5.735  1.00  0.00     0.066 C 
ATOM      7  O   UNL     1       8.381   3.549   6.729  1.00  0.00    -0.369 OA
ATOM      8  C   UNL     1       7.923   2.152   4.789  1.00  0.00     0.035 C 
ATOM      9  C   UNL     1       8.168   0.855   5.598  1.00  0.00     0.009 C 
ATOM     10  C   UNL     1       7.117   4.551   4.941  1.00  0.00     0.042 C 
ATOM     11  C   UNL     1      10.230   2.150   7.396  1.00  0.00     0.042 C 
ENDROOT
TORSDOF 0
ENDMDL
MODEL 2
REMARK VINA RESULT:    -3.356      1.352      3.032
REMARK INTER + INTRA:          -3.356
REMARK INTER:                  -3.356
REMARK INTRA:                   0.000
REMARK UNBOUND:                 0.000
REMARK SMILES CC1(C)O[C@]2(C)CC[C@H]1CC2
REMARK SMILES IDX 1 1 2 2 9 3 10 4 11 5 5 6 4 7 7 8 8 9 6 10 3 11
REMARK H PARENT
REMARK Flexibility Score: inf
ROOT
ATOM      1  C   UNL     1       5.335   4.449   5.636  1.00  0.00     0.042 C 
ATOM      2  C   UNL     1       6.826   4.299   6.008  1.00  0.00     0.066 C 
ATOM      3  C   UNL     1       6.981   3.712   7.464  1.00  0.00     0.021 C 
ATOM      4  C   UNL     1       6.369   2.290   7.486  1.00  0.00     0.009 C 
ATOM      5  C   UNL     1       6.974   1.459   6.329  1.00  0.00     0.035 C 
ATOM      6  C   UNL     1       8.057   2.295   5.589  1.00  0.00     0.066 C 
ATOM      7  O   UNL     1       7.448   3.457   5.025  1.00  0.00    -0.369 OA
ATOM      8  C   UNL     1       9.144   2.733   6.613  1.00  0.00     0.035 C 
ATOM      9  C   UNL     1       8.488   3.534   7.763  1.00  0.00     0.009 C 
ATOM     10  C   UNL     1       8.688   1.472   4.461  1.00  0.00     0.042 C 
ATOM     11  C   UNL     1       7.466   5.701   5.913  1.00  0.00     0.042 C 
ENDROOT
TORSDOF 0
ENDMDL
MODEL 3
REMARK VINA RESULT:    -3.342      1.380      2.948
REMARK INTER + INTRA:          -3.342
REMARK INTER:                  -3.342
REMARK INTRA:                   0.000
REMARK UNBOUND:                 0.000
REMARK SMILES CC1(C)O[C@]2(C)CC[C@H]1CC2
REMARK SMILES IDX 1 1 2 2 9 3 10 4 11 5 5 6 4 7 7 8 8 9 6 10 3 11
REMARK H PARENT
REMARK Flexibility Score: inf
ROOT
ATOM      1  C   UNL     1       9.741   3.481   7.172  1.00  0.00     0.042 C 
ATOM      2  C   UNL     1       8.268   3.909   7.000  1.00  0.00     0.066 C 
ATOM      3  C   UNL     1       7.846   3.861   5.480  1.00  0.00     0.021 C 
ATOM      4  C   UNL     1       7.945   2.395   4.991  1.00  0.00     0.009 C 
ATOM      5  C   UNL     1       7.161   1.482   5.964  1.00  0.00     0.035 C 
ATOM      6  C   UNL     1       6.463   2.346   7.053  1.00  0.00     0.066 C 
ATOM      7  O   UNL     1       7.455   3.043   7.806  1.00  0.00    -0.369 OA
ATOM      8  C   UNL     1       5.530   3.378   6.356  1.00  0.00     0.035 C 
ATOM      9  C   UNL     1       6.352   4.248   5.374  1.00  0.00     0.009 C 
ATOM     10  C   UNL     1       5.655   1.455   8.004  1.00  0.00     0.042 C 
ATOM     11  C   UNL     1       8.139   5.343   7.557  1.00  0.00     0.042 C 
ENDROOT
TORSDOF 0
ENDMDL
MODEL 4
REMARK VINA RESULT:    -3.166      0.970      3.200
REMARK INTER + INTRA:          -3.166
REMARK INTER:                  -3.166
REMARK INTRA:                   0.000
REMARK UNBOUND:                 0.000
REMARK SMILES CC1(C)O[C@]2(C)CC[C@H]1CC2
REMARK SMILES IDX 1 1 2 2 9 3 10 4 11 5 5 6 4 7 7 8 8 9 6 10 3 11
REMARK H PARENT
REMARK Flexibility Score: inf
ROOT
ATOM      1  C   UNL     1       7.013   4.525   4.967  1.00  0.00     0.042 C 
ATOM      2  C   UNL     1       7.123   3.550   6.160  1.00  0.00     0.066 C 
ATOM      3  C   UNL     1       7.041   2.054   5.667  1.00  0.00     0.021 C 
ATOM      4  C   UNL     1       8.255   1.774   4.749  1.00  0.00     0.009 C 
ATOM      5  C   UNL     1       9.552   2.201   5.477  1.00  0.00     0.035 C 
ATOM      6  C   UNL     1       9.215   2.681   6.918  1.00  0.00     0.066 C 
ATOM      7  O   UNL     1       8.357   3.820   6.843  1.00  0.00    -0.369 OA
ATOM      8  C   UNL     1       8.481   1.536   7.673  1.00  0.00     0.035 C 
ATOM      9  C   UNL     1       7.208   1.125   6.893  1.00  0.00     0.009 C 
ATOM     10  C   UNL     1      10.495   3.075   7.662  1.00  0.00     0.042 C 
ATOM     11  C   UNL     1       5.961   3.872   7.124  1.00  0.00     0.042 C 
ENDROOT
TORSDOF 0
ENDMDL
MODEL 5
REMARK VINA RESULT:    -3.160      1.660      2.564
REMARK INTER + INTRA:          -3.160
REMARK INTER:                  -3.160
REMARK INTRA:                   0.000
REMARK UNBOUND:                 0.000
REMARK SMILES CC1(C)O[C@]2(C)CC[C@H]1CC2
REMARK SMILES IDX 1 1 2 2 9 3 10 4 11 5 5 6 4 7 7 8 8 9 6 10 3 11
REMARK H PARENT
REMARK Flexibility Score: inf
ROOT
ATOM      1  C   UNL     1       5.699   4.787   8.662  1.00  0.00     0.042 C 
ATOM      2  C   UNL     1       6.545   3.679   7.998  1.00  0.00     0.066 C 
ATOM      3  C   UNL     1       5.788   3.068   6.756  1.00  0.00     0.021 C 
ATOM      4  C   UNL     1       5.601   4.183   5.699  1.00  0.00     0.009 C 
ATOM      5  C   UNL     1       6.968   4.854   5.423  1.00  0.00     0.035 C 
ATOM      6  C   UNL     1       8.085   4.130   6.227  1.00  0.00     0.066 C 
ATOM      7  O   UNL     1       7.809   4.249   7.623  1.00  0.00    -0.369 OA
ATOM      8  C   UNL     1       8.094   2.624   5.834  1.00  0.00     0.035 C 
ATOM      9  C   UNL     1       6.700   2.004   6.101  1.00  0.00     0.009 C 
ATOM     10  C   UNL     1       9.449   4.765   5.937  1.00  0.00     0.042 C 
ATOM     11  C   UNL     1       6.806   2.596   9.067  1.00  0.00     0.042 C 
ENDROOT
TORSDOF 0
ENDMDL
MODEL 6
REMARK VINA RESULT:    -3.158     11.494     13.401
REMARK INTER + INTRA:          -3.158
REMARK INTER:                  -3.158
REMARK INTRA:                   0.000
REMARK UNBOUND:                 0.000
REMARK SMILES CC1(C)O[C@]2(C)CC[C@H]1CC2
REMARK SMILES IDX 1 1 2 2 9 3 10 4 11 5 5 6 4 7 7 8 8 9 6 10 3 11
REMARK H PARENT
REMARK Flexibility Score: inf
ROOT
ATOM      1  C   UNL     1      -1.230   7.364   2.721  1.00  0.00     0.042 C 
ATOM      2  C   UNL     1      -2.399   7.874   1.851  1.00  0.00     0.066 C 
ATOM      3  C   UNL     1      -1.897   8.237   0.399  1.00  0.00     0.021 C 
ATOM      4  C   UNL     1      -1.369   6.947  -0.273  1.00  0.00     0.009 C 
ATOM      5  C   UNL     1      -2.445   5.839  -0.162  1.00  0.00     0.035 C 
ATOM      6  C   UNL     1      -3.728   6.414   0.504  1.00  0.00     0.066 C 
ATOM      7  O   UNL     1      -3.412   6.856   1.825  1.00  0.00    -0.369 OA
ATOM      8  C   UNL     1      -4.233   7.624  -0.334  1.00  0.00     0.035 C 
ATOM      9  C   UNL     1      -3.115   8.690  -0.441  1.00  0.00     0.009 C 
ATOM     10  C   UNL     1      -4.813   5.336   0.591  1.00  0.00     0.042 C 
ATOM     11  C   UNL     1      -2.986   9.117   2.553  1.00  0.00     0.042 C 
ENDROOT
TORSDOF 0
ENDMDL
MODEL 7
REMARK VINA RESULT:    -3.150      1.515      2.889
REMARK INTER + INTRA:          -3.150
REMARK INTER:                  -3.150
REMARK INTRA:                   0.000
REMARK UNBOUND:                 0.000
REMARK SMILES CC1(C)O[C@]2(C)CC[C@H]1CC2
REMARK SMILES IDX 1 1 2 2 9 3 10 4 11 5 5 6 4 7 7 8 8 9 6 10 3 11
REMARK H PARENT
REMARK Flexibility Score: inf
ROOT
ATOM      1  C   UNL     1       6.934   1.261   7.023  1.00  0.00     0.042 C 
ATOM      2  C   UNL     1       7.509   2.404   6.159  1.00  0.00     0.066 C 
ATOM      3  C   UNL     1       6.392   3.468   5.826  1.00  0.00     0.021 C 
ATOM      4  C   UNL     1       5.913   4.107   7.152  1.00  0.00     0.009 C 
ATOM      5  C   UNL     1       7.143   4.609   7.946  1.00  0.00     0.035 C 
ATOM      6  C   UNL     1       8.437   4.389   7.111  1.00  0.00     0.066 C 
ATOM      7  O   UNL     1       8.608   2.992   6.872  1.00  0.00    -0.369 OA
ATOM      8  C   UNL     1       8.290   5.128   5.749  1.00  0.00     0.035 C 
ATOM      9  C   UNL     1       7.033   4.612   5.006  1.00  0.00     0.009 C 
ATOM     10  C   UNL     1       9.659   4.914   7.873  1.00  0.00     0.042 C 
ATOM     11  C   UNL     1       8.062   1.769   4.865  1.00  0.00     0.042 C 
ENDROOT
TORSDOF 0
ENDMDL
MODEL 8
REMARK VINA RESULT:    -3.125      1.405      3.120
REMARK INTER + INTRA:          -3.125
REMARK INTER:                  -3.125
REMARK INTRA:                   0.000
REMARK UNBOUND:                 0.000
REMARK SMILES CC1(C)O[C@]2(C)CC[C@H]1CC2
REMARK SMILES IDX 1 1 2 2 9 3 10 4 11 5 5 6 4 7 7 8 8 9 6 10 3 11
REMARK H PARENT
REMARK Flexibility Score: inf
ROOT
ATOM      1  C   UNL     1       8.164   1.769   4.623  1.00  0.00     0.042 C 
ATOM      2  C   UNL     1       8.191   2.409   6.028  1.00  0.00     0.066 C 
ATOM      3  C   UNL     1       8.032   3.975   5.930  1.00  0.00     0.021 C 
ATOM      4  C   UNL     1       6.644   4.290   5.322  1.00  0.00     0.009 C 
ATOM      5  C   UNL     1       5.557   3.525   6.115  1.00  0.00     0.035 C 
ATOM      6  C   UNL     1       6.208   2.771   7.310  1.00  0.00     0.066 C 
ATOM      7  O   UNL     1       7.142   1.815   6.808  1.00  0.00    -0.369 OA
ATOM      8  C   UNL     1       6.958   3.798   8.207  1.00  0.00     0.035 C 
ATOM      9  C   UNL     1       8.013   4.556   7.364  1.00  0.00     0.009 C 
ATOM     10  C   UNL     1       5.137   2.036   8.124  1.00  0.00     0.042 C 
ATOM     11  C   UNL     1       9.541   2.036   6.677  1.00  0.00     0.042 C 
ENDROOT
TORSDOF 0
ENDMDL
MODEL 9
REMARK VINA RESULT:    -3.115      1.337      2.243
REMARK INTER + INTRA:          -3.115
REMARK INTER:                  -3.115
REMARK INTRA:                   0.000
REMARK UNBOUND:                 0.000
REMARK SMILES CC1(C)O[C@]2(C)CC[C@H]1CC2
REMARK SMILES IDX 1 1 2 2 9 3 10 4 11 5 5 6 4 7 7 8 8 9 6 10 3 11
REMARK H PARENT
REMARK Flexibility Score: inf
ROOT
ATOM      1  C   UNL     1      10.103   3.272   5.759  1.00  0.00     0.042 C 
ATOM      2  C   UNL     1       8.760   2.512   5.739  1.00  0.00     0.066 C 
ATOM      3  C   UNL     1       8.448   1.893   7.157  1.00  0.00     0.021 C 
ATOM      4  C   UNL     1       8.291   3.051   8.172  1.00  0.00     0.009 C 
ATOM      5  C   UNL     1       7.274   4.078   7.618  1.00  0.00     0.035 C 
ATOM      6  C   UNL     1       6.682   3.563   6.275  1.00  0.00     0.066 C 
ATOM      7  O   UNL     1       7.736   3.427   5.320  1.00  0.00    -0.369 OA
ATOM      8  C   UNL     1       6.025   2.173   6.513  1.00  0.00     0.035 C 
ATOM      9  C   UNL     1       7.072   1.190   7.093  1.00  0.00     0.009 C 
ATOM     10  C   UNL     1       5.649   4.555   5.732  1.00  0.00     0.042 C 
ATOM     11  C   UNL     1       8.876   1.402   4.673  1.00  0.00     0.042 C 
ENDROOT
TORSDOF 0
ENDMDL
