MODEL 1
REMARK VINA RESULT:    -3.626      0.000      0.000
REMARK INTER + INTRA:          -4.528
REMARK INTER:                  -4.474
REMARK INTRA:                  -0.054
REMARK UNBOUND:                -0.054
REMARK SMILES CCCCCC(=O)[O-]
REMARK SMILES IDX 4 1 5 2 6 3 7 4 8 5 3 6 2 7 1 8
REMARK H PARENT
REMARK Flexibility Score: inf
ROOT
ATOM      1  C   UNL     1       0.009   3.086  -2.934  1.00  0.00     0.006 C 
ENDROOT
BRANCH   1   2
ATOM      2  C   UNL     1      -1.212   2.580  -3.713  1.00  0.00     0.053 C 
BRANCH   2   3
ATOM      3  C   UNL     1      -2.219   1.991  -2.776  1.00  0.00     0.041 C 
ATOM      4  O   UNL     1      -2.450   2.540  -1.666  1.00  0.00    -0.550 OA
ATOM      5  O   UNL     1      -2.937   0.861  -3.147  1.00  0.00    -0.550 OA
ENDBRANCH   2   3
ENDBRANCH   1   2
BRANCH   1   6
ATOM      6  C   UNL     1       1.317   2.945  -3.730  1.00  0.00     0.000 C 
BRANCH   6   7
ATOM      7  C   UNL     1       2.323   2.004  -3.052  1.00  0.00    -0.003 C 
ATOM      8  C   UNL     1       3.504   1.706  -3.973  1.00  0.00     0.004 C 
ENDBRANCH   6   7
ENDBRANCH   1   6
TORSDOF 4
ENDMDL
MODEL 2
REMARK VINA RESULT:    -3.539      3.613      5.136
REMARK INTER + INTRA:          -4.421
REMARK INTER:                  -4.353
REMARK INTRA:                  -0.067
REMARK UNBOUND:                -0.054
REMARK SMILES CCCCCC(=O)[O-]
REMARK SMILES IDX 4 1 5 2 6 3 7 4 8 5 3 6 2 7 1 8
REMARK H PARENT
REMARK Flexibility Score: inf
ROOT
ATOM      1  C   UNL     1       1.449   2.947  -3.710  1.00  0.00     0.006 C 
ENDROOT
BRANCH   1   2
ATOM      2  C   UNL     1       2.293   1.894  -2.980  1.00  0.00     0.053 C 
BRANCH   2   3
ATOM      3  C   UNL     1       3.677   1.853  -3.546  1.00  0.00     0.041 C 
ATOM      4  O   UNL     1       3.854   1.880  -4.793  1.00  0.00    -0.550 OA
ATOM      5  O   UNL     1       4.776   1.835  -2.695  1.00  0.00    -0.550 OA
ENDBRANCH   2   3
ENDBRANCH   1   2
BRANCH   1   6
ATOM      6  C   UNL     1       0.187   3.341  -2.926  1.00  0.00     0.000 C 
BRANCH   6   7
ATOM      7  C   UNL     1      -1.090   2.719  -3.509  1.00  0.00    -0.003 C 
ATOM      8  C   UNL     1      -2.121   2.455  -2.415  1.00  0.00     0.004 C 
ENDBRANCH   6   7
ENDBRANCH   1   6
TORSDOF 4
ENDMDL
MODEL 3
REMARK VINA RESULT:    -3.484      2.956      4.751
REMARK INTER + INTRA:          -4.352
REMARK INTER:                  -4.299
REMARK INTRA:                  -0.053
REMARK UNBOUND:                -0.054
REMARK SMILES CCCCCC(=O)[O-]
REMARK SMILES IDX 4 1 5 2 6 3 7 4 8 5 3 6 2 7 1 8
REMARK H PARENT
REMARK Flexibility Score: inf
ROOT
ATOM      1  C   UNL     1       0.062   3.137  -2.894  1.00  0.00     0.006 C 
ENDROOT
BRANCH   1   2
ATOM      2  C   UNL     1       1.194   3.037  -3.925  1.00  0.00     0.053 C 
BRANCH   2   3
ATOM      3  C   UNL     1       2.489   2.720  -3.245  1.00  0.00     0.041 C 
ATOM      4  O   UNL     1       2.842   1.523  -3.079  1.00  0.00    -0.550 OA
ATOM      5  O   UNL     1       3.330   3.748  -2.837  1.00  0.00    -0.550 OA
ENDBRANCH   2   3
ENDBRANCH   1   2
BRANCH   1   6
ATOM      6  C   UNL     1      -1.326   2.920  -3.519  1.00  0.00     0.000 C 
BRANCH   6   7
ATOM      7  C   UNL     1      -2.316   2.265  -2.545  1.00  0.00    -0.003 C 
ATOM      8  C   UNL     1      -3.059   1.110  -3.212  1.00  0.00     0.004 C 
ENDBRANCH   6   7
ENDBRANCH   1   6
TORSDOF 4
ENDMDL
MODEL 4
REMARK VINA RESULT:    -3.249      2.618      3.185
REMARK INTER + INTRA:          -4.063
REMARK INTER:                  -3.829
REMARK INTRA:                  -0.234
REMARK UNBOUND:                -0.054
REMARK SMILES CCCCCC(=O)[O-]
REMARK SMILES IDX 4 1 5 2 6 3 7 4 8 5 3 6 2 7 1 8
REMARK H PARENT
REMARK Flexibility Score: inf
ROOT
ATOM      1  C   UNL     1      -1.317   2.538  -2.935  1.00  0.00     0.006 C 
ENDROOT
BRANCH   1   2
ATOM      2  C   UNL     1      -2.706   2.473  -2.287  1.00  0.00     0.053 C 
BRANCH   2   3
ATOM      3  C   UNL     1      -3.565   1.475  -2.998  1.00  0.00     0.041 C 
ATOM      4  O   UNL     1      -3.055   0.426  -3.475  1.00  0.00    -0.550 OA
ATOM      5  O   UNL     1      -4.936   1.678  -3.091  1.00  0.00    -0.550 OA
ENDBRANCH   2   3
ENDBRANCH   1   2
BRANCH   1   6
ATOM      6  C   UNL     1      -1.205   3.658  -3.982  1.00  0.00     0.000 C 
BRANCH   6   7
ATOM      7  C   UNL     1      -0.804   3.132  -5.368  1.00  0.00    -0.003 C 
ATOM      8  C   UNL     1      -2.033   2.734  -6.181  1.00  0.00     0.004 C 
ENDBRANCH   6   7
ENDBRANCH   1   6
TORSDOF 4
ENDMDL
MODEL 5
REMARK VINA RESULT:    -3.235      1.560      2.620
REMARK INTER + INTRA:          -4.046
REMARK INTER:                  -3.965
REMARK INTRA:                  -0.080
REMARK UNBOUND:                -0.054
REMARK SMILES CCCCCC(=O)[O-]
REMARK SMILES IDX 4 1 5 2 6 3 7 4 8 5 3 6 2 7 1 8
REMARK H PARENT
REMARK Flexibility Score: inf
ROOT
ATOM      1  C   UNL     1      -2.028   2.229  -2.601  1.00  0.00     0.006 C 
ENDROOT
BRANCH   1   2
ATOM      2  C   UNL     1      -3.010   1.243  -3.249  1.00  0.00     0.053 C 
BRANCH   2   3
ATOM      3  C   UNL     1      -4.419   1.701  -3.041  1.00  0.00     0.041 C 
ATOM      4  O   UNL     1      -5.381   0.934  -3.312  1.00  0.00    -0.550 OA
ATOM      5  O   UNL     1      -4.671   2.957  -2.503  1.00  0.00    -0.550 OA
ENDBRANCH   2   3
ENDBRANCH   1   2
BRANCH   1   6
ATOM      6  C   UNL     1      -1.049   2.841  -3.617  1.00  0.00     0.000 C 
BRANCH   6   7
ATOM      7  C   UNL     1       0.181   3.468  -2.947  1.00  0.00    -0.003 C 
ATOM      8  C   UNL     1       1.466   2.788  -3.413  1.00  0.00     0.004 C 
ENDBRANCH   6   7
ENDBRANCH   1   6
TORSDOF 4
ENDMDL
MODEL 6
REMARK VINA RESULT:    -3.203      2.705      4.536
REMARK INTER + INTRA:          -4.006
REMARK INTER:                  -3.900
REMARK INTRA:                  -0.106
REMARK UNBOUND:                -0.054
REMARK SMILES CCCCCC(=O)[O-]
REMARK SMILES IDX 4 1 5 2 6 3 7 4 8 5 3 6 2 7 1 8
REMARK H PARENT
REMARK Flexibility Score: inf
ROOT
ATOM      1  C   UNL     1      -1.811   2.816  -4.272  1.00  0.00     0.006 C 
ENDROOT
BRANCH   1   2
ATOM      2  C   UNL     1      -1.096   2.671  -2.922  1.00  0.00     0.053 C 
BRANCH   2   3
ATOM      3  C   UNL     1       0.283   3.245  -2.999  1.00  0.00     0.041 C 
ATOM      4  O   UNL     1       1.279   2.487  -3.141  1.00  0.00    -0.550 OA
ATOM      5  O   UNL     1       0.467   4.622  -2.963  1.00  0.00    -0.550 OA
ENDBRANCH   2   3
ENDBRANCH   1   2
BRANCH   1   6
ATOM      6  C   UNL     1      -2.895   1.747  -4.485  1.00  0.00     0.000 C 
BRANCH   6   7
ATOM      7  C   UNL     1      -3.295   1.043  -3.181  1.00  0.00    -0.003 C 
ATOM      8  C   UNL     1      -3.712  -0.402  -3.443  1.00  0.00     0.004 C 
ENDBRANCH   6   7
ENDBRANCH   1   6
TORSDOF 4
ENDMDL
MODEL 7
REMARK VINA RESULT:    -3.167      1.600      2.347
REMARK INTER + INTRA:          -3.962
REMARK INTER:                  -3.881
REMARK INTRA:                  -0.081
REMARK UNBOUND:                -0.054
REMARK SMILES CCCCCC(=O)[O-]
REMARK SMILES IDX 4 1 5 2 6 3 7 4 8 5 3 6 2 7 1 8
REMARK H PARENT
REMARK Flexibility Score: inf
ROOT
ATOM      1  C   UNL     1      -1.703   2.261  -2.576  1.00  0.00     0.006 C 
ENDROOT
BRANCH   1   2
ATOM      2  C   UNL     1      -3.207   2.237  -2.879  1.00  0.00     0.053 C 
BRANCH   2   3
ATOM      3  C   UNL     1      -3.541   1.075  -3.760  1.00  0.00     0.041 C 
ATOM      4  O   UNL     1      -3.659   1.234  -5.004  1.00  0.00    -0.550 OA
ATOM      5  O   UNL     1      -3.676  -0.196  -3.214  1.00  0.00    -0.550 OA
ENDBRANCH   2   3
ENDBRANCH   1   2
BRANCH   1   6
ATOM      6  C   UNL     1      -0.899   3.030  -3.637  1.00  0.00     0.000 C 
BRANCH   6   7
ATOM      7  C   UNL     1       0.417   3.598  -3.085  1.00  0.00    -0.003 C 
ATOM      8  C   UNL     1       1.599   2.707  -3.458  1.00  0.00     0.004 C 
ENDBRANCH   6   7
ENDBRANCH   1   6
TORSDOF 4
ENDMDL
MODEL 8
REMARK VINA RESULT:    -3.167      2.820      4.822
REMARK INTER + INTRA:          -3.962
REMARK INTER:                  -3.772
REMARK INTRA:                  -0.189
REMARK UNBOUND:                -0.054
REMARK SMILES CCCCCC(=O)[O-]
REMARK SMILES IDX 4 1 5 2 6 3 7 4 8 5 3 6 2 7 1 8
REMARK H PARENT
REMARK Flexibility Score: inf
ROOT
ATOM      1  C   UNL     1      -2.210   2.467  -2.413  1.00  0.00     0.006 C 
ENDROOT
BRANCH   1   2
ATOM      2  C   UNL     1      -0.782   2.671  -2.934  1.00  0.00     0.053 C 
BRANCH   2   3
ATOM      3  C   UNL     1      -0.797   3.484  -4.190  1.00  0.00     0.041 C 
ATOM      4  O   UNL     1       0.140   3.380  -5.025  1.00  0.00    -0.550 OA
ATOM      5  O   UNL     1      -1.870   4.324  -4.462  1.00  0.00    -0.550 OA
ENDBRANCH   2   3
ENDBRANCH   1   2
BRANCH   1   6
ATOM      6  C   UNL     1      -2.931   1.300  -3.108  1.00  0.00     0.000 C 
BRANCH   6   7
ATOM      7  C   UNL     1      -4.425   1.577  -3.332  1.00  0.00    -0.003 C 
ATOM      8  C   UNL     1      -4.849   2.878  -2.656  1.00  0.00     0.004 C 
ENDBRANCH   6   7
ENDBRANCH   1   6
TORSDOF 4
ENDMDL
MODEL 9
REMARK VINA RESULT:    -2.975      2.463      3.490
REMARK INTER + INTRA:          -3.725
REMARK INTER:                  -3.586
REMARK INTRA:                  -0.139
REMARK UNBOUND:                -0.054
REMARK SMILES CCCCCC(=O)[O-]
REMARK SMILES IDX 4 1 5 2 6 3 7 4 8 5 3 6 2 7 1 8
REMARK H PARENT
REMARK Flexibility Score: inf
ROOT
ATOM      1  C   UNL     1      -3.057   2.674  -2.193  1.00  0.00     0.006 C 
ENDROOT
BRANCH   1   2
ATOM      2  C   UNL     1      -4.522   2.675  -2.647  1.00  0.00     0.053 C 
BRANCH   2   3
ATOM      3  C   UNL     1      -4.641   3.256  -4.020  1.00  0.00     0.041 C 
ATOM      4  O   UNL     1      -4.304   4.450  -4.235  1.00  0.00    -0.550 OA
ATOM      5  O   UNL     1      -5.079   2.464  -5.075  1.00  0.00    -0.550 OA
ENDBRANCH   2   3
ENDBRANCH   1   2
BRANCH   1   6
ATOM      6  C   UNL     1      -2.151   1.847  -3.121  1.00  0.00     0.000 C 
BRANCH   6   7
ATOM      7  C   UNL     1      -1.118   2.710  -3.860  1.00  0.00    -0.003 C 
ATOM      8  C   UNL     1       0.035   3.095  -2.937  1.00  0.00     0.004 C 
ENDBRANCH   6   7
ENDBRANCH   1   6
TORSDOF 4
ENDMDL
