MODEL 1
REMARK VINA RESULT:    -4.755      0.000      0.000
REMARK INTER + INTRA:          -6.833
REMARK INTER:                  -6.423
REMARK INTRA:                  -0.410
REMARK UNBOUND:                -0.410
REMARK SMILES COc1ccc(-c2cc(=O)c3c(OC)c(OC)c(OC)c(OC)c3o2)cc1
REMARK SMILES IDX 7 1 8 2 9 3 10 4 11 5 24 6 25 7 21 8 18 9 15 10 12 11 6 12
REMARK SMILES IDX 3 13 4 14 27 15 5 16 26 17 2 18 1 19 22 20 23 21 13 22 14 23
REMARK SMILES IDX 19 24 20 25 16 26 17 27
REMARK H PARENT
REMARK Flexibility Score: inf
ROOT
ATOM      1  C   UNL     1     -19.757   0.902 -29.029  1.00  0.00     0.138 A 
ATOM      2  C   UNL     1     -20.584   0.441 -30.057  1.00  0.00     0.100 A 
ATOM      3  C   UNL     1     -20.346  -0.813 -30.614  1.00  0.00     0.197 A 
ATOM      4  O   UNL     1     -21.105  -1.213 -31.537  1.00  0.00    -0.289 OA
ATOM      5  C   UNL     1     -19.273  -1.602 -30.138  1.00  0.00     0.115 A 
ATOM      6  C   UNL     1     -18.482  -1.068 -29.091  1.00  0.00     0.188 A 
ATOM      7  O   UNL     1     -18.762   0.137 -28.597  1.00  0.00    -0.452 OA
ATOM      8  C   UNL     1     -17.398  -1.807 -28.573  1.00  0.00     0.209 A 
ATOM      9  C   UNL     1     -17.114  -3.080 -29.093  1.00  0.00     0.211 A 
ATOM     10  C   UNL     1     -17.871  -3.612 -30.165  1.00  0.00     0.208 A 
ATOM     11  C   UNL     1     -18.981  -2.886 -30.663  1.00  0.00     0.179 A 
ENDROOT
BRANCH   1  12
ATOM     12  C   UNL     1     -19.977   2.224 -28.396  1.00  0.00     0.018 A 
ATOM     13  C   UNL     1     -20.360   4.757 -27.215  1.00  0.00     0.118 A 
ATOM     14  C   UNL     1     -19.411   4.583 -28.229  1.00  0.00     0.047 A 
ATOM     15  C   UNL     1     -21.124   3.655 -26.794  1.00  0.00     0.047 A 
ATOM     16  C   UNL     1     -19.227   3.332 -28.822  1.00  0.00     0.016 A 
ATOM     17  C   UNL     1     -20.933   2.401 -27.379  1.00  0.00     0.016 A 
BRANCH  13  18
ATOM     18  O   UNL     1     -20.512   6.034 -26.656  1.00  0.00    -0.497 OA
ATOM     19  C   UNL     1     -20.807   7.210 -27.405  1.00  0.00     0.278 C 
ENDBRANCH  13  18
ENDBRANCH   1  12
BRANCH   8  20
ATOM     20  O   UNL     1     -16.545  -1.324 -27.562  1.00  0.00    -0.490 OA
ATOM     21  C   UNL     1     -16.900  -1.043 -26.213  1.00  0.00     0.278 C 
ENDBRANCH   8  20
BRANCH  11  22
ATOM     22  O   UNL     1     -19.821  -3.393 -31.679  1.00  0.00    -0.492 OA
ATOM     23  C   UNL     1     -20.695  -4.513 -31.588  1.00  0.00     0.278 C 
ENDBRANCH  11  22
BRANCH   9  24
ATOM     24  O   UNL     1     -16.067  -3.820 -28.533  1.00  0.00    -0.490 OA
ATOM     25  C   UNL     1     -14.719  -3.678 -28.975  1.00  0.00     0.279 C 
ENDBRANCH   9  24
BRANCH  10  26
ATOM     26  O   UNL     1     -17.558  -4.845 -30.769  1.00  0.00    -0.490 OA
ATOM     27  C   UNL     1     -17.013  -5.061 -32.065  1.00  0.00     0.278 C 
ENDBRANCH  10  26
TORSDOF 6
ENDMDL
MODEL 2
REMARK VINA RESULT:    -2.451      1.656      2.070
REMARK INTER + INTRA:          -3.720
REMARK INTER:                  -3.750
REMARK INTRA:                   0.030
REMARK UNBOUND:                -0.410
REMARK SMILES COc1ccc(-c2cc(=O)c3c(OC)c(OC)c(OC)c(OC)c3o2)cc1
REMARK SMILES IDX 7 1 8 2 9 3 10 4 11 5 24 6 25 7 21 8 18 9 15 10 12 11 6 12
REMARK SMILES IDX 3 13 4 14 27 15 5 16 26 17 2 18 1 19 22 20 23 21 13 22 14 23
REMARK SMILES IDX 19 24 20 25 16 26 17 27
REMARK H PARENT
REMARK Flexibility Score: inf
ROOT
ATOM      1  C   UNL     1     -19.174  -0.351 -29.693  1.00  0.00     0.138 A 
ATOM      2  C   UNL     1     -20.010  -1.220 -30.400  1.00  0.00     0.100 A 
ATOM      3  C   UNL     1     -19.474  -2.374 -30.966  1.00  0.00     0.197 A 
ATOM      4  O   UNL     1     -20.245  -3.146 -31.596  1.00  0.00    -0.289 OA
ATOM      5  C   UNL     1     -18.094  -2.651 -30.826  1.00  0.00     0.115 A 
ATOM      6  C   UNL     1     -17.312  -1.725 -30.093  1.00  0.00     0.188 A 
ATOM      7  O   UNL     1     -17.883  -0.641 -29.571  1.00  0.00    -0.452 OA
ATOM      8  C   UNL     1     -15.930  -1.946 -29.917  1.00  0.00     0.209 A 
ATOM      9  C   UNL     1     -15.335  -3.095 -30.463  1.00  0.00     0.211 A 
ATOM     10  C   UNL     1     -16.096  -4.011 -31.231  1.00  0.00     0.208 A 
ATOM     11  C   UNL     1     -17.490  -3.808 -31.379  1.00  0.00     0.179 A 
ENDROOT
BRANCH   1  12
ATOM     12  C   UNL     1     -19.699   0.882 -29.062  1.00  0.00     0.018 A 
ATOM     13  C   UNL     1     -20.671   3.255 -27.886  1.00  0.00     0.118 A 
ATOM     14  C   UNL     1     -19.802   3.310 -28.982  1.00  0.00     0.047 A 
ATOM     15  C   UNL     1     -21.058   2.002 -27.380  1.00  0.00     0.047 A 
ATOM     16  C   UNL     1     -19.327   2.137 -29.571  1.00  0.00     0.016 A 
ATOM     17  C   UNL     1     -20.575   0.828 -27.962  1.00  0.00     0.016 A 
BRANCH  13  18
ATOM     18  O   UNL     1     -21.125   4.461 -27.334  1.00  0.00    -0.497 OA
ATOM     19  C   UNL     1     -20.351   5.656 -27.264  1.00  0.00     0.278 C 
ENDBRANCH  13  18
ENDBRANCH   1  12
BRANCH   8  20
ATOM     20  O   UNL     1     -15.083  -1.050 -29.236  1.00  0.00    -0.490 OA
ATOM     21  C   UNL     1     -14.405  -1.288 -28.008  1.00  0.00     0.278 C 
ENDBRANCH   8  20
BRANCH  11  22
ATOM     22  O   UNL     1     -18.317  -4.722 -32.068  1.00  0.00    -0.492 OA
ATOM     23  C   UNL     1     -18.407  -4.902 -33.478  1.00  0.00     0.278 C 
ENDBRANCH  11  22
BRANCH   9  24
ATOM     24  O   UNL     1     -13.974  -3.324 -30.236  1.00  0.00    -0.490 OA
ATOM     25  C   UNL     1     -12.973  -2.922 -31.168  1.00  0.00     0.279 C 
ENDBRANCH   9  24
BRANCH  10  26
ATOM     26  O   UNL     1     -15.514  -5.125 -31.866  1.00  0.00    -0.490 OA
ATOM     27  C   UNL     1     -14.589  -5.119 -32.947  1.00  0.00     0.278 C 
ENDBRANCH  10  26
TORSDOF 6
ENDMDL
MODEL 3
REMARK VINA RESULT:    -1.780      1.306      1.957
REMARK INTER + INTRA:          -2.814
REMARK INTER:                  -3.205
REMARK INTRA:                   0.391
REMARK UNBOUND:                -0.410
REMARK SMILES COc1ccc(-c2cc(=O)c3c(OC)c(OC)c(OC)c(OC)c3o2)cc1
REMARK SMILES IDX 7 1 8 2 9 3 10 4 11 5 24 6 25 7 21 8 18 9 15 10 12 11 6 12
REMARK SMILES IDX 3 13 4 14 27 15 5 16 26 17 2 18 1 19 22 20 23 21 13 22 14 23
REMARK SMILES IDX 19 24 20 25 16 26 17 27
REMARK H PARENT
REMARK Flexibility Score: inf
ROOT
ATOM      1  C   UNL     1     -18.833   0.250 -29.058  1.00  0.00     0.138 A 
ATOM      2  C   UNL     1     -19.357  -0.380 -30.191  1.00  0.00     0.100 A 
ATOM      3  C   UNL     1     -18.794  -1.575 -30.630  1.00  0.00     0.197 A 
ATOM      4  O   UNL     1     -19.283  -2.130 -31.650  1.00  0.00    -0.289 OA
ATOM      5  C   UNL     1     -17.699  -2.136 -29.931  1.00  0.00     0.115 A 
ATOM      6  C   UNL     1     -17.226  -1.441 -28.791  1.00  0.00     0.188 A 
ATOM      7  O   UNL     1     -17.809  -0.303 -28.418  1.00  0.00    -0.452 OA
ATOM      8  C   UNL     1     -16.137  -1.949 -28.052  1.00  0.00     0.209 A 
ATOM      9  C   UNL     1     -15.532  -3.154 -28.445  1.00  0.00     0.211 A 
ATOM     10  C   UNL     1     -15.968  -3.840 -29.605  1.00  0.00     0.208 A 
ATOM     11  C   UNL     1     -17.083  -3.349 -30.329  1.00  0.00     0.179 A 
ENDROOT
BRANCH   1  12
ATOM     12  C   UNL     1     -19.405   1.516 -28.545  1.00  0.00     0.018 A 
ATOM     13  C   UNL     1     -20.529   3.905 -27.549  1.00  0.00     0.118 A 
ATOM     14  C   UNL     1     -21.085   2.665 -27.213  1.00  0.00     0.047 A 
ATOM     15  C   UNL     1     -19.400   3.946 -28.386  1.00  0.00     0.047 A 
ATOM     16  C   UNL     1     -20.524   1.481 -27.697  1.00  0.00     0.016 A 
ATOM     17  C   UNL     1     -18.845   2.763 -28.879  1.00  0.00     0.016 A 
BRANCH  13  18
ATOM     18  O   UNL     1     -21.125   5.064 -27.033  1.00  0.00    -0.497 OA
ATOM     19  C   UNL     1     -20.557   6.368 -27.120  1.00  0.00     0.278 C 
ENDBRANCH  13  18
ENDBRANCH   1  12
BRANCH   8  20
ATOM     20  O   UNL     1     -15.588  -1.293 -26.932  1.00  0.00    -0.490 OA
ATOM     21  C   UNL     1     -16.303  -0.578 -25.931  1.00  0.00     0.278 C 
ENDBRANCH   8  20
BRANCH  11  22
ATOM     22  O   UNL     1     -17.614  -4.026 -31.448  1.00  0.00    -0.492 OA
ATOM     23  C   UNL     1     -17.007  -4.173 -32.728  1.00  0.00     0.278 C 
ENDBRANCH  11  22
BRANCH   9  24
ATOM     24  O   UNL     1     -14.487  -3.670 -27.672  1.00  0.00    -0.490 OA
ATOM     25  C   UNL     1     -14.672  -4.771 -26.785  1.00  0.00     0.279 C 
ENDBRANCH   9  24
BRANCH  10  26
ATOM     26  O   UNL     1     -15.327  -5.001 -30.078  1.00  0.00    -0.490 OA
ATOM     27  C   UNL     1     -14.496  -5.124 -31.226  1.00  0.00     0.278 C 
ENDBRANCH  10  26
TORSDOF 6
ENDMDL
