MODEL 1
REMARK VINA RESULT:    -3.414      0.000      0.000
REMARK INTER + INTRA:          -4.127
REMARK INTER:                  -4.012
REMARK INTRA:                  -0.115
REMARK UNBOUND:                -0.115
REMARK SMILES O=C([O-])CCC(=O)[O-]
REMARK SMILES IDX 4 1 2 2 1 3 3 4 5 5 6 6 7 7 8 8
REMARK H PARENT
REMARK Flexibility Score: inf
ROOT
ATOM      1  C   UNL     1     159.191 157.782 147.830  1.00  0.00     0.059 C 
ENDROOT
BRANCH   1   2
ATOM      2  C   UNL     1     160.126 158.933 147.610  1.00  0.00     0.042 C 
ATOM      3  O   UNL     1     161.149 159.064 148.332  1.00  0.00    -0.550 OA
ATOM      4  O   UNL     1     159.888 159.835 146.581  1.00  0.00    -0.550 OA
ENDBRANCH   1   2
BRANCH   1   5
ATOM      5  C   UNL     1     159.283 157.245 149.262  1.00  0.00     0.059 C 
BRANCH   5   6
ATOM      6  C   UNL     1     158.222 157.834 150.141  1.00  0.00     0.042 C 
ATOM      7  O   UNL     1     157.049 157.375 150.115  1.00  0.00    -0.550 OA
ATOM      8  O   UNL     1     158.519 158.915 150.960  1.00  0.00    -0.550 OA
ENDBRANCH   5   6
ENDBRANCH   1   5
TORSDOF 3
ENDMDL
MODEL 2
REMARK VINA RESULT:    -3.411      0.111      3.697
REMARK INTER + INTRA:          -4.124
REMARK INTER:                  -4.011
REMARK INTRA:                  -0.114
REMARK UNBOUND:                -0.115
REMARK SMILES O=C([O-])CCC(=O)[O-]
REMARK SMILES IDX 4 1 2 2 1 3 3 4 5 5 6 6 7 7 8 8
REMARK H PARENT
REMARK Flexibility Score: inf
ROOT
ATOM      1  C   UNL     1     159.233 157.282 149.197  1.00  0.00     0.059 C 
ENDROOT
BRANCH   1   2
ATOM      2  C   UNL     1     158.183 157.835 150.112  1.00  0.00     0.042 C 
ATOM      3  O   UNL     1     158.441 158.829 150.843  1.00  0.00    -0.550 OA
ATOM      4  O   UNL     1     156.910 157.281 150.127  1.00  0.00    -0.550 OA
ENDBRANCH   1   2
BRANCH   1   5
ATOM      5  C   UNL     1     159.111 157.856 147.782  1.00  0.00     0.059 C 
BRANCH   5   6
ATOM      6  C   UNL     1     160.087 158.970 147.553  1.00  0.00     0.042 C 
ATOM      7  O   UNL     1     159.928 159.764 146.590  1.00  0.00    -0.550 OA
ATOM      8  O   UNL     1     161.194 159.105 148.381  1.00  0.00    -0.550 OA
ENDBRANCH   5   6
ENDBRANCH   1   5
TORSDOF 3
ENDMDL
MODEL 3
REMARK VINA RESULT:    -3.402      2.814      3.326
REMARK INTER + INTRA:          -4.114
REMARK INTER:                  -3.990
REMARK INTRA:                  -0.124
REMARK UNBOUND:                -0.115
REMARK SMILES O=C([O-])CCC(=O)[O-]
REMARK SMILES IDX 4 1 2 2 1 3 3 4 5 5 6 6 7 7 8 8
REMARK H PARENT
REMARK Flexibility Score: inf
ROOT
ATOM      1  C   UNL     1     160.379 161.643 148.240  1.00  0.00     0.059 C 
ENDROOT
BRANCH   1   2
ATOM      2  C   UNL     1     159.514 160.573 147.646  1.00  0.00     0.042 C 
ATOM      3  O   UNL     1     158.335 160.410 148.059  1.00  0.00    -0.550 OA
ATOM      4  O   UNL     1     159.995 159.784 146.609  1.00  0.00    -0.550 OA
ENDBRANCH   1   2
BRANCH   1   5
ATOM      5  C   UNL     1     161.360 161.072 149.268  1.00  0.00     0.059 C 
BRANCH   5   6
ATOM      6  C   UNL     1     160.652 160.594 150.500  1.00  0.00     0.042 C 
ATOM      7  O   UNL     1     160.711 159.382 150.837  1.00  0.00    -0.550 OA
ATOM      8  O   UNL     1     159.894 161.481 151.253  1.00  0.00    -0.550 OA
ENDBRANCH   5   6
ENDBRANCH   1   5
TORSDOF 3
ENDMDL
MODEL 4
REMARK VINA RESULT:    -3.398      2.860      4.113
REMARK INTER + INTRA:          -4.108
REMARK INTER:                  -3.998
REMARK INTRA:                  -0.110
REMARK UNBOUND:                -0.115
REMARK SMILES O=C([O-])CCC(=O)[O-]
REMARK SMILES IDX 4 1 2 2 1 3 3 4 5 5 6 6 7 7 8 8
REMARK H PARENT
REMARK Flexibility Score: inf
ROOT
ATOM      1  C   UNL     1     160.367 161.529 147.796  1.00  0.00     0.059 C 
ENDROOT
BRANCH   1   2
ATOM      2  C   UNL     1     159.394 160.410 147.580  1.00  0.00     0.042 C 
ATOM      3  O   UNL     1     158.355 160.330 148.288  1.00  0.00    -0.550 OA
ATOM      4  O   UNL     1     159.613 159.481 146.572  1.00  0.00    -0.550 OA
ENDBRANCH   1   2
BRANCH   1   5
ATOM      5  C   UNL     1     160.272 162.096 149.216  1.00  0.00     0.059 C 
BRANCH   5   6
ATOM      6  C   UNL     1     161.332 161.524 150.109  1.00  0.00     0.042 C 
ATOM      7  O   UNL     1     162.496 162.003 150.100  1.00  0.00    -0.550 OA
ATOM      8  O   UNL     1     161.041 160.437 150.922  1.00  0.00    -0.550 OA
ENDBRANCH   5   6
ENDBRANCH   1   5
TORSDOF 3
ENDMDL
MODEL 5
REMARK VINA RESULT:    -3.393      2.888      4.193
REMARK INTER + INTRA:          -4.102
REMARK INTER:                  -3.988
REMARK INTRA:                  -0.114
REMARK UNBOUND:                -0.115
REMARK SMILES O=C([O-])CCC(=O)[O-]
REMARK SMILES IDX 4 1 2 2 1 3 3 4 5 5 6 6 7 7 8 8
REMARK H PARENT
REMARK Flexibility Score: inf
ROOT
ATOM      1  C   UNL     1     160.348 162.133 149.148  1.00  0.00     0.059 C 
ENDROOT
BRANCH   1   2
ATOM      2  C   UNL     1     161.405 161.529 150.023  1.00  0.00     0.042 C 
ATOM      3  O   UNL     1     162.569 162.009 150.031  1.00  0.00    -0.550 OA
ATOM      4  O   UNL     1     161.093 160.464 150.858  1.00  0.00    -0.550 OA
ENDBRANCH   1   2
BRANCH   1   5
ATOM      5  C   UNL     1     160.373 161.537 147.737  1.00  0.00     0.059 C 
BRANCH   5   6
ATOM      6  C   UNL     1     159.359 160.445 147.582  1.00  0.00     0.042 C 
ATOM      7  O   UNL     1     158.360 160.392 148.348  1.00  0.00    -0.550 OA
ATOM      8  O   UNL     1     159.538 159.462 146.617  1.00  0.00    -0.550 OA
ENDBRANCH   5   6
ENDBRANCH   1   5
TORSDOF 3
ENDMDL
MODEL 6
REMARK VINA RESULT:    -3.367      1.640      2.095
REMARK INTER + INTRA:          -4.072
REMARK INTER:                  -3.954
REMARK INTRA:                  -0.118
REMARK UNBOUND:                -0.115
REMARK SMILES O=C([O-])CCC(=O)[O-]
REMARK SMILES IDX 4 1 2 2 1 3 3 4 5 5 6 6 7 7 8 8
REMARK H PARENT
REMARK Flexibility Score: inf
ROOT
ATOM      1  C   UNL     1     160.835 158.896 148.786  1.00  0.00     0.059 C 
ENDROOT
BRANCH   1   2
ATOM      2  C   UNL     1     159.881 158.813 147.633  1.00  0.00     0.042 C 
ATOM      3  O   UNL     1     159.010 157.904 147.597  1.00  0.00    -0.550 OA
ATOM      4  O   UNL     1     159.927 159.764 146.621  1.00  0.00    -0.550 OA
ENDBRANCH   1   2
BRANCH   1   5
ATOM      5  C   UNL     1     160.699 157.690 149.721  1.00  0.00     0.059 C 
BRANCH   5   6
ATOM      6  C   UNL     1     160.078 158.075 151.030  1.00  0.00     0.042 C 
ATOM      7  O   UNL     1     160.617 157.730 152.114  1.00  0.00    -0.550 OA
ATOM      8  O   UNL     1     158.883 158.782 151.051  1.00  0.00    -0.550 OA
ENDBRANCH   5   6
ENDBRANCH   1   5
TORSDOF 3
ENDMDL
MODEL 7
REMARK VINA RESULT:    -3.361      1.921      2.513
REMARK INTER + INTRA:          -4.065
REMARK INTER:                  -3.879
REMARK INTRA:                  -0.185
REMARK UNBOUND:                -0.115
REMARK SMILES O=C([O-])CCC(=O)[O-]
REMARK SMILES IDX 4 1 2 2 1 3 3 4 5 5 6 6 7 7 8 8
REMARK H PARENT
REMARK Flexibility Score: inf
ROOT
ATOM      1  C   UNL     1     160.863 158.999 148.701  1.00  0.00     0.059 C 
ENDROOT
BRANCH   1   2
ATOM      2  C   UNL     1     159.923 158.881 147.540  1.00  0.00     0.042 C 
ATOM      3  O   UNL     1     159.119 157.913 147.474  1.00  0.00    -0.550 OA
ATOM      4  O   UNL     1     159.906 159.859 146.555  1.00  0.00    -0.550 OA
ENDBRANCH   1   2
BRANCH   1   5
ATOM      5  C   UNL     1     160.667 160.318 149.456  1.00  0.00     0.059 C 
BRANCH   5   6
ATOM      6  C   UNL     1     159.256 160.472 149.938  1.00  0.00     0.042 C 
ATOM      7  O   UNL     1     158.571 161.468 149.588  1.00  0.00    -0.550 OA
ATOM      8  O   UNL     1     158.712 159.533 150.805  1.00  0.00    -0.550 OA
ENDBRANCH   5   6
ENDBRANCH   1   5
TORSDOF 3
ENDMDL
MODEL 8
REMARK VINA RESULT:    -3.352      2.077      2.417
REMARK INTER + INTRA:          -4.054
REMARK INTER:                  -3.869
REMARK INTRA:                  -0.186
REMARK UNBOUND:                -0.115
REMARK SMILES O=C([O-])CCC(=O)[O-]
REMARK SMILES IDX 4 1 2 2 1 3 3 4 5 5 6 6 7 7 8 8
REMARK H PARENT
REMARK Flexibility Score: inf
ROOT
ATOM      1  C   UNL     1     158.549 160.134 148.604  1.00  0.00     0.059 C 
ENDROOT
BRANCH   1   2
ATOM      2  C   UNL     1     159.582 160.362 147.543  1.00  0.00     0.042 C 
ATOM      3  O   UNL     1     159.646 159.593 146.547  1.00  0.00    -0.550 OA
ATOM      4  O   UNL     1     160.445 161.446 147.632  1.00  0.00    -0.550 OA
ENDBRANCH   1   2
BRANCH   1   5
ATOM      5  C   UNL     1     158.792 158.823 149.358  1.00  0.00     0.059 C 
BRANCH   5   6
ATOM      6  C   UNL     1     160.172 158.770 149.941  1.00  0.00     0.042 C 
ATOM      7  O   UNL     1     160.962 157.845 149.617  1.00  0.00    -0.550 OA
ATOM      8  O   UNL     1     160.570 159.722 150.871  1.00  0.00    -0.550 OA
ENDBRANCH   5   6
ENDBRANCH   1   5
TORSDOF 3
ENDMDL
MODEL 9
REMARK VINA RESULT:    -3.343      1.966      3.589
REMARK INTER + INTRA:          -4.045
REMARK INTER:                  -3.853
REMARK INTRA:                  -0.191
REMARK UNBOUND:                -0.115
REMARK SMILES O=C([O-])CCC(=O)[O-]
REMARK SMILES IDX 4 1 2 2 1 3 3 4 5 5 6 6 7 7 8 8
REMARK H PARENT
REMARK Flexibility Score: inf
ROOT
ATOM      1  C   UNL     1     160.715 160.364 149.384  1.00  0.00     0.059 C 
ENDROOT
BRANCH   1   2
ATOM      2  C   UNL     1     159.352 160.511 149.990  1.00  0.00     0.042 C 
ATOM      3  O   UNL     1     158.607 161.467 149.646  1.00  0.00    -0.550 OA
ATOM      4  O   UNL     1     158.889 159.571 150.901  1.00  0.00    -0.550 OA
ENDBRANCH   1   2
BRANCH   1   5
ATOM      5  C   UNL     1     160.874 159.019 148.668  1.00  0.00     0.059 C 
BRANCH   5   6
ATOM      6  C   UNL     1     159.862 158.854 147.575  1.00  0.00     0.042 C 
ATOM      7  O   UNL     1     159.065 157.879 147.589  1.00  0.00    -0.550 OA
ATOM      8  O   UNL     1     159.827 159.756 146.520  1.00  0.00    -0.550 OA
ENDBRANCH   5   6
ENDBRANCH   1   5
TORSDOF 3
ENDMDL
