MODEL 1
REMARK VINA RESULT:     8.525      0.000      0.000
REMARK INTER + INTRA:           9.040
REMARK INTER:                   9.273
REMARK INTRA:                  -0.232
REMARK UNBOUND:                -0.232
REMARK SMILES CC1=CCC[C@]2(C)CC[C@@H](C(C)(C)O)C[C@@H]12
REMARK SMILES IDX 11 1 12 2 13 3 10 4 1 5 2 6 3 7 16 8 4 9 6 10 15 11 5 12
REMARK SMILES IDX 7 13 8 14 9 15 14 16
REMARK H PARENT 14 17
REMARK Flexibility Score: inf
ROOT
ATOM      1  C   UNL     1     -37.482  19.854   7.938  1.00  0.00     0.062 C 
ATOM      2  C   UNL     1     -35.962  19.705   8.195  1.00  0.00     0.042 C 
ATOM      3  C   UNL     1     -38.039  18.438   7.668  1.00  0.00     0.042 C 
ENDROOT
BRANCH   1   4
ATOM      4  C   UNL     1     -37.775  20.797   6.707  1.00  0.00     0.021 C 
ATOM      5  C   UNL     1     -37.031  25.201   7.431  1.00  0.00     0.039 C 
ATOM      6  C   UNL     1     -37.528  24.693   6.101  1.00  0.00    -0.074 C 
ATOM      7  C   UNL     1     -37.647  25.539   5.061  1.00  0.00    -0.028 C 
ATOM      8  C   UNL     1     -37.778  23.212   5.831  1.00  0.00     0.021 C 
ATOM      9  C   UNL     1     -38.124  25.038   3.722  1.00  0.00     0.028 C 
ATOM     10  C   UNL     1     -37.018  22.791   4.533  1.00  0.00    -0.026 C 
ATOM     11  C   UNL     1     -37.476  22.284   7.031  1.00  0.00     0.015 C 
ATOM     12  C   UNL     1     -37.505  23.675   3.326  1.00  0.00     0.011 C 
ATOM     13  C   UNL     1     -35.481  22.982   4.683  1.00  0.00     0.012 C 
ATOM     14  C   UNL     1     -37.332  21.302   4.235  1.00  0.00     0.008 C 
ATOM     15  C   UNL     1     -37.023  20.372   5.418  1.00  0.00     0.007 C 
ENDBRANCH   1   4
BRANCH   1  16
ATOM     16  O   UNL     1     -38.114  20.338   9.100  1.00  0.00    -0.390 OA
ATOM     17  H   UNL     1     -38.856  19.724   9.334  1.00  0.00     0.211 HD
ENDBRANCH   1  16
TORSDOF 2
ENDMDL
