MODEL 1
REMARK VINA RESULT:    -3.220      0.000      0.000
REMARK INTER + INTRA:          -4.789
REMARK INTER:                  -4.349
REMARK INTRA:                  -0.440
REMARK UNBOUND:                -0.440
REMARK SMILES [NH3+]CCCC[C@H]([NH3+])C(=O)[O-]
REMARK SMILES IDX 4 1 3 2 2 3 1 4 5 8 6 9 7 10 8 14 9 15 10 16
REMARK H PARENT 1 5 1 6 1 7 7 11 7 12 7 13
REMARK Flexibility Score: inf
ROOT
ATOM      1  C   UNL     1      24.188  44.812  41.043  1.00  0.00     0.012 C 
ENDROOT
BRANCH   1   2
ATOM      2  C   UNL     1      23.128  43.783  40.614  1.00  0.00     0.061 C 
BRANCH   2   3
ATOM      3  C   UNL     1      23.388  43.210  39.212  1.00  0.00     0.258 C 
BRANCH   3   4
ATOM      4  N   UNL     1      24.038  41.903  39.296  1.00  0.00    -0.358 N 
ATOM      5  H   UNL     1      23.838  41.345  38.434  1.00  0.00     0.344 HD
ATOM      6  H   UNL     1      23.697  41.386  40.139  1.00  0.00     0.344 HD
ATOM      7  H   UNL     1      25.072  42.039  39.378  1.00  0.00     0.344 HD
ENDBRANCH   3   4
ENDBRANCH   2   3
ENDBRANCH   1   2
BRANCH   1   8
ATOM      8  C   UNL     1      24.938  44.385  42.320  1.00  0.00     0.072 C 
BRANCH   8   9
ATOM      9  C   UNL     1      25.187  42.862  42.431  1.00  0.00     0.227 C 
BRANCH   9  10
ATOM     10  N   UNL     1      24.955  42.359  43.793  1.00  0.00    -0.350 N 
ATOM     11  H   UNL     1      25.586  41.546  43.985  1.00  0.00     0.345 HD
ATOM     12  H   UNL     1      23.962  42.062  43.929  1.00  0.00     0.345 HD
ATOM     13  H   UNL     1      25.176  43.112  44.484  1.00  0.00     0.345 HD
ENDBRANCH   9  10
BRANCH   9  14
ATOM     14  C   UNL     1      26.558  42.485  41.927  1.00  0.00     0.099 C 
ATOM     15  O   UNL     1      27.588  43.066  42.359  1.00  0.00    -0.544 OA
ATOM     16  O   UNL     1      26.683  41.521  40.935  1.00  0.00    -0.544 OA
ENDBRANCH   9  14
ENDBRANCH   8   9
ENDBRANCH   1   8
TORSDOF 7
ENDMDL
MODEL 2
REMARK VINA RESULT:    -3.135      2.839      4.227
REMARK INTER + INTRA:          -4.674
REMARK INTER:                  -4.541
REMARK INTRA:                  -0.133
REMARK UNBOUND:                -0.440
REMARK SMILES [NH3+]CCCC[C@H]([NH3+])C(=O)[O-]
REMARK SMILES IDX 4 1 3 2 2 3 1 4 5 8 6 9 7 10 8 14 9 15 10 16
REMARK H PARENT 1 5 1 6 1 7 7 11 7 12 7 13
REMARK Flexibility Score: inf
ROOT
ATOM      1  C   UNL     1      24.160  45.422  40.411  1.00  0.00     0.012 C 
ENDROOT
BRANCH   1   2
ATOM      2  C   UNL     1      24.066  46.116  41.780  1.00  0.00     0.061 C 
BRANCH   2   3
ATOM      3  C   UNL     1      24.790  45.340  42.892  1.00  0.00     0.258 C 
BRANCH   3   4
ATOM      4  N   UNL     1      24.843  46.125  44.124  1.00  0.00    -0.358 N 
ATOM      5  H   UNL     1      25.742  45.946  44.627  1.00  0.00     0.344 HD
ATOM      6  H   UNL     1      24.037  45.877  44.743  1.00  0.00     0.344 HD
ATOM      7  H   UNL     1      24.786  47.141  43.886  1.00  0.00     0.344 HD
ENDBRANCH   3   4
ENDBRANCH   2   3
ENDBRANCH   1   2
BRANCH   1   8
ATOM      8  C   UNL     1      23.013  44.418  40.180  1.00  0.00     0.072 C 
BRANCH   8   9
ATOM      9  C   UNL     1      23.478  42.953  40.003  1.00  0.00     0.227 C 
BRANCH   9  10
ATOM     10  N   UNL     1      24.804  42.715  40.592  1.00  0.00    -0.350 N 
ATOM     11  H   UNL     1      25.486  43.421  40.230  1.00  0.00     0.345 HD
ATOM     12  H   UNL     1      25.154  41.755  40.373  1.00  0.00     0.345 HD
ATOM     13  H   UNL     1      24.746  42.820  41.631  1.00  0.00     0.345 HD
ENDBRANCH   9  10
BRANCH   9  14
ATOM     14  C   UNL     1      23.428  42.527  38.557  1.00  0.00     0.099 C 
ATOM     15  O   UNL     1      24.482  42.437  37.873  1.00  0.00    -0.544 OA
ATOM     16  O   UNL     1      22.201  42.279  37.955  1.00  0.00    -0.544 OA
ENDBRANCH   9  14
ENDBRANCH   8   9
ENDBRANCH   1   8
TORSDOF 7
ENDMDL
MODEL 3
REMARK VINA RESULT:    -2.983      2.010      3.959
REMARK INTER + INTRA:          -4.469
REMARK INTER:                  -4.283
REMARK INTRA:                  -0.186
REMARK UNBOUND:                -0.440
REMARK SMILES [NH3+]CCCC[C@H]([NH3+])C(=O)[O-]
REMARK SMILES IDX 4 1 3 2 2 3 1 4 5 8 6 9 7 10 8 14 9 15 10 16
REMARK H PARENT 1 5 1 6 1 7 7 11 7 12 7 13
REMARK Flexibility Score: inf
ROOT
ATOM      1  C   UNL     1      23.447  44.630  39.945  1.00  0.00     0.012 C 
ENDROOT
BRANCH   1   2
ATOM      2  C   UNL     1      24.218  44.986  41.227  1.00  0.00     0.061 C 
BRANCH   2   3
ATOM      3  C   UNL     1      24.898  43.767  41.871  1.00  0.00     0.258 C 
BRANCH   3   4
ATOM      4  N   UNL     1      26.119  44.162  42.572  1.00  0.00    -0.358 N 
ATOM      5  H   UNL     1      25.906  44.910  43.271  1.00  0.00     0.344 HD
ATOM      6  H   UNL     1      26.829  44.510  41.887  1.00  0.00     0.344 HD
ATOM      7  H   UNL     1      26.510  43.332  43.073  1.00  0.00     0.344 HD
ENDBRANCH   3   4
ENDBRANCH   2   3
ENDBRANCH   1   2
BRANCH   1   8
ATOM      8  C   UNL     1      23.109  43.129  39.859  1.00  0.00     0.072 C 
BRANCH   8   9
ATOM      9  C   UNL     1      23.548  42.454  38.538  1.00  0.00     0.227 C 
BRANCH   9  10
ATOM     10  N   UNL     1      22.406  42.149  37.663  1.00  0.00    -0.350 N 
ATOM     11  H   UNL     1      22.743  41.691  36.785  1.00  0.00     0.345 HD
ATOM     12  H   UNL     1      21.870  43.012  37.417  1.00  0.00     0.345 HD
ATOM     13  H   UNL     1      21.762  41.485  38.151  1.00  0.00     0.345 HD
ENDBRANCH   9  10
BRANCH   9  14
ATOM     14  C   UNL     1      24.392  41.230  38.794  1.00  0.00     0.099 C 
ATOM     15  O   UNL     1      25.546  41.332  39.288  1.00  0.00    -0.544 OA
ATOM     16  O   UNL     1      23.913  39.977  38.434  1.00  0.00    -0.544 OA
ENDBRANCH   9  14
ENDBRANCH   8   9
ENDBRANCH   1   8
TORSDOF 7
ENDMDL
MODEL 4
REMARK VINA RESULT:    -2.981      4.080      5.345
REMARK INTER + INTRA:          -4.466
REMARK INTER:                  -4.370
REMARK INTRA:                  -0.095
REMARK UNBOUND:                -0.440
REMARK SMILES [NH3+]CCCC[C@H]([NH3+])C(=O)[O-]
REMARK SMILES IDX 4 1 3 2 2 3 1 4 5 8 6 9 7 10 8 14 9 15 10 16
REMARK H PARENT 1 5 1 6 1 7 7 11 7 12 7 13
REMARK Flexibility Score: inf
ROOT
ATOM      1  C   UNL     1      24.920  39.035  38.731  1.00  0.00     0.012 C 
ENDROOT
BRANCH   1   2
ATOM      2  C   UNL     1      24.218  37.860  39.433  1.00  0.00     0.061 C 
BRANCH   2   3
ATOM      3  C   UNL     1      25.007  37.331  40.641  1.00  0.00     0.258 C 
BRANCH   3   4
ATOM      4  N   UNL     1      24.185  37.356  41.851  1.00  0.00    -0.358 N 
ATOM      5  H   UNL     1      23.949  38.343  42.105  1.00  0.00     0.344 HD
ATOM      6  H   UNL     1      24.695  36.900  42.641  1.00  0.00     0.344 HD
ATOM      7  H   UNL     1      23.298  36.832  41.673  1.00  0.00     0.344 HD
ENDBRANCH   3   4
ENDBRANCH   2   3
ENDBRANCH   1   2
BRANCH   1   8
ATOM      8  C   UNL     1      23.973  40.227  38.491  1.00  0.00     0.072 C 
BRANCH   8   9
ATOM      9  C   UNL     1      24.615  41.611  38.750  1.00  0.00     0.227 C 
BRANCH   9  10
ATOM     10  N   UNL     1      25.441  41.622  39.966  1.00  0.00    -0.350 N 
ATOM     11  H   UNL     1      26.086  40.798  39.966  1.00  0.00     0.345 HD
ATOM     12  H   UNL     1      24.853  41.598  40.830  1.00  0.00     0.345 HD
ATOM     13  H   UNL     1      26.023  42.491  39.983  1.00  0.00     0.345 HD
ENDBRANCH   9  10
BRANCH   9  14
ATOM     14  C   UNL     1      23.580  42.708  38.772  1.00  0.00     0.099 C 
ATOM     15  O   UNL     1      22.574  42.664  38.015  1.00  0.00    -0.544 OA
ATOM     16  O   UNL     1      23.762  43.808  39.601  1.00  0.00    -0.544 OA
ENDBRANCH   9  14
ENDBRANCH   8   9
ENDBRANCH   1   8
TORSDOF 7
ENDMDL
MODEL 5
REMARK VINA RESULT:    -2.913      2.824      4.066
REMARK INTER + INTRA:          -4.374
REMARK INTER:                  -3.912
REMARK INTRA:                  -0.462
REMARK UNBOUND:                -0.440
REMARK SMILES [NH3+]CCCC[C@H]([NH3+])C(=O)[O-]
REMARK SMILES IDX 4 1 3 2 2 3 1 4 5 8 6 9 7 10 8 14 9 15 10 16
REMARK H PARENT 1 5 1 6 1 7 7 11 7 12 7 13
REMARK Flexibility Score: inf
ROOT
ATOM      1  C   UNL     1      28.698  42.901  42.235  1.00  0.00     0.012 C 
ENDROOT
BRANCH   1   2
ATOM      2  C   UNL     1      29.592  43.403  41.088  1.00  0.00     0.061 C 
BRANCH   2   3
ATOM      3  C   UNL     1      30.041  42.275  40.146  1.00  0.00     0.258 C 
BRANCH   3   4
ATOM      4  N   UNL     1      29.260  42.287  38.910  1.00  0.00    -0.358 N 
ATOM      5  H   UNL     1      29.807  41.848  38.134  1.00  0.00     0.344 HD
ATOM      6  H   UNL     1      29.009  43.269  38.653  1.00  0.00     0.344 HD
ATOM      7  H   UNL     1      28.381  41.740  39.055  1.00  0.00     0.344 HD
ENDBRANCH   3   4
ENDBRANCH   2   3
ENDBRANCH   1   2
BRANCH   1   8
ATOM      8  C   UNL     1      27.257  43.439  42.136  1.00  0.00     0.072 C 
BRANCH   8   9
ATOM      9  C   UNL     1      26.171  42.339  42.080  1.00  0.00     0.227 C 
BRANCH   9  10
ATOM     10  N   UNL     1      25.659  41.994  43.414  1.00  0.00    -0.350 N 
ATOM     11  H   UNL     1      25.682  40.956  43.548  1.00  0.00     0.345 HD
ATOM     12  H   UNL     1      24.681  42.336  43.550  1.00  0.00     0.345 HD
ATOM     13  H   UNL     1      26.269  42.430  44.143  1.00  0.00     0.345 HD
ENDBRANCH   9  10
BRANCH   9  14
ATOM     14  C   UNL     1      26.656  41.117  41.339  1.00  0.00     0.099 C 
ATOM     15  O   UNL     1      26.711  41.103  40.081  1.00  0.00    -0.544 OA
ATOM     16  O   UNL     1      26.998  39.974  42.050  1.00  0.00    -0.544 OA
ENDBRANCH   9  14
ENDBRANCH   8   9
ENDBRANCH   1   8
TORSDOF 7
ENDMDL
MODEL 6
REMARK VINA RESULT:    -2.883      1.640      1.939
REMARK INTER + INTRA:          -4.333
REMARK INTER:                  -3.851
REMARK INTRA:                  -0.482
REMARK UNBOUND:                -0.440
REMARK SMILES [NH3+]CCCC[C@H]([NH3+])C(=O)[O-]
REMARK SMILES IDX 4 1 3 2 2 3 1 4 5 8 6 9 7 10 8 14 9 15 10 16
REMARK H PARENT 1 5 1 6 1 7 7 11 7 12 7 13
REMARK Flexibility Score: inf
ROOT
ATOM      1  C   UNL     1      25.194  44.555  42.246  1.00  0.00     0.012 C 
ENDROOT
BRANCH   1   2
ATOM      2  C   UNL     1      24.207  44.855  41.105  1.00  0.00     0.061 C 
BRANCH   2   3
ATOM      3  C   UNL     1      23.573  43.584  40.518  1.00  0.00     0.258 C 
BRANCH   3   4
ATOM      4  N   UNL     1      24.142  43.276  39.207  1.00  0.00    -0.358 N 
ATOM      5  H   UNL     1      23.896  44.027  38.521  1.00  0.00     0.344 HD
ATOM      6  H   UNL     1      23.782  42.355  38.866  1.00  0.00     0.344 HD
ATOM      7  H   UNL     1      25.183  43.223  39.289  1.00  0.00     0.344 HD
ENDBRANCH   3   4
ENDBRANCH   2   3
ENDBRANCH   1   2
BRANCH   1   8
ATOM      8  C   UNL     1      25.280  43.051  42.569  1.00  0.00     0.072 C 
BRANCH   8   9
ATOM      9  C   UNL     1      26.686  42.437  42.367  1.00  0.00     0.227 C 
BRANCH   9  10
ATOM     10  N   UNL     1      27.648  43.414  41.837  1.00  0.00    -0.350 N 
ATOM     11  H   UNL     1      28.392  42.920  41.290  1.00  0.00     0.345 HD
ATOM     12  H   UNL     1      28.095  43.967  42.602  1.00  0.00     0.345 HD
ATOM     13  H   UNL     1      27.154  44.073  41.193  1.00  0.00     0.345 HD
ENDBRANCH   9  10
BRANCH   9  14
ATOM     14  C   UNL     1      26.631  41.193  41.515  1.00  0.00     0.099 C 
ATOM     15  O   UNL     1      26.970  40.074  41.982  1.00  0.00    -0.544 OA
ATOM     16  O   UNL     1      26.250  41.289  40.183  1.00  0.00    -0.544 OA
ENDBRANCH   9  14
ENDBRANCH   8   9
ENDBRANCH   1   8
TORSDOF 7
ENDMDL
MODEL 7
REMARK VINA RESULT:    -2.881      3.837      5.181
REMARK INTER + INTRA:          -4.331
REMARK INTER:                  -3.897
REMARK INTRA:                  -0.434
REMARK UNBOUND:                -0.440
REMARK SMILES [NH3+]CCCC[C@H]([NH3+])C(=O)[O-]
REMARK SMILES IDX 4 1 3 2 2 3 1 4 5 8 6 9 7 10 8 14 9 15 10 16
REMARK H PARENT 1 5 1 6 1 7 7 11 7 12 7 13
REMARK Flexibility Score: inf
ROOT
ATOM      1  C   UNL     1      24.696  38.698  38.502  1.00  0.00     0.012 C 
ENDROOT
BRANCH   1   2
ATOM      2  C   UNL     1      24.127  37.791  39.606  1.00  0.00     0.061 C 
BRANCH   2   3
ATOM      3  C   UNL     1      25.210  37.271  40.566  1.00  0.00     0.258 C 
BRANCH   3   4
ATOM      4  N   UNL     1      25.295  38.113  41.759  1.00  0.00    -0.358 N 
ATOM      5  H   UNL     1      24.535  38.832  41.747  1.00  0.00     0.344 HD
ATOM      6  H   UNL     1      26.228  38.585  41.799  1.00  0.00     0.344 HD
ATOM      7  H   UNL     1      25.182  37.516  42.609  1.00  0.00     0.344 HD
ENDBRANCH   3   4
ENDBRANCH   2   3
ENDBRANCH   1   2
BRANCH   1   8
ATOM      8  C   UNL     1      24.141  40.134  38.578  1.00  0.00     0.072 C 
BRANCH   8   9
ATOM      9  C   UNL     1      25.228  41.235  38.600  1.00  0.00     0.227 C 
BRANCH   9  10
ATOM     10  N   UNL     1      25.559  41.717  37.251  1.00  0.00    -0.350 N 
ATOM     11  H   UNL     1      25.802  40.909  36.632  1.00  0.00     0.345 HD
ATOM     12  H   UNL     1      26.360  42.389  37.268  1.00  0.00     0.345 HD
ATOM     13  H   UNL     1      24.727  42.201  36.842  1.00  0.00     0.345 HD
ENDBRANCH   9  10
BRANCH   9  14
ATOM     14  C   UNL     1      26.460  40.783  39.344  1.00  0.00     0.099 C 
ATOM     15  O   UNL     1      27.514  40.479  38.726  1.00  0.00    -0.544 OA
ATOM     16  O   UNL     1      26.417  40.651  40.727  1.00  0.00    -0.544 OA
ENDBRANCH   9  14
ENDBRANCH   8   9
ENDBRANCH   1   8
TORSDOF 7
ENDMDL
MODEL 8
REMARK VINA RESULT:    -2.872      3.058      4.315
REMARK INTER + INTRA:          -4.319
REMARK INTER:                  -4.190
REMARK INTRA:                  -0.129
REMARK UNBOUND:                -0.440
REMARK SMILES [NH3+]CCCC[C@H]([NH3+])C(=O)[O-]
REMARK SMILES IDX 4 1 3 2 2 3 1 4 5 8 6 9 7 10 8 14 9 15 10 16
REMARK H PARENT 1 5 1 6 1 7 7 11 7 12 7 13
REMARK Flexibility Score: inf
ROOT
ATOM      1  C   UNL     1      26.521  42.378  41.879  1.00  0.00     0.012 C 
ENDROOT
BRANCH   1   2
ATOM      2  C   UNL     1      27.821  43.052  42.348  1.00  0.00     0.061 C 
BRANCH   2   3
ATOM      3  C   UNL     1      29.031  42.682  41.474  1.00  0.00     0.258 C 
BRANCH   3   4
ATOM      4  N   UNL     1      29.924  43.829  41.310  1.00  0.00    -0.358 N 
ATOM      5  H   UNL     1      30.078  44.023  40.294  1.00  0.00     0.344 HD
ATOM      6  H   UNL     1      30.841  43.639  41.776  1.00  0.00     0.344 HD
ATOM      7  H   UNL     1      29.487  44.670  41.752  1.00  0.00     0.344 HD
ENDBRANCH   3   4
ENDBRANCH   2   3
ENDBRANCH   1   2
BRANCH   1   8
ATOM      8  C   UNL     1      25.265  43.044  42.476  1.00  0.00     0.072 C 
BRANCH   8   9
ATOM      9  C   UNL     1      25.115  44.544  42.126  1.00  0.00     0.227 C 
BRANCH   9  10
ATOM     10  N   UNL     1      24.872  45.371  43.317  1.00  0.00    -0.350 N 
ATOM     11  H   UNL     1      24.382  46.255  43.044  1.00  0.00     0.345 HD
ATOM     12  H   UNL     1      25.764  45.610  43.807  1.00  0.00     0.345 HD
ATOM     13  H   UNL     1      24.256  44.850  43.982  1.00  0.00     0.345 HD
ENDBRANCH   9  10
BRANCH   9  14
ATOM     14  C   UNL     1      24.058  44.765  41.072  1.00  0.00     0.099 C 
ATOM     15  O   UNL     1      24.060  45.806  40.364  1.00  0.00    -0.544 OA
ATOM     16  O   UNL     1      23.040  43.834  40.915  1.00  0.00    -0.544 OA
ENDBRANCH   9  14
ENDBRANCH   8   9
ENDBRANCH   1   8
TORSDOF 7
ENDMDL
MODEL 9
REMARK VINA RESULT:    -2.857      2.946      4.376
REMARK INTER + INTRA:          -4.298
REMARK INTER:                  -4.141
REMARK INTRA:                  -0.158
REMARK UNBOUND:                -0.440
REMARK SMILES [NH3+]CCCC[C@H]([NH3+])C(=O)[O-]
REMARK SMILES IDX 4 1 3 2 2 3 1 4 5 8 6 9 7 10 8 14 9 15 10 16
REMARK H PARENT 1 5 1 6 1 7 7 11 7 12 7 13
REMARK Flexibility Score: inf
ROOT
ATOM      1  C   UNL     1      28.272  42.610  41.943  1.00  0.00     0.012 C 
ENDROOT
BRANCH   1   2
ATOM      2  C   UNL     1      29.442  43.380  41.307  1.00  0.00     0.061 C 
BRANCH   2   3
ATOM      3  C   UNL     1      30.038  42.658  40.088  1.00  0.00     0.258 C 
BRANCH   3   4
ATOM      4  N   UNL     1      28.982  42.075  39.262  1.00  0.00    -0.358 N 
ATOM      5  H   UNL     1      28.155  41.828  39.854  1.00  0.00     0.344 HD
ATOM      6  H   UNL     1      29.336  41.219  38.777  1.00  0.00     0.344 HD
ATOM      7  H   UNL     1      28.685  42.773  38.542  1.00  0.00     0.344 HD
ENDBRANCH   3   4
ENDBRANCH   2   3
ENDBRANCH   1   2
BRANCH   1   8
ATOM      8  C   UNL     1      27.063  43.518  42.242  1.00  0.00     0.072 C 
BRANCH   8   9
ATOM      9  C   UNL     1      25.693  42.881  41.912  1.00  0.00     0.227 C 
BRANCH   9  10
ATOM     10  N   UNL     1      25.755  42.011  40.727  1.00  0.00    -0.350 N 
ATOM     11  H   UNL     1      26.722  41.628  40.617  1.00  0.00     0.345 HD
ATOM     12  H   UNL     1      25.488  42.527  39.858  1.00  0.00     0.345 HD
ATOM     13  H   UNL     1      25.099  41.207  40.853  1.00  0.00     0.345 HD
ENDBRANCH   9  10
BRANCH   9  14
ATOM     14  C   UNL     1      24.613  43.925  41.777  1.00  0.00     0.099 C 
ATOM     15  O   UNL     1      23.706  43.810  40.911  1.00  0.00    -0.544 OA
ATOM     16  O   UNL     1      24.646  45.056  42.584  1.00  0.00    -0.544 OA
ENDBRANCH   9  14
ENDBRANCH   8   9
ENDBRANCH   1   8
TORSDOF 7
ENDMDL
