MODEL 1
REMARK VINA RESULT:    -3.281      0.000      0.000
REMARK INTER + INTRA:          -3.677
REMARK INTER:                  -3.664
REMARK INTRA:                  -0.013
REMARK UNBOUND:                -0.013
REMARK SMILES CCCC(=O)[O-]
REMARK SMILES IDX 3 1 4 2 5 3 6 4 2 5 1 6
REMARK H PARENT
REMARK Flexibility Score: inf
ROOT
ATOM      1  C   UNL     1       2.142 -37.112  17.030  1.00  0.00     0.052 C 
ENDROOT
BRANCH   1   2
ATOM      2  C   UNL     1       2.653 -37.573  18.359  1.00  0.00     0.041 C 
ATOM      3  O   UNL     1       3.891 -37.616  18.582  1.00  0.00    -0.550 OA
ATOM      4  O   UNL     1       1.759 -37.911  19.368  1.00  0.00    -0.550 OA
ENDBRANCH   1   2
BRANCH   1   5
ATOM      5  C   UNL     1       3.144 -37.457  15.924  1.00  0.00     0.003 C 
ATOM      6  C   UNL     1       2.809 -36.720  14.630  1.00  0.00     0.004 C 
ENDBRANCH   1   5
TORSDOF 2
ENDMDL
MODEL 2
REMARK VINA RESULT:    -3.232      0.908      1.460
REMARK INTER + INTRA:          -3.623
REMARK INTER:                  -3.610
REMARK INTRA:                  -0.012
REMARK UNBOUND:                -0.013
REMARK SMILES CCCC(=O)[O-]
REMARK SMILES IDX 3 1 4 2 5 3 6 4 2 5 1 6
REMARK H PARENT
REMARK Flexibility Score: inf
ROOT
ATOM      1  C   UNL     1       3.137 -37.233  17.309  1.00  0.00     0.052 C 
ENDROOT
BRANCH   1   2
ATOM      2  C   UNL     1       2.585 -37.556  18.662  1.00  0.00     0.041 C 
ATOM      3  O   UNL     1       1.382 -37.905  18.789  1.00  0.00    -0.550 OA
ATOM      4  O   UNL     1       3.412 -37.518  19.778  1.00  0.00    -0.550 OA
ENDBRANCH   1   2
BRANCH   1   5
ATOM      5  C   UNL     1       2.020 -36.760  16.375  1.00  0.00     0.003 C 
ATOM      6  C   UNL     1       2.515 -36.652  14.936  1.00  0.00     0.004 C 
ENDBRANCH   1   5
TORSDOF 2
ENDMDL
MODEL 3
REMARK VINA RESULT:    -3.162      2.264      3.166
REMARK INTER + INTRA:          -3.545
REMARK INTER:                  -3.485
REMARK INTRA:                  -0.060
REMARK UNBOUND:                -0.013
REMARK SMILES CCCC(=O)[O-]
REMARK SMILES IDX 3 1 4 2 5 3 6 4 2 5 1 6
REMARK H PARENT
REMARK Flexibility Score: inf
ROOT
ATOM      1  C   UNL     1       3.454 -36.457  17.305  1.00  0.00     0.052 C 
ENDROOT
BRANCH   1   2
ATOM      2  C   UNL     1       2.866 -37.029  16.053  1.00  0.00     0.041 C 
ATOM      3  O   UNL     1       3.458 -37.955  15.441  1.00  0.00    -0.550 OA
ATOM      4  O   UNL     1       1.640 -36.570  15.589  1.00  0.00    -0.550 OA
ENDBRANCH   1   2
BRANCH   1   5
ATOM      5  C   UNL     1       3.417 -37.491  18.434  1.00  0.00     0.003 C 
ATOM      6  C   UNL     1       1.982 -37.807  18.844  1.00  0.00     0.004 C 
ENDBRANCH   1   5
TORSDOF 2
ENDMDL
MODEL 4
REMARK VINA RESULT:    -3.142      1.634      1.858
REMARK INTER + INTRA:          -3.522
REMARK INTER:                  -3.492
REMARK INTRA:                  -0.030
REMARK UNBOUND:                -0.013
REMARK SMILES CCCC(=O)[O-]
REMARK SMILES IDX 3 1 4 2 5 3 6 4 2 5 1 6
REMARK H PARENT
REMARK Flexibility Score: inf
ROOT
ATOM      1  C   UNL     1       2.933 -37.503  18.087  1.00  0.00     0.052 C 
ENDROOT
BRANCH   1   2
ATOM      2  C   UNL     1       4.053 -36.995  18.940  1.00  0.00     0.041 C 
ATOM      3  O   UNL     1       4.391 -35.784  18.888  1.00  0.00    -0.550 OA
ATOM      4  O   UNL     1       4.692 -37.851  19.829  1.00  0.00    -0.550 OA
ENDBRANCH   1   2
BRANCH   1   5
ATOM      5  C   UNL     1       3.131 -37.069  16.632  1.00  0.00     0.003 C 
ATOM      6  C   UNL     1       1.846 -36.485  16.052  1.00  0.00     0.004 C 
ENDBRANCH   1   5
TORSDOF 2
ENDMDL
MODEL 5
REMARK VINA RESULT:    -3.038      2.805      4.315
REMARK INTER + INTRA:          -3.406
REMARK INTER:                  -3.381
REMARK INTRA:                  -0.025
REMARK UNBOUND:                -0.013
REMARK SMILES CCCC(=O)[O-]
REMARK SMILES IDX 3 1 4 2 5 3 6 4 2 5 1 6
REMARK H PARENT
REMARK Flexibility Score: inf
ROOT
ATOM      1  C   UNL     1       4.936 -37.450  19.833  1.00  0.00     0.052 C 
ENDROOT
BRANCH   1   2
ATOM      2  C   UNL     1       3.598 -37.456  19.164  1.00  0.00     0.041 C 
ATOM      3  O   UNL     1       2.545 -37.424  19.853  1.00  0.00    -0.550 OA
ATOM      4  O   UNL     1       3.514 -37.451  17.777  1.00  0.00    -0.550 OA
ENDBRANCH   1   2
BRANCH   1   5
ATOM      5  C   UNL     1       5.309 -36.030  20.269  1.00  0.00     0.003 C 
ATOM      6  C   UNL     1       5.702 -35.992  21.743  1.00  0.00     0.004 C 
ENDBRANCH   1   5
TORSDOF 2
ENDMDL
MODEL 6
REMARK VINA RESULT:    -3.030      2.592      3.213
REMARK INTER + INTRA:          -3.397
REMARK INTER:                  -3.354
REMARK INTRA:                  -0.043
REMARK UNBOUND:                -0.013
REMARK SMILES CCCC(=O)[O-]
REMARK SMILES IDX 3 1 4 2 5 3 6 4 2 5 1 6
REMARK H PARENT
REMARK Flexibility Score: inf
ROOT
ATOM      1  C   UNL     1       4.070 -37.451  19.195  1.00  0.00     0.052 C 
ENDROOT
BRANCH   1   2
ATOM      2  C   UNL     1       4.305 -36.057  19.686  1.00  0.00     0.041 C 
ATOM      3  O   UNL     1       4.952 -35.237  18.984  1.00  0.00    -0.550 OA
ATOM      4  O   UNL     1       3.768 -35.649  20.901  1.00  0.00    -0.550 OA
ENDBRANCH   1   2
BRANCH   1   5
ATOM      5  C   UNL     1       2.840 -37.496  18.284  1.00  0.00     0.003 C 
ATOM      6  C   UNL     1       1.593 -37.906  19.062  1.00  0.00     0.004 C 
ENDBRANCH   1   5
TORSDOF 2
ENDMDL
MODEL 7
REMARK VINA RESULT:    -2.985      4.707      6.068
REMARK INTER + INTRA:          -3.347
REMARK INTER:                  -3.333
REMARK INTRA:                  -0.014
REMARK UNBOUND:                -0.013
REMARK SMILES CCCC(=O)[O-]
REMARK SMILES IDX 3 1 4 2 5 3 6 4 2 5 1 6
REMARK H PARENT
REMARK Flexibility Score: inf
ROOT
ATOM      1  C   UNL     1       6.050 -35.652  21.471  1.00  0.00     0.052 C 
ENDROOT
BRANCH   1   2
ATOM      2  C   UNL     1       5.014 -36.393  20.685  1.00  0.00     0.041 C 
ATOM      3  O   UNL     1       5.298 -37.493  20.142  1.00  0.00    -0.550 OA
ATOM      4  O   UNL     1       3.722 -35.892  20.592  1.00  0.00    -0.550 OA
ENDBRANCH   1   2
BRANCH   1   5
ATOM      5  C   UNL     1       5.782 -35.790  22.972  1.00  0.00     0.003 C 
ATOM      6  C   UNL     1       6.085 -34.488  23.708  1.00  0.00     0.004 C 
ENDBRANCH   1   5
TORSDOF 2
ENDMDL
MODEL 8
REMARK VINA RESULT:    -2.911      3.603      5.068
REMARK INTER + INTRA:          -3.264
REMARK INTER:                  -3.244
REMARK INTRA:                  -0.020
REMARK UNBOUND:                -0.013
REMARK SMILES CCCC(=O)[O-]
REMARK SMILES IDX 3 1 4 2 5 3 6 4 2 5 1 6
REMARK H PARENT
REMARK Flexibility Score: inf
ROOT
ATOM      1  C   UNL     1       4.565 -36.030  20.644  1.00  0.00     0.052 C 
ENDROOT
BRANCH   1   2
ATOM      2  C   UNL     1       4.586 -37.271  19.807  1.00  0.00     0.041 C 
ATOM      3  O   UNL     1       5.352 -38.224  20.105  1.00  0.00    -0.550 OA
ATOM      4  O   UNL     1       3.724 -37.392  18.723  1.00  0.00    -0.550 OA
ENDBRANCH   1   2
BRANCH   1   5
ATOM      5  C   UNL     1       5.737 -36.031  21.629  1.00  0.00     0.003 C 
ATOM      6  C   UNL     1       5.352 -35.355  22.942  1.00  0.00     0.004 C 
ENDBRANCH   1   5
TORSDOF 2
ENDMDL
MODEL 9
REMARK VINA RESULT:    -2.706      3.316      3.745
REMARK INTER + INTRA:          -3.036
REMARK INTER:                  -2.975
REMARK INTRA:                  -0.060
REMARK UNBOUND:                -0.013
REMARK SMILES CCCC(=O)[O-]
REMARK SMILES IDX 3 1 4 2 5 3 6 4 2 5 1 6
REMARK H PARENT
REMARK Flexibility Score: inf
ROOT
ATOM      1  C   UNL     1       4.941 -35.969  20.563  1.00  0.00     0.052 C 
ENDROOT
BRANCH   1   2
ATOM      2  C   UNL     1       4.538 -37.297  20.002  1.00  0.00     0.041 C 
ATOM      3  O   UNL     1       5.363 -38.246  19.964  1.00  0.00    -0.550 OA
ATOM      4  O   UNL     1       3.235 -37.499  19.563  1.00  0.00    -0.550 OA
ENDBRANCH   1   2
BRANCH   1   5
ATOM      5  C   UNL     1       5.864 -35.234  19.587  1.00  0.00     0.003 C 
ATOM      6  C   UNL     1       5.079 -34.674  18.405  1.00  0.00     0.004 C 
ENDBRANCH   1   5
TORSDOF 2
ENDMDL
