MODEL 1
REMARK VINA RESULT:    -3.589      0.000      0.000
REMARK INTER + INTRA:          -4.268
REMARK INTER:                  -4.219
REMARK INTRA:                  -0.049
REMARK UNBOUND:                -0.049
REMARK SMILES CCCCC(=O)[O-]
REMARK SMILES IDX 4 1 5 2 6 3 7 4 3 5 2 6 1 7
REMARK H PARENT
REMARK Flexibility Score: inf
ROOT
ATOM      1  C   UNL     1      21.545  15.148  20.939  1.00  0.00     0.053 C 
ENDROOT
BRANCH   1   2
ATOM      2  C   UNL     1      22.781  15.984  20.824  1.00  0.00     0.041 C 
ATOM      3  O   UNL     1      23.575  16.078  21.798  1.00  0.00    -0.550 OA
ATOM      4  O   UNL     1      23.082  16.620  19.626  1.00  0.00    -0.550 OA
ENDBRANCH   1   2
BRANCH   1   5
ATOM      5  C   UNL     1      20.732  15.211  19.643  1.00  0.00     0.006 C 
BRANCH   5   6
ATOM      6  C   UNL     1      19.512  16.125  19.804  1.00  0.00    -0.003 C 
ATOM      7  C   UNL     1      18.592  16.035  18.590  1.00  0.00     0.004 C 
ENDBRANCH   5   6
ENDBRANCH   1   5
TORSDOF 3
ENDMDL
MODEL 2
REMARK VINA RESULT:    -3.362      2.310      4.006
REMARK INTER + INTRA:          -4.000
REMARK INTER:                  -3.953
REMARK INTRA:                  -0.047
REMARK UNBOUND:                -0.049
REMARK SMILES CCCCC(=O)[O-]
REMARK SMILES IDX 4 1 5 2 6 3 7 4 3 5 2 6 1 7
REMARK H PARENT
REMARK Flexibility Score: inf
ROOT
ATOM      1  C   UNL     1      20.867  15.022  19.618  1.00  0.00     0.053 C 
ENDROOT
BRANCH   1   2
ATOM      2  C   UNL     1      19.629  15.859  19.673  1.00  0.00     0.041 C 
ATOM      3  O   UNL     1      18.785  15.804  18.739  1.00  0.00    -0.550 OA
ATOM      4  O   UNL     1      19.382  16.665  20.777  1.00  0.00    -0.550 OA
ENDBRANCH   1   2
BRANCH   1   5
ATOM      5  C   UNL     1      21.699  15.211  20.890  1.00  0.00     0.006 C 
BRANCH   5   6
ATOM      6  C   UNL     1      22.876  16.160  20.640  1.00  0.00    -0.003 C 
ATOM      7  C   UNL     1      23.659  16.417  21.925  1.00  0.00     0.004 C 
ENDBRANCH   5   6
ENDBRANCH   1   5
TORSDOF 3
ENDMDL
MODEL 3
REMARK VINA RESULT:    -3.353     14.075     14.976
REMARK INTER + INTRA:          -3.990
REMARK INTER:                  -3.948
REMARK INTRA:                  -0.041
REMARK UNBOUND:                -0.049
REMARK SMILES CCCCC(=O)[O-]
REMARK SMILES IDX 4 1 5 2 6 3 7 4 3 5 2 6 1 7
REMARK H PARENT
REMARK Flexibility Score: inf
ROOT
ATOM      1  C   UNL     1      12.083   9.433  10.291  1.00  0.00     0.053 C 
ENDROOT
BRANCH   1   2
ATOM      2  C   UNL     1      12.457  10.882  10.292  1.00  0.00     0.041 C 
ATOM      3  O   UNL     1      12.712  11.471   9.209  1.00  0.00    -0.550 OA
ATOM      4  O   UNL     1      12.477  11.594  11.485  1.00  0.00    -0.550 OA
ENDBRANCH   1   2
BRANCH   1   5
ATOM      5  C   UNL     1      11.426   9.047  11.619  1.00  0.00     0.006 C 
BRANCH   5   6
ATOM      6  C   UNL     1      11.361   7.524  11.777  1.00  0.00    -0.003 C 
ATOM      7  C   UNL     1      11.870   6.818  10.523  1.00  0.00     0.004 C 
ENDBRANCH   5   6
ENDBRANCH   1   5
TORSDOF 3
ENDMDL
MODEL 4
REMARK VINA RESULT:    -3.331     15.029     15.620
REMARK INTER + INTRA:          -3.964
REMARK INTER:                  -3.944
REMARK INTRA:                  -0.020
REMARK UNBOUND:                -0.049
REMARK SMILES CCCCC(=O)[O-]
REMARK SMILES IDX 4 1 5 2 6 3 7 4 3 5 2 6 1 7
REMARK H PARENT
REMARK Flexibility Score: inf
ROOT
ATOM      1  C   UNL     1      11.456   8.474  11.624  1.00  0.00     0.053 C 
ENDROOT
BRANCH   1   2
ATOM      2  C   UNL     1      11.350   7.010  11.338  1.00  0.00     0.041 C 
ATOM      3  O   UNL     1      10.557   6.291  12.002  1.00  0.00    -0.550 OA
ATOM      4  O   UNL     1      12.092   6.446  10.307  1.00  0.00    -0.550 OA
ENDBRANCH   1   2
BRANCH   1   5
ATOM      5  C   UNL     1      11.970   9.225  10.391  1.00  0.00     0.006 C 
BRANCH   5   6
ATOM      6  C   UNL     1      12.310  10.680  10.737  1.00  0.00    -0.003 C 
ATOM      7  C   UNL     1      12.619  11.487   9.479  1.00  0.00     0.004 C 
ENDBRANCH   5   6
ENDBRANCH   1   5
TORSDOF 3
ENDMDL
MODEL 5
REMARK VINA RESULT:    -3.307     14.666     15.030
REMARK INTER + INTRA:          -3.935
REMARK INTER:                  -3.911
REMARK INTRA:                  -0.024
REMARK UNBOUND:                -0.049
REMARK SMILES CCCCC(=O)[O-]
REMARK SMILES IDX 4 1 5 2 6 3 7 4 3 5 2 6 1 7
REMARK H PARENT
REMARK Flexibility Score: inf
ROOT
ATOM      1  C   UNL     1      12.053  10.452  11.006  1.00  0.00     0.053 C 
ENDROOT
BRANCH   1   2
ATOM      2  C   UNL     1      11.804   8.980  10.911  1.00  0.00     0.041 C 
ATOM      3  O   UNL     1      12.242   8.325   9.928  1.00  0.00    -0.550 OA
ATOM      4  O   UNL     1      11.129   8.321  11.931  1.00  0.00    -0.550 OA
ENDBRANCH   1   2
BRANCH   1   5
ATOM      5  C   UNL     1      12.698  10.970   9.718  1.00  0.00     0.006 C 
BRANCH   5   6
ATOM      6  C   UNL     1      12.370  12.452   9.497  1.00  0.00    -0.003 C 
ATOM      7  C   UNL     1      12.918  12.944   8.160  1.00  0.00     0.004 C 
ENDBRANCH   5   6
ENDBRANCH   1   5
TORSDOF 3
ENDMDL
MODEL 6
REMARK VINA RESULT:    -3.179     15.443     16.388
REMARK INTER + INTRA:          -3.786
REMARK INTER:                  -3.745
REMARK INTRA:                  -0.041
REMARK UNBOUND:                -0.049
REMARK SMILES CCCCC(=O)[O-]
REMARK SMILES IDX 4 1 5 2 6 3 7 4 3 5 2 6 1 7
REMARK H PARENT
REMARK Flexibility Score: inf
ROOT
ATOM      1  C   UNL     1      12.052   6.698  10.278  1.00  0.00     0.053 C 
ENDROOT
BRANCH   1   2
ATOM      2  C   UNL     1      12.490   5.275  10.422  1.00  0.00     0.041 C 
ATOM      3  O   UNL     1      13.456   4.983  11.177  1.00  0.00    -0.550 OA
ATOM      4  O   UNL     1      11.803   4.264   9.762  1.00  0.00    -0.550 OA
ENDBRANCH   1   2
BRANCH   1   5
ATOM      5  C   UNL     1      11.374   7.183  11.563  1.00  0.00     0.006 C 
BRANCH   5   6
ATOM      6  C   UNL     1      11.394   8.714  11.650  1.00  0.00    -0.003 C 
ATOM      7  C   UNL     1      11.985   9.329  10.385  1.00  0.00     0.004 C 
ENDBRANCH   5   6
ENDBRANCH   1   5
TORSDOF 3
ENDMDL
MODEL 7
REMARK VINA RESULT:    -3.169     14.315     14.778
REMARK INTER + INTRA:          -3.774
REMARK INTER:                  -3.748
REMARK INTRA:                  -0.025
REMARK UNBOUND:                -0.049
REMARK SMILES CCCCC(=O)[O-]
REMARK SMILES IDX 4 1 5 2 6 3 7 4 3 5 2 6 1 7
REMARK H PARENT
REMARK Flexibility Score: inf
ROOT
ATOM      1  C   UNL     1      12.811  11.122   9.501  1.00  0.00     0.053 C 
ENDROOT
BRANCH   1   2
ATOM      2  C   UNL     1      12.405  12.555   9.371  1.00  0.00     0.041 C 
ATOM      3  O   UNL     1      11.840  13.143  10.331  1.00  0.00    -0.550 OA
ATOM      4  O   UNL     1      12.692  13.258   8.208  1.00  0.00    -0.550 OA
ENDBRANCH   1   2
BRANCH   1   5
ATOM      5  C   UNL     1      12.183  10.498  10.751  1.00  0.00     0.006 C 
BRANCH   5   6
ATOM      6  C   UNL     1      11.857   9.018  10.521  1.00  0.00    -0.003 C 
ATOM      7  C   UNL     1      11.328   8.366  11.796  1.00  0.00     0.004 C 
ENDBRANCH   5   6
ENDBRANCH   1   5
TORSDOF 3
ENDMDL
MODEL 8
REMARK VINA RESULT:    -3.043     13.478     14.308
REMARK INTER + INTRA:          -3.625
REMARK INTER:                  -3.569
REMARK INTRA:                  -0.056
REMARK UNBOUND:                -0.049
REMARK SMILES CCCCC(=O)[O-]
REMARK SMILES IDX 4 1 5 2 6 3 7 4 3 5 2 6 1 7
REMARK H PARENT
REMARK Flexibility Score: inf
ROOT
ATOM      1  C   UNL     1      11.597  11.386  12.094  1.00  0.00     0.053 C 
ENDROOT
BRANCH   1   2
ATOM      2  C   UNL     1      10.447  11.561  13.035  1.00  0.00     0.041 C 
ATOM      3  O   UNL     1       9.370  10.937  12.842  1.00  0.00    -0.550 OA
ATOM      4  O   UNL     1      10.580  12.376  14.152  1.00  0.00    -0.550 OA
ENDBRANCH   1   2
BRANCH   1   5
ATOM      5  C   UNL     1      11.742   9.915  11.693  1.00  0.00     0.006 C 
BRANCH   5   6
ATOM      6  C   UNL     1      12.146   9.785  10.219  1.00  0.00    -0.003 C 
ATOM      7  C   UNL     1      12.720  11.096   9.688  1.00  0.00     0.004 C 
ENDBRANCH   5   6
ENDBRANCH   1   5
TORSDOF 3
ENDMDL
MODEL 9
REMARK VINA RESULT:    -3.001     15.602     16.394
REMARK INTER + INTRA:          -3.576
REMARK INTER:                  -3.559
REMARK INTRA:                  -0.017
REMARK UNBOUND:                -0.049
REMARK SMILES CCCCC(=O)[O-]
REMARK SMILES IDX 4 1 5 2 6 3 7 4 3 5 2 6 1 7
REMARK H PARENT
REMARK Flexibility Score: inf
ROOT
ATOM      1  C   UNL     1      10.680   6.005  11.430  1.00  0.00     0.053 C 
ENDROOT
BRANCH   1   2
ATOM      2  C   UNL     1      11.883   6.330  10.602  1.00  0.00     0.041 C 
ATOM      3  O   UNL     1      12.080   7.511  10.208  1.00  0.00    -0.550 OA
ATOM      4  O   UNL     1      12.811   5.341  10.303  1.00  0.00    -0.550 OA
ENDBRANCH   1   2
BRANCH   1   5
ATOM      5  C   UNL     1      10.688   6.819  12.728  1.00  0.00     0.006 C 
BRANCH   5   6
ATOM      6  C   UNL     1      10.062   6.022  13.879  1.00  0.00    -0.003 C 
ATOM      7  C   UNL     1      10.206   6.764  15.205  1.00  0.00     0.004 C 
ENDBRANCH   5   6
ENDBRANCH   1   5
TORSDOF 3
ENDMDL
