MODEL 1
REMARK VINA RESULT:    -3.705      0.000      0.000
REMARK INTER + INTRA:          -7.545
REMARK INTER:                  -6.305
REMARK INTRA:                  -1.240
REMARK UNBOUND:                -1.240
REMARK SMILES CCCCCCCCCCCCCC(=O)[O-]
REMARK SMILES IDX 8 1 9 2 10 3 11 4 12 5 13 6 14 7 15 8 16 9 7 10 6 11 5 12
REMARK SMILES IDX 4 13 3 14 2 15 1 16
REMARK H PARENT
REMARK Flexibility Score: inf
ROOT
ATOM      1  C   UNL     1      17.194 133.514  61.020  1.00  0.00     0.000 C 
ENDROOT
BRANCH   1   2
ATOM      2  C   UNL     1      18.641 133.136  61.357  1.00  0.00     0.000 C 
BRANCH   2   3
ATOM      3  C   UNL     1      18.843 133.032  62.876  1.00  0.00     0.000 C 
BRANCH   3   4
ATOM      4  C   UNL     1      19.453 131.688  63.311  1.00  0.00     0.000 C 
BRANCH   4   5
ATOM      5  C   UNL     1      18.920 131.126  64.643  1.00  0.00     0.006 C 
BRANCH   5   6
ATOM      6  C   UNL     1      17.781 130.103  64.483  1.00  0.00     0.053 C 
BRANCH   6   7
ATOM      7  C   UNL     1      18.288 128.714  64.242  1.00  0.00     0.041 C 
ATOM      8  O   UNL     1      17.521 127.829  63.778  1.00  0.00    -0.550 OA
ATOM      9  O   UNL     1      19.598 128.383  64.567  1.00  0.00    -0.550 OA
ENDBRANCH   6   7
ENDBRANCH   5   6
ENDBRANCH   4   5
ENDBRANCH   3   4
ENDBRANCH   2   3
ENDBRANCH   1   2
BRANCH   1  10
ATOM     10  C   UNL     1      16.249 133.159  62.177  1.00  0.00     0.000 C 
BRANCH  10  11
ATOM     11  C   UNL     1      15.064 132.281  61.736  1.00  0.00    -0.000 C 
BRANCH  11  12
ATOM     12  C   UNL     1      15.372 131.300  60.589  1.00  0.00    -0.000 C 
BRANCH  12  13
ATOM     13  C   UNL     1      14.377 131.337  59.414  1.00  0.00    -0.000 C 
BRANCH  13  14
ATOM     14  C   UNL     1      15.014 131.757  58.071  1.00  0.00    -0.000 C 
BRANCH  14  15
ATOM     15  C   UNL     1      16.523 131.476  58.023  1.00  0.00    -0.003 C 
ATOM     16  C   UNL     1      16.928 130.876  56.679  1.00  0.00     0.004 C 
ENDBRANCH  14  15
ENDBRANCH  13  14
ENDBRANCH  12  13
ENDBRANCH  11  12
ENDBRANCH  10  11
ENDBRANCH   1  10
TORSDOF 12
ENDMDL
MODEL 2
REMARK VINA RESULT:    -3.657      3.712      6.719
REMARK INTER + INTRA:          -7.462
REMARK INTER:                  -6.788
REMARK INTRA:                  -0.675
REMARK UNBOUND:                -1.240
REMARK SMILES CCCCCCCCCCCCCC(=O)[O-]
REMARK SMILES IDX 8 1 9 2 10 3 11 4 12 5 13 6 14 7 15 8 16 9 7 10 6 11 5 12
REMARK SMILES IDX 4 13 3 14 2 15 1 16
REMARK H PARENT
REMARK Flexibility Score: inf
ROOT
ATOM      1  C   UNL     1      18.731 133.218  61.277  1.00  0.00     0.000 C 
ENDROOT
BRANCH   1   2
ATOM      2  C   UNL     1      18.819 133.986  59.953  1.00  0.00     0.000 C 
BRANCH   2   3
ATOM      3  C   UNL     1      19.163 133.042  58.792  1.00  0.00     0.000 C 
BRANCH   3   4
ATOM      4  C   UNL     1      18.066 132.988  57.715  1.00  0.00     0.000 C 
BRANCH   4   5
ATOM      5  C   UNL     1      18.081 131.730  56.824  1.00  0.00     0.006 C 
BRANCH   5   6
ATOM      6  C   UNL     1      16.822 130.853  56.953  1.00  0.00     0.053 C 
BRANCH   6   7
ATOM      7  C   UNL     1      15.604 131.512  56.380  1.00  0.00     0.041 C 
ATOM      8  O   UNL     1      15.446 131.576  55.132  1.00  0.00    -0.550 OA
ATOM      9  O   UNL     1      14.662 132.091  57.221  1.00  0.00    -0.550 OA
ENDBRANCH   6   7
ENDBRANCH   5   6
ENDBRANCH   4   5
ENDBRANCH   3   4
ENDBRANCH   2   3
ENDBRANCH   1   2
BRANCH   1  10
ATOM     10  C   UNL     1      20.128 132.828  61.781  1.00  0.00     0.000 C 
BRANCH  10  11
ATOM     11  C   UNL     1      20.090 131.743  62.873  1.00  0.00    -0.000 C 
BRANCH  11  12
ATOM     12  C   UNL     1      18.856 131.789  63.793  1.00  0.00    -0.000 C 
BRANCH  12  13
ATOM     13  C   UNL     1      18.719 130.599  64.761  1.00  0.00    -0.000 C 
BRANCH  13  14
ATOM     14  C   UNL     1      17.586 129.618  64.386  1.00  0.00    -0.000 C 
BRANCH  14  15
ATOM     15  C   UNL     1      18.114 128.229  64.002  1.00  0.00    -0.003 C 
ATOM     16  C   UNL     1      19.633 128.160  64.136  1.00  0.00     0.004 C 
ENDBRANCH  14  15
ENDBRANCH  13  14
ENDBRANCH  12  13
ENDBRANCH  11  12
ENDBRANCH  10  11
ENDBRANCH   1  10
TORSDOF 12
ENDMDL
MODEL 3
REMARK VINA RESULT:    -3.621      3.247      6.401
REMARK INTER + INTRA:          -7.401
REMARK INTER:                  -6.243
REMARK INTRA:                  -1.158
REMARK UNBOUND:                -1.240
REMARK SMILES CCCCCCCCCCCCCC(=O)[O-]
REMARK SMILES IDX 8 1 9 2 10 3 11 4 12 5 13 6 14 7 15 8 16 9 7 10 6 11 5 12
REMARK SMILES IDX 4 13 3 14 2 15 1 16
REMARK H PARENT
REMARK Flexibility Score: inf
ROOT
ATOM      1  C   UNL     1      15.763 131.760  61.611  1.00  0.00     0.000 C 
ENDROOT
BRANCH   1   2
ATOM      2  C   UNL     1      14.803 131.551  60.434  1.00  0.00     0.000 C 
BRANCH   2   3
ATOM      3  C   UNL     1      15.247 132.367  59.211  1.00  0.00     0.000 C 
BRANCH   3   4
ATOM      4  C   UNL     1      15.372 131.516  57.935  1.00  0.00     0.000 C 
BRANCH   4   5
ATOM      5  C   UNL     1      16.812 131.308  57.424  1.00  0.00     0.006 C 
BRANCH   5   6
ATOM      6  C   UNL     1      17.821 132.347  57.949  1.00  0.00     0.053 C 
BRANCH   6   7
ATOM      7  C   UNL     1      19.020 132.479  57.060  1.00  0.00     0.041 C 
ATOM      8  O   UNL     1      18.885 132.485  55.808  1.00  0.00    -0.550 OA
ATOM      9  O   UNL     1      20.293 132.554  57.612  1.00  0.00    -0.550 OA
ENDBRANCH   6   7
ENDBRANCH   5   6
ENDBRANCH   4   5
ENDBRANCH   3   4
ENDBRANCH   2   3
ENDBRANCH   1   2
BRANCH   1  10
ATOM     10  C   UNL     1      16.609 133.026  61.412  1.00  0.00     0.000 C 
BRANCH  10  11
ATOM     11  C   UNL     1      18.104 132.799  61.702  1.00  0.00    -0.000 C 
BRANCH  11  12
ATOM     12  C   UNL     1      18.484 132.788  63.195  1.00  0.00    -0.000 C 
BRANCH  12  13
ATOM     13  C   UNL     1      19.424 131.644  63.620  1.00  0.00    -0.000 C 
BRANCH  13  14
ATOM     14  C   UNL     1      18.811 130.693  64.671  1.00  0.00    -0.000 C 
BRANCH  14  15
ATOM     15  C   UNL     1      17.654 129.858  64.105  1.00  0.00    -0.003 C 
ATOM     16  C   UNL     1      17.967 128.366  64.174  1.00  0.00     0.004 C 
ENDBRANCH  14  15
ENDBRANCH  13  14
ENDBRANCH  12  13
ENDBRANCH  11  12
ENDBRANCH  10  11
ENDBRANCH   1  10
TORSDOF 12
ENDMDL
MODEL 4
REMARK VINA RESULT:    -3.614      2.720      6.221
REMARK INTER + INTRA:          -7.390
REMARK INTER:                  -6.304
REMARK INTRA:                  -1.086
REMARK UNBOUND:                -1.240
REMARK SMILES CCCCCCCCCCCCCC(=O)[O-]
REMARK SMILES IDX 8 1 9 2 10 3 11 4 12 5 13 6 14 7 15 8 16 9 7 10 6 11 5 12
REMARK SMILES IDX 4 13 3 14 2 15 1 16
REMARK H PARENT
REMARK Flexibility Score: inf
ROOT
ATOM      1  C   UNL     1      16.892 132.901  61.402  1.00  0.00     0.000 C 
ENDROOT
BRANCH   1   2
ATOM      2  C   UNL     1      16.127 131.619  61.754  1.00  0.00     0.000 C 
BRANCH   2   3
ATOM      3  C   UNL     1      14.658 131.719  61.319  1.00  0.00     0.000 C 
BRANCH   3   4
ATOM      4  C   UNL     1      14.480 132.401  59.952  1.00  0.00     0.000 C 
BRANCH   4   5
ATOM      5  C   UNL     1      14.508 131.453  58.737  1.00  0.00     0.006 C 
BRANCH   5   6
ATOM      6  C   UNL     1      15.276 132.009  57.523  1.00  0.00     0.053 C 
BRANCH   6   7
ATOM      7  C   UNL     1      16.635 131.395  57.376  1.00  0.00     0.041 C 
ATOM      8  O   UNL     1      16.801 130.393  56.631  1.00  0.00    -0.550 OA
ATOM      9  O   UNL     1      17.713 131.903  58.092  1.00  0.00    -0.550 OA
ENDBRANCH   6   7
ENDBRANCH   5   6
ENDBRANCH   4   5
ENDBRANCH   3   4
ENDBRANCH   2   3
ENDBRANCH   1   2
BRANCH   1  10
ATOM     10  C   UNL     1      17.869 133.284  62.523  1.00  0.00     0.000 C 
BRANCH  10  11
ATOM     11  C   UNL     1      18.727 132.099  63.001  1.00  0.00    -0.000 C 
BRANCH  11  12
ATOM     12  C   UNL     1      18.845 131.956  64.530  1.00  0.00    -0.000 C 
BRANCH  12  13
ATOM     13  C   UNL     1      18.730 130.514  65.062  1.00  0.00    -0.000 C 
BRANCH  13  14
ATOM     14  C   UNL     1      17.572 129.709  64.431  1.00  0.00    -0.000 C 
BRANCH  14  15
ATOM     15  C   UNL     1      17.972 128.264  64.102  1.00  0.00    -0.003 C 
ATOM     16  C   UNL     1      19.488 128.121  64.004  1.00  0.00     0.004 C 
ENDBRANCH  14  15
ENDBRANCH  13  14
ENDBRANCH  12  13
ENDBRANCH  11  12
ENDBRANCH  10  11
ENDBRANCH   1  10
TORSDOF 12
ENDMDL
MODEL 5
REMARK VINA RESULT:    -3.570      6.879      9.853
REMARK INTER + INTRA:          -7.316
REMARK INTER:                  -5.421
REMARK INTRA:                  -1.895
REMARK UNBOUND:                -1.240
REMARK SMILES CCCCCCCCCCCCCC(=O)[O-]
REMARK SMILES IDX 8 1 9 2 10 3 11 4 12 5 13 6 14 7 15 8 16 9 7 10 6 11 5 12
REMARK SMILES IDX 4 13 3 14 2 15 1 16
REMARK H PARENT
REMARK Flexibility Score: inf
ROOT
ATOM      1  C   UNL     1      15.415 134.493  54.632  1.00  0.00     0.000 C 
ENDROOT
BRANCH   1   2
ATOM      2  C   UNL     1      16.814 134.986  55.020  1.00  0.00     0.000 C 
BRANCH   2   3
ATOM      3  C   UNL     1      17.824 134.714  53.896  1.00  0.00     0.000 C 
BRANCH   3   4
ATOM      4  C   UNL     1      17.163 134.579  52.513  1.00  0.00     0.000 C 
BRANCH   4   5
ATOM      5  C   UNL     1      17.872 133.621  51.536  1.00  0.00     0.006 C 
BRANCH   5   6
ATOM      6  C   UNL     1      17.048 132.371  51.173  1.00  0.00     0.053 C 
BRANCH   6   7
ATOM      7  C   UNL     1      17.133 132.034  49.715  1.00  0.00     0.041 C 
ATOM      8  O   UNL     1      16.088 131.977  49.015  1.00  0.00    -0.550 OA
ATOM      9  O   UNL     1      18.362 131.743  49.136  1.00  0.00    -0.550 OA
ENDBRANCH   6   7
ENDBRANCH   5   6
ENDBRANCH   4   5
ENDBRANCH   3   4
ENDBRANCH   2   3
ENDBRANCH   1   2
BRANCH   1  10
ATOM     10  C   UNL     1      14.952 133.363  55.563  1.00  0.00     0.000 C 
BRANCH  10  11
ATOM     11  C   UNL     1      14.852 132.001  54.851  1.00  0.00    -0.000 C 
BRANCH  11  12
ATOM     12  C   UNL     1      16.202 131.320  54.559  1.00  0.00    -0.000 C 
BRANCH  12  13
ATOM     13  C   UNL     1      17.000 130.891  55.805  1.00  0.00    -0.000 C 
BRANCH  13  14
ATOM     14  C   UNL     1      18.288 131.711  56.033  1.00  0.00    -0.000 C 
BRANCH  14  15
ATOM     15  C   UNL     1      18.363 132.309  57.445  1.00  0.00    -0.003 C 
ATOM     16  C   UNL     1      17.087 132.024  58.231  1.00  0.00     0.004 C 
ENDBRANCH  14  15
ENDBRANCH  13  14
ENDBRANCH  12  13
ENDBRANCH  11  12
ENDBRANCH  10  11
ENDBRANCH   1  10
TORSDOF 12
ENDMDL
MODEL 6
REMARK VINA RESULT:    -3.570      1.315      2.514
REMARK INTER + INTRA:          -7.315
REMARK INTER:                  -6.337
REMARK INTRA:                  -0.978
REMARK UNBOUND:                -1.240
REMARK SMILES CCCCCCCCCCCCCC(=O)[O-]
REMARK SMILES IDX 8 1 9 2 10 3 11 4 12 5 13 6 14 7 15 8 16 9 7 10 6 11 5 12
REMARK SMILES IDX 4 13 3 14 2 15 1 16
REMARK H PARENT
REMARK Flexibility Score: inf
ROOT
ATOM      1  C   UNL     1      18.987 133.830  61.330  1.00  0.00     0.000 C 
ENDROOT
BRANCH   1   2
ATOM      2  C   UNL     1      20.131 132.819  61.468  1.00  0.00     0.000 C 
BRANCH   2   3
ATOM      3  C   UNL     1      20.019 132.039  62.786  1.00  0.00     0.000 C 
BRANCH   3   4
ATOM      4  C   UNL     1      18.824 132.483  63.647  1.00  0.00     0.000 C 
BRANCH   4   5
ATOM      5  C   UNL     1      18.751 131.844  65.048  1.00  0.00     0.006 C 
BRANCH   5   6
ATOM      6  C   UNL     1      18.846 130.307  65.044  1.00  0.00     0.053 C 
BRANCH   6   7
ATOM      7  C   UNL     1      17.575 129.657  64.588  1.00  0.00     0.041 C 
ATOM      8  O   UNL     1      16.461 130.127  64.939  1.00  0.00    -0.550 OA
ATOM      9  O   UNL     1      17.620 128.506  63.810  1.00  0.00    -0.550 OA
ENDBRANCH   6   7
ENDBRANCH   5   6
ENDBRANCH   4   5
ENDBRANCH   3   4
ENDBRANCH   2   3
ENDBRANCH   1   2
BRANCH   1  10
ATOM     10  C   UNL     1      18.062 133.459  60.162  1.00  0.00     0.000 C 
BRANCH  10  11
ATOM     11  C   UNL     1      18.832 133.109  58.875  1.00  0.00    -0.000 C 
BRANCH  11  12
ATOM     12  C   UNL     1      17.972 132.520  57.741  1.00  0.00    -0.000 C 
BRANCH  12  13
ATOM     13  C   UNL     1      16.869 131.547  58.198  1.00  0.00    -0.000 C 
BRANCH  13  14
ATOM     14  C   UNL     1      15.499 131.801  57.532  1.00  0.00    -0.000 C 
BRANCH  14  15
ATOM     15  C   UNL     1      14.386 132.066  58.556  1.00  0.00    -0.003 C 
ATOM     16  C   UNL     1      14.696 131.395  59.891  1.00  0.00     0.004 C 
ENDBRANCH  14  15
ENDBRANCH  13  14
ENDBRANCH  12  13
ENDBRANCH  11  12
ENDBRANCH  10  11
ENDBRANCH   1  10
TORSDOF 12
ENDMDL
MODEL 7
REMARK VINA RESULT:    -3.541      2.779      4.981
REMARK INTER + INTRA:          -7.266
REMARK INTER:                  -5.501
REMARK INTRA:                  -1.765
REMARK UNBOUND:                -1.240
REMARK SMILES CCCCCCCCCCCCCC(=O)[O-]
REMARK SMILES IDX 8 1 9 2 10 3 11 4 12 5 13 6 14 7 15 8 16 9 7 10 6 11 5 12
REMARK SMILES IDX 4 13 3 14 2 15 1 16
REMARK H PARENT
REMARK Flexibility Score: inf
ROOT
ATOM      1  C   UNL     1      18.526 134.573  56.433  1.00  0.00     0.000 C 
ENDROOT
BRANCH   1   2
ATOM      2  C   UNL     1      19.282 133.255  56.637  1.00  0.00     0.000 C 
BRANCH   2   3
ATOM      3  C   UNL     1      19.183 132.784  58.095  1.00  0.00     0.000 C 
BRANCH   3   4
ATOM      4  C   UNL     1      18.161 133.588  58.918  1.00  0.00     0.000 C 
BRANCH   4   5
ATOM      5  C   UNL     1      17.766 132.959  60.269  1.00  0.00     0.006 C 
BRANCH   5   6
ATOM      6  C   UNL     1      18.436 133.619  61.489  1.00  0.00     0.053 C 
BRANCH   6   7
ATOM      7  C   UNL     1      19.491 132.750  62.102  1.00  0.00     0.041 C 
ATOM      8  O   UNL     1      19.240 132.084  63.141  1.00  0.00    -0.550 OA
ATOM      9  O   UNL     1      20.766 132.704  61.550  1.00  0.00    -0.550 OA
ENDBRANCH   6   7
ENDBRANCH   5   6
ENDBRANCH   4   5
ENDBRANCH   3   4
ENDBRANCH   2   3
ENDBRANCH   1   2
BRANCH   1  10
ATOM     10  C   UNL     1      17.325 134.380  55.496  1.00  0.00     0.000 C 
BRANCH  10  11
ATOM     11  C   UNL     1      17.522 133.220  54.502  1.00  0.00    -0.000 C 
BRANCH  11  12
ATOM     12  C   UNL     1      16.435 132.130  54.551  1.00  0.00    -0.000 C 
BRANCH  12  13
ATOM     13  C   UNL     1      16.853 130.823  55.252  1.00  0.00    -0.000 C 
BRANCH  13  14
ATOM     14  C   UNL     1      16.417 130.744  56.732  1.00  0.00    -0.000 C 
BRANCH  14  15
ATOM     15  C   UNL     1      15.290 131.731  57.067  1.00  0.00    -0.003 C 
ATOM     16  C   UNL     1      14.759 131.502  58.478  1.00  0.00     0.004 C 
ENDBRANCH  14  15
ENDBRANCH  13  14
ENDBRANCH  12  13
ENDBRANCH  11  12
ENDBRANCH  10  11
ENDBRANCH   1  10
TORSDOF 12
ENDMDL
MODEL 8
REMARK VINA RESULT:    -3.530      1.799      3.873
REMARK INTER + INTRA:          -7.248
REMARK INTER:                  -5.749
REMARK INTRA:                  -1.499
REMARK UNBOUND:                -1.240
REMARK SMILES CCCCCCCCCCCCCC(=O)[O-]
REMARK SMILES IDX 8 1 9 2 10 3 11 4 12 5 13 6 14 7 15 8 16 9 7 10 6 11 5 12
REMARK SMILES IDX 4 13 3 14 2 15 1 16
REMARK H PARENT
REMARK Flexibility Score: inf
ROOT
ATOM      1  C   UNL     1      18.783 132.566  57.478  1.00  0.00     0.000 C 
ENDROOT
BRANCH   1   2
ATOM      2  C   UNL     1      18.275 133.976  57.802  1.00  0.00     0.000 C 
BRANCH   2   3
ATOM      3  C   UNL     1      18.625 134.368  59.245  1.00  0.00     0.000 C 
BRANCH   3   4
ATOM      4  C   UNL     1      18.807 133.153  60.171  1.00  0.00     0.000 C 
BRANCH   4   5
ATOM      5  C   UNL     1      19.190 133.488  61.626  1.00  0.00     0.006 C 
BRANCH   5   6
ATOM      6  C   UNL     1      18.533 132.572  62.675  1.00  0.00     0.053 C 
BRANCH   6   7
ATOM      7  C   UNL     1      19.518 131.650  63.327  1.00  0.00     0.041 C 
ATOM      8  O   UNL     1      19.190 130.991  64.349  1.00  0.00    -0.550 OA
ATOM      9  O   UNL     1      20.812 131.546  62.830  1.00  0.00    -0.550 OA
ENDBRANCH   6   7
ENDBRANCH   5   6
ENDBRANCH   4   5
ENDBRANCH   3   4
ENDBRANCH   2   3
ENDBRANCH   1   2
BRANCH   1  10
ATOM     10  C   UNL     1      17.971 131.937  56.337  1.00  0.00     0.000 C 
BRANCH  10  11
ATOM     11  C   UNL     1      16.997 130.848  56.823  1.00  0.00    -0.000 C 
BRANCH  11  12
ATOM     12  C   UNL     1      15.505 131.221  56.734  1.00  0.00    -0.000 C 
BRANCH  12  13
ATOM     13  C   UNL     1      14.980 132.092  57.891  1.00  0.00    -0.000 C 
BRANCH  13  14
ATOM     14  C   UNL     1      14.510 131.281  59.118  1.00  0.00    -0.000 C 
BRANCH  14  15
ATOM     15  C   UNL     1      15.380 131.531  60.357  1.00  0.00    -0.003 C 
ATOM     16  C   UNL     1      15.205 132.955  60.876  1.00  0.00     0.004 C 
ENDBRANCH  14  15
ENDBRANCH  13  14
ENDBRANCH  12  13
ENDBRANCH  11  12
ENDBRANCH  10  11
ENDBRANCH   1  10
TORSDOF 12
ENDMDL
MODEL 9
REMARK VINA RESULT:    -3.492      2.114      4.292
REMARK INTER + INTRA:          -7.183
REMARK INTER:                  -5.127
REMARK INTRA:                  -2.055
REMARK UNBOUND:                -1.240
REMARK SMILES CCCCCCCCCCCCCC(=O)[O-]
REMARK SMILES IDX 8 1 9 2 10 3 11 4 12 5 13 6 14 7 15 8 16 9 7 10 6 11 5 12
REMARK SMILES IDX 4 13 3 14 2 15 1 16
REMARK H PARENT
REMARK Flexibility Score: inf
ROOT
ATOM      1  C   UNL     1      13.580 132.357  58.752  1.00  0.00     0.000 C 
ENDROOT
BRANCH   1   2
ATOM      2  C   UNL     1      13.504 133.347  59.921  1.00  0.00     0.000 C 
BRANCH   2   3
ATOM      3  C   UNL     1      13.999 132.699  61.223  1.00  0.00     0.000 C 
BRANCH   3   4
ATOM      4  C   UNL     1      15.060 131.610  60.986  1.00  0.00     0.000 C 
BRANCH   4   5
ATOM      5  C   UNL     1      16.068 131.415  62.136  1.00  0.00     0.006 C 
BRANCH   5   6
ATOM      6  C   UNL     1      16.828 132.696  62.530  1.00  0.00     0.053 C 
BRANCH   6   7
ATOM      7  C   UNL     1      18.278 132.439  62.805  1.00  0.00     0.041 C 
ATOM      8  O   UNL     1      19.164 133.125  62.229  1.00  0.00    -0.550 OA
ATOM      9  O   UNL     1      18.656 131.416  63.666  1.00  0.00    -0.550 OA
ENDBRANCH   6   7
ENDBRANCH   5   6
ENDBRANCH   4   5
ENDBRANCH   3   4
ENDBRANCH   2   3
ENDBRANCH   1   2
BRANCH   1  10
ATOM     10  C   UNL     1      13.787 133.093  57.421  1.00  0.00     0.000 C 
BRANCH  10  11
ATOM     11  C   UNL     1      14.877 132.449  56.543  1.00  0.00    -0.000 C 
BRANCH  11  12
ATOM     12  C   UNL     1      15.466 131.138  57.095  1.00  0.00    -0.000 C 
BRANCH  12  13
ATOM     13  C   UNL     1      16.986 131.158  57.341  1.00  0.00    -0.000 C 
BRANCH  13  14
ATOM     14  C   UNL     1      17.581 132.579  57.448  1.00  0.00    -0.000 C 
BRANCH  14  15
ATOM     15  C   UNL     1      17.781 133.024  58.903  1.00  0.00    -0.003 C 
ATOM     16  C   UNL     1      17.067 134.344  59.178  1.00  0.00     0.004 C 
ENDBRANCH  14  15
ENDBRANCH  13  14
ENDBRANCH  12  13
ENDBRANCH  11  12
ENDBRANCH  10  11
ENDBRANCH   1  10
TORSDOF 12
ENDMDL
