MODEL 1
REMARK VINA RESULT:    -3.813      0.000      0.000
REMARK INTER + INTRA:          -4.702
REMARK INTER:                  -4.593
REMARK INTRA:                  -0.109
REMARK UNBOUND:                -0.109
REMARK SMILES CC[C@@H](C)[C@H]([NH3+])C(=O)[O-]
REMARK SMILES IDX 3 1 4 2 5 3 6 4 7 8 8 9 9 10 2 11 1 12
REMARK H PARENT 6 5 6 6 6 7
REMARK Flexibility Score: inf
ROOT
ATOM      1  C   UNL     1      -0.731  22.331  29.792  1.00  0.00     0.050 C 
ATOM      2  C   UNL     1       0.706  22.885  29.842  1.00  0.00     0.014 C 
ENDROOT
BRANCH   1   3
ATOM      3  C   UNL     1      -1.687  23.223  30.647  1.00  0.00     0.230 C 
BRANCH   3   4
ATOM      4  N   UNL     1      -0.955  24.259  31.389  1.00  0.00    -0.350 N 
ATOM      5  H   UNL     1      -0.007  24.430  30.984  1.00  0.00     0.345 HD
ATOM      6  H   UNL     1      -0.836  23.956  32.383  1.00  0.00     0.345 HD
ATOM      7  H   UNL     1      -1.495  25.154  31.387  1.00  0.00     0.345 HD
ENDBRANCH   3   4
BRANCH   3   8
ATOM      8  C   UNL     1      -2.556  22.412  31.578  1.00  0.00     0.099 C 
ATOM      9  O   UNL     1      -2.118  22.069  32.709  1.00  0.00    -0.544 OA
ATOM     10  O   UNL     1      -3.853  22.066  31.216  1.00  0.00    -0.544 OA
ENDBRANCH   3   8
ENDBRANCH   1   3
BRANCH   1  11
ATOM     11  C   UNL     1      -1.211  22.155  28.327  1.00  0.00     0.006 C 
ATOM     12  C   UNL     1      -2.245  21.039  28.168  1.00  0.00     0.004 C 
ENDBRANCH   1  11
TORSDOF 4
ENDMDL
MODEL 2
REMARK VINA RESULT:    -3.787      2.588      3.422
REMARK INTER + INTRA:          -4.672
REMARK INTER:                  -4.606
REMARK INTRA:                  -0.066
REMARK UNBOUND:                -0.109
REMARK SMILES CC[C@@H](C)[C@H]([NH3+])C(=O)[O-]
REMARK SMILES IDX 3 1 4 2 5 3 6 4 7 8 8 9 9 10 2 11 1 12
REMARK H PARENT 6 5 6 6 6 7
REMARK Flexibility Score: inf
ROOT
ATOM      1  C   UNL     1       0.894  24.716  29.776  1.00  0.00     0.050 C 
ATOM      2  C   UNL     1       1.798  25.409  30.814  1.00  0.00     0.014 C 
ENDROOT
BRANCH   1   3
ATOM      3  C   UNL     1      -0.525  24.461  30.375  1.00  0.00     0.230 C 
BRANCH   3   4
ATOM      4  N   UNL     1      -0.593  24.823  31.799  1.00  0.00    -0.350 N 
ATOM      5  H   UNL     1      -0.596  23.978  32.414  1.00  0.00     0.345 HD
ATOM      6  H   UNL     1      -1.472  25.361  31.978  1.00  0.00     0.345 HD
ATOM      7  H   UNL     1       0.217  25.432  32.055  1.00  0.00     0.345 HD
ENDBRANCH   3   4
BRANCH   3   8
ATOM      8  C   UNL     1      -0.998  23.042  30.161  1.00  0.00     0.099 C 
ATOM      9  O   UNL     1      -1.394  22.357  31.141  1.00  0.00    -0.544 OA
ATOM     10  O   UNL     1      -1.033  22.493  28.884  1.00  0.00    -0.544 OA
ENDBRANCH   3   8
ENDBRANCH   1   3
BRANCH   1  11
ATOM     11  C   UNL     1       0.859  25.514  28.446  1.00  0.00     0.006 C 
ATOM     12  C   UNL     1       1.288  26.973  28.614  1.00  0.00     0.004 C 
ENDBRANCH   1  11
TORSDOF 4
ENDMDL
MODEL 3
REMARK VINA RESULT:    -3.780      3.195      4.162
REMARK INTER + INTRA:          -4.663
REMARK INTER:                  -4.557
REMARK INTRA:                  -0.106
REMARK UNBOUND:                -0.109
REMARK SMILES CC[C@@H](C)[C@H]([NH3+])C(=O)[O-]
REMARK SMILES IDX 3 1 4 2 5 3 6 4 7 8 8 9 9 10 2 11 1 12
REMARK H PARENT 6 5 6 6 6 7
REMARK Flexibility Score: inf
ROOT
ATOM      1  C   UNL     1       1.441  25.450  29.878  1.00  0.00     0.050 C 
ATOM      2  C   UNL     1       2.068  25.734  31.256  1.00  0.00     0.014 C 
ENDROOT
BRANCH   1   3
ATOM      3  C   UNL     1       0.056  24.747  30.046  1.00  0.00     0.230 C 
BRANCH   3   4
ATOM      4  N   UNL     1      -0.443  24.839  31.426  1.00  0.00    -0.350 N 
ATOM      5  H   UNL     1      -1.257  25.490  31.502  1.00  0.00     0.345 HD
ATOM      6  H   UNL     1       0.319  25.195  32.048  1.00  0.00     0.345 HD
ATOM      7  H   UNL     1      -0.726  23.893  31.771  1.00  0.00     0.345 HD
ENDBRANCH   3   4
BRANCH   3   8
ATOM      8  C   UNL     1       0.076  23.310  29.579  1.00  0.00     0.099 C 
ATOM      9  O   UNL     1      -0.809  22.895  28.786  1.00  0.00    -0.544 OA
ATOM     10  O   UNL     1       1.084  22.447  29.991  1.00  0.00    -0.544 OA
ENDBRANCH   3   8
ENDBRANCH   1   3
BRANCH   1  11
ATOM     11  C   UNL     1       1.368  26.741  29.021  1.00  0.00     0.006 C 
ATOM     12  C   UNL     1       0.820  26.492  27.614  1.00  0.00     0.004 C 
ENDBRANCH   1  11
TORSDOF 4
ENDMDL
MODEL 4
REMARK VINA RESULT:    -3.692      1.860      2.955
REMARK INTER + INTRA:          -4.556
REMARK INTER:                  -4.441
REMARK INTRA:                  -0.116
REMARK UNBOUND:                -0.109
REMARK SMILES CC[C@@H](C)[C@H]([NH3+])C(=O)[O-]
REMARK SMILES IDX 3 1 4 2 5 3 6 4 7 8 8 9 9 10 2 11 1 12
REMARK H PARENT 6 5 6 6 6 7
REMARK Flexibility Score: inf
ROOT
ATOM      1  C   UNL     1      -1.024  22.995  29.562  1.00  0.00     0.050 C 
ATOM      2  C   UNL     1      -1.360  21.947  28.483  1.00  0.00     0.014 C 
ENDROOT
BRANCH   1   3
ATOM      3  C   UNL     1      -1.983  22.842  30.784  1.00  0.00     0.230 C 
BRANCH   3   4
ATOM      4  N   UNL     1      -3.165  22.030  30.458  1.00  0.00    -0.350 N 
ATOM      5  H   UNL     1      -4.054  22.539  30.663  1.00  0.00     0.345 HD
ATOM      6  H   UNL     1      -3.151  21.153  31.027  1.00  0.00     0.345 HD
ATOM      7  H   UNL     1      -3.149  21.760  29.448  1.00  0.00     0.345 HD
ENDBRANCH   3   4
BRANCH   3   8
ATOM      8  C   UNL     1      -2.395  24.174  31.367  1.00  0.00     0.099 C 
ATOM      9  O   UNL     1      -3.547  24.630  31.143  1.00  0.00    -0.544 OA
ATOM     10  O   UNL     1      -1.524  24.890  32.181  1.00  0.00    -0.544 OA
ENDBRANCH   3   8
ENDBRANCH   1   3
BRANCH   1  11
ATOM     11  C   UNL     1       0.475  22.932  29.953  1.00  0.00     0.006 C 
ATOM     12  C   UNL     1       1.145  24.307  29.971  1.00  0.00     0.004 C 
ENDBRANCH   1  11
TORSDOF 4
ENDMDL
MODEL 5
REMARK VINA RESULT:    -3.666      2.807      3.999
REMARK INTER + INTRA:          -4.526
REMARK INTER:                  -4.452
REMARK INTRA:                  -0.074
REMARK UNBOUND:                -0.109
REMARK SMILES CC[C@@H](C)[C@H]([NH3+])C(=O)[O-]
REMARK SMILES IDX 3 1 4 2 5 3 6 4 7 8 8 9 9 10 2 11 1 12
REMARK H PARENT 6 5 6 6 6 7
REMARK Flexibility Score: inf
ROOT
ATOM      1  C   UNL     1       0.619  25.231  29.996  1.00  0.00     0.050 C 
ATOM      2  C   UNL     1       0.859  25.788  28.580  1.00  0.00     0.014 C 
ENDROOT
BRANCH   1   3
ATOM      3  C   UNL     1       0.245  23.716  29.928  1.00  0.00     0.230 C 
BRANCH   3   4
ATOM      4  N   UNL     1       0.420  23.167  28.575  1.00  0.00    -0.350 N 
ATOM      5  H   UNL     1       1.384  23.336  28.209  1.00  0.00     0.345 HD
ATOM      6  H   UNL     1      -0.261  23.623  27.925  1.00  0.00     0.345 HD
ATOM      7  H   UNL     1       0.228  22.139  28.575  1.00  0.00     0.345 HD
ENDBRANCH   3   4
BRANCH   3   8
ATOM      8  C   UNL     1      -1.149  23.440  30.440  1.00  0.00     0.099 C 
ATOM      9  O   UNL     1      -1.782  24.338  31.056  1.00  0.00    -0.544 OA
ATOM     10  O   UNL     1      -1.758  22.212  30.208  1.00  0.00    -0.544 OA
ENDBRANCH   3   8
ENDBRANCH   1   3
BRANCH   1  11
ATOM     11  C   UNL     1       1.831  25.517  30.922  1.00  0.00     0.006 C 
ATOM     12  C   UNL     1       2.297  26.973  30.859  1.00  0.00     0.004 C 
ENDBRANCH   1  11
TORSDOF 4
ENDMDL
MODEL 6
REMARK VINA RESULT:    -3.660      4.132      4.917
REMARK INTER + INTRA:          -4.518
REMARK INTER:                  -4.490
REMARK INTRA:                  -0.028
REMARK UNBOUND:                -0.109
REMARK SMILES CC[C@@H](C)[C@H]([NH3+])C(=O)[O-]
REMARK SMILES IDX 3 1 4 2 5 3 6 4 7 8 8 9 9 10 2 11 1 12
REMARK H PARENT 6 5 6 6 6 7
REMARK Flexibility Score: inf
ROOT
ATOM      1  C   UNL     1       1.329  25.282  29.575  1.00  0.00     0.050 C 
ATOM      2  C   UNL     1       0.729  26.194  28.488  1.00  0.00     0.014 C 
ENDROOT
BRANCH   1   3
ATOM      3  C   UNL     1       1.922  26.139  30.737  1.00  0.00     0.230 C 
BRANCH   3   4
ATOM      4  N   UNL     1       2.305  25.311  31.891  1.00  0.00    -0.350 N 
ATOM      5  H   UNL     1       1.559  24.623  32.139  1.00  0.00     0.345 HD
ATOM      6  H   UNL     1       2.471  25.927  32.720  1.00  0.00     0.345 HD
ATOM      7  H   UNL     1       3.192  24.797  31.687  1.00  0.00     0.345 HD
ENDBRANCH   3   4
BRANCH   3   8
ATOM      8  C   UNL     1       0.999  27.255  31.164  1.00  0.00     0.099 C 
ATOM      9  O   UNL     1      -0.029  26.996  31.844  1.00  0.00    -0.544 OA
ATOM     10  O   UNL     1       1.288  28.576  30.841  1.00  0.00    -0.544 OA
ENDBRANCH   3   8
ENDBRANCH   1   3
BRANCH   1  11
ATOM     11  C   UNL     1       0.292  24.234  30.059  1.00  0.00     0.006 C 
ATOM     12  C   UNL     1       0.692  22.798  29.716  1.00  0.00     0.004 C 
ENDBRANCH   1  11
TORSDOF 4
ENDMDL
MODEL 7
REMARK VINA RESULT:    -3.620      4.001      4.683
REMARK INTER + INTRA:          -4.470
REMARK INTER:                  -4.397
REMARK INTRA:                  -0.073
REMARK UNBOUND:                -0.109
REMARK SMILES CC[C@@H](C)[C@H]([NH3+])C(=O)[O-]
REMARK SMILES IDX 3 1 4 2 5 3 6 4 7 8 8 9 9 10 2 11 1 12
REMARK H PARENT 6 5 6 6 6 7
REMARK Flexibility Score: inf
ROOT
ATOM      1  C   UNL     1       0.306  24.459  29.778  1.00  0.00     0.050 C 
ATOM      2  C   UNL     1      -0.793  24.796  30.804  1.00  0.00     0.014 C 
ENDROOT
BRANCH   1   3
ATOM      3  C   UNL     1       1.620  25.234  30.114  1.00  0.00     0.230 C 
BRANCH   3   4
ATOM      4  N   UNL     1       1.915  25.217  31.555  1.00  0.00    -0.350 N 
ATOM      5  H   UNL     1       1.284  24.564  32.072  1.00  0.00     0.345 HD
ATOM      6  H   UNL     1       1.785  26.177  31.948  1.00  0.00     0.345 HD
ATOM      7  H   UNL     1       2.909  24.934  31.716  1.00  0.00     0.345 HD
ENDBRANCH   3   4
BRANCH   3   8
ATOM      8  C   UNL     1       1.607  26.650  29.589  1.00  0.00     0.099 C 
ATOM      9  O   UNL     1       2.013  27.595  30.317  1.00  0.00    -0.544 OA
ATOM     10  O   UNL     1       1.182  26.921  28.293  1.00  0.00    -0.544 OA
ENDBRANCH   3   8
ENDBRANCH   1   3
BRANCH   1  11
ATOM     11  C   UNL     1       0.516  22.926  29.668  1.00  0.00     0.006 C 
ATOM     12  C   UNL     1      -0.795  22.157  29.488  1.00  0.00     0.004 C 
ENDBRANCH   1  11
TORSDOF 4
ENDMDL
MODEL 8
REMARK VINA RESULT:    -3.618      4.304      5.209
REMARK INTER + INTRA:          -4.468
REMARK INTER:                  -4.370
REMARK INTRA:                  -0.098
REMARK UNBOUND:                -0.109
REMARK SMILES CC[C@@H](C)[C@H]([NH3+])C(=O)[O-]
REMARK SMILES IDX 3 1 4 2 5 3 6 4 7 8 8 9 9 10 2 11 1 12
REMARK H PARENT 6 5 6 6 6 7
REMARK Flexibility Score: inf
ROOT
ATOM      1  C   UNL     1       1.601  25.857  30.000  1.00  0.00     0.050 C 
ATOM      2  C   UNL     1       1.203  26.537  28.676  1.00  0.00     0.014 C 
ENDROOT
BRANCH   1   3
ATOM      3  C   UNL     1       1.798  26.926  31.122  1.00  0.00     0.230 C 
BRANCH   3   4
ATOM      4  N   UNL     1       2.874  27.873  30.795  1.00  0.00    -0.350 N 
ATOM      5  H   UNL     1       3.547  27.985  31.587  1.00  0.00     0.345 HD
ATOM      6  H   UNL     1       2.460  28.810  30.583  1.00  0.00     0.345 HD
ATOM      7  H   UNL     1       3.394  27.551  29.947  1.00  0.00     0.345 HD
ENDBRANCH   3   4
BRANCH   3   8
ATOM      8  C   UNL     1       2.027  26.304  32.479  1.00  0.00     0.099 C 
ATOM      9  O   UNL     1       3.082  25.654  32.703  1.00  0.00    -0.544 OA
ATOM     10  O   UNL     1       1.099  26.472  33.500  1.00  0.00    -0.544 OA
ENDBRANCH   3   8
ENDBRANCH   1   3
BRANCH   1  11
ATOM     11  C   UNL     1       0.586  24.750  30.386  1.00  0.00     0.006 C 
ATOM     12  C   UNL     1       0.774  23.463  29.580  1.00  0.00     0.004 C 
ENDBRANCH   1  11
TORSDOF 4
ENDMDL
MODEL 9
REMARK VINA RESULT:    -3.568      5.335      6.358
REMARK INTER + INTRA:          -4.408
REMARK INTER:                  -4.315
REMARK INTRA:                  -0.093
REMARK UNBOUND:                -0.109
REMARK SMILES CC[C@@H](C)[C@H]([NH3+])C(=O)[O-]
REMARK SMILES IDX 3 1 4 2 5 3 6 4 7 8 8 9 9 10 2 11 1 12
REMARK H PARENT 6 5 6 6 6 7
REMARK Flexibility Score: inf
ROOT
ATOM      1  C   UNL     1       1.577  25.740  29.754  1.00  0.00     0.050 C 
ATOM      2  C   UNL     1       1.020  24.319  29.967  1.00  0.00     0.014 C 
ENDROOT
BRANCH   1   3
ATOM      3  C   UNL     1       0.761  26.483  28.649  1.00  0.00     0.230 C 
BRANCH   3   4
ATOM      4  N   UNL     1       0.830  25.788  27.355  1.00  0.00    -0.350 N 
ATOM      5  H   UNL     1       1.795  25.806  26.955  1.00  0.00     0.345 HD
ATOM      6  H   UNL     1       0.186  26.255  26.676  1.00  0.00     0.345 HD
ATOM      7  H   UNL     1       0.520  24.795  27.462  1.00  0.00     0.345 HD
ENDBRANCH   3   4
BRANCH   3   8
ATOM      8  C   UNL     1       1.171  27.929  28.501  1.00  0.00     0.099 C 
ATOM      9  O   UNL     1       2.280  28.219  27.979  1.00  0.00    -0.544 OA
ATOM     10  O   UNL     1       0.319  28.951  28.905  1.00  0.00    -0.544 OA
ENDBRANCH   3   8
ENDBRANCH   1   3
BRANCH   1  11
ATOM     11  C   UNL     1       1.641  26.521  31.092  1.00  0.00     0.006 C 
ATOM     12  C   UNL     1       2.709  25.981  32.046  1.00  0.00     0.004 C 
ENDBRANCH   1  11
TORSDOF 4
ENDMDL
