MODEL 1
REMARK VINA RESULT:    -5.180      0.000      0.000
REMARK INTER + INTRA:         -12.364
REMARK INTER:                  -8.662
REMARK INTRA:                  -3.702
REMARK UNBOUND:                -3.702
REMARK SMILES COc1cc(-c2oc3cc(O)cc(O)c3c(=O)c2O[C@@H]2O[C@@H](CO[C@H]3O[C@@H](C)[C@@H](O)[C@@H](O)[C@H]3O)[C@@H](O)[C@@H](O)[C@@H]2O)ccc1O
REMARK SMILES IDX 22 1 35 2 37 3 39 4 20 5 21 6 23 7 24 8 25 9 28 10 27 11
REMARK SMILES IDX 29 12 26 13 31 14 33 15 30 16 32 18 34 20 36 22 38 24 19 26
REMARK SMILES IDX 18 27 6 28 16 29 7 30 15 31 17 32 8 33 13 34 9 35 12 36
REMARK SMILES IDX 10 37 5 38 4 39 41 40 3 41 42 42 43 43 2 44 1 45 44 46 14 48
REMARK SMILES IDX 11 50 40 52
REMARK H PARENT 30 17 32 19 34 21 36 23 38 25 44 47 14 49 11 51 40 53
REMARK Flexibility Score: inf
ROOT
ATOM      1  C   UNL     1      68.318   1.118  34.016  1.00  0.00     0.180 C 
ATOM      2  C   UNL     1      68.457   2.525  33.393  1.00  0.00     0.177 C 
ATOM      3  C   UNL     1      67.215   3.358  33.748  1.00  0.00     0.180 C 
ATOM      4  C   UNL     1      65.937   2.595  33.355  1.00  0.00     0.214 C 
ATOM      5  C   UNL     1      65.971   1.158  33.922  1.00  0.00     0.339 C 
ATOM      6  O   UNL     1      67.150   0.471  33.534  1.00  0.00    -0.332 OA
ENDROOT
BRANCH   1   7
ATOM      7  C   UNL     1      69.531   0.232  33.689  1.00  0.00     0.198 C 
BRANCH   7   8
ATOM      8  O   UNL     1      70.700   0.712  34.330  1.00  0.00    -0.347 OA
BRANCH   8   9
ATOM      9  C   UNL     1      71.831   0.619  33.481  1.00  0.00     0.281 C 
ATOM     10  C   UNL     1      71.704   3.395  34.908  1.00  0.00     0.041 C 
ATOM     11  C   UNL     1      72.792   2.740  34.039  1.00  0.00     0.150 C 
ATOM     12  C   UNL     1      73.944   2.070  34.838  1.00  0.00     0.174 C 
ATOM     13  O   UNL     1      72.247   1.903  33.022  1.00  0.00    -0.344 OA
ATOM     14  C   UNL     1      73.569   0.670  35.342  1.00  0.00     0.179 C 
ATOM     15  C   UNL     1      72.983  -0.140  34.174  1.00  0.00     0.202 C 
BRANCH  12  16
ATOM     16  O   UNL     1      74.348   2.871  35.919  1.00  0.00    -0.388 OA
ATOM     17  H   UNL     1      75.296   2.643  36.105  1.00  0.00     0.211 HD
ENDBRANCH  12  16
BRANCH  14  18
ATOM     18  O   UNL     1      72.658   0.764  36.408  1.00  0.00    -0.387 OA
ATOM     19  H   UNL     1      72.969   1.503  36.992  1.00  0.00     0.211 HD
ENDBRANCH  14  18
BRANCH  15  20
ATOM     20  O   UNL     1      72.594  -1.428  34.582  1.00  0.00    -0.385 OA
ATOM     21  H   UNL     1      73.060  -1.641  35.431  1.00  0.00     0.211 HD
ENDBRANCH  15  20
ENDBRANCH   8   9
ENDBRANCH   7   8
ENDBRANCH   1   7
BRANCH   2  22
ATOM     22  O   UNL     1      68.590   2.417  31.997  1.00  0.00    -0.387 OA
ATOM     23  H   UNL     1      69.128   1.604  31.818  1.00  0.00     0.211 HD
ENDBRANCH   2  22
BRANCH   3  24
ATOM     24  O   UNL     1      67.268   4.595  33.084  1.00  0.00    -0.387 OA
ATOM     25  H   UNL     1      68.145   5.004  33.306  1.00  0.00     0.211 HD
ENDBRANCH   3  24
BRANCH   5  26
ATOM     26  O   UNL     1      65.841   1.173  35.349  1.00  0.00    -0.454 OA
BRANCH  26  27
ATOM     27  C   UNL     1      65.019   0.290  36.062  1.00  0.00     0.214 A 
ATOM     28  C   UNL     1      65.591  -0.741  36.830  1.00  0.00     0.180 A 
ATOM     29  C   UNL     1      63.621   0.414  36.029  1.00  0.00     0.239 A 
ATOM     30  O   UNL     1      64.811  -1.539  37.553  1.00  0.00    -0.452 OA
ATOM     31  C   UNL     1      62.826  -0.454  36.804  1.00  0.00     0.111 A 
ATOM     32  O   UNL     1      63.094   1.291  35.292  1.00  0.00    -0.285 OA
ATOM     33  C   UNL     1      63.487  -1.439  37.575  1.00  0.00     0.146 A 
ATOM     34  C   UNL     1      61.413  -0.381  36.844  1.00  0.00     0.134 A 
ATOM     35  C   UNL     1      62.751  -2.324  38.369  1.00  0.00     0.094 A 
ATOM     36  C   UNL     1      60.692  -1.280  37.646  1.00  0.00     0.093 A 
ATOM     37  C   UNL     1      61.355  -2.246  38.406  1.00  0.00     0.123 A 
BRANCH  28  38
ATOM     38  C   UNL     1      67.056  -0.946  36.895  1.00  0.00     0.025 A 
ATOM     39  C   UNL     1      67.894  -0.033  37.558  1.00  0.00     0.062 A 
ATOM     40  C   UNL     1      67.624  -2.059  36.260  1.00  0.00     0.016 A 
ATOM     41  C   UNL     1      69.284  -0.256  37.633  1.00  0.00     0.161 A 
ATOM     42  C   UNL     1      69.000  -2.281  36.320  1.00  0.00     0.051 A 
ATOM     43  C   UNL     1      69.831  -1.390  37.007  1.00  0.00     0.157 A 
BRANCH  41  44
ATOM     44  O   UNL     1      70.140   0.622  38.316  1.00  0.00    -0.493 OA
ATOM     45  C   UNL     1      69.993   2.037  38.342  1.00  0.00     0.278 C 
ENDBRANCH  41  44
BRANCH  43  46
ATOM     46  O   UNL     1      71.200  -1.651  37.057  1.00  0.00    -0.504 OA
ATOM     47  H   UNL     1      71.656  -2.274  36.401  1.00  0.00     0.293 HD
ENDBRANCH  43  46
ENDBRANCH  28  38
BRANCH  34  48
ATOM     48  O   UNL     1      60.722   0.576  36.099  1.00  0.00    -0.507 OA
ATOM     49  H   UNL     1      60.361   0.371  35.174  1.00  0.00     0.293 HD
ENDBRANCH  34  48
BRANCH  37  50
ATOM     50  O   UNL     1      60.616  -3.124  39.195  1.00  0.00    -0.508 OA
ATOM     51  H   UNL     1      60.211  -3.970  38.810  1.00  0.00     0.293 HD
ENDBRANCH  37  50
ENDBRANCH  26  27
ENDBRANCH   5  26
BRANCH   4  52
ATOM     52  O   UNL     1      64.813   3.283  33.839  1.00  0.00    -0.384 OA
ATOM     53  H   UNL     1      64.409   2.713  34.542  1.00  0.00     0.211 HD
ENDBRANCH   4  52
TORSDOF 16
ENDMDL
MODEL 2
REMARK VINA RESULT:    -5.165      3.029      7.052
REMARK INTER + INTRA:         -12.340
REMARK INTER:                  -8.840
REMARK INTRA:                  -3.500
REMARK UNBOUND:                -3.702
REMARK SMILES COc1cc(-c2oc3cc(O)cc(O)c3c(=O)c2O[C@@H]2O[C@@H](CO[C@H]3O[C@@H](C)[C@@H](O)[C@@H](O)[C@H]3O)[C@@H](O)[C@@H](O)[C@@H]2O)ccc1O
REMARK SMILES IDX 22 1 35 2 37 3 39 4 20 5 21 6 23 7 24 8 25 9 28 10 27 11
REMARK SMILES IDX 29 12 26 13 31 14 33 15 30 16 32 18 34 20 36 22 38 24 19 26
REMARK SMILES IDX 18 27 6 28 16 29 7 30 15 31 17 32 8 33 13 34 9 35 12 36
REMARK SMILES IDX 10 37 5 38 4 39 41 40 3 41 42 42 43 43 2 44 1 45 44 46 14 48
REMARK SMILES IDX 11 50 40 52
REMARK H PARENT 30 17 32 19 34 21 36 23 38 25 44 47 14 49 11 51 40 53
REMARK Flexibility Score: inf
ROOT
ATOM      1  C   UNL     1      71.029   0.526  35.239  1.00  0.00     0.180 C 
ATOM      2  C   UNL     1      72.268   1.300  34.737  1.00  0.00     0.177 C 
ATOM      3  C   UNL     1      73.248   1.493  35.904  1.00  0.00     0.180 C 
ATOM      4  C   UNL     1      72.523   2.130  37.104  1.00  0.00     0.214 C 
ATOM      5  C   UNL     1      71.230   1.349  37.429  1.00  0.00     0.339 C 
ATOM      6  O   UNL     1      70.391   1.232  36.292  1.00  0.00    -0.332 OA
ENDROOT
BRANCH   1   7
ATOM      7  C   UNL     1      70.004   0.308  34.113  1.00  0.00     0.198 C 
BRANCH   7   8
ATOM      8  O   UNL     1      69.009   1.318  34.127  1.00  0.00    -0.347 OA
BRANCH   8   9
ATOM      9  C   UNL     1      68.296   1.359  32.903  1.00  0.00     0.281 C 
ATOM     10  C   UNL     1      66.703   2.757  35.198  1.00  0.00     0.041 C 
ATOM     11  C   UNL     1      66.456   2.679  33.681  1.00  0.00     0.150 C 
ATOM     12  C   UNL     1      66.937   3.921  32.881  1.00  0.00     0.174 C 
ATOM     13  O   UNL     1      66.890   1.442  33.121  1.00  0.00    -0.344 OA
ATOM     14  C   UNL     1      68.444   3.882  32.591  1.00  0.00     0.179 C 
ATOM     15  C   UNL     1      68.803   2.508  32.005  1.00  0.00     0.202 C 
BRANCH  12  16
ATOM     16  O   UNL     1      66.613   5.114  33.548  1.00  0.00    -0.388 OA
ATOM     17  H   UNL     1      67.134   5.119  34.393  1.00  0.00     0.211 HD
ENDBRANCH  12  16
BRANCH  14  18
ATOM     18  O   UNL     1      69.172   4.145  33.764  1.00  0.00    -0.387 OA
ATOM     19  H   UNL     1      68.528   4.123  34.518  1.00  0.00     0.211 HD
ENDBRANCH  14  18
BRANCH  15  20
ATOM     20  O   UNL     1      70.181   2.402  31.743  1.00  0.00    -0.385 OA
ATOM     21  H   UNL     1      70.397   2.978  30.966  1.00  0.00     0.211 HD
ENDBRANCH  15  20
ENDBRANCH   8   9
ENDBRANCH   7   8
ENDBRANCH   1   7
BRANCH   2  22
ATOM     22  O   UNL     1      71.873   2.548  34.220  1.00  0.00    -0.387 OA
ATOM     23  H   UNL     1      71.045   2.811  34.697  1.00  0.00     0.211 HD
ENDBRANCH   2  22
BRANCH   3  24
ATOM     24  O   UNL     1      74.320   2.303  35.495  1.00  0.00    -0.387 OA
ATOM     25  H   UNL     1      74.779   2.614  36.319  1.00  0.00     0.211 HD
ENDBRANCH   3  24
BRANCH   5  26
ATOM     26  O   UNL     1      71.540   0.057  37.965  1.00  0.00    -0.454 OA
BRANCH  26  27
ATOM     27  C   UNL     1      71.061  -0.407  39.197  1.00  0.00     0.214 A 
ATOM     28  C   UNL     1      69.767  -0.952  39.291  1.00  0.00     0.180 A 
ATOM     29  C   UNL     1      71.854  -0.341  40.355  1.00  0.00     0.239 A 
ATOM     30  O   UNL     1      69.339  -1.446  40.449  1.00  0.00    -0.452 OA
ATOM     31  C   UNL     1      71.364  -0.869  41.566  1.00  0.00     0.111 A 
ATOM     32  O   UNL     1      72.989   0.207  40.298  1.00  0.00    -0.285 OA
ATOM     33  C   UNL     1      70.065  -1.432  41.561  1.00  0.00     0.146 A 
ATOM     34  C   UNL     1      72.108  -0.862  42.770  1.00  0.00     0.134 A 
ATOM     35  C   UNL     1      69.529  -1.977  42.731  1.00  0.00     0.094 A 
ATOM     36  C   UNL     1      71.551  -1.413  43.935  1.00  0.00     0.093 A 
ATOM     37  C   UNL     1      70.269  -1.969  43.918  1.00  0.00     0.123 A 
BRANCH  28  38
ATOM     38  C   UNL     1      68.867  -1.034  38.119  1.00  0.00     0.025 A 
ATOM     39  C   UNL     1      69.023  -2.036  37.145  1.00  0.00     0.062 A 
ATOM     40  C   UNL     1      67.855  -0.078  37.959  1.00  0.00     0.016 A 
ATOM     41  C   UNL     1      68.142  -2.116  36.048  1.00  0.00     0.161 A 
ATOM     42  C   UNL     1      66.985  -0.144  36.870  1.00  0.00     0.051 A 
ATOM     43  C   UNL     1      67.119  -1.159  35.918  1.00  0.00     0.157 A 
BRANCH  41  44
ATOM     44  O   UNL     1      68.254  -3.125  35.079  1.00  0.00    -0.493 OA
ATOM     45  C   UNL     1      69.137  -3.079  33.963  1.00  0.00     0.278 C 
ENDBRANCH  41  44
BRANCH  43  46
ATOM     46  O   UNL     1      66.225  -1.201  34.849  1.00  0.00    -0.504 OA
ATOM     47  H   UNL     1      65.438  -1.839  34.828  1.00  0.00     0.293 HD
ENDBRANCH  43  46
ENDBRANCH  28  38
BRANCH  34  48
ATOM     48  O   UNL     1      73.392  -0.317  42.818  1.00  0.00    -0.507 OA
ATOM     49  H   UNL     1      74.212  -0.865  42.585  1.00  0.00     0.293 HD
ENDBRANCH  34  48
BRANCH  37  50
ATOM     50  O   UNL     1      69.741  -2.512  45.087  1.00  0.00    -0.508 OA
ATOM     51  H   UNL     1      69.223  -1.944  45.748  1.00  0.00     0.293 HD
ENDBRANCH  37  50
ENDBRANCH  26  27
ENDBRANCH   5  26
BRANCH   4  52
ATOM     52  O   UNL     1      73.379   2.141  38.216  1.00  0.00    -0.384 OA
ATOM     53  H   UNL     1      72.806   2.035  39.019  1.00  0.00     0.211 HD
ENDBRANCH   4  52
TORSDOF 16
ENDMDL
MODEL 3
REMARK VINA RESULT:    -5.088      3.488      8.945
REMARK INTER + INTRA:         -12.211
REMARK INTER:                  -8.558
REMARK INTRA:                  -3.652
REMARK UNBOUND:                -3.702
REMARK SMILES COc1cc(-c2oc3cc(O)cc(O)c3c(=O)c2O[C@@H]2O[C@@H](CO[C@H]3O[C@@H](C)[C@@H](O)[C@@H](O)[C@H]3O)[C@@H](O)[C@@H](O)[C@@H]2O)ccc1O
REMARK SMILES IDX 22 1 35 2 37 3 39 4 20 5 21 6 23 7 24 8 25 9 28 10 27 11
REMARK SMILES IDX 29 12 26 13 31 14 33 15 30 16 32 18 34 20 36 22 38 24 19 26
REMARK SMILES IDX 18 27 6 28 16 29 7 30 15 31 17 32 8 33 13 34 9 35 12 36
REMARK SMILES IDX 10 37 5 38 4 39 41 40 3 41 42 42 43 43 2 44 1 45 44 46 14 48
REMARK SMILES IDX 11 50 40 52
REMARK H PARENT 30 17 32 19 34 21 36 23 38 25 44 47 14 49 11 51 40 53
REMARK Flexibility Score: inf
ROOT
ATOM      1  C   UNL     1      70.726   0.422  35.488  1.00  0.00     0.180 C 
ATOM      2  C   UNL     1      70.796  -0.289  36.858  1.00  0.00     0.177 C 
ATOM      3  C   UNL     1      71.432   0.660  37.886  1.00  0.00     0.180 C 
ATOM      4  C   UNL     1      72.778   1.187  37.357  1.00  0.00     0.214 C 
ATOM      5  C   UNL     1      72.611   1.753  35.929  1.00  0.00     0.339 C 
ATOM      6  O   UNL     1      72.024   0.801  35.056  1.00  0.00    -0.332 OA
ENDROOT
BRANCH   1   7
ATOM      7  C   UNL     1      70.104  -0.483  34.413  1.00  0.00     0.198 C 
BRANCH   7   8
ATOM      8  O   UNL     1      70.924  -0.539  33.258  1.00  0.00    -0.347 OA
BRANCH   8   9
ATOM      9  C   UNL     1      71.353  -1.864  32.992  1.00  0.00     0.281 C 
ATOM     10  C   UNL     1      71.192  -0.171  30.372  1.00  0.00     0.041 C 
ATOM     11  C   UNL     1      71.750  -1.578  30.648  1.00  0.00     0.150 C 
ATOM     12  C   UNL     1      73.290  -1.638  30.846  1.00  0.00     0.174 C 
ATOM     13  O   UNL     1      71.022  -2.262  31.664  1.00  0.00    -0.344 OA
ATOM     14  C   UNL     1      73.713  -1.241  32.266  1.00  0.00     0.179 C 
ATOM     15  C   UNL     1      72.861  -2.025  33.277  1.00  0.00     0.202 C 
BRANCH  12  16
ATOM     16  O   UNL     1      73.956  -0.829  29.909  1.00  0.00    -0.388 OA
ATOM     17  H   UNL     1      73.627  -1.101  29.013  1.00  0.00     0.211 HD
ENDBRANCH  12  16
BRANCH  14  18
ATOM     18  O   UNL     1      73.574   0.146  32.446  1.00  0.00    -0.387 OA
ATOM     19  H   UNL     1      74.209   0.586  31.823  1.00  0.00     0.211 HD
ENDBRANCH  14  18
BRANCH  15  20
ATOM     20  O   UNL     1      73.186  -1.683  34.602  1.00  0.00    -0.385 OA
ATOM     21  H   UNL     1      73.480  -2.504  35.074  1.00  0.00     0.211 HD
ENDBRANCH  15  20
ENDBRANCH   8   9
ENDBRANCH   7   8
ENDBRANCH   1   7
BRANCH   2  22
ATOM     22  O   UNL     1      71.556  -1.468  36.746  1.00  0.00    -0.387 OA
ATOM     23  H   UNL     1      70.919  -2.209  36.579  1.00  0.00     0.211 HD
ENDBRANCH   2  22
BRANCH   3  24
ATOM     24  O   UNL     1      71.617  -0.016  39.104  1.00  0.00    -0.387 OA
ATOM     25  H   UNL     1      72.083  -0.867  38.894  1.00  0.00     0.211 HD
ENDBRANCH   3  24
BRANCH   5  26
ATOM     26  O   UNL     1      71.843   2.963  35.949  1.00  0.00    -0.454 OA
BRANCH  26  27
ATOM     27  C   UNL     1      72.188   4.112  35.226  1.00  0.00     0.214 A 
ATOM     28  C   UNL     1      71.426   4.497  34.108  1.00  0.00     0.180 A 
ATOM     29  C   UNL     1      73.289   4.900  35.599  1.00  0.00     0.239 A 
ATOM     30  O   UNL     1      71.720   5.621  33.460  1.00  0.00    -0.452 OA
ATOM     31  C   UNL     1      73.574   6.081  34.885  1.00  0.00     0.111 A 
ATOM     32  O   UNL     1      74.020   4.529  36.558  1.00  0.00    -0.285 OA
ATOM     33  C   UNL     1      72.733   6.411  33.796  1.00  0.00     0.146 A 
ATOM     34  C   UNL     1      74.650   6.942  35.210  1.00  0.00     0.134 A 
ATOM     35  C   UNL     1      72.963   7.574  33.055  1.00  0.00     0.094 A 
ATOM     36  C   UNL     1      74.865   8.104  34.454  1.00  0.00     0.093 A 
ATOM     37  C   UNL     1      74.026   8.422  33.382  1.00  0.00     0.123 A 
BRANCH  28  38
ATOM     38  C   UNL     1      70.265   3.704  33.643  1.00  0.00     0.025 A 
ATOM     39  C   UNL     1      69.102   3.583  34.423  1.00  0.00     0.062 A 
ATOM     40  C   UNL     1      70.335   3.036  32.412  1.00  0.00     0.016 A 
ATOM     41  C   UNL     1      67.996   2.846  33.955  1.00  0.00     0.161 A 
ATOM     42  C   UNL     1      69.248   2.296  31.947  1.00  0.00     0.051 A 
ATOM     43  C   UNL     1      68.079   2.201  32.708  1.00  0.00     0.157 A 
BRANCH  41  44
ATOM     44  O   UNL     1      66.810   2.735  34.699  1.00  0.00    -0.493 OA
ATOM     45  C   UNL     1      66.553   1.721  35.663  1.00  0.00     0.278 C 
ENDBRANCH  41  44
BRANCH  43  46
ATOM     46  O   UNL     1      67.008   1.462  32.206  1.00  0.00    -0.504 OA
ATOM     47  H   UNL     1      66.757   1.473  31.225  1.00  0.00     0.293 HD
ENDBRANCH  43  46
ENDBRANCH  28  38
BRANCH  34  48
ATOM     48  O   UNL     1      75.503   6.653  36.277  1.00  0.00    -0.507 OA
ATOM     49  H   UNL     1      75.341   5.862  36.889  1.00  0.00     0.293 HD
ENDBRANCH  34  48
BRANCH  37  50
ATOM     50  O   UNL     1      74.259   9.583  32.649  1.00  0.00    -0.508 OA
ATOM     51  H   UNL     1      74.198   9.592  31.637  1.00  0.00     0.293 HD
ENDBRANCH  37  50
ENDBRANCH  26  27
ENDBRANCH   5  26
BRANCH   4  52
ATOM     52  O   UNL     1      73.264   2.181  38.221  1.00  0.00    -0.384 OA
ATOM     53  H   UNL     1      74.250   2.195  38.115  1.00  0.00     0.211 HD
ENDBRANCH   4  52
TORSDOF 16
ENDMDL
MODEL 4
REMARK VINA RESULT:    -5.081      3.073      9.094
REMARK INTER + INTRA:         -12.199
REMARK INTER:                  -8.571
REMARK INTRA:                  -3.628
REMARK UNBOUND:                -3.702
REMARK SMILES COc1cc(-c2oc3cc(O)cc(O)c3c(=O)c2O[C@@H]2O[C@@H](CO[C@H]3O[C@@H](C)[C@@H](O)[C@@H](O)[C@H]3O)[C@@H](O)[C@@H](O)[C@@H]2O)ccc1O
REMARK SMILES IDX 22 1 35 2 37 3 39 4 20 5 21 6 23 7 24 8 25 9 28 10 27 11
REMARK SMILES IDX 29 12 26 13 31 14 33 15 30 16 32 18 34 20 36 22 38 24 19 26
REMARK SMILES IDX 18 27 6 28 16 29 7 30 15 31 17 32 8 33 13 34 9 35 12 36
REMARK SMILES IDX 10 37 5 38 4 39 41 40 3 41 42 42 43 43 2 44 1 45 44 46 14 48
REMARK SMILES IDX 11 50 40 52
REMARK H PARENT 30 17 32 19 34 21 36 23 38 25 44 47 14 49 11 51 40 53
REMARK Flexibility Score: inf
ROOT
ATOM      1  C   UNL     1      70.620   1.546  33.091  1.00  0.00     0.180 C 
ATOM      2  C   UNL     1      69.878   1.706  31.745  1.00  0.00     0.177 C 
ATOM      3  C   UNL     1      70.275   3.046  31.108  1.00  0.00     0.180 C 
ATOM      4  C   UNL     1      70.058   4.194  32.111  1.00  0.00     0.214 C 
ATOM      5  C   UNL     1      70.731   3.863  33.461  1.00  0.00     0.339 C 
ATOM      6  O   UNL     1      70.295   2.612  33.970  1.00  0.00    -0.332 OA
ENDROOT
BRANCH   1   7
ATOM      7  C   UNL     1      70.257   0.223  33.784  1.00  0.00     0.198 C 
BRANCH   7   8
ATOM      8  O   UNL     1      69.432   0.448  34.914  1.00  0.00    -0.347 OA
BRANCH   8   9
ATOM      9  C   UNL     1      68.083   0.110  34.647  1.00  0.00     0.281 C 
ATOM     10  C   UNL     1      69.122  -1.307  37.229  1.00  0.00     0.041 C 
ATOM     11  C   UNL     1      67.715  -1.208  36.613  1.00  0.00     0.150 C 
ATOM     12  C   UNL     1      66.807  -0.115  37.242  1.00  0.00     0.174 C 
ATOM     13  O   UNL     1      67.747  -1.166  35.189  1.00  0.00    -0.344 OA
ATOM     14  C   UNL     1      67.101   1.284  36.683  1.00  0.00     0.179 C 
ATOM     15  C   UNL     1      67.125   1.212  35.148  1.00  0.00     0.202 C 
BRANCH  12  16
ATOM     16  O   UNL     1      66.923  -0.100  38.642  1.00  0.00    -0.388 OA
ATOM     17  H   UNL     1      66.006  -0.220  39.005  1.00  0.00     0.211 HD
ENDBRANCH  12  16
BRANCH  14  18
ATOM     18  O   UNL     1      68.321   1.765  37.191  1.00  0.00    -0.387 OA
ATOM     19  H   UNL     1      68.480   2.652  36.775  1.00  0.00     0.211 HD
ENDBRANCH  14  18
BRANCH  15  20
ATOM     20  O   UNL     1      67.418   2.463  34.576  1.00  0.00    -0.385 OA
ATOM     21  H   UNL     1      68.332   2.425  34.193  1.00  0.00     0.211 HD
ENDBRANCH  15  20
ENDBRANCH   8   9
ENDBRANCH   7   8
ENDBRANCH   1   7
BRANCH   2  22
ATOM     22  O   UNL     1      68.488   1.659  31.959  1.00  0.00    -0.387 OA
ATOM     23  H   UNL     1      68.067   1.452  31.085  1.00  0.00     0.211 HD
ENDBRANCH   2  22
BRANCH   3  24
ATOM     24  O   UNL     1      69.514   3.263  29.947  1.00  0.00    -0.387 OA
ATOM     25  H   UNL     1      68.669   2.752  30.056  1.00  0.00     0.211 HD
ENDBRANCH   3  24
BRANCH   5  26
ATOM     26  O   UNL     1      72.158   3.889  33.336  1.00  0.00    -0.454 OA
BRANCH  26  27
ATOM     27  C   UNL     1      72.996   4.651  34.161  1.00  0.00     0.214 A 
ATOM     28  C   UNL     1      73.565   4.076  35.312  1.00  0.00     0.180 A 
ATOM     29  C   UNL     1      73.285   5.992  33.861  1.00  0.00     0.239 A 
ATOM     30  O   UNL     1      74.406   4.784  36.060  1.00  0.00    -0.452 OA
ATOM     31  C   UNL     1      74.177   6.713  34.679  1.00  0.00     0.111 A 
ATOM     32  O   UNL     1      72.728   6.539  32.870  1.00  0.00    -0.285 OA
ATOM     33  C   UNL     1      74.732   6.044  35.797  1.00  0.00     0.146 A 
ATOM     34  C   UNL     1      74.538   8.059  34.432  1.00  0.00     0.134 A 
ATOM     35  C   UNL     1      75.628   6.707  36.641  1.00  0.00     0.094 A 
ATOM     36  C   UNL     1      75.438   8.707  35.293  1.00  0.00     0.093 A 
ATOM     37  C   UNL     1      75.983   8.036  36.391  1.00  0.00     0.123 A 
BRANCH  28  38
ATOM     38  C   UNL     1      73.287   2.675  35.705  1.00  0.00     0.025 A 
ATOM     39  C   UNL     1      73.849   1.594  35.004  1.00  0.00     0.062 A 
ATOM     40  C   UNL     1      72.426   2.419  36.781  1.00  0.00     0.016 A 
ATOM     41  C   UNL     1      73.596   0.267  35.405  1.00  0.00     0.161 A 
ATOM     42  C   UNL     1      72.162   1.108  37.178  1.00  0.00     0.051 A 
ATOM     43  C   UNL     1      72.746   0.032  36.500  1.00  0.00     0.157 A 
BRANCH  41  44
ATOM     44  O   UNL     1      74.169  -0.830  34.743  1.00  0.00    -0.493 OA
ATOM     45  C   UNL     1      73.947  -1.154  33.376  1.00  0.00     0.278 C 
ENDBRANCH  41  44
BRANCH  43  46
ATOM     46  O   UNL     1      72.469  -1.264  36.933  1.00  0.00    -0.504 OA
ATOM     47  H   UNL     1      71.522  -1.597  37.071  1.00  0.00     0.293 HD
ENDBRANCH  43  46
ENDBRANCH  28  38
BRANCH  34  48
ATOM     48  O   UNL     1      74.014   8.755  33.342  1.00  0.00    -0.507 OA
ATOM     49  H   UNL     1      73.375   9.532  33.464  1.00  0.00     0.293 HD
ENDBRANCH  34  48
BRANCH  37  50
ATOM     50  O   UNL     1      76.876   8.701  37.228  1.00  0.00    -0.508 OA
ATOM     51  H   UNL     1      77.262   8.255  38.052  1.00  0.00     0.293 HD
ENDBRANCH  37  50
ENDBRANCH  26  27
ENDBRANCH   5  26
BRANCH   4  52
ATOM     52  O   UNL     1      70.583   5.383  31.582  1.00  0.00    -0.384 OA
ATOM     53  H   UNL     1      71.019   5.147  30.723  1.00  0.00     0.211 HD
ENDBRANCH   4  52
TORSDOF 16
ENDMDL
MODEL 5
REMARK VINA RESULT:    -5.025      3.267      9.911
REMARK INTER + INTRA:         -12.105
REMARK INTER:                  -8.363
REMARK INTRA:                  -3.743
REMARK UNBOUND:                -3.702
REMARK SMILES COc1cc(-c2oc3cc(O)cc(O)c3c(=O)c2O[C@@H]2O[C@@H](CO[C@H]3O[C@@H](C)[C@@H](O)[C@@H](O)[C@H]3O)[C@@H](O)[C@@H](O)[C@@H]2O)ccc1O
REMARK SMILES IDX 22 1 35 2 37 3 39 4 20 5 21 6 23 7 24 8 25 9 28 10 27 11
REMARK SMILES IDX 29 12 26 13 31 14 33 15 30 16 32 18 34 20 36 22 38 24 19 26
REMARK SMILES IDX 18 27 6 28 16 29 7 30 15 31 17 32 8 33 13 34 9 35 12 36
REMARK SMILES IDX 10 37 5 38 4 39 41 40 3 41 42 42 43 43 2 44 1 45 44 46 14 48
REMARK SMILES IDX 11 50 40 52
REMARK H PARENT 30 17 32 19 34 21 36 23 38 25 44 47 14 49 11 51 40 53
REMARK Flexibility Score: inf
ROOT
ATOM      1  C   UNL     1      71.295   1.366  34.237  1.00  0.00     0.180 C 
ATOM      2  C   UNL     1      72.059   0.419  35.190  1.00  0.00     0.177 C 
ATOM      3  C   UNL     1      73.185   1.203  35.881  1.00  0.00     0.180 C 
ATOM      4  C   UNL     1      74.058   1.913  34.830  1.00  0.00     0.214 C 
ATOM      5  C   UNL     1      73.175   2.720  33.853  1.00  0.00     0.339 C 
ATOM      6  O   UNL     1      72.173   1.909  33.262  1.00  0.00    -0.332 OA
ENDROOT
BRANCH   1   7
ATOM      7  C   UNL     1      70.156   0.635  33.507  1.00  0.00     0.198 C 
BRANCH   7   8
ATOM      8  O   UNL     1      68.968   0.641  34.280  1.00  0.00    -0.347 OA
BRANCH   8   9
ATOM      9  C   UNL     1      68.179  -0.508  34.027  1.00  0.00     0.281 C 
ATOM     10  C   UNL     1      68.830  -0.222  37.068  1.00  0.00     0.041 C 
ATOM     11  C   UNL     1      67.891  -1.176  36.308  1.00  0.00     0.150 C 
ATOM     12  C   UNL     1      66.398  -0.747  36.302  1.00  0.00     0.174 C 
ATOM     13  O   UNL     1      68.388  -1.513  35.016  1.00  0.00    -0.344 OA
ATOM     14  C   UNL     1      66.099   0.320  35.240  1.00  0.00     0.179 C 
ATOM     15  C   UNL     1      66.686  -0.138  33.896  1.00  0.00     0.202 C 
BRANCH  12  16
ATOM     16  O   UNL     1      65.995  -0.283  37.566  1.00  0.00    -0.388 OA
ATOM     17  H   UNL     1      65.196   0.288  37.419  1.00  0.00     0.211 HD
ENDBRANCH  12  16
BRANCH  14  18
ATOM     18  O   UNL     1      66.629   1.561  35.634  1.00  0.00    -0.387 OA
ATOM     19  H   UNL     1      66.762   2.096  34.809  1.00  0.00     0.211 HD
ENDBRANCH  14  18
BRANCH  15  20
ATOM     20  O   UNL     1      66.468   0.815  32.885  1.00  0.00    -0.385 OA
ATOM     21  H   UNL     1      67.063   0.602  32.121  1.00  0.00     0.211 HD
ENDBRANCH  15  20
ENDBRANCH   8   9
ENDBRANCH   7   8
ENDBRANCH   1   7
BRANCH   2  22
ATOM     22  O   UNL     1      72.591  -0.662  34.463  1.00  0.00    -0.387 OA
ATOM     23  H   UNL     1      73.574  -0.533  34.428  1.00  0.00     0.211 HD
ENDBRANCH   2  22
BRANCH   3  24
ATOM     24  O   UNL     1      73.967   0.328  36.654  1.00  0.00    -0.387 OA
ATOM     25  H   UNL     1      74.659   0.879  37.104  1.00  0.00     0.211 HD
ENDBRANCH   3  24
BRANCH   5  26
ATOM     26  O   UNL     1      72.588   3.848  34.514  1.00  0.00    -0.454 OA
BRANCH  26  27
ATOM     27  C   UNL     1      72.720   5.167  34.060  1.00  0.00     0.214 A 
ATOM     28  C   UNL     1      71.792   5.693  33.142  1.00  0.00     0.180 A 
ATOM     29  C   UNL     1      73.768   5.987  34.509  1.00  0.00     0.239 A 
ATOM     30  O   UNL     1      71.886   6.964  32.760  1.00  0.00    -0.452 OA
ATOM     31  C   UNL     1      73.838   7.327  34.078  1.00  0.00     0.111 A 
ATOM     32  O   UNL     1      74.644   5.507  35.279  1.00  0.00    -0.285 OA
ATOM     33  C   UNL     1      72.842   7.783  33.182  1.00  0.00     0.146 A 
ATOM     34  C   UNL     1      74.849   8.224  34.500  1.00  0.00     0.134 A 
ATOM     35  C   UNL     1      72.857   9.104  32.725  1.00  0.00     0.094 A 
ATOM     36  C   UNL     1      74.846   9.546  34.029  1.00  0.00     0.093 A 
ATOM     37  C   UNL     1      73.856   9.987  33.147  1.00  0.00     0.123 A 
BRANCH  28  38
ATOM     38  C   UNL     1      70.675   4.882  32.609  1.00  0.00     0.025 A 
ATOM     39  C   UNL     1      69.543   4.593  33.390  1.00  0.00     0.062 A 
ATOM     40  C   UNL     1      70.757   4.367  31.308  1.00  0.00     0.016 A 
ATOM     41  C   UNL     1      68.476   3.840  32.860  1.00  0.00     0.161 A 
ATOM     42  C   UNL     1      69.710   3.612  30.779  1.00  0.00     0.051 A 
ATOM     43  C   UNL     1      68.569   3.351  31.544  1.00  0.00     0.157 A 
BRANCH  41  44
ATOM     44  O   UNL     1      67.320   3.564  33.606  1.00  0.00    -0.493 OA
ATOM     45  C   UNL     1      66.201   4.436  33.714  1.00  0.00     0.278 C 
ENDBRANCH  41  44
BRANCH  43  46
ATOM     46  O   UNL     1      67.537   2.603  30.979  1.00  0.00    -0.504 OA
ATOM     47  H   UNL     1      66.599   2.598  31.364  1.00  0.00     0.293 HD
ENDBRANCH  43  46
ENDBRANCH  28  38
BRANCH  34  48
ATOM     48  O   UNL     1      75.849   7.815  35.382  1.00  0.00    -0.507 OA
ATOM     49  H   UNL     1      76.033   8.312  36.246  1.00  0.00     0.293 HD
ENDBRANCH  34  48
BRANCH  37  50
ATOM     50  O   UNL     1      73.875  11.305  32.697  1.00  0.00    -0.508 OA
ATOM     51  H   UNL     1      73.218  11.994  33.044  1.00  0.00     0.293 HD
ENDBRANCH  37  50
ENDBRANCH  26  27
ENDBRANCH   5  26
BRANCH   4  52
ATOM     52  O   UNL     1      74.972   2.760  35.476  1.00  0.00    -0.384 OA
ATOM     53  H   UNL     1      75.239   3.450  34.814  1.00  0.00     0.211 HD
ENDBRANCH   4  52
TORSDOF 16
ENDMDL
MODEL 6
REMARK VINA RESULT:    -5.018      2.775      9.618
REMARK INTER + INTRA:         -12.093
REMARK INTER:                  -8.424
REMARK INTRA:                  -3.669
REMARK UNBOUND:                -3.702
REMARK SMILES COc1cc(-c2oc3cc(O)cc(O)c3c(=O)c2O[C@@H]2O[C@@H](CO[C@H]3O[C@@H](C)[C@@H](O)[C@@H](O)[C@H]3O)[C@@H](O)[C@@H](O)[C@@H]2O)ccc1O
REMARK SMILES IDX 22 1 35 2 37 3 39 4 20 5 21 6 23 7 24 8 25 9 28 10 27 11
REMARK SMILES IDX 29 12 26 13 31 14 33 15 30 16 32 18 34 20 36 22 38 24 19 26
REMARK SMILES IDX 18 27 6 28 16 29 7 30 15 31 17 32 8 33 13 34 9 35 12 36
REMARK SMILES IDX 10 37 5 38 4 39 41 40 3 41 42 42 43 43 2 44 1 45 44 46 14 48
REMARK SMILES IDX 11 50 40 52
REMARK H PARENT 30 17 32 19 34 21 36 23 38 25 44 47 14 49 11 51 40 53
REMARK Flexibility Score: inf
ROOT
ATOM      1  C   UNL     1      70.784   0.021  36.919  1.00  0.00     0.180 C 
ATOM      2  C   UNL     1      70.835  -0.689  38.291  1.00  0.00     0.177 C 
ATOM      3  C   UNL     1      71.695   0.142  39.256  1.00  0.00     0.180 C 
ATOM      4  C   UNL     1      73.067   0.435  38.623  1.00  0.00     0.214 C 
ATOM      5  C   UNL     1      72.892   1.017  37.203  1.00  0.00     0.339 C 
ATOM      6  O   UNL     1      72.092   0.176  36.388  1.00  0.00    -0.332 OA
ENDROOT
BRANCH   1   7
ATOM      7  C   UNL     1      69.942  -0.769  35.904  1.00  0.00     0.198 C 
BRANCH   7   8
ATOM      8  O   UNL     1      68.667  -0.175  35.727  1.00  0.00    -0.347 OA
BRANCH   8   9
ATOM      9  C   UNL     1      67.679  -1.146  35.430  1.00  0.00     0.281 C 
ATOM     10  C   UNL     1      67.138   0.223  38.185  1.00  0.00     0.041 C 
ATOM     11  C   UNL     1      66.295  -0.752  37.344  1.00  0.00     0.150 C 
ATOM     12  C   UNL     1      65.196  -0.076  36.478  1.00  0.00     0.174 C 
ATOM     13  O   UNL     1      67.097  -1.679  36.618  1.00  0.00    -0.344 OA
ATOM     14  C   UNL     1      65.753   0.499  35.169  1.00  0.00     0.179 C 
ATOM     15  C   UNL     1      66.608  -0.574  34.477  1.00  0.00     0.202 C 
BRANCH  12  16
ATOM     16  O   UNL     1      64.531   0.933  37.194  1.00  0.00    -0.388 OA
ATOM     17  H   UNL     1      63.670   1.095  36.726  1.00  0.00     0.211 HD
ENDBRANCH  12  16
BRANCH  14  18
ATOM     18  O   UNL     1      66.501   1.661  35.427  1.00  0.00    -0.387 OA
ATOM     19  H   UNL     1      65.896   2.435  35.285  1.00  0.00     0.211 HD
ENDBRANCH  14  18
BRANCH  15  20
ATOM     20  O   UNL     1      67.171  -0.095  33.281  1.00  0.00    -0.385 OA
ATOM     21  H   UNL     1      68.121   0.133  33.452  1.00  0.00     0.211 HD
ENDBRANCH  15  20
ENDBRANCH   8   9
ENDBRANCH   7   8
ENDBRANCH   1   7
BRANCH   2  22
ATOM     22  O   UNL     1      71.377  -1.979  38.141  1.00  0.00    -0.387 OA
ATOM     23  H   UNL     1      70.749  -2.494  37.572  1.00  0.00     0.211 HD
ENDBRANCH   2  22
BRANCH   3  24
ATOM     24  O   UNL     1      71.854  -0.552  40.466  1.00  0.00    -0.387 OA
ATOM     25  H   UNL     1      72.777  -0.918  40.471  1.00  0.00     0.211 HD
ENDBRANCH   3  24
BRANCH   5  26
ATOM     26  O   UNL     1      72.341   2.339  37.260  1.00  0.00    -0.454 OA
BRANCH  26  27
ATOM     27  C   UNL     1      72.963   3.463  36.703  1.00  0.00     0.214 A 
ATOM     28  C   UNL     1      72.786   3.764  35.340  1.00  0.00     0.180 A 
ATOM     29  C   UNL     1      73.768   4.309  37.484  1.00  0.00     0.239 A 
ATOM     30  O   UNL     1      73.330   4.865  34.828  1.00  0.00    -0.452 OA
ATOM     31  C   UNL     1      74.331   5.464  36.906  1.00  0.00     0.111 A 
ATOM     32  O   UNL     1      73.989   4.014  38.690  1.00  0.00    -0.285 OA
ATOM     33  C   UNL     1      74.072   5.708  35.536  1.00  0.00     0.146 A 
ATOM     34  C   UNL     1      75.134   6.379  37.629  1.00  0.00     0.134 A 
ATOM     35  C   UNL     1      74.599   6.842  34.910  1.00  0.00     0.094 A 
ATOM     36  C   UNL     1      75.655   7.510  36.982  1.00  0.00     0.093 A 
ATOM     37  C   UNL     1      75.389   7.743  35.630  1.00  0.00     0.123 A 
BRANCH  28  38
ATOM     38  C   UNL     1      71.971   2.906  34.450  1.00  0.00     0.025 A 
ATOM     39  C   UNL     1      70.575   3.047  34.377  1.00  0.00     0.062 A 
ATOM     40  C   UNL     1      72.599   1.915  33.684  1.00  0.00     0.016 A 
ATOM     41  C   UNL     1      69.815   2.240  33.506  1.00  0.00     0.161 A 
ATOM     42  C   UNL     1      71.853   1.105  32.827  1.00  0.00     0.051 A 
ATOM     43  C   UNL     1      70.468   1.265  32.730  1.00  0.00     0.157 A 
BRANCH  41  44
ATOM     44  O   UNL     1      68.423   2.381  33.389  1.00  0.00    -0.493 OA
ATOM     45  C   UNL     1      67.775   3.341  32.563  1.00  0.00     0.278 C 
ENDBRANCH  41  44
BRANCH  43  46
ATOM     46  O   UNL     1      69.756   0.446  31.854  1.00  0.00    -0.504 OA
ATOM     47  H   UNL     1      69.295  -0.403  32.162  1.00  0.00     0.293 HD
ENDBRANCH  43  46
ENDBRANCH  28  38
BRANCH  34  48
ATOM     48  O   UNL     1      75.415   6.175  38.981  1.00  0.00    -0.507 OA
ATOM     49  H   UNL     1      75.773   5.291  39.323  1.00  0.00     0.293 HD
ENDBRANCH  34  48
BRANCH  37  50
ATOM     50  O   UNL     1      75.917   8.875  35.012  1.00  0.00    -0.508 OA
ATOM     51  H   UNL     1      76.037   9.746  35.515  1.00  0.00     0.293 HD
ENDBRANCH  37  50
ENDBRANCH  26  27
ENDBRANCH   5  26
BRANCH   4  52
ATOM     52  O   UNL     1      73.775   1.335  39.435  1.00  0.00    -0.384 OA
ATOM     53  H   UNL     1      73.612   2.242  39.067  1.00  0.00     0.211 HD
ENDBRANCH   4  52
TORSDOF 16
ENDMDL
MODEL 7
REMARK VINA RESULT:    -5.014     14.012     16.084
REMARK INTER + INTRA:         -12.087
REMARK INTER:                  -8.375
REMARK INTRA:                  -3.712
REMARK UNBOUND:                -3.702
REMARK SMILES COc1cc(-c2oc3cc(O)cc(O)c3c(=O)c2O[C@@H]2O[C@@H](CO[C@H]3O[C@@H](C)[C@@H](O)[C@@H](O)[C@H]3O)[C@@H](O)[C@@H](O)[C@@H]2O)ccc1O
REMARK SMILES IDX 22 1 35 2 37 3 39 4 20 5 21 6 23 7 24 8 25 9 28 10 27 11
REMARK SMILES IDX 29 12 26 13 31 14 33 15 30 16 32 18 34 20 36 22 38 24 19 26
REMARK SMILES IDX 18 27 6 28 16 29 7 30 15 31 17 32 8 33 13 34 9 35 12 36
REMARK SMILES IDX 10 37 5 38 4 39 41 40 3 41 42 42 43 43 2 44 1 45 44 46 14 48
REMARK SMILES IDX 11 50 40 52
REMARK H PARENT 30 17 32 19 34 21 36 23 38 25 44 47 14 49 11 51 40 53
REMARK Flexibility Score: inf
ROOT
ATOM      1  C   UNL     1      65.033  13.174  46.582  1.00  0.00     0.180 C 
ATOM      2  C   UNL     1      66.003  13.061  47.779  1.00  0.00     0.177 C 
ATOM      3  C   UNL     1      65.887  11.655  48.389  1.00  0.00     0.180 C 
ATOM      4  C   UNL     1      64.416  11.338  48.711  1.00  0.00     0.214 C 
ATOM      5  C   UNL     1      63.524  11.616  47.480  1.00  0.00     0.339 C 
ATOM      6  O   UNL     1      63.696  12.938  46.997  1.00  0.00    -0.332 OA
ENDROOT
BRANCH   1   7
ATOM      7  C   UNL     1      65.097  14.566  45.932  1.00  0.00     0.198 C 
BRANCH   7   8
ATOM      8  O   UNL     1      66.049  14.594  44.881  1.00  0.00    -0.347 OA
BRANCH   8   9
ATOM      9  C   UNL     1      66.593  15.892  44.710  1.00  0.00     0.281 C 
ATOM     10  C   UNL     1      68.816  13.806  45.388  1.00  0.00     0.041 C 
ATOM     11  C   UNL     1      68.895  15.280  44.952  1.00  0.00     0.150 C 
ATOM     12  C   UNL     1      69.168  15.494  43.438  1.00  0.00     0.174 C 
ATOM     13  O   UNL     1      67.803  16.052  45.445  1.00  0.00    -0.344 OA
ATOM     14  C   UNL     1      67.897  15.359  42.589  1.00  0.00     0.179 C 
ATOM     15  C   UNL     1      66.787  16.218  43.213  1.00  0.00     0.202 C 
BRANCH  12  16
ATOM     16  O   UNL     1      70.150  14.608  42.966  1.00  0.00    -0.388 OA
ATOM     17  H   UNL     1      70.867  15.164  42.562  1.00  0.00     0.211 HD
ENDBRANCH  12  16
BRANCH  14  18
ATOM     18  O   UNL     1      67.512  14.010  42.500  1.00  0.00    -0.387 OA
ATOM     19  H   UNL     1      68.341  13.478  42.379  1.00  0.00     0.211 HD
ENDBRANCH  14  18
BRANCH  15  20
ATOM     20  O   UNL     1      65.584  16.113  42.492  1.00  0.00    -0.385 OA
ATOM     21  H   UNL     1      65.591  16.796  41.773  1.00  0.00     0.211 HD
ENDBRANCH  15  20
ENDBRANCH   8   9
ENDBRANCH   7   8
ENDBRANCH   1   7
BRANCH   2  22
ATOM     22  O   UNL     1      65.689  14.038  48.742  1.00  0.00    -0.387 OA
ATOM     23  H   UNL     1      64.868  14.500  48.430  1.00  0.00     0.211 HD
ENDBRANCH   2  22
BRANCH   3  24
ATOM     24  O   UNL     1      66.669  11.578  49.554  1.00  0.00    -0.387 OA
ATOM     25  H   UNL     1      67.616  11.510  49.263  1.00  0.00     0.211 HD
ENDBRANCH   3  24
BRANCH   5  26
ATOM     26  O   UNL     1      63.779  10.660  46.443  1.00  0.00    -0.454 OA
BRANCH  26  27
ATOM     27  C   UNL     1      62.791   9.837  45.887  1.00  0.00     0.214 A 
ATOM     28  C   UNL     1      62.043  10.282  44.781  1.00  0.00     0.180 A 
ATOM     29  C   UNL     1      62.528   8.562  46.413  1.00  0.00     0.239 A 
ATOM     30  O   UNL     1      61.148   9.474  44.219  1.00  0.00    -0.452 OA
ATOM     31  C   UNL     1      61.569   7.736  45.794  1.00  0.00     0.111 A 
ATOM     32  O   UNL     1      63.144   8.179  47.445  1.00  0.00    -0.285 OA
ATOM     33  C   UNL     1      60.889   8.250  44.664  1.00  0.00     0.146 A 
ATOM     34  C   UNL     1      61.262   6.431  46.248  1.00  0.00     0.134 A 
ATOM     35  C   UNL     1      59.931   7.474  44.005  1.00  0.00     0.094 A 
ATOM     36  C   UNL     1      60.296   5.669  45.574  1.00  0.00     0.093 A 
ATOM     37  C   UNL     1      59.634   6.185  44.456  1.00  0.00     0.123 A 
BRANCH  28  38
ATOM     38  C   UNL     1      62.248  11.622  44.187  1.00  0.00     0.025 A 
ATOM     39  C   UNL     1      63.371  11.904  43.390  1.00  0.00     0.062 A 
ATOM     40  C   UNL     1      61.320  12.640  44.444  1.00  0.00     0.016 A 
ATOM     41  C   UNL     1      63.540  13.178  42.810  1.00  0.00     0.161 A 
ATOM     42  C   UNL     1      61.485  13.906  43.883  1.00  0.00     0.051 A 
ATOM     43  C   UNL     1      62.585  14.179  43.064  1.00  0.00     0.157 A 
BRANCH  41  44
ATOM     44  O   UNL     1      64.634  13.478  41.984  1.00  0.00    -0.493 OA
ATOM     45  C   UNL     1      64.691  13.207  40.588  1.00  0.00     0.278 C 
ENDBRANCH  41  44
BRANCH  43  46
ATOM     46  O   UNL     1      62.711  15.452  42.510  1.00  0.00    -0.504 OA
ATOM     47  H   UNL     1      63.608  15.915  42.418  1.00  0.00     0.293 HD
ENDBRANCH  43  46
ENDBRANCH  28  38
BRANCH  34  48
ATOM     48  O   UNL     1      61.909   5.886  47.359  1.00  0.00    -0.507 OA
ATOM     49  H   UNL     1      62.008   6.405  48.224  1.00  0.00     0.293 HD
ENDBRANCH  34  48
BRANCH  37  50
ATOM     50  O   UNL     1      58.681   5.407  43.803  1.00  0.00    -0.508 OA
ATOM     51  H   UNL     1      57.728   5.729  43.678  1.00  0.00     0.293 HD
ENDBRANCH  37  50
ENDBRANCH  26  27
ENDBRANCH   5  26
BRANCH   4  52
ATOM     52  O   UNL     1      64.301   9.995  49.103  1.00  0.00    -0.384 OA
ATOM     53  H   UNL     1      64.565   9.445  48.321  1.00  0.00     0.211 HD
ENDBRANCH   4  52
TORSDOF 16
ENDMDL
MODEL 8
REMARK VINA RESULT:    -4.966     14.912     17.357
REMARK INTER + INTRA:         -12.006
REMARK INTER:                  -8.272
REMARK INTRA:                  -3.735
REMARK UNBOUND:                -3.702
REMARK SMILES COc1cc(-c2oc3cc(O)cc(O)c3c(=O)c2O[C@@H]2O[C@@H](CO[C@H]3O[C@@H](C)[C@@H](O)[C@@H](O)[C@H]3O)[C@@H](O)[C@@H](O)[C@@H]2O)ccc1O
REMARK SMILES IDX 22 1 35 2 37 3 39 4 20 5 21 6 23 7 24 8 25 9 28 10 27 11
REMARK SMILES IDX 29 12 26 13 31 14 33 15 30 16 32 18 34 20 36 22 38 24 19 26
REMARK SMILES IDX 18 27 6 28 16 29 7 30 15 31 17 32 8 33 13 34 9 35 12 36
REMARK SMILES IDX 10 37 5 38 4 39 41 40 3 41 42 42 43 43 2 44 1 45 44 46 14 48
REMARK SMILES IDX 11 50 40 52
REMARK H PARENT 30 17 32 19 34 21 36 23 38 25 44 47 14 49 11 51 40 53
REMARK Flexibility Score: inf
ROOT
ATOM      1  C   UNL     1      64.674  13.319  46.273  1.00  0.00     0.180 C 
ATOM      2  C   UNL     1      63.218  12.865  46.517  1.00  0.00     0.177 C 
ATOM      3  C   UNL     1      62.436  12.951  45.196  1.00  0.00     0.180 C 
ATOM      4  C   UNL     1      62.587  14.354  44.582  1.00  0.00     0.214 C 
ATOM      5  C   UNL     1      64.078  14.754  44.512  1.00  0.00     0.339 C 
ATOM      6  O   UNL     1      64.707  14.650  45.779  1.00  0.00    -0.332 OA
ENDROOT
BRANCH   1   7
ATOM      7  C   UNL     1      65.507  13.263  47.564  1.00  0.00     0.198 C 
BRANCH   7   8
ATOM      8  O   UNL     1      66.133  12.000  47.713  1.00  0.00    -0.347 OA
BRANCH   8   9
ATOM      9  C   UNL     1      66.345  11.684  49.078  1.00  0.00     0.281 C 
ATOM     10  C   UNL     1      64.527   9.559  47.688  1.00  0.00     0.041 C 
ATOM     11  C   UNL     1      65.181   9.592  49.080  1.00  0.00     0.150 C 
ATOM     12  C   UNL     1      66.508   8.792  49.192  1.00  0.00     0.174 C 
ATOM     13  O   UNL     1      65.271  10.913  49.609  1.00  0.00    -0.344 OA
ATOM     14  C   UNL     1      67.713   9.578  48.658  1.00  0.00     0.179 C 
ATOM     15  C   UNL     1      67.706  10.983  49.279  1.00  0.00     0.202 C 
BRANCH  12  16
ATOM     16  O   UNL     1      66.416   7.557  48.529  1.00  0.00    -0.388 OA
ATOM     17  H   UNL     1      66.719   6.864  49.172  1.00  0.00     0.211 HD
ENDBRANCH  12  16
BRANCH  14  18
ATOM     18  O   UNL     1      67.671   9.639  47.254  1.00  0.00    -0.387 OA
ATOM     19  H   UNL     1      68.370   9.021  46.915  1.00  0.00     0.211 HD
ENDBRANCH  14  18
BRANCH  15  20
ATOM     20  O   UNL     1      68.775  11.764  48.805  1.00  0.00    -0.385 OA
ATOM     21  H   UNL     1      69.203  12.211  49.580  1.00  0.00     0.211 HD
ENDBRANCH  15  20
ENDBRANCH   8   9
ENDBRANCH   7   8
ENDBRANCH   1   7
BRANCH   2  22
ATOM     22  O   UNL     1      62.619  13.685  47.492  1.00  0.00    -0.387 OA
ATOM     23  H   UNL     1      63.139  13.569  48.328  1.00  0.00     0.211 HD
ENDBRANCH   2  22
BRANCH   3  24
ATOM     24  O   UNL     1      61.081  12.663  45.427  1.00  0.00    -0.387 OA
ATOM     25  H   UNL     1      61.011  11.680  45.550  1.00  0.00     0.211 HD
ENDBRANCH   3  24
BRANCH   5  26
ATOM     26  O   UNL     1      64.770  13.964  43.537  1.00  0.00    -0.454 OA
BRANCH  26  27
ATOM     27  C   UNL     1      65.481  14.510  42.460  1.00  0.00     0.214 A 
ATOM     28  C   UNL     1      66.848  14.814  42.600  1.00  0.00     0.180 A 
ATOM     29  C   UNL     1      64.854  14.761  41.229  1.00  0.00     0.239 A 
ATOM     30  O   UNL     1      67.534  15.275  41.558  1.00  0.00    -0.452 OA
ATOM     31  C   UNL     1      65.612  15.255  40.149  1.00  0.00     0.111 A 
ATOM     32  O   UNL     1      63.615  14.556  41.112  1.00  0.00    -0.285 OA
ATOM     33  C   UNL     1      66.988  15.499  40.368  1.00  0.00     0.146 A 
ATOM     34  C   UNL     1      65.061  15.513  38.870  1.00  0.00     0.134 A 
ATOM     35  C   UNL     1      67.792  15.983  39.331  1.00  0.00     0.094 A 
ATOM     36  C   UNL     1      65.884  16.001  37.844  1.00  0.00     0.093 A 
ATOM     37  C   UNL     1      67.243  16.234  38.070  1.00  0.00     0.123 A 
BRANCH  28  38
ATOM     38  C   UNL     1      67.570  14.597  43.874  1.00  0.00     0.025 A 
ATOM     39  C   UNL     1      67.966  13.311  44.280  1.00  0.00     0.062 A 
ATOM     40  C   UNL     1      67.843  15.692  44.706  1.00  0.00     0.016 A 
ATOM     41  C   UNL     1      68.675  13.124  45.484  1.00  0.00     0.161 A 
ATOM     42  C   UNL     1      68.536  15.513  45.903  1.00  0.00     0.051 A 
ATOM     43  C   UNL     1      68.958  14.239  46.294  1.00  0.00     0.157 A 
BRANCH  41  44
ATOM     44  O   UNL     1      69.111  11.856  45.899  1.00  0.00    -0.493 OA
ATOM     45  C   UNL     1      70.328  11.245  45.487  1.00  0.00     0.278 C 
ENDBRANCH  41  44
BRANCH  43  46
ATOM     46  O   UNL     1      69.658  14.100  47.492  1.00  0.00    -0.504 OA
ATOM     47  H   UNL     1      70.554  13.630  47.542  1.00  0.00     0.293 HD
ENDBRANCH  43  46
ENDBRANCH  28  38
BRANCH  34  48
ATOM     48  O   UNL     1      63.708  15.287  38.613  1.00  0.00    -0.507 OA
ATOM     49  H   UNL     1      63.347  15.239  37.667  1.00  0.00     0.293 HD
ENDBRANCH  34  48
BRANCH  37  50
ATOM     50  O   UNL     1      68.038  16.716  37.033  1.00  0.00    -0.508 OA
ATOM     51  H   UNL     1      68.281  17.698  36.964  1.00  0.00     0.293 HD
ENDBRANCH  37  50
ENDBRANCH  26  27
ENDBRANCH   5  26
BRANCH   4  52
ATOM     52  O   UNL     1      62.018  14.368  43.299  1.00  0.00    -0.384 OA
ATOM     53  H   UNL     1      62.767  14.293  42.653  1.00  0.00     0.211 HD
ENDBRANCH   4  52
TORSDOF 16
ENDMDL
MODEL 9
REMARK VINA RESULT:    -4.955     14.936     17.359
REMARK INTER + INTRA:         -11.988
REMARK INTER:                  -8.315
REMARK INTRA:                  -3.673
REMARK UNBOUND:                -3.702
REMARK SMILES COc1cc(-c2oc3cc(O)cc(O)c3c(=O)c2O[C@@H]2O[C@@H](CO[C@H]3O[C@@H](C)[C@@H](O)[C@@H](O)[C@H]3O)[C@@H](O)[C@@H](O)[C@@H]2O)ccc1O
REMARK SMILES IDX 22 1 35 2 37 3 39 4 20 5 21 6 23 7 24 8 25 9 28 10 27 11
REMARK SMILES IDX 29 12 26 13 31 14 33 15 30 16 32 18 34 20 36 22 38 24 19 26
REMARK SMILES IDX 18 27 6 28 16 29 7 30 15 31 17 32 8 33 13 34 9 35 12 36
REMARK SMILES IDX 10 37 5 38 4 39 41 40 3 41 42 42 43 43 2 44 1 45 44 46 14 48
REMARK SMILES IDX 11 50 40 52
REMARK H PARENT 30 17 32 19 34 21 36 23 38 25 44 47 14 49 11 51 40 53
REMARK Flexibility Score: inf
ROOT
ATOM      1  C   UNL     1      65.988  13.375  46.426  1.00  0.00     0.180 C 
ATOM      2  C   UNL     1      67.440  13.186  46.919  1.00  0.00     0.177 C 
ATOM      3  C   UNL     1      67.773  11.686  46.941  1.00  0.00     0.180 C 
ATOM      4  C   UNL     1      66.707  10.920  47.745  1.00  0.00     0.214 C 
ATOM      5  C   UNL     1      65.291  11.290  47.252  1.00  0.00     0.339 C 
ATOM      6  O   UNL     1      65.079  12.692  47.276  1.00  0.00    -0.332 OA
ENDROOT
BRANCH   1   7
ATOM      7  C   UNL     1      65.592  14.860  46.389  1.00  0.00     0.198 C 
BRANCH   7   8
ATOM      8  O   UNL     1      64.349  15.072  47.035  1.00  0.00    -0.347 OA
BRANCH   8   9
ATOM      9  C   UNL     1      64.455  16.050  48.055  1.00  0.00     0.281 C 
ATOM     10  C   UNL     1      61.544  15.887  46.934  1.00  0.00     0.041 C 
ATOM     11  C   UNL     1      62.137  16.645  48.135  1.00  0.00     0.150 C 
ATOM     12  C   UNL     1      61.947  15.939  49.506  1.00  0.00     0.174 C 
ATOM     13  O   UNL     1      63.476  17.074  47.900  1.00  0.00    -0.344 OA
ATOM     14  C   UNL     1      62.987  14.838  49.747  1.00  0.00     0.179 C 
ATOM     15  C   UNL     1      64.387  15.402  49.454  1.00  0.00     0.202 C 
BRANCH  12  16
ATOM     16  O   UNL     1      60.653  15.405  49.629  1.00  0.00    -0.388 OA
ATOM     17  H   UNL     1      60.253  15.415  48.720  1.00  0.00     0.211 HD
ENDBRANCH  12  16
BRANCH  14  18
ATOM     18  O   UNL     1      62.708  13.720  48.942  1.00  0.00    -0.387 OA
ATOM     19  H   UNL     1      63.575  13.393  48.585  1.00  0.00     0.211 HD
ENDBRANCH  14  18
BRANCH  15  20
ATOM     20  O   UNL     1      65.385  14.427  49.632  1.00  0.00    -0.385 OA
ATOM     21  H   UNL     1      66.197  14.718  49.143  1.00  0.00     0.211 HD
ENDBRANCH  15  20
ENDBRANCH   8   9
ENDBRANCH   7   8
ENDBRANCH   1   7
BRANCH   2  22
ATOM     22  O   UNL     1      67.582  13.737  48.206  1.00  0.00    -0.387 OA
ATOM     23  H   UNL     1      67.252  14.671  48.160  1.00  0.00     0.211 HD
ENDBRANCH   2  22
BRANCH   3  24
ATOM     24  O   UNL     1      69.044  11.491  47.506  1.00  0.00    -0.387 OA
ATOM     25  H   UNL     1      69.618  12.239  47.193  1.00  0.00     0.211 HD
ENDBRANCH   3  24
BRANCH   5  26
ATOM     26  O   UNL     1      65.058  10.765  45.939  1.00  0.00    -0.454 OA
BRANCH  26  27
ATOM     27  C   UNL     1      63.849  10.180  45.540  1.00  0.00     0.214 A 
ATOM     28  C   UNL     1      63.007  10.851  44.634  1.00  0.00     0.180 A 
ATOM     29  C   UNL     1      63.454   8.924  46.028  1.00  0.00     0.239 A 
ATOM     30  O   UNL     1      61.889  10.267  44.212  1.00  0.00    -0.452 OA
ATOM     31  C   UNL     1      62.260   8.339  45.563  1.00  0.00     0.111 A 
ATOM     32  O   UNL     1      64.167   8.344  46.892  1.00  0.00    -0.285 OA
ATOM     33  C   UNL     1      61.492   9.068  44.624  1.00  0.00     0.146 A 
ATOM     34  C   UNL     1      61.804   7.068  45.987  1.00  0.00     0.134 A 
ATOM     35  C   UNL     1      60.302   8.535  44.122  1.00  0.00     0.094 A 
ATOM     36  C   UNL     1      60.605   6.551  45.472  1.00  0.00     0.093 A 
ATOM     37  C   UNL     1      59.857   7.278  44.543  1.00  0.00     0.123 A 
BRANCH  28  38
ATOM     38  C   UNL     1      63.346  12.187  44.094  1.00  0.00     0.025 A 
ATOM     39  C   UNL     1      64.495  12.390  43.311  1.00  0.00     0.062 A 
ATOM     40  C   UNL     1      62.520  13.280  44.391  1.00  0.00     0.016 A 
ATOM     41  C   UNL     1      64.791  13.663  42.783  1.00  0.00     0.161 A 
ATOM     42  C   UNL     1      62.811  14.545  43.881  1.00  0.00     0.051 A 
ATOM     43  C   UNL     1      63.937  14.742  43.076  1.00  0.00     0.157 A 
BRANCH  41  44
ATOM     44  O   UNL     1      65.914  13.887  41.972  1.00  0.00    -0.493 OA
ATOM     45  C   UNL     1      67.236  14.088  42.459  1.00  0.00     0.278 C 
ENDBRANCH  41  44
BRANCH  43  46
ATOM     46  O   UNL     1      64.191  16.018  42.574  1.00  0.00    -0.504 OA
ATOM     47  H   UNL     1      63.447  16.665  42.342  1.00  0.00     0.293 HD
ENDBRANCH  43  46
ENDBRANCH  28  38
BRANCH  34  48
ATOM     48  O   UNL     1      62.531   6.316  46.912  1.00  0.00    -0.507 OA
ATOM     49  H   UNL     1      62.074   5.805  47.658  1.00  0.00     0.293 HD
ENDBRANCH  34  48
BRANCH  37  50
ATOM     50  O   UNL     1      58.672   6.741  44.045  1.00  0.00    -0.508 OA
ATOM     51  H   UNL     1      58.583   6.461  43.075  1.00  0.00     0.293 HD
ENDBRANCH  37  50
ENDBRANCH  26  27
ENDBRANCH   5  26
BRANCH   4  52
ATOM     52  O   UNL     1      66.924   9.539  47.614  1.00  0.00    -0.384 OA
ATOM     53  H   UNL     1      66.233   9.199  46.989  1.00  0.00     0.211 HD
ENDBRANCH   4  52
TORSDOF 16
ENDMDL
