MODEL 1
REMARK VINA RESULT:    -5.926      0.000      0.000
REMARK INTER + INTRA:          -7.694
REMARK INTER:                  -7.312
REMARK INTRA:                  -0.382
REMARK UNBOUND:                -0.382
REMARK SMILES Oc1cc(O)c2cc(O)c(-c3cc(O)c(O)c(O)c3)[o+]c2c1
REMARK SMILES IDX 10 1 20 2 21 3 22 4 2 5 3 6 4 7 6 8 7 9 8 10 11 11 12 12
REMARK SMILES IDX 13 13 19 14 15 15 17 16 14 17 16 19 18 21 9 23 1 25 5 27
REMARK H PARENT 14 18 16 20 18 22 9 24 1 26 5 28
REMARK Flexibility Score: inf
ROOT
ATOM      1  C   UNL     1     124.185 132.921 110.865  1.00  0.00     0.402 A 
ATOM      2  O   UNL     1     124.409 134.202 110.583  1.00  0.00    -0.202 OA
ATOM      3  C   UNL     1     125.603 134.776 110.692  1.00  0.00     0.368 A 
ATOM      4  C   UNL     1     125.740 136.128 110.369  1.00  0.00     0.162 A 
ATOM      5  C   UNL     1     126.985 136.755 110.472  1.00  0.00     0.128 A 
ATOM      6  C   UNL     1     128.096 136.028 110.901  1.00  0.00     0.093 A 
ATOM      7  C   UNL     1     127.986 134.671 111.231  1.00  0.00     0.136 A 
ATOM      8  C   UNL     1     126.724 134.030 111.129  1.00  0.00     0.125 A 
ATOM      9  C   UNL     1     126.517 132.679 111.452  1.00  0.00     0.078 A 
ATOM     10  C   UNL     1     125.242 132.117 111.331  1.00  0.00     0.223 A 
ENDROOT
BRANCH   1  11
ATOM     11  C   UNL     1     122.812 132.395 110.693  1.00  0.00     0.091 A 
ATOM     12  C   UNL     1     121.907 132.466 111.762  1.00  0.00     0.068 A 
ATOM     13  C   UNL     1     120.595 131.998 111.629  1.00  0.00     0.162 A 
ATOM     14  C   UNL     1     122.376 131.879 109.463  1.00  0.00     0.068 A 
ATOM     15  C   UNL     1     120.169 131.456 110.392  1.00  0.00     0.200 A 
ATOM     16  C   UNL     1     121.065 131.406 109.315  1.00  0.00     0.162 A 
BRANCH  13  17
ATOM     17  O   UNL     1     119.755 132.090 112.741  1.00  0.00    -0.504 OA
ATOM     18  H   UNL     1     119.719 131.404 113.480  1.00  0.00     0.293 HD
ENDBRANCH  13  17
BRANCH  15  19
ATOM     19  O   UNL     1     118.876 130.965 110.193  1.00  0.00    -0.502 OA
ATOM     20  H   UNL     1     118.156 130.963 110.901  1.00  0.00     0.293 HD
ENDBRANCH  15  19
BRANCH  16  21
ATOM     21  O   UNL     1     120.642 130.886 108.092  1.00  0.00    -0.504 OA
ATOM     22  H   UNL     1     120.264 131.482 107.365  1.00  0.00     0.293 HD
ENDBRANCH  16  21
ENDBRANCH   1  11
BRANCH  10  23
ATOM     23  O   UNL     1     125.025 130.788 111.698  1.00  0.00    -0.500 OA
ATOM     24  H   UNL     1     125.786 130.122 111.759  1.00  0.00     0.294 HD
ENDBRANCH  10  23
BRANCH   5  25
ATOM     25  O   UNL     1     127.128 138.104 110.152  1.00  0.00    -0.507 OA
ATOM     26  H   UNL     1     127.465 138.399 109.243  1.00  0.00     0.293 HD
ENDBRANCH   5  25
BRANCH   7  27
ATOM     27  O   UNL     1     129.147 134.014 111.648  1.00  0.00    -0.507 OA
ATOM     28  H   UNL     1     129.237 133.511 112.519  1.00  0.00     0.293 HD
ENDBRANCH   7  27
TORSDOF 7
ENDMDL
MODEL 2
REMARK VINA RESULT:    -5.881      0.084      1.801
REMARK INTER + INTRA:          -7.637
REMARK INTER:                  -7.260
REMARK INTRA:                  -0.378
REMARK UNBOUND:                -0.382
REMARK SMILES Oc1cc(O)c2cc(O)c(-c3cc(O)c(O)c(O)c3)[o+]c2c1
REMARK SMILES IDX 10 1 20 2 21 3 22 4 2 5 3 6 4 7 6 8 7 9 8 10 11 11 12 12
REMARK SMILES IDX 13 13 19 14 15 15 17 16 14 17 16 19 18 21 9 23 1 25 5 27
REMARK H PARENT 14 18 16 20 18 22 9 24 1 26 5 28
REMARK Flexibility Score: inf
ROOT
ATOM      1  C   UNL     1     124.162 133.003 110.921  1.00  0.00     0.402 A 
ATOM      2  O   UNL     1     124.396 134.280 110.632  1.00  0.00    -0.202 OA
ATOM      3  C   UNL     1     125.597 134.843 110.728  1.00  0.00     0.368 A 
ATOM      4  C   UNL     1     125.745 136.192 110.397  1.00  0.00     0.162 A 
ATOM      5  C   UNL     1     126.997 136.807 110.487  1.00  0.00     0.128 A 
ATOM      6  C   UNL     1     128.105 136.069 110.906  1.00  0.00     0.093 A 
ATOM      7  C   UNL     1     127.984 134.715 111.243  1.00  0.00     0.136 A 
ATOM      8  C   UNL     1     126.715 134.086 111.156  1.00  0.00     0.125 A 
ATOM      9  C   UNL     1     126.496 132.739 111.486  1.00  0.00     0.078 A 
ATOM     10  C   UNL     1     125.215 132.190 111.380  1.00  0.00     0.223 A 
ENDROOT
BRANCH   1  11
ATOM     11  C   UNL     1     122.782 132.491 110.764  1.00  0.00     0.091 A 
ATOM     12  C   UNL     1     122.386 131.938 109.537  1.00  0.00     0.068 A 
ATOM     13  C   UNL     1     121.096 131.426 109.360  1.00  0.00     0.162 A 
ATOM     14  C   UNL     1     121.875 132.493 111.835  1.00  0.00     0.068 A 
ATOM     15  C   UNL     1     120.179 131.453 110.438  1.00  0.00     0.200 A 
ATOM     16  C   UNL     1     120.581 131.983 111.672  1.00  0.00     0.162 A 
BRANCH  13  17
ATOM     17  O   UNL     1     120.771 130.903 108.106  1.00  0.00    -0.504 OA
ATOM     18  H   UNL     1     120.531 129.936 107.941  1.00  0.00     0.293 HD
ENDBRANCH  13  17
BRANCH  15  19
ATOM     19  O   UNL     1     118.875 130.964 110.326  1.00  0.00    -0.502 OA
ATOM     20  H   UNL     1     118.082 131.349 110.818  1.00  0.00     0.293 HD
ENDBRANCH  15  19
BRANCH  16  21
ATOM     21  O   UNL     1     119.683 131.997 112.739  1.00  0.00    -0.504 OA
ATOM     22  H   UNL     1     119.870 131.490 113.597  1.00  0.00     0.293 HD
ENDBRANCH  16  21
ENDBRANCH   1  11
BRANCH  10  23
ATOM     23  O   UNL     1     124.988 130.865 111.754  1.00  0.00    -0.500 OA
ATOM     24  H   UNL     1     124.390 130.628 112.537  1.00  0.00     0.294 HD
ENDBRANCH  10  23
BRANCH   5  25
ATOM     25  O   UNL     1     127.151 138.152 110.160  1.00  0.00    -0.507 OA
ATOM     26  H   UNL     1     127.081 138.476 109.202  1.00  0.00     0.293 HD
ENDBRANCH   5  25
BRANCH   7  27
ATOM     27  O   UNL     1     129.142 134.047 111.651  1.00  0.00    -0.507 OA
ATOM     28  H   UNL     1     129.388 133.109 111.372  1.00  0.00     0.293 HD
ENDBRANCH   7  27
TORSDOF 7
ENDMDL
MODEL 3
REMARK VINA RESULT:    -5.548      2.104      6.832
REMARK INTER + INTRA:          -7.227
REMARK INTER:                  -6.977
REMARK INTRA:                  -0.250
REMARK UNBOUND:                -0.382
REMARK SMILES Oc1cc(O)c2cc(O)c(-c3cc(O)c(O)c(O)c3)[o+]c2c1
REMARK SMILES IDX 10 1 20 2 21 3 22 4 2 5 3 6 4 7 6 8 7 9 8 10 11 11 12 12
REMARK SMILES IDX 13 13 19 14 15 15 17 16 14 17 16 19 18 21 9 23 1 25 5 27
REMARK H PARENT 14 18 16 20 18 22 9 24 1 26 5 28
REMARK Flexibility Score: inf
ROOT
ATOM      1  C   UNL     1     123.881 132.434 111.669  1.00  0.00     0.402 A 
ATOM      2  O   UNL     1     123.140 133.118 110.800  1.00  0.00    -0.202 OA
ATOM      3  C   UNL     1     121.812 133.145 110.836  1.00  0.00     0.368 A 
ATOM      4  C   UNL     1     121.121 133.896 109.883  1.00  0.00     0.162 A 
ATOM      5  C   UNL     1     119.724 133.943 109.899  1.00  0.00     0.128 A 
ATOM      6  C   UNL     1     119.016 133.238 110.873  1.00  0.00     0.093 A 
ATOM      7  C   UNL     1     119.684 132.477 111.841  1.00  0.00     0.136 A 
ATOM      8  C   UNL     1     121.102 132.424 111.827  1.00  0.00     0.125 A 
ATOM      9  C   UNL     1     121.856 131.678 112.748  1.00  0.00     0.078 A 
ATOM     10  C   UNL     1     123.251 131.669 112.669  1.00  0.00     0.223 A 
ENDROOT
BRANCH   1  11
ATOM     11  C   UNL     1     125.354 132.492 111.531  1.00  0.00     0.091 A 
ATOM     12  C   UNL     1     126.052 131.353 111.103  1.00  0.00     0.068 A 
ATOM     13  C   UNL     1     127.442 131.377 110.942  1.00  0.00     0.162 A 
ATOM     14  C   UNL     1     126.064 133.679 111.763  1.00  0.00     0.068 A 
ATOM     15  C   UNL     1     128.155 132.572 111.202  1.00  0.00     0.200 A 
ATOM     16  C   UNL     1     127.455 133.718 111.606  1.00  0.00     0.162 A 
BRANCH  13  17
ATOM     17  O   UNL     1     128.069 130.200 110.526  1.00  0.00    -0.504 OA
ATOM     18  H   UNL     1     128.196 129.939 109.559  1.00  0.00     0.293 HD
ENDBRANCH  13  17
BRANCH  15  19
ATOM     19  O   UNL     1     129.542 132.663 111.067  1.00  0.00    -0.502 OA
ATOM     20  H   UNL     1     130.130 133.244 111.646  1.00  0.00     0.293 HD
ENDBRANCH  15  19
BRANCH  16  21
ATOM     21  O   UNL     1     128.155 134.900 111.848  1.00  0.00    -0.504 OA
ATOM     22  H   UNL     1     129.149 134.898 112.043  1.00  0.00     0.293 HD
ENDBRANCH  16  21
ENDBRANCH   1  11
BRANCH  10  23
ATOM     23  O   UNL     1     123.999 130.890 113.553  1.00  0.00    -0.500 OA
ATOM     24  H   UNL     1     124.898 131.198 113.904  1.00  0.00     0.294 HD
ENDBRANCH  10  23
BRANCH   5  25
ATOM     25  O   UNL     1     119.028 134.690 108.950  1.00  0.00    -0.507 OA
ATOM     26  H   UNL     1     119.107 135.700 108.909  1.00  0.00     0.293 HD
ENDBRANCH   5  25
BRANCH   7  27
ATOM     27  O   UNL     1     118.902 131.803 112.783  1.00  0.00    -0.507 OA
ATOM     28  H   UNL     1     119.260 131.127 113.443  1.00  0.00     0.293 HD
ENDBRANCH   7  27
TORSDOF 7
ENDMDL
MODEL 4
REMARK VINA RESULT:    -5.449      2.045      7.824
REMARK INTER + INTRA:          -7.105
REMARK INTER:                  -6.746
REMARK INTRA:                  -0.359
REMARK UNBOUND:                -0.382
REMARK SMILES Oc1cc(O)c2cc(O)c(-c3cc(O)c(O)c(O)c3)[o+]c2c1
REMARK SMILES IDX 10 1 20 2 21 3 22 4 2 5 3 6 4 7 6 8 7 9 8 10 11 11 12 12
REMARK SMILES IDX 13 13 19 14 15 15 17 16 14 17 16 19 18 21 9 23 1 25 5 27
REMARK H PARENT 14 18 16 20 18 22 9 24 1 26 5 28
REMARK Flexibility Score: inf
ROOT
ATOM      1  C   UNL     1     126.318 134.949 110.275  1.00  0.00     0.402 A 
ATOM      2  O   UNL     1     126.037 134.123 111.279  1.00  0.00    -0.202 OA
ATOM      3  C   UNL     1     124.922 133.403 111.341  1.00  0.00     0.368 A 
ATOM      4  C   UNL     1     124.717 132.558 112.434  1.00  0.00     0.162 A 
ATOM      5  C   UNL     1     123.554 131.788 112.523  1.00  0.00     0.128 A 
ATOM      6  C   UNL     1     122.592 131.863 111.514  1.00  0.00     0.093 A 
ATOM      7  C   UNL     1     122.773 132.701 110.407  1.00  0.00     0.136 A 
ATOM      8  C   UNL     1     123.951 133.487 110.313  1.00  0.00     0.125 A 
ATOM      9  C   UNL     1     124.211 134.364 109.248  1.00  0.00     0.078 A 
ATOM     10  C   UNL     1     125.393 135.110 109.227  1.00  0.00     0.223 A 
ENDROOT
BRANCH   1  11
ATOM     11  C   UNL     1     127.600 135.689 110.315  1.00  0.00     0.091 A 
ATOM     12  C   UNL     1     128.765 135.078 109.826  1.00  0.00     0.068 A 
ATOM     13  C   UNL     1     129.990 135.755 109.829  1.00  0.00     0.162 A 
ATOM     14  C   UNL     1     127.667 137.012 110.777  1.00  0.00     0.068 A 
ATOM     15  C   UNL     1     130.054 137.081 110.320  1.00  0.00     0.200 A 
ATOM     16  C   UNL     1     128.886 137.701 110.786  1.00  0.00     0.162 A 
BRANCH  13  17
ATOM     17  O   UNL     1     131.108 135.077 109.339  1.00  0.00    -0.504 OA
ATOM     18  H   UNL     1     131.272 134.889 108.361  1.00  0.00     0.293 HD
ENDBRANCH  13  17
BRANCH  15  19
ATOM     19  O   UNL     1     131.245 137.810 110.357  1.00  0.00    -0.502 OA
ATOM     20  H   UNL     1     131.694 138.203 109.543  1.00  0.00     0.293 HD
ENDBRANCH  15  19
BRANCH  16  21
ATOM     21  O   UNL     1     128.946 139.013 111.256  1.00  0.00    -0.504 OA
ATOM     22  H   UNL     1     128.467 139.769 110.781  1.00  0.00     0.293 HD
ENDBRANCH  16  21
ENDBRANCH   1  11
BRANCH  10  23
ATOM     23  O   UNL     1     125.629 136.018 108.194  1.00  0.00    -0.500 OA
ATOM     24  H   UNL     1     125.806 135.710 107.245  1.00  0.00     0.294 HD
ENDBRANCH  10  23
BRANCH   5  25
ATOM     25  O   UNL     1     123.343 130.945 113.612  1.00  0.00    -0.507 OA
ATOM     26  H   UNL     1     123.649 129.979 113.601  1.00  0.00     0.293 HD
ENDBRANCH   5  25
BRANCH   7  27
ATOM     27  O   UNL     1     121.764 132.716 109.439  1.00  0.00    -0.507 OA
ATOM     28  H   UNL     1     120.952 133.315 109.470  1.00  0.00     0.293 HD
ENDBRANCH   7  27
TORSDOF 7
ENDMDL
MODEL 5
REMARK VINA RESULT:    -5.406     11.098     12.764
REMARK INTER + INTRA:          -7.051
REMARK INTER:                  -6.701
REMARK INTRA:                  -0.351
REMARK UNBOUND:                -0.382
REMARK SMILES Oc1cc(O)c2cc(O)c(-c3cc(O)c(O)c(O)c3)[o+]c2c1
REMARK SMILES IDX 10 1 20 2 21 3 22 4 2 5 3 6 4 7 6 8 7 9 8 10 11 11 12 12
REMARK SMILES IDX 13 13 19 14 15 15 17 16 14 17 16 19 18 21 9 23 1 25 5 27
REMARK H PARENT 14 18 16 20 18 22 9 24 1 26 5 28
REMARK Flexibility Score: inf
ROOT
ATOM      1  C   UNL     1     131.684 123.838 110.906  1.00  0.00     0.402 A 
ATOM      2  O   UNL     1     132.706 123.999 111.742  1.00  0.00    -0.202 OA
ATOM      3  C   UNL     1     133.430 125.112 111.805  1.00  0.00     0.368 A 
ATOM      4  C   UNL     1     134.482 125.188 112.721  1.00  0.00     0.162 A 
ATOM      5  C   UNL     1     135.257 126.348 112.809  1.00  0.00     0.128 A 
ATOM      6  C   UNL     1     134.978 127.436 111.980  1.00  0.00     0.093 A 
ATOM      7  C   UNL     1     133.929 127.385 111.054  1.00  0.00     0.136 A 
ATOM      8  C   UNL     1     133.140 126.209 110.958  1.00  0.00     0.125 A 
ATOM      9  C   UNL     1     132.078 126.063 110.052  1.00  0.00     0.078 A 
ATOM     10  C   UNL     1     131.348 124.872 110.012  1.00  0.00     0.223 A 
ENDROOT
BRANCH   1  11
ATOM     11  C   UNL     1     130.948 122.554 110.938  1.00  0.00     0.091 A 
ATOM     12  C   UNL     1     131.540 121.405 110.393  1.00  0.00     0.068 A 
ATOM     13  C   UNL     1     130.882 120.170 110.424  1.00  0.00     0.162 A 
ATOM     14  C   UNL     1     129.692 122.446 111.554  1.00  0.00     0.068 A 
ATOM     15  C   UNL     1     129.605 120.074 111.027  1.00  0.00     0.200 A 
ATOM     16  C   UNL     1     129.022 121.217 111.593  1.00  0.00     0.162 A 
BRANCH  13  17
ATOM     17  O   UNL     1     131.530 119.074 109.851  1.00  0.00    -0.504 OA
ATOM     18  H   UNL     1     131.133 118.503 109.118  1.00  0.00     0.293 HD
ENDBRANCH  13  17
BRANCH  15  19
ATOM     19  O   UNL     1     128.891 118.875 111.086  1.00  0.00    -0.502 OA
ATOM     20  H   UNL     1     128.284 118.540 110.352  1.00  0.00     0.293 HD
ENDBRANCH  15  19
BRANCH  16  21
ATOM     21  O   UNL     1     127.770 121.120 112.199  1.00  0.00    -0.504 OA
ATOM     22  H   UNL     1     126.976 120.717 111.716  1.00  0.00     0.293 HD
ENDBRANCH  16  21
ENDBRANCH   1  11
BRANCH  10  23
ATOM     23  O   UNL     1     130.324 124.708 109.078  1.00  0.00    -0.500 OA
ATOM     24  H   UNL     1     130.240 123.864 108.524  1.00  0.00     0.294 HD
ENDBRANCH  10  23
BRANCH   5  25
ATOM     25  O   UNL     1     136.309 126.431 113.719  1.00  0.00    -0.507 OA
ATOM     26  H   UNL     1     136.290 127.085 114.493  1.00  0.00     0.293 HD
ENDBRANCH   5  25
BRANCH   7  27
ATOM     27  O   UNL     1     133.713 128.518 110.263  1.00  0.00    -0.507 OA
ATOM     28  H   UNL     1     133.530 129.441 110.627  1.00  0.00     0.293 HD
ENDBRANCH   7  27
TORSDOF 7
ENDMDL
MODEL 6
REMARK VINA RESULT:    -5.397      1.297      7.120
REMARK INTER + INTRA:          -7.041
REMARK INTER:                  -6.675
REMARK INTRA:                  -0.366
REMARK UNBOUND:                -0.382
REMARK SMILES Oc1cc(O)c2cc(O)c(-c3cc(O)c(O)c(O)c3)[o+]c2c1
REMARK SMILES IDX 10 1 20 2 21 3 22 4 2 5 3 6 4 7 6 8 7 9 8 10 11 11 12 12
REMARK SMILES IDX 13 13 19 14 15 15 17 16 14 17 16 19 18 21 9 23 1 25 5 27
REMARK H PARENT 14 18 16 20 18 22 9 24 1 26 5 28
REMARK Flexibility Score: inf
ROOT
ATOM      1  C   UNL     1     124.435 132.703 110.312  1.00  0.00     0.402 A 
ATOM      2  O   UNL     1     123.503 132.794 111.258  1.00  0.00    -0.202 OA
ATOM      3  C   UNL     1     122.253 132.374 111.093  1.00  0.00     0.368 A 
ATOM      4  C   UNL     1     121.346 132.507 112.147  1.00  0.00     0.162 A 
ATOM      5  C   UNL     1     120.026 132.071 112.001  1.00  0.00     0.128 A 
ATOM      6  C   UNL     1     119.612 131.499 110.798  1.00  0.00     0.093 A 
ATOM      7  C   UNL     1     120.501 131.353 109.726  1.00  0.00     0.136 A 
ATOM      8  C   UNL     1     121.842 131.796 109.867  1.00  0.00     0.125 A 
ATOM      9  C   UNL     1     122.798 131.702 108.843  1.00  0.00     0.078 A 
ATOM     10  C   UNL     1     124.100 132.166 109.056  1.00  0.00     0.223 A 
ENDROOT
BRANCH   1  11
ATOM     11  C   UNL     1     125.796 133.197 110.621  1.00  0.00     0.091 A 
ATOM     12  C   UNL     1     126.043 134.578 110.632  1.00  0.00     0.068 A 
ATOM     13  C   UNL     1     127.312 135.082 110.939  1.00  0.00     0.162 A 
ATOM     14  C   UNL     1     126.834 132.317 110.960  1.00  0.00     0.068 A 
ATOM     15  C   UNL     1     128.361 134.186 111.257  1.00  0.00     0.200 A 
ATOM     16  C   UNL     1     128.109 132.806 111.270  1.00  0.00     0.162 A 
BRANCH  13  17
ATOM     17  O   UNL     1     127.485 136.467 110.917  1.00  0.00    -0.504 OA
ATOM     18  H   UNL     1     128.366 136.930 111.084  1.00  0.00     0.293 HD
ENDBRANCH  13  17
BRANCH  15  19
ATOM     19  O   UNL     1     129.652 134.621 111.566  1.00  0.00    -0.502 OA
ATOM     20  H   UNL     1     130.444 134.006 111.680  1.00  0.00     0.293 HD
ENDBRANCH  15  19
BRANCH  16  21
ATOM     21  O   UNL     1     129.138 131.924 111.597  1.00  0.00    -0.504 OA
ATOM     22  H   UNL     1     129.269 131.052 111.097  1.00  0.00     0.293 HD
ENDBRANCH  16  21
ENDBRANCH   1  11
BRANCH  10  23
ATOM     23  O   UNL     1     125.038 132.118 108.023  1.00  0.00    -0.500 OA
ATOM     24  H   UNL     1     125.805 131.456 108.031  1.00  0.00     0.294 HD
ENDBRANCH  10  23
BRANCH   5  25
ATOM     25  O   UNL     1     119.116 132.202 113.048  1.00  0.00    -0.507 OA
ATOM     26  H   UNL     1     119.216 132.927 113.750  1.00  0.00     0.293 HD
ENDBRANCH   5  25
BRANCH   7  27
ATOM     27  O   UNL     1     120.009 130.766 108.556  1.00  0.00    -0.507 OA
ATOM     28  H   UNL     1     119.294 130.054 108.532  1.00  0.00     0.293 HD
ENDBRANCH   7  27
TORSDOF 7
ENDMDL
MODEL 7
REMARK VINA RESULT:    -5.393      1.326      7.064
REMARK INTER + INTRA:          -7.036
REMARK INTER:                  -7.057
REMARK INTRA:                   0.021
REMARK UNBOUND:                -0.382
REMARK SMILES Oc1cc(O)c2cc(O)c(-c3cc(O)c(O)c(O)c3)[o+]c2c1
REMARK SMILES IDX 10 1 20 2 21 3 22 4 2 5 3 6 4 7 6 8 7 9 8 10 11 11 12 12
REMARK SMILES IDX 13 13 19 14 15 15 17 16 14 17 16 19 18 21 9 23 1 25 5 27
REMARK H PARENT 14 18 16 20 18 22 9 24 1 26 5 28
REMARK Flexibility Score: inf
ROOT
ATOM      1  C   UNL     1     124.608 133.952 111.131  1.00  0.00     0.402 A 
ATOM      2  O   UNL     1     123.753 133.995 110.113  1.00  0.00    -0.202 OA
ATOM      3  C   UNL     1     122.550 133.431 110.146  1.00  0.00     0.368 A 
ATOM      4  C   UNL     1     121.719 133.533 109.028  1.00  0.00     0.162 A 
ATOM      5  C   UNL     1     120.448 132.951 109.038  1.00  0.00     0.128 A 
ATOM      6  C   UNL     1     120.006 132.264 110.170  1.00  0.00     0.093 A 
ATOM      7  C   UNL     1     120.819 132.148 111.305  1.00  0.00     0.136 A 
ATOM      8  C   UNL     1     122.111 132.735 111.300  1.00  0.00     0.125 A 
ATOM      9  C   UNL     1     122.999 132.657 112.385  1.00  0.00     0.078 A 
ATOM     10  C   UNL     1     124.259 133.257 112.304  1.00  0.00     0.223 A 
ENDROOT
BRANCH   1  11
ATOM     11  C   UNL     1     125.916 134.629 110.976  1.00  0.00     0.091 A 
ATOM     12  C   UNL     1     125.959 135.943 110.485  1.00  0.00     0.068 A 
ATOM     13  C   UNL     1     127.175 136.621 110.344  1.00  0.00     0.162 A 
ATOM     14  C   UNL     1     127.112 134.008 111.365  1.00  0.00     0.068 A 
ATOM     15  C   UNL     1     128.380 135.979 110.716  1.00  0.00     0.200 A 
ATOM     16  C   UNL     1     128.336 134.674 111.230  1.00  0.00     0.162 A 
BRANCH  13  17
ATOM     17  O   UNL     1     127.139 137.921 109.836  1.00  0.00    -0.504 OA
ATOM     18  H   UNL     1     126.375 138.565 109.983  1.00  0.00     0.293 HD
ENDBRANCH  13  17
BRANCH  15  19
ATOM     19  O   UNL     1     129.627 136.595 110.596  1.00  0.00    -0.502 OA
ATOM     20  H   UNL     1     129.807 137.561 110.831  1.00  0.00     0.293 HD
ENDBRANCH  15  19
BRANCH  16  21
ATOM     21  O   UNL     1     129.522 134.046 111.610  1.00  0.00    -0.504 OA
ATOM     22  H   UNL     1     130.393 134.215 111.121  1.00  0.00     0.293 HD
ENDBRANCH  16  21
ENDBRANCH   1  11
BRANCH  10  23
ATOM     23  O   UNL     1     125.160 133.138 113.363  1.00  0.00    -0.500 OA
ATOM     24  H   UNL     1     124.846 133.050 114.322  1.00  0.00     0.294 HD
ENDBRANCH  10  23
BRANCH   5  25
ATOM     25  O   UNL     1     119.615 133.048 107.925  1.00  0.00    -0.507 OA
ATOM     26  H   UNL     1     119.411 133.942 107.493  1.00  0.00     0.293 HD
ENDBRANCH   5  25
BRANCH   7  27
ATOM     27  O   UNL     1     120.302 131.447 112.398  1.00  0.00    -0.507 OA
ATOM     28  H   UNL     1     120.763 130.669 112.848  1.00  0.00     0.293 HD
ENDBRANCH   7  27
TORSDOF 7
ENDMDL
MODEL 8
REMARK VINA RESULT:    -5.324      1.917      7.576
REMARK INTER + INTRA:          -6.950
REMARK INTER:                  -6.569
REMARK INTRA:                  -0.382
REMARK UNBOUND:                -0.382
REMARK SMILES Oc1cc(O)c2cc(O)c(-c3cc(O)c(O)c(O)c3)[o+]c2c1
REMARK SMILES IDX 10 1 20 2 21 3 22 4 2 5 3 6 4 7 6 8 7 9 8 10 11 11 12 12
REMARK SMILES IDX 13 13 19 14 15 15 17 16 14 17 16 19 18 21 9 23 1 25 5 27
REMARK H PARENT 14 18 16 20 18 22 9 24 1 26 5 28
REMARK Flexibility Score: inf
ROOT
ATOM      1  C   UNL     1     125.860 134.996 110.064  1.00  0.00     0.402 A 
ATOM      2  O   UNL     1     125.413 134.304 111.108  1.00  0.00    -0.202 OA
ATOM      3  C   UNL     1     124.265 133.633 111.103  1.00  0.00     0.368 A 
ATOM      4  C   UNL     1     123.882 132.932 112.248  1.00  0.00     0.162 A 
ATOM      5  C   UNL     1     122.681 132.216 112.268  1.00  0.00     0.128 A 
ATOM      6  C   UNL     1     121.862 132.201 111.138  1.00  0.00     0.093 A 
ATOM      7  C   UNL     1     122.223 132.896 109.977  1.00  0.00     0.136 A 
ATOM      8  C   UNL     1     123.440 133.626 109.951  1.00  0.00     0.125 A 
ATOM      9  C   UNL     1     123.876 134.362 108.838  1.00  0.00     0.078 A 
ATOM     10  C   UNL     1     125.085 135.061 108.890  1.00  0.00     0.223 A 
ENDROOT
BRANCH   1  11
ATOM     11  C   UNL     1     127.159 135.694 110.190  1.00  0.00     0.091 A 
ATOM     12  C   UNL     1     127.194 137.007 110.682  1.00  0.00     0.068 A 
ATOM     13  C   UNL     1     128.406 137.689 110.834  1.00  0.00     0.162 A 
ATOM     14  C   UNL     1     128.367 135.050 109.881  1.00  0.00     0.068 A 
ATOM     15  C   UNL     1     129.619 137.042 110.498  1.00  0.00     0.200 A 
ATOM     16  C   UNL     1     129.588 135.721 110.028  1.00  0.00     0.162 A 
BRANCH  13  17
ATOM     17  O   UNL     1     128.359 138.998 111.319  1.00  0.00    -0.504 OA
ATOM     18  H   UNL     1     129.038 139.710 111.092  1.00  0.00     0.293 HD
ENDBRANCH  13  17
BRANCH  15  19
ATOM     19  O   UNL     1     130.862 137.667 110.620  1.00  0.00    -0.502 OA
ATOM     20  H   UNL     1     131.140 138.226 111.413  1.00  0.00     0.293 HD
ENDBRANCH  15  19
BRANCH  16  21
ATOM     21  O   UNL     1     130.784 135.077 109.711  1.00  0.00    -0.504 OA
ATOM     22  H   UNL     1     131.583 135.104 110.334  1.00  0.00     0.293 HD
ENDBRANCH  16  21
ENDBRANCH   1  11
BRANCH  10  23
ATOM     23  O   UNL     1     125.496 135.832 107.802  1.00  0.00    -0.500 OA
ATOM     24  H   UNL     1     125.687 136.824 107.894  1.00  0.00     0.294 HD
ENDBRANCH  10  23
BRANCH   5  25
ATOM     25  O   UNL     1     122.292 131.515 113.407  1.00  0.00    -0.507 OA
ATOM     26  H   UNL     1     121.392 131.672 113.844  1.00  0.00     0.293 HD
ENDBRANCH   5  25
BRANCH   7  27
ATOM     27  O   UNL     1     121.350 132.828 108.887  1.00  0.00    -0.507 OA
ATOM     28  H   UNL     1     121.373 132.106 108.181  1.00  0.00     0.293 HD
ENDBRANCH   7  27
TORSDOF 7
ENDMDL
MODEL 9
REMARK VINA RESULT:    -5.281     10.988     14.695
REMARK INTER + INTRA:          -6.898
REMARK INTER:                  -6.575
REMARK INTRA:                  -0.323
REMARK UNBOUND:                -0.382
REMARK SMILES Oc1cc(O)c2cc(O)c(-c3cc(O)c(O)c(O)c3)[o+]c2c1
REMARK SMILES IDX 10 1 20 2 21 3 22 4 2 5 3 6 4 7 6 8 7 9 8 10 11 11 12 12
REMARK SMILES IDX 13 13 19 14 15 15 17 16 14 17 16 19 18 21 9 23 1 25 5 27
REMARK H PARENT 14 18 16 20 18 22 9 24 1 26 5 28
REMARK Flexibility Score: inf
ROOT
ATOM      1  C   UNL     1     133.920 125.577 111.263  1.00  0.00     0.402 A 
ATOM      2  O   UNL     1     133.717 124.333 110.839  1.00  0.00    -0.202 OA
ATOM      3  C   UNL     1     132.537 123.723 110.904  1.00  0.00     0.368 A 
ATOM      4  C   UNL     1     132.420 122.415 110.429  1.00  0.00     0.162 A 
ATOM      5  C   UNL     1     131.191 121.751 110.483  1.00  0.00     0.128 A 
ATOM      6  C   UNL     1     130.075 122.399 111.014  1.00  0.00     0.093 A 
ATOM      7  C   UNL     1     130.165 123.711 111.497  1.00  0.00     0.136 A 
ATOM      8  C   UNL     1     131.410 124.388 111.446  1.00  0.00     0.125 A 
ATOM      9  C   UNL     1     131.598 125.697 111.919  1.00  0.00     0.078 A 
ATOM     10  C   UNL     1     132.858 126.297 111.840  1.00  0.00     0.223 A 
ENDROOT
BRANCH   1  11
ATOM     11  C   UNL     1     135.278 126.150 111.126  1.00  0.00     0.091 A 
ATOM     12  C   UNL     1     135.525 127.113 110.136  1.00  0.00     0.068 A 
ATOM     13  C   UNL     1     136.791 127.691 109.991  1.00  0.00     0.162 A 
ATOM     14  C   UNL     1     136.314 125.794 112.004  1.00  0.00     0.068 A 
ATOM     15  C   UNL     1     137.837 127.309 110.865  1.00  0.00     0.200 A 
ATOM     16  C   UNL     1     137.586 126.365 111.871  1.00  0.00     0.162 A 
BRANCH  13  17
ATOM     17  O   UNL     1     136.963 128.633 108.975  1.00  0.00    -0.504 OA
ATOM     18  H   UNL     1     137.164 128.397 108.014  1.00  0.00     0.293 HD
ENDBRANCH  13  17
BRANCH  15  19
ATOM     19  O   UNL     1     139.125 127.842 110.772  1.00  0.00    -0.502 OA
ATOM     20  H   UNL     1     139.545 128.436 111.472  1.00  0.00     0.293 HD
ENDBRANCH  15  19
BRANCH  16  21
ATOM     21  O   UNL     1     138.612 125.999 112.742  1.00  0.00    -0.504 OA
ATOM     22  H   UNL     1     139.587 126.141 112.503  1.00  0.00     0.293 HD
ENDBRANCH  16  21
ENDBRANCH   1  11
BRANCH  10  23
ATOM     23  O   UNL     1     133.056 127.580 112.354  1.00  0.00    -0.500 OA
ATOM     24  H   UNL     1     133.864 127.806 112.922  1.00  0.00     0.294 HD
ENDBRANCH  10  23
BRANCH   5  25
ATOM     25  O   UNL     1     131.068 120.446 110.011  1.00  0.00    -0.507 OA
ATOM     26  H   UNL     1     130.575 120.238 109.150  1.00  0.00     0.293 HD
ENDBRANCH   5  25
BRANCH   7  27
ATOM     27  O   UNL     1     129.000 124.289 112.010  1.00  0.00    -0.507 OA
ATOM     28  H   UNL     1     128.266 123.777 112.478  1.00  0.00     0.293 HD
ENDBRANCH   7  27
TORSDOF 7
ENDMDL
