MODEL 1
REMARK VINA RESULT:    -4.546      0.000      0.000
REMARK INTER + INTRA:          -7.593
REMARK INTER:                  -6.937
REMARK INTRA:                  -0.656
REMARK UNBOUND:                -0.656
REMARK SMILES CCCCCCCCCCC(=O)[O-]
REMARK SMILES IDX 7 1 8 2 9 3 10 4 11 5 12 6 13 7 6 8 5 9 4 10 3 11 2 12 1 13
REMARK H PARENT
REMARK Flexibility Score: inf
ROOT
ATOM      1  C   UNL     1      46.316   5.220 130.054  1.00  0.00     0.000 C 
ENDROOT
BRANCH   1   2
ATOM      2  C   UNL     1      47.213   4.509 131.080  1.00  0.00     0.000 C 
BRANCH   2   3
ATOM      3  C   UNL     1      46.436   4.059 132.330  1.00  0.00     0.006 C 
BRANCH   3   4
ATOM      4  C   UNL     1      44.934   3.906 132.055  1.00  0.00     0.053 C 
BRANCH   4   5
ATOM      5  C   UNL     1      44.416   2.583 132.527  1.00  0.00     0.041 C 
ATOM      6  O   UNL     1      43.190   2.434 132.774  1.00  0.00    -0.550 OA
ATOM      7  O   UNL     1      45.281   1.505 132.662  1.00  0.00    -0.550 OA
ENDBRANCH   4   5
ENDBRANCH   3   4
ENDBRANCH   2   3
ENDBRANCH   1   2
BRANCH   1   8
ATOM      8  C   UNL     1      47.050   5.517 128.735  1.00  0.00     0.000 C 
BRANCH   8   9
ATOM      9  C   UNL     1      46.125   5.435 127.506  1.00  0.00    -0.000 C 
BRANCH   9  10
ATOM     10  C   UNL     1      44.730   4.844 127.784  1.00  0.00    -0.000 C 
BRANCH  10  11
ATOM     11  C   UNL     1      43.671   5.306 126.772  1.00  0.00    -0.000 C 
BRANCH  11  12
ATOM     12  C   UNL     1      42.485   5.967 127.483  1.00  0.00    -0.003 C 
ATOM     13  C   UNL     1      42.946   6.769 128.696  1.00  0.00     0.004 C 
ENDBRANCH  11  12
ENDBRANCH  10  11
ENDBRANCH   9  10
ENDBRANCH   8   9
ENDBRANCH   1   8
TORSDOF 9
ENDMDL
MODEL 2
REMARK VINA RESULT:    -4.472      1.137      1.723
REMARK INTER + INTRA:          -7.480
REMARK INTER:                  -6.655
REMARK INTRA:                  -0.825
REMARK UNBOUND:                -0.656
REMARK SMILES CCCCCCCCCCC(=O)[O-]
REMARK SMILES IDX 7 1 8 2 9 3 10 4 11 5 12 6 13 7 6 8 5 9 4 10 3 11 2 12 1 13
REMARK H PARENT
REMARK Flexibility Score: inf
ROOT
ATOM      1  C   UNL     1      47.417   4.911 130.451  1.00  0.00     0.000 C 
ENDROOT
BRANCH   1   2
ATOM      2  C   UNL     1      46.564   4.392 131.618  1.00  0.00     0.000 C 
BRANCH   2   3
ATOM      3  C   UNL     1      45.095   4.163 131.219  1.00  0.00     0.006 C 
BRANCH   3   4
ATOM      4  C   UNL     1      44.219   3.793 132.423  1.00  0.00     0.053 C 
BRANCH   4   5
ATOM      5  C   UNL     1      44.461   2.386 132.874  1.00  0.00     0.041 C 
ATOM      6  O   UNL     1      45.072   2.161 133.951  1.00  0.00    -0.550 OA
ATOM      7  O   UNL     1      43.980   1.322 132.121  1.00  0.00    -0.550 OA
ENDBRANCH   4   5
ENDBRANCH   3   4
ENDBRANCH   2   3
ENDBRANCH   1   2
BRANCH   1   8
ATOM      8  C   UNL     1      46.569   5.316 129.234  1.00  0.00     0.000 C 
BRANCH   8   9
ATOM      9  C   UNL     1      46.401   6.841 129.103  1.00  0.00    -0.000 C 
BRANCH   9  10
ATOM     10  C   UNL     1      45.116   7.292 128.384  1.00  0.00    -0.000 C 
BRANCH  10  11
ATOM     11  C   UNL     1      43.850   7.082 129.228  1.00  0.00    -0.000 C 
BRANCH  11  12
ATOM     12  C   UNL     1      42.732   6.450 128.391  1.00  0.00    -0.003 C 
ATOM     13  C   UNL     1      43.299   5.698 127.191  1.00  0.00     0.004 C 
ENDBRANCH  11  12
ENDBRANCH  10  11
ENDBRANCH   9  10
ENDBRANCH   8   9
ENDBRANCH   1   8
TORSDOF 9
ENDMDL
MODEL 3
REMARK VINA RESULT:    -4.457      2.822      5.662
REMARK INTER + INTRA:          -7.458
REMARK INTER:                  -6.918
REMARK INTRA:                  -0.540
REMARK UNBOUND:                -0.656
REMARK SMILES CCCCCCCCCCC(=O)[O-]
REMARK SMILES IDX 7 1 8 2 9 3 10 4 11 5 12 6 13 7 6 8 5 9 4 10 3 11 2 12 1 13
REMARK H PARENT
REMARK Flexibility Score: inf
ROOT
ATOM      1  C   UNL     1      47.156   5.674 129.699  1.00  0.00     0.000 C 
ENDROOT
BRANCH   1   2
ATOM      2  C   UNL     1      46.626   5.437 128.277  1.00  0.00     0.000 C 
BRANCH   2   3
ATOM      3  C   UNL     1      45.226   4.799 128.269  1.00  0.00     0.006 C 
BRANCH   3   4
ATOM      4  C   UNL     1      44.291   5.467 127.252  1.00  0.00     0.053 C 
BRANCH   4   5
ATOM      5  C   UNL     1      43.248   6.306 127.925  1.00  0.00     0.041 C 
ATOM      6  O   UNL     1      42.059   6.292 127.511  1.00  0.00    -0.550 OA
ATOM      7  O   UNL     1      43.583   7.076 129.031  1.00  0.00    -0.550 OA
ENDBRANCH   4   5
ENDBRANCH   3   4
ENDBRANCH   2   3
ENDBRANCH   1   2
BRANCH   1   8
ATOM      8  C   UNL     1      47.986   4.491 130.225  1.00  0.00     0.000 C 
BRANCH   8   9
ATOM      9  C   UNL     1      47.566   4.048 131.639  1.00  0.00    -0.000 C 
BRANCH   9  10
ATOM     10  C   UNL     1      46.057   4.153 131.929  1.00  0.00    -0.000 C 
BRANCH  10  11
ATOM     11  C   UNL     1      45.732   4.125 133.429  1.00  0.00    -0.000 C 
BRANCH  11  12
ATOM     12  C   UNL     1      46.186   2.806 134.065  1.00  0.00    -0.003 C 
ATOM     13  C   UNL     1      46.249   2.920 135.585  1.00  0.00     0.004 C 
ENDBRANCH  11  12
ENDBRANCH  10  11
ENDBRANCH   9  10
ENDBRANCH   8   9
ENDBRANCH   1   8
TORSDOF 9
ENDMDL
MODEL 4
REMARK VINA RESULT:    -4.438      5.581      7.091
REMARK INTER + INTRA:          -7.429
REMARK INTER:                  -6.707
REMARK INTRA:                  -0.721
REMARK UNBOUND:                -0.656
REMARK SMILES CCCCCCCCCCC(=O)[O-]
REMARK SMILES IDX 7 1 8 2 9 3 10 4 11 5 12 6 13 7 6 8 5 9 4 10 3 11 2 12 1 13
REMARK H PARENT
REMARK Flexibility Score: inf
ROOT
ATOM      1  C   UNL     1      47.979   7.222 127.712  1.00  0.00     0.000 C 
ENDROOT
BRANCH   1   2
ATOM      2  C   UNL     1      48.109   7.487 126.205  1.00  0.00     0.000 C 
BRANCH   2   3
ATOM      3  C   UNL     1      46.801   8.006 125.582  1.00  0.00     0.006 C 
BRANCH   3   4
ATOM      4  C   UNL     1      46.916   8.189 124.063  1.00  0.00     0.053 C 
BRANCH   4   5
ATOM      5  C   UNL     1      46.690   9.613 123.656  1.00  0.00     0.041 C 
ATOM      6  O   UNL     1      46.021  10.384 124.393  1.00  0.00    -0.550 OA
ATOM      7  O   UNL     1      47.249  10.097 122.480  1.00  0.00    -0.550 OA
ENDBRANCH   4   5
ENDBRANCH   3   4
ENDBRANCH   2   3
ENDBRANCH   1   2
BRANCH   1   8
ATOM      8  C   UNL     1      46.581   6.712 128.103  1.00  0.00     0.000 C 
BRANCH   8   9
ATOM      9  C   UNL     1      46.412   5.199 127.876  1.00  0.00    -0.000 C 
BRANCH   9  10
ATOM     10  C   UNL     1      44.952   4.720 127.764  1.00  0.00    -0.000 C 
BRANCH  10  11
ATOM     11  C   UNL     1      44.269   5.173 126.466  1.00  0.00    -0.000 C 
BRANCH  11  12
ATOM     12  C   UNL     1      42.809   5.564 126.722  1.00  0.00    -0.003 C 
ATOM     13  C   UNL     1      42.662   6.314 128.043  1.00  0.00     0.004 C 
ENDBRANCH  11  12
ENDBRANCH  10  11
ENDBRANCH   9  10
ENDBRANCH   8   9
ENDBRANCH   1   8
TORSDOF 9
ENDMDL
MODEL 5
REMARK VINA RESULT:    -4.433      2.853      5.512
REMARK INTER + INTRA:          -7.421
REMARK INTER:                  -6.883
REMARK INTRA:                  -0.538
REMARK UNBOUND:                -0.656
REMARK SMILES CCCCCCCCCCC(=O)[O-]
REMARK SMILES IDX 7 1 8 2 9 3 10 4 11 5 12 6 13 7 6 8 5 9 4 10 3 11 2 12 1 13
REMARK H PARENT
REMARK Flexibility Score: inf
ROOT
ATOM      1  C   UNL     1      47.389   4.481 131.393  1.00  0.00     0.000 C 
ENDROOT
BRANCH   1   2
ATOM      2  C   UNL     1      46.815   5.063 130.092  1.00  0.00     0.000 C 
BRANCH   2   3
ATOM      3  C   UNL     1      45.281   4.951 130.022  1.00  0.00     0.006 C 
BRANCH   3   4
ATOM      4  C   UNL     1      44.752   5.120 128.592  1.00  0.00     0.053 C 
BRANCH   4   5
ATOM      5  C   UNL     1      43.945   6.373 128.443  1.00  0.00     0.041 C 
ATOM      6  O   UNL     1      44.486   7.499 128.601  1.00  0.00    -0.550 OA
ATOM      7  O   UNL     1      42.602   6.297 128.094  1.00  0.00    -0.550 OA
ENDBRANCH   4   5
ENDBRANCH   3   4
ENDBRANCH   2   3
ENDBRANCH   1   2
BRANCH   1   8
ATOM      8  C   UNL     1      46.297   4.155 132.426  1.00  0.00     0.000 C 
BRANCH   8   9
ATOM      9  C   UNL     1      46.264   2.664 132.809  1.00  0.00    -0.000 C 
BRANCH   9  10
ATOM     10  C   UNL     1      45.042   2.236 133.643  1.00  0.00    -0.000 C 
BRANCH  10  11
ATOM     11  C   UNL     1      43.752   2.145 132.815  1.00  0.00    -0.000 C 
BRANCH  11  12
ATOM     12  C   UNL     1      43.694   0.828 132.033  1.00  0.00    -0.003 C 
ATOM     13  C   UNL     1      42.279   0.257 132.021  1.00  0.00     0.004 C 
ENDBRANCH  11  12
ENDBRANCH  10  11
ENDBRANCH   9  10
ENDBRANCH   8   9
ENDBRANCH   1   8
TORSDOF 9
ENDMDL
MODEL 6
REMARK VINA RESULT:    -4.405      1.421      1.930
REMARK INTER + INTRA:          -7.378
REMARK INTER:                  -6.525
REMARK INTRA:                  -0.854
REMARK UNBOUND:                -0.656
REMARK SMILES CCCCCCCCCCC(=O)[O-]
REMARK SMILES IDX 7 1 8 2 9 3 10 4 11 5 12 6 13 7 6 8 5 9 4 10 3 11 2 12 1 13
REMARK H PARENT
REMARK Flexibility Score: inf
ROOT
ATOM      1  C   UNL     1      46.803   4.865 129.144  1.00  0.00     0.000 C 
ENDROOT
BRANCH   1   2
ATOM      2  C   UNL     1      46.077   4.847 130.498  1.00  0.00     0.000 C 
BRANCH   2   3
ATOM      3  C   UNL     1      47.017   4.501 131.666  1.00  0.00     0.006 C 
BRANCH   3   4
ATOM      4  C   UNL     1      46.652   3.166 132.328  1.00  0.00     0.053 C 
BRANCH   4   5
ATOM      5  C   UNL     1      45.566   3.330 133.347  1.00  0.00     0.041 C 
ATOM      6  O   UNL     1      44.376   3.042 133.057  1.00  0.00    -0.550 OA
ATOM      7  O   UNL     1      45.876   3.769 134.628  1.00  0.00    -0.550 OA
ENDBRANCH   4   5
ENDBRANCH   3   4
ENDBRANCH   2   3
ENDBRANCH   1   2
BRANCH   1   8
ATOM      8  C   UNL     1      47.113   6.291 128.659  1.00  0.00     0.000 C 
BRANCH   8   9
ATOM      9  C   UNL     1      46.051   7.316 129.099  1.00  0.00    -0.000 C 
BRANCH   9  10
ATOM     10  C   UNL     1      44.879   7.497 128.116  1.00  0.00    -0.000 C 
BRANCH  10  11
ATOM     11  C   UNL     1      43.519   7.136 128.730  1.00  0.00    -0.000 C 
BRANCH  11  12
ATOM     12  C   UNL     1      42.846   6.003 127.946  1.00  0.00    -0.003 C 
ATOM     13  C   UNL     1      43.694   5.582 126.749  1.00  0.00     0.004 C 
ENDBRANCH  11  12
ENDBRANCH  10  11
ENDBRANCH   9  10
ENDBRANCH   8   9
ENDBRANCH   1   8
TORSDOF 9
ENDMDL
MODEL 7
REMARK VINA RESULT:    -4.393      1.302      2.386
REMARK INTER + INTRA:          -7.359
REMARK INTER:                  -6.806
REMARK INTRA:                  -0.553
REMARK UNBOUND:                -0.656
REMARK SMILES CCCCCCCCCCC(=O)[O-]
REMARK SMILES IDX 7 1 8 2 9 3 10 4 11 5 12 6 13 7 6 8 5 9 4 10 3 11 2 12 1 13
REMARK H PARENT
REMARK Flexibility Score: inf
ROOT
ATOM      1  C   UNL     1      45.719   4.083 132.264  1.00  0.00     0.000 C 
ENDROOT
BRANCH   1   2
ATOM      2  C   UNL     1      46.080   3.237 133.494  1.00  0.00     0.000 C 
BRANCH   2   3
ATOM      3  C   UNL     1      44.966   2.247 133.877  1.00  0.00     0.006 C 
BRANCH   3   4
ATOM      4  C   UNL     1      43.904   2.117 132.777  1.00  0.00     0.053 C 
BRANCH   4   5
ATOM      5  C   UNL     1      43.883   0.742 132.184  1.00  0.00     0.041 C 
ATOM      6  O   UNL     1      44.878  -0.019 132.313  1.00  0.00    -0.550 OA
ATOM      7  O   UNL     1      42.751   0.288 131.520  1.00  0.00    -0.550 OA
ENDBRANCH   4   5
ENDBRANCH   3   4
ENDBRANCH   2   3
ENDBRANCH   1   2
BRANCH   1   8
ATOM      8  C   UNL     1      46.947   4.437 131.409  1.00  0.00     0.000 C 
BRANCH   8   9
ATOM      9  C   UNL     1      46.575   5.123 130.081  1.00  0.00    -0.000 C 
BRANCH   9  10
ATOM     10  C   UNL     1      45.104   4.956 129.657  1.00  0.00    -0.000 C 
BRANCH  10  11
ATOM     11  C   UNL     1      44.901   5.066 128.139  1.00  0.00    -0.000 C 
BRANCH  11  12
ATOM     12  C   UNL     1      43.625   5.850 127.812  1.00  0.00    -0.003 C 
ATOM     13  C   UNL     1      43.415   6.997 128.796  1.00  0.00     0.004 C 
ENDBRANCH  11  12
ENDBRANCH  10  11
ENDBRANCH   9  10
ENDBRANCH   8   9
ENDBRANCH   1   8
TORSDOF 9
ENDMDL
MODEL 8
REMARK VINA RESULT:    -4.360      2.852      5.165
REMARK INTER + INTRA:          -7.310
REMARK INTER:                  -6.543
REMARK INTRA:                  -0.767
REMARK UNBOUND:                -0.656
REMARK SMILES CCCCCCCCCCC(=O)[O-]
REMARK SMILES IDX 7 1 8 2 9 3 10 4 11 5 12 6 13 7 6 8 5 9 4 10 3 11 2 12 1 13
REMARK H PARENT
REMARK Flexibility Score: inf
ROOT
ATOM      1  C   UNL     1      46.448   5.310 130.046  1.00  0.00     0.000 C 
ENDROOT
BRANCH   1   2
ATOM      2  C   UNL     1      46.633   6.580 129.201  1.00  0.00     0.000 C 
BRANCH   2   3
ATOM      3  C   UNL     1      45.293   7.207 128.776  1.00  0.00     0.006 C 
BRANCH   3   4
ATOM      4  C   UNL     1      44.126   6.219 128.901  1.00  0.00     0.053 C 
BRANCH   4   5
ATOM      5  C   UNL     1      43.657   5.741 127.562  1.00  0.00     0.041 C 
ATOM      6  O   UNL     1      44.423   5.069 126.823  1.00  0.00    -0.550 OA
ATOM      7  O   UNL     1      42.359   6.009 127.144  1.00  0.00    -0.550 OA
ENDBRANCH   4   5
ENDBRANCH   3   4
ENDBRANCH   2   3
ENDBRANCH   1   2
BRANCH   1   8
ATOM      8  C   UNL     1      47.784   4.727 130.535  1.00  0.00     0.000 C 
BRANCH   8   9
ATOM      9  C   UNL     1      47.609   3.710 131.678  1.00  0.00    -0.000 C 
BRANCH   9  10
ATOM     10  C   UNL     1      46.399   3.969 132.596  1.00  0.00    -0.000 C 
BRANCH  10  11
ATOM     11  C   UNL     1      45.629   2.688 132.949  1.00  0.00    -0.000 C 
BRANCH  11  12
ATOM     12  C   UNL     1      44.152   2.810 132.557  1.00  0.00    -0.003 C 
ATOM     13  C   UNL     1      43.788   4.253 132.223  1.00  0.00     0.004 C 
ENDBRANCH  11  12
ENDBRANCH  10  11
ENDBRANCH   9  10
ENDBRANCH   8   9
ENDBRANCH   1   8
TORSDOF 9
ENDMDL
MODEL 9
REMARK VINA RESULT:    -4.306      6.155      7.891
REMARK INTER + INTRA:          -7.228
REMARK INTER:                  -6.676
REMARK INTRA:                  -0.551
REMARK UNBOUND:                -0.656
REMARK SMILES CCCCCCCCCCC(=O)[O-]
REMARK SMILES IDX 7 1 8 2 9 3 10 4 11 5 12 6 13 7 6 8 5 9 4 10 3 11 2 12 1 13
REMARK H PARENT
REMARK Flexibility Score: inf
ROOT
ATOM      1  C   UNL     1      46.993   7.940 125.734  1.00  0.00     0.000 C 
ENDROOT
BRANCH   1   2
ATOM      2  C   UNL     1      48.069   8.203 124.669  1.00  0.00     0.000 C 
BRANCH   2   3
ATOM      3  C   UNL     1      47.792   9.477 123.852  1.00  0.00     0.006 C 
BRANCH   3   4
ATOM      4  C   UNL     1      46.292   9.785 123.752  1.00  0.00     0.053 C 
BRANCH   4   5
ATOM      5  C   UNL     1      45.996  11.216 124.083  1.00  0.00     0.041 C 
ATOM      6  O   UNL     1      44.808  11.633 124.089  1.00  0.00    -0.550 OA
ATOM      7  O   UNL     1      47.030  12.079 124.420  1.00  0.00    -0.550 OA
ENDBRANCH   4   5
ENDBRANCH   3   4
ENDBRANCH   2   3
ENDBRANCH   1   2
BRANCH   1   8
ATOM      8  C   UNL     1      47.504   7.055 126.883  1.00  0.00     0.000 C 
BRANCH   8   9
ATOM      9  C   UNL     1      46.623   7.144 128.143  1.00  0.00    -0.000 C 
BRANCH   9  10
ATOM     10  C   UNL     1      45.208   6.557 127.987  1.00  0.00    -0.000 C 
BRANCH  10  11
ATOM     11  C   UNL     1      45.213   5.098 127.510  1.00  0.00    -0.000 C 
BRANCH  11  12
ATOM     12  C   UNL     1      44.100   4.852 126.484  1.00  0.00    -0.003 C 
ATOM     13  C   UNL     1      42.836   5.626 126.847  1.00  0.00     0.004 C 
ENDBRANCH  11  12
ENDBRANCH  10  11
ENDBRANCH   9  10
ENDBRANCH   8   9
ENDBRANCH   1   8
TORSDOF 9
ENDMDL
