MODEL 1
REMARK VINA RESULT:    -4.159      0.000      0.000
REMARK INTER + INTRA:          -4.835
REMARK INTER:                  -4.767
REMARK INTRA:                  -0.068
REMARK UNBOUND:                -0.068
REMARK SMILES CC(C)[C@H]([NH3+])C(=O)[O-]
REMARK SMILES IDX 4 1 5 2 6 6 7 7 8 8 2 9 1 10 3 11
REMARK H PARENT 5 3 5 4 5 5
REMARK Flexibility Score: inf
ROOT
ATOM      1  C   UNL     1       0.072  -3.279   2.832  1.00  0.00     0.230 C 
ENDROOT
BRANCH   1   2
ATOM      2  N   UNL     1      -1.129  -2.486   2.531  1.00  0.00    -0.350 N 
ATOM      3  H   UNL     1      -0.894  -1.754   1.820  1.00  0.00     0.345 HD
ATOM      4  H   UNL     1      -1.463  -2.002   3.395  1.00  0.00     0.345 HD
ATOM      5  H   UNL     1      -1.898  -3.083   2.152  1.00  0.00     0.345 HD
ENDBRANCH   1   2
BRANCH   1   6
ATOM      6  C   UNL     1       1.181  -2.956   1.859  1.00  0.00     0.099 C 
ATOM      7  O   UNL     1       1.116  -3.367   0.670  1.00  0.00    -0.544 OA
ATOM      8  O   UNL     1       2.266  -2.180   2.253  1.00  0.00    -0.544 OA
ENDBRANCH   1   6
BRANCH   1   9
ATOM      9  C   UNL     1      -0.246  -4.804   2.895  1.00  0.00     0.047 C 
ATOM     10  C   UNL     1       0.898  -5.649   3.479  1.00  0.00     0.014 C 
ATOM     11  C   UNL     1      -1.545  -5.071   3.670  1.00  0.00     0.014 C 
ENDBRANCH   1   9
TORSDOF 3
ENDMDL
MODEL 2
REMARK VINA RESULT:    -3.894      2.140      2.738
REMARK INTER + INTRA:          -4.531
REMARK INTER:                  -4.473
REMARK INTRA:                  -0.058
REMARK UNBOUND:                -0.068
REMARK SMILES CC(C)[C@H]([NH3+])C(=O)[O-]
REMARK SMILES IDX 4 1 5 2 6 6 7 7 8 8 2 9 1 10 3 11
REMARK H PARENT 5 3 5 4 5 5
REMARK Flexibility Score: inf
ROOT
ATOM      1  C   UNL     1       2.169  -3.982   2.238  1.00  0.00     0.230 C 
ENDROOT
BRANCH   1   2
ATOM      2  N   UNL     1       3.228  -4.731   2.930  1.00  0.00    -0.350 N 
ATOM      3  H   UNL     1       3.780  -4.077   3.533  1.00  0.00     0.345 HD
ATOM      4  H   UNL     1       3.880  -5.156   2.233  1.00  0.00     0.345 HD
ATOM      5  H   UNL     1       2.832  -5.485   3.535  1.00  0.00     0.345 HD
ENDBRANCH   1   2
BRANCH   1   6
ATOM      6  C   UNL     1       2.649  -2.597   1.872  1.00  0.00     0.099 C 
ATOM      7  O   UNL     1       3.235  -1.886   2.731  1.00  0.00    -0.544 OA
ATOM      8  O   UNL     1       2.478  -2.104   0.583  1.00  0.00    -0.544 OA
ENDBRANCH   1   6
BRANCH   1   9
ATOM      9  C   UNL     1       0.846  -3.961   3.061  1.00  0.00     0.047 C 
ATOM     10  C   UNL     1      -0.295  -3.190   2.377  1.00  0.00     0.014 C 
ATOM     11  C   UNL     1       0.384  -5.383   3.411  1.00  0.00     0.014 C 
ENDBRANCH   1   9
TORSDOF 3
ENDMDL
MODEL 3
REMARK VINA RESULT:    -3.806      4.380      5.187
REMARK INTER + INTRA:          -4.430
REMARK INTER:                  -4.376
REMARK INTRA:                  -0.054
REMARK UNBOUND:                -0.068
REMARK SMILES CC(C)[C@H]([NH3+])C(=O)[O-]
REMARK SMILES IDX 4 1 5 2 6 6 7 7 8 8 2 9 1 10 3 11
REMARK H PARENT 5 3 5 4 5 5
REMARK Flexibility Score: inf
ROOT
ATOM      1  C   UNL     1       4.476  -2.427   0.707  1.00  0.00     0.230 C 
ENDROOT
BRANCH   1   2
ATOM      2  N   UNL     1       5.075  -1.551  -0.311  1.00  0.00    -0.350 N 
ATOM      3  H   UNL     1       4.746  -1.845  -1.260  1.00  0.00     0.345 HD
ATOM      4  H   UNL     1       6.116  -1.636  -0.289  1.00  0.00     0.345 HD
ATOM      5  H   UNL     1       4.808  -0.552  -0.161  1.00  0.00     0.345 HD
ENDBRANCH   1   2
BRANCH   1   6
ATOM      6  C   UNL     1       3.009  -2.647   0.423  1.00  0.00     0.099 C 
ATOM      7  O   UNL     1       2.655  -3.485  -0.450  1.00  0.00    -0.544 OA
ATOM      8  O   UNL     1       2.037  -1.955   1.136  1.00  0.00    -0.544 OA
ENDBRANCH   1   6
BRANCH   1   9
ATOM      9  C   UNL     1       4.736  -1.897   2.149  1.00  0.00     0.047 C 
ATOM     10  C   UNL     1       4.984  -3.009   3.181  1.00  0.00     0.014 C 
ATOM     11  C   UNL     1       5.896  -0.890   2.173  1.00  0.00     0.014 C 
ENDBRANCH   1   9
TORSDOF 3
ENDMDL
MODEL 4
REMARK VINA RESULT:    -3.779      0.872      1.468
REMARK INTER + INTRA:          -4.400
REMARK INTER:                  -4.353
REMARK INTRA:                  -0.046
REMARK UNBOUND:                -0.068
REMARK SMILES CC(C)[C@H]([NH3+])C(=O)[O-]
REMARK SMILES IDX 4 1 5 2 6 6 7 7 8 8 2 9 1 10 3 11
REMARK H PARENT 5 3 5 4 5 5
REMARK Flexibility Score: inf
ROOT
ATOM      1  C   UNL     1       0.782  -3.115   2.440  1.00  0.00     0.230 C 
ENDROOT
BRANCH   1   2
ATOM      2  N   UNL     1      -0.486  -2.624   1.879  1.00  0.00    -0.350 N 
ATOM      3  H   UNL     1      -0.302  -2.156   0.961  1.00  0.00     0.345 HD
ATOM      4  H   UNL     1      -0.912  -1.919   2.522  1.00  0.00     0.345 HD
ATOM      5  H   UNL     1      -1.164  -3.404   1.725  1.00  0.00     0.345 HD
ENDBRANCH   1   2
BRANCH   1   6
ATOM      6  C   UNL     1       1.922  -2.860   1.481  1.00  0.00     0.099 C 
ATOM      7  O   UNL     1       2.923  -2.194   1.856  1.00  0.00    -0.544 OA
ATOM      8  O   UNL     1       1.892  -3.379   0.191  1.00  0.00    -0.544 OA
ENDBRANCH   1   6
BRANCH   1   9
ATOM      9  C   UNL     1       0.681  -4.610   2.869  1.00  0.00     0.047 C 
ATOM     10  C   UNL     1       1.502  -4.948   4.125  1.00  0.00     0.014 C 
ATOM     11  C   UNL     1      -0.781  -5.037   3.066  1.00  0.00     0.014 C 
ENDBRANCH   1   9
TORSDOF 3
ENDMDL
MODEL 5
REMARK VINA RESULT:    -3.767      8.868     10.316
REMARK INTER + INTRA:          -4.386
REMARK INTER:                  -4.370
REMARK INTRA:                  -0.016
REMARK UNBOUND:                -0.068
REMARK SMILES CC(C)[C@H]([NH3+])C(=O)[O-]
REMARK SMILES IDX 4 1 5 2 6 6 7 7 8 8 2 9 1 10 3 11
REMARK H PARENT 5 3 5 4 5 5
REMARK Flexibility Score: inf
ROOT
ATOM      1  C   UNL     1       7.368   3.141   1.949  1.00  0.00     0.230 C 
ENDROOT
BRANCH   1   2
ATOM      2  N   UNL     1       6.437   3.979   1.180  1.00  0.00    -0.350 N 
ATOM      3  H   UNL     1       6.920   4.341   0.325  1.00  0.00     0.345 HD
ATOM      4  H   UNL     1       6.137   4.800   1.753  1.00  0.00     0.345 HD
ATOM      5  H   UNL     1       5.593   3.440   0.882  1.00  0.00     0.345 HD
ENDBRANCH   1   2
BRANCH   1   6
ATOM      6  C   UNL     1       6.624   2.037   2.664  1.00  0.00     0.099 C 
ATOM      7  O   UNL     1       5.853   1.276   2.019  1.00  0.00    -0.544 OA
ATOM      8  O   UNL     1       6.801   1.829   4.027  1.00  0.00    -0.544 OA
ENDBRANCH   1   6
BRANCH   1   9
ATOM      9  C   UNL     1       8.249   3.992   2.912  1.00  0.00     0.047 C 
ATOM     10  C   UNL     1       9.529   4.537   2.257  1.00  0.00     0.014 C 
ATOM     11  C   UNL     1       7.445   5.144   3.532  1.00  0.00     0.014 C 
ENDBRANCH   1   9
TORSDOF 3
ENDMDL
MODEL 6
REMARK VINA RESULT:    -3.723      2.304      2.717
REMARK INTER + INTRA:          -4.335
REMARK INTER:                  -4.289
REMARK INTRA:                  -0.045
REMARK UNBOUND:                -0.068
REMARK SMILES CC(C)[C@H]([NH3+])C(=O)[O-]
REMARK SMILES IDX 4 1 5 2 6 6 7 7 8 8 2 9 1 10 3 11
REMARK H PARENT 5 3 5 4 5 5
REMARK Flexibility Score: inf
ROOT
ATOM      1  C   UNL     1       1.757  -3.936   1.481  1.00  0.00     0.230 C 
ENDROOT
BRANCH   1   2
ATOM      2  N   UNL     1       1.782  -4.527   0.135  1.00  0.00    -0.350 N 
ATOM      3  H   UNL     1       2.273  -3.877  -0.522  1.00  0.00     0.345 HD
ATOM      4  H   UNL     1       0.806  -4.663  -0.214  1.00  0.00     0.345 HD
ATOM      5  H   UNL     1       2.281  -5.445   0.129  1.00  0.00     0.345 HD
ENDBRANCH   1   2
BRANCH   1   6
ATOM      6  C   UNL     1       2.497  -2.618   1.497  1.00  0.00     0.099 C 
ATOM      7  O   UNL     1       2.697  -1.995   0.421  1.00  0.00    -0.544 OA
ATOM      8  O   UNL     1       2.937  -2.067   2.695  1.00  0.00    -0.544 OA
ENDBRANCH   1   6
BRANCH   1   9
ATOM      9  C   UNL     1       2.282  -4.933   2.558  1.00  0.00     0.047 C 
ATOM     10  C   UNL     1       1.352  -5.072   3.775  1.00  0.00     0.014 C 
ATOM     11  C   UNL     1       2.562  -6.315   1.949  1.00  0.00     0.014 C 
ENDBRANCH   1   9
TORSDOF 3
ENDMDL
MODEL 7
REMARK VINA RESULT:    -3.715      5.182      6.214
REMARK INTER + INTRA:          -4.326
REMARK INTER:                  -4.265
REMARK INTRA:                  -0.062
REMARK UNBOUND:                -0.068
REMARK SMILES CC(C)[C@H]([NH3+])C(=O)[O-]
REMARK SMILES IDX 4 1 5 2 6 6 7 7 8 8 2 9 1 10 3 11
REMARK H PARENT 5 3 5 4 5 5
REMARK Flexibility Score: inf
ROOT
ATOM      1  C   UNL     1       5.283  -1.401   0.318  1.00  0.00     0.230 C 
ENDROOT
BRANCH   1   2
ATOM      2  N   UNL     1       5.302  -0.450  -0.804  1.00  0.00    -0.350 N 
ATOM      3  H   UNL     1       4.319  -0.206  -1.069  1.00  0.00     0.345 HD
ATOM      4  H   UNL     1       5.763  -0.886  -1.634  1.00  0.00     0.345 HD
ATOM      5  H   UNL     1       5.806   0.429  -0.552  1.00  0.00     0.345 HD
ENDBRANCH   1   2
BRANCH   1   6
ATOM      6  C   UNL     1       4.029  -2.242   0.282  1.00  0.00     0.099 C 
ATOM      7  O   UNL     1       2.902  -1.698   0.431  1.00  0.00    -0.544 OA
ATOM      8  O   UNL     1       4.100  -3.612   0.058  1.00  0.00    -0.544 OA
ENDBRANCH   1   6
BRANCH   1   9
ATOM      9  C   UNL     1       5.486  -0.682   1.686  1.00  0.00     0.047 C 
ATOM     10  C   UNL     1       5.345  -1.614   2.900  1.00  0.00     0.014 C 
ATOM     11  C   UNL     1       6.837   0.048   1.738  1.00  0.00     0.014 C 
ENDBRANCH   1   9
TORSDOF 3
ENDMDL
MODEL 8
REMARK VINA RESULT:    -3.677      3.307      4.393
REMARK INTER + INTRA:          -4.282
REMARK INTER:                  -4.234
REMARK INTRA:                  -0.048
REMARK UNBOUND:                -0.068
REMARK SMILES CC(C)[C@H]([NH3+])C(=O)[O-]
REMARK SMILES IDX 4 1 5 2 6 6 7 7 8 8 2 9 1 10 3 11
REMARK H PARENT 5 3 5 4 5 5
REMARK Flexibility Score: inf
ROOT
ATOM      1  C   UNL     1       2.828  -3.843   0.695  1.00  0.00     0.230 C 
ENDROOT
BRANCH   1   2
ATOM      2  N   UNL     1       1.599  -4.509   0.237  1.00  0.00    -0.350 N 
ATOM      3  H   UNL     1       0.767  -4.014   0.635  1.00  0.00     0.345 HD
ATOM      4  H   UNL     1       1.580  -5.497   0.575  1.00  0.00     0.345 HD
ATOM      5  H   UNL     1       1.524  -4.500  -0.804  1.00  0.00     0.345 HD
ENDBRANCH   1   2
BRANCH   1   6
ATOM      6  C   UNL     1       2.497  -2.580   1.455  1.00  0.00     0.099 C 
ATOM      7  O   UNL     1       1.503  -1.884   1.118  1.00  0.00    -0.544 OA
ATOM      8  O   UNL     1       3.264  -2.188   2.547  1.00  0.00    -0.544 OA
ENDBRANCH   1   6
BRANCH   1   9
ATOM      9  C   UNL     1       3.821  -3.595  -0.480  1.00  0.00     0.047 C 
ATOM     10  C   UNL     1       5.298  -3.750  -0.083  1.00  0.00     0.014 C 
ATOM     11  C   UNL     1       3.501  -4.499  -1.680  1.00  0.00     0.014 C 
ENDBRANCH   1   9
TORSDOF 3
ENDMDL
MODEL 9
REMARK VINA RESULT:    -3.645      2.725      3.031
REMARK INTER + INTRA:          -4.246
REMARK INTER:                  -4.178
REMARK INTRA:                  -0.067
REMARK UNBOUND:                -0.068
REMARK SMILES CC(C)[C@H]([NH3+])C(=O)[O-]
REMARK SMILES IDX 4 1 5 2 6 6 7 7 8 8 2 9 1 10 3 11
REMARK H PARENT 5 3 5 4 5 5
REMARK Flexibility Score: inf
ROOT
ATOM      1  C   UNL     1       3.397  -4.016   2.218  1.00  0.00     0.230 C 
ENDROOT
BRANCH   1   2
ATOM      2  N   UNL     1       4.301  -4.154   3.369  1.00  0.00    -0.350 N 
ATOM      3  H   UNL     1       4.606  -5.152   3.455  1.00  0.00     0.345 HD
ATOM      4  H   UNL     1       3.803  -3.891   4.249  1.00  0.00     0.345 HD
ATOM      5  H   UNL     1       5.151  -3.555   3.263  1.00  0.00     0.345 HD
ENDBRANCH   1   2
BRANCH   1   6
ATOM      6  C   UNL     1       3.058  -2.563   1.978  1.00  0.00     0.099 C 
ATOM      7  O   UNL     1       2.212  -2.251   1.098  1.00  0.00    -0.544 OA
ATOM      8  O   UNL     1       3.649  -1.562   2.740  1.00  0.00    -0.544 OA
ENDBRANCH   1   6
BRANCH   1   9
ATOM      9  C   UNL     1       2.130  -4.911   2.370  1.00  0.00     0.047 C 
ATOM     10  C   UNL     1       2.403  -6.409   2.150  1.00  0.00     0.014 C 
ATOM     11  C   UNL     1       1.454  -4.695   3.732  1.00  0.00     0.014 C 
ENDBRANCH   1   9
TORSDOF 3
ENDMDL
