MODEL 1
REMARK VINA RESULT:    -3.027      0.000      0.000
REMARK INTER + INTRA:          -8.268
REMARK INTER:                  -5.504
REMARK INTRA:                  -2.764
REMARK UNBOUND:                -2.764
REMARK SMILES CCCCCCCCCCCCCC[C@H](C)C(=O)[O-]
REMARK SMILES IDX 9 1 10 2 11 3 12 4 13 5 14 6 15 7 16 8 17 9 18 10 19 11 8 12
REMARK SMILES IDX 7 13 6 14 5 15 4 16 3 17 2 18 1 19
REMARK H PARENT
REMARK Flexibility Score: inf
ROOT
ATOM      1  C   UNL     1    -103.514 -30.483 -14.224  1.00  0.00     0.000 C 
ENDROOT
BRANCH   1   2
ATOM      2  C   UNL     1    -103.473 -30.151 -15.725  1.00  0.00     0.000 C 
BRANCH   2   3
ATOM      3  C   UNL     1    -102.042 -29.872 -16.229  1.00  0.00     0.000 C 
BRANCH   3   4
ATOM      4  C   UNL     1    -101.759 -28.381 -16.497  1.00  0.00     0.000 C 
BRANCH   4   5
ATOM      5  C   UNL     1    -102.999 -27.474 -16.513  1.00  0.00     0.001 C 
BRANCH   5   6
ATOM      6  C   UNL     1    -102.999 -26.298 -15.506  1.00  0.00     0.009 C 
BRANCH   6   7
ATOM      7  C   UNL     1    -104.345 -25.941 -14.820  1.00  0.00     0.032 C 
ATOM      8  C   UNL     1    -105.560 -26.584 -15.506  1.00  0.00     0.014 C 
BRANCH   7   9
ATOM      9  C   UNL     1    -104.527 -24.460 -14.615  1.00  0.00     0.044 C 
ATOM     10  O   UNL     1    -104.642 -23.699 -15.612  1.00  0.00    -0.550 OA
ATOM     11  O   UNL     1    -104.614 -23.921 -13.336  1.00  0.00    -0.550 OA
ENDBRANCH   7   9
ENDBRANCH   6   7
ENDBRANCH   5   6
ENDBRANCH   4   5
ENDBRANCH   3   4
ENDBRANCH   2   3
ENDBRANCH   1   2
BRANCH   1  12
ATOM     12  C   UNL     1    -104.409 -29.522 -13.420  1.00  0.00     0.000 C 
BRANCH  12  13
ATOM     13  C   UNL     1    -103.657 -28.559 -12.482  1.00  0.00    -0.000 C 
BRANCH  13  14
ATOM     14  C   UNL     1    -102.191 -28.958 -12.262  1.00  0.00    -0.000 C 
BRANCH  14  15
ATOM     15  C   UNL     1    -101.277 -27.723 -12.281  1.00  0.00    -0.000 C 
BRANCH  15  16
ATOM     16  C   UNL     1    -100.142 -27.841 -13.310  1.00  0.00    -0.000 C 
BRANCH  16  17
ATOM     17  C   UNL     1     -99.678 -29.293 -13.518  1.00  0.00    -0.000 C 
BRANCH  17  18
ATOM     18  C   UNL     1     -98.277 -29.551 -12.943  1.00  0.00    -0.003 C 
ATOM     19  C   UNL     1     -98.302 -29.917 -11.460  1.00  0.00     0.004 C 
ENDBRANCH  17  18
ENDBRANCH  16  17
ENDBRANCH  15  16
ENDBRANCH  14  15
ENDBRANCH  13  14
ENDBRANCH  12  13
ENDBRANCH   1  12
TORSDOF 14
ENDMDL
MODEL 2
REMARK VINA RESULT:    -2.996      3.773      7.034
REMARK INTER + INTRA:          -8.211
REMARK INTER:                  -6.181
REMARK INTRA:                  -2.030
REMARK UNBOUND:                -2.764
REMARK SMILES CCCCCCCCCCCCCC[C@H](C)C(=O)[O-]
REMARK SMILES IDX 9 1 10 2 11 3 12 4 13 5 14 6 15 7 16 8 17 9 18 10 19 11 8 12
REMARK SMILES IDX 7 13 6 14 5 15 4 16 3 17 2 18 1 19
REMARK H PARENT
REMARK Flexibility Score: inf
ROOT
ATOM      1  C   UNL     1    -101.249 -28.553 -11.489  1.00  0.00     0.000 C 
ENDROOT
BRANCH   1   2
ATOM      2  C   UNL     1    -101.520 -30.064 -11.572  1.00  0.00     0.000 C 
BRANCH   2   3
ATOM      3  C   UNL     1    -100.228 -30.886 -11.766  1.00  0.00     0.000 C 
BRANCH   3   4
ATOM      4  C   UNL     1     -99.953 -31.270 -13.233  1.00  0.00     0.000 C 
BRANCH   4   5
ATOM      5  C   UNL     1     -98.900 -30.408 -13.946  1.00  0.00     0.001 C 
BRANCH   5   6
ATOM      6  C   UNL     1     -98.046 -29.485 -13.043  1.00  0.00     0.009 C 
BRANCH   6   7
ATOM      7  C   UNL     1     -96.570 -29.895 -12.791  1.00  0.00     0.032 C 
ATOM      8  C   UNL     1     -96.182 -31.207 -13.488  1.00  0.00     0.014 C 
BRANCH   7   9
ATOM      9  C   UNL     1     -96.200 -29.897 -11.330  1.00  0.00     0.044 C 
ATOM     10  O   UNL     1     -94.989 -29.848 -10.991  1.00  0.00    -0.550 OA
ATOM     11  O   UNL     1     -97.182 -29.908 -10.345  1.00  0.00    -0.550 OA
ENDBRANCH   7   9
ENDBRANCH   6   7
ENDBRANCH   5   6
ENDBRANCH   4   5
ENDBRANCH   3   4
ENDBRANCH   2   3
ENDBRANCH   1   2
BRANCH   1  12
ATOM     12  C   UNL     1    -102.014 -27.745 -12.553  1.00  0.00     0.000 C 
BRANCH  12  13
ATOM     13  C   UNL     1    -101.331 -27.668 -13.931  1.00  0.00    -0.000 C 
BRANCH  13  14
ATOM     14  C   UNL     1    -102.008 -28.554 -14.987  1.00  0.00    -0.000 C 
BRANCH  14  15
ATOM     15  C   UNL     1    -101.943 -27.900 -16.375  1.00  0.00    -0.000 C 
BRANCH  15  16
ATOM     16  C   UNL     1    -103.309 -27.376 -16.849  1.00  0.00    -0.000 C 
BRANCH  16  17
ATOM     17  C   UNL     1    -103.560 -25.916 -16.432  1.00  0.00    -0.000 C 
BRANCH  17  18
ATOM     18  C   UNL     1    -104.708 -25.783 -15.420  1.00  0.00    -0.003 C 
ATOM     19  C   UNL     1    -104.270 -25.137 -14.107  1.00  0.00     0.004 C 
ENDBRANCH  17  18
ENDBRANCH  16  17
ENDBRANCH  15  16
ENDBRANCH  14  15
ENDBRANCH  13  14
ENDBRANCH  12  13
ENDBRANCH   1  12
TORSDOF 14
ENDMDL
MODEL 3
REMARK VINA RESULT:    -2.940      1.160      2.960
REMARK INTER + INTRA:          -8.111
REMARK INTER:                  -5.411
REMARK INTRA:                  -2.699
REMARK UNBOUND:                -2.764
REMARK SMILES CCCCCCCCCCCCCC[C@H](C)C(=O)[O-]
REMARK SMILES IDX 9 1 10 2 11 3 12 4 13 5 14 6 15 7 16 8 17 9 18 10 19 11 8 12
REMARK SMILES IDX 7 13 6 14 5 15 4 16 3 17 2 18 1 19
REMARK H PARENT
REMARK Flexibility Score: inf
ROOT
ATOM      1  C   UNL     1    -100.728 -30.832 -14.944  1.00  0.00     0.000 C 
ENDROOT
BRANCH   1   2
ATOM      2  C   UNL     1    -101.073 -30.340 -16.359  1.00  0.00     0.000 C 
BRANCH   2   3
ATOM      3  C   UNL     1    -102.295 -29.397 -16.374  1.00  0.00     0.000 C 
BRANCH   3   4
ATOM      4  C   UNL     1    -101.925 -27.902 -16.312  1.00  0.00     0.000 C 
BRANCH   4   5
ATOM      5  C   UNL     1    -103.073 -26.932 -16.636  1.00  0.00     0.001 C 
BRANCH   5   6
ATOM      6  C   UNL     1    -104.102 -26.689 -15.506  1.00  0.00     0.009 C 
BRANCH   6   7
ATOM      7  C   UNL     1    -104.130 -25.281 -14.853  1.00  0.00     0.032 C 
ATOM      8  C   UNL     1    -104.446 -25.320 -13.351  1.00  0.00     0.014 C 
BRANCH   7   9
ATOM      9  C   UNL     1    -105.009 -24.306 -15.593  1.00  0.00     0.044 C 
ATOM     10  O   UNL     1    -104.839 -23.069 -15.438  1.00  0.00    -0.550 OA
ATOM     11  O   UNL     1    -105.978 -24.753 -16.484  1.00  0.00    -0.550 OA
ENDBRANCH   7   9
ENDBRANCH   6   7
ENDBRANCH   5   6
ENDBRANCH   4   5
ENDBRANCH   3   4
ENDBRANCH   2   3
ENDBRANCH   1   2
BRANCH   1  12
ATOM     12  C   UNL     1     -99.501 -30.122 -14.343  1.00  0.00     0.000 C 
BRANCH  12  13
ATOM     13  C   UNL     1     -99.761 -29.371 -13.024  1.00  0.00    -0.000 C 
BRANCH  13  14
ATOM     14  C   UNL     1    -100.152 -27.901 -13.237  1.00  0.00    -0.000 C 
BRANCH  14  15
ATOM     15  C   UNL     1    -101.520 -27.600 -12.606  1.00  0.00    -0.000 C 
BRANCH  15  16
ATOM     16  C   UNL     1    -102.249 -28.869 -12.136  1.00  0.00    -0.000 C 
BRANCH  16  17
ATOM     17  C   UNL     1    -103.536 -29.143 -12.934  1.00  0.00    -0.000 C 
BRANCH  17  18
ATOM     18  C   UNL     1    -103.893 -30.637 -12.980  1.00  0.00    -0.003 C 
ATOM     19  C   UNL     1    -102.981 -31.493 -12.104  1.00  0.00     0.004 C 
ENDBRANCH  17  18
ENDBRANCH  16  17
ENDBRANCH  15  16
ENDBRANCH  14  15
ENDBRANCH  13  14
ENDBRANCH  12  13
ENDBRANCH   1  12
TORSDOF 14
ENDMDL
MODEL 4
REMARK VINA RESULT:    -2.879      3.615      6.485
REMARK INTER + INTRA:          -8.000
REMARK INTER:                  -5.751
REMARK INTRA:                  -2.249
REMARK UNBOUND:                -2.764
REMARK SMILES CCCCCCCCCCCCCC[C@H](C)C(=O)[O-]
REMARK SMILES IDX 9 1 10 2 11 3 12 4 13 5 14 6 15 7 16 8 17 9 18 10 19 11 8 12
REMARK SMILES IDX 7 13 6 14 5 15 4 16 3 17 2 18 1 19
REMARK H PARENT
REMARK Flexibility Score: inf
ROOT
ATOM      1  C   UNL     1    -101.964 -28.025 -16.461  1.00  0.00     0.000 C 
ENDROOT
BRANCH   1   2
ATOM      2  C   UNL     1    -101.979 -29.284 -15.578  1.00  0.00     0.000 C 
BRANCH   2   3
ATOM      3  C   UNL     1    -102.267 -28.963 -14.096  1.00  0.00     0.000 C 
BRANCH   3   4
ATOM      4  C   UNL     1    -101.639 -27.640 -13.616  1.00  0.00     0.000 C 
BRANCH   4   5
ATOM      5  C   UNL     1    -100.139 -27.711 -13.287  1.00  0.00     0.001 C 
BRANCH   5   6
ATOM      6  C   UNL     1     -99.627 -29.058 -12.721  1.00  0.00     0.009 C 
BRANCH   6   7
ATOM      7  C   UNL     1     -98.328 -29.646 -13.336  1.00  0.00     0.032 C 
ATOM      8  C   UNL     1     -98.596 -30.745 -14.374  1.00  0.00     0.014 C 
BRANCH   7   9
ATOM      9  C   UNL     1     -97.329 -30.080 -12.295  1.00  0.00     0.044 C 
ATOM     10  O   UNL     1     -96.129 -29.710 -12.387  1.00  0.00    -0.550 OA
ATOM     11  O   UNL     1     -97.722 -30.848 -11.204  1.00  0.00    -0.550 OA
ENDBRANCH   7   9
ENDBRANCH   6   7
ENDBRANCH   5   6
ENDBRANCH   4   5
ENDBRANCH   3   4
ENDBRANCH   2   3
ENDBRANCH   1   2
BRANCH   1  12
ATOM     12  C   UNL     1    -103.374 -27.478 -16.749  1.00  0.00     0.000 C 
BRANCH  12  13
ATOM     13  C   UNL     1    -103.499 -25.943 -16.712  1.00  0.00    -0.000 C 
BRANCH  13  14
ATOM     14  C   UNL     1    -104.689 -25.458 -15.871  1.00  0.00    -0.000 C 
BRANCH  14  15
ATOM     15  C   UNL     1    -104.240 -25.085 -14.449  1.00  0.00    -0.000 C 
BRANCH  15  16
ATOM     16  C   UNL     1    -104.823 -26.021 -13.378  1.00  0.00    -0.000 C 
BRANCH  16  17
ATOM     17  C   UNL     1    -106.048 -26.805 -13.880  1.00  0.00    -0.000 C 
BRANCH  17  18
ATOM     18  C   UNL     1    -105.948 -28.309 -13.581  1.00  0.00    -0.003 C 
ATOM     19  C   UNL     1    -105.914 -29.165 -14.845  1.00  0.00     0.004 C 
ENDBRANCH  17  18
ENDBRANCH  16  17
ENDBRANCH  15  16
ENDBRANCH  14  15
ENDBRANCH  13  14
ENDBRANCH  12  13
ENDBRANCH   1  12
TORSDOF 14
ENDMDL
MODEL 5
REMARK VINA RESULT:    -2.878      1.813      2.477
REMARK INTER + INTRA:          -7.997
REMARK INTER:                  -5.702
REMARK INTRA:                  -2.295
REMARK UNBOUND:                -2.764
REMARK SMILES CCCCCCCCCCCCCC[C@H](C)C(=O)[O-]
REMARK SMILES IDX 9 1 10 2 11 3 12 4 13 5 14 6 15 7 16 8 17 9 18 10 19 11 8 12
REMARK SMILES IDX 7 13 6 14 5 15 4 16 3 17 2 18 1 19
REMARK H PARENT
REMARK Flexibility Score: inf
ROOT
ATOM      1  C   UNL     1    -101.138 -31.578 -15.326  1.00  0.00     0.000 C 
ENDROOT
BRANCH   1   2
ATOM      2  C   UNL     1    -100.898 -30.329 -16.191  1.00  0.00     0.000 C 
BRANCH   2   3
ATOM      3  C   UNL     1    -102.167 -29.465 -16.347  1.00  0.00     0.000 C 
BRANCH   3   4
ATOM      4  C   UNL     1    -101.881 -27.953 -16.429  1.00  0.00     0.000 C 
BRANCH   4   5
ATOM      5  C   UNL     1    -101.996 -27.194 -15.097  1.00  0.00     0.001 C 
BRANCH   5   6
ATOM      6  C   UNL     1    -103.390 -26.611 -14.761  1.00  0.00     0.009 C 
BRANCH   6   7
ATOM      7  C   UNL     1    -104.146 -25.865 -15.893  1.00  0.00     0.032 C 
ATOM      8  C   UNL     1    -104.412 -24.387 -15.569  1.00  0.00     0.014 C 
BRANCH   7   9
ATOM      9  C   UNL     1    -105.394 -26.582 -16.339  1.00  0.00     0.044 C 
ATOM     10  O   UNL     1    -106.482 -25.953 -16.419  1.00  0.00    -0.550 OA
ATOM     11  O   UNL     1    -105.354 -27.922 -16.710  1.00  0.00    -0.550 OA
ENDBRANCH   7   9
ENDBRANCH   6   7
ENDBRANCH   5   6
ENDBRANCH   4   5
ENDBRANCH   3   4
ENDBRANCH   2   3
ENDBRANCH   1   2
BRANCH   1  12
ATOM     12  C   UNL     1    -102.213 -31.362 -14.245  1.00  0.00     0.000 C 
BRANCH  12  13
ATOM     13  C   UNL     1    -101.670 -31.079 -12.832  1.00  0.00    -0.000 C 
BRANCH  13  14
ATOM     14  C   UNL     1    -101.639 -29.583 -12.489  1.00  0.00    -0.000 C 
BRANCH  14  15
ATOM     15  C   UNL     1    -100.238 -29.155 -12.026  1.00  0.00    -0.000 C 
BRANCH  15  16
ATOM     16  C   UNL     1     -99.288 -28.863 -13.199  1.00  0.00    -0.000 C 
BRANCH  16  17
ATOM     17  C   UNL     1     -97.937 -29.586 -13.061  1.00  0.00    -0.000 C 
BRANCH  17  18
ATOM     18  C   UNL     1     -98.029 -31.078 -13.418  1.00  0.00    -0.003 C 
ATOM     19  C   UNL     1     -97.234 -31.438 -14.672  1.00  0.00     0.004 C 
ENDBRANCH  17  18
ENDBRANCH  16  17
ENDBRANCH  15  16
ENDBRANCH  14  15
ENDBRANCH  13  14
ENDBRANCH  12  13
ENDBRANCH   1  12
TORSDOF 14
ENDMDL
MODEL 6
REMARK VINA RESULT:    -2.863      3.878      7.001
REMARK INTER + INTRA:          -7.970
REMARK INTER:                  -6.200
REMARK INTRA:                  -1.770
REMARK UNBOUND:                -2.764
REMARK SMILES CCCCCCCCCCCCCC[C@H](C)C(=O)[O-]
REMARK SMILES IDX 9 1 10 2 11 3 12 4 13 5 14 6 15 7 16 8 17 9 18 10 19 11 8 12
REMARK SMILES IDX 7 13 6 14 5 15 4 16 3 17 2 18 1 19
REMARK H PARENT
REMARK Flexibility Score: inf
ROOT
ATOM      1  C   UNL     1    -103.544 -29.096 -12.828  1.00  0.00     0.000 C 
ENDROOT
BRANCH   1   2
ATOM      2  C   UNL     1    -102.676 -27.843 -12.624  1.00  0.00     0.000 C 
BRANCH   2   3
ATOM      3  C   UNL     1    -101.298 -28.173 -12.012  1.00  0.00     0.000 C 
BRANCH   3   4
ATOM      4  C   UNL     1    -100.133 -28.060 -13.015  1.00  0.00     0.000 C 
BRANCH   4   5
ATOM      5  C   UNL     1     -99.444 -29.389 -13.366  1.00  0.00     0.001 C 
BRANCH   5   6
ATOM      6  C   UNL     1     -97.922 -29.462 -13.093  1.00  0.00     0.009 C 
BRANCH   6   7
ATOM      7  C   UNL     1     -97.449 -30.344 -11.906  1.00  0.00     0.032 C 
ATOM      8  C   UNL     1     -98.134 -29.986 -10.578  1.00  0.00     0.014 C 
BRANCH   7   9
ATOM      9  C   UNL     1     -95.949 -30.398 -11.774  1.00  0.00     0.044 C 
ATOM     10  O   UNL     1     -95.364 -29.639 -10.957  1.00  0.00    -0.550 OA
ATOM     11  O   UNL     1     -95.200 -31.309 -12.512  1.00  0.00    -0.550 OA
ENDBRANCH   7   9
ENDBRANCH   6   7
ENDBRANCH   5   6
ENDBRANCH   4   5
ENDBRANCH   3   4
ENDBRANCH   2   3
ENDBRANCH   1   2
BRANCH   1  12
ATOM     12  C   UNL     1    -103.823 -29.397 -14.312  1.00  0.00     0.000 C 
BRANCH  12  13
ATOM     13  C   UNL     1    -102.582 -29.749 -15.153  1.00  0.00    -0.000 C 
BRANCH  13  14
ATOM     14  C   UNL     1    -102.439 -28.875 -16.408  1.00  0.00    -0.000 C 
BRANCH  14  15
ATOM     15  C   UNL     1    -102.211 -27.404 -16.030  1.00  0.00    -0.000 C 
BRANCH  15  16
ATOM     16  C   UNL     1    -103.234 -26.458 -16.678  1.00  0.00    -0.000 C 
BRANCH  16  17
ATOM     17  C   UNL     1    -104.415 -26.134 -15.746  1.00  0.00    -0.000 C 
BRANCH  17  18
ATOM     18  C   UNL     1    -104.253 -24.778 -15.042  1.00  0.00    -0.003 C 
ATOM     19  C   UNL     1    -104.695 -24.812 -13.580  1.00  0.00     0.004 C 
ENDBRANCH  17  18
ENDBRANCH  16  17
ENDBRANCH  15  16
ENDBRANCH  14  15
ENDBRANCH  13  14
ENDBRANCH  12  13
ENDBRANCH   1  12
TORSDOF 14
ENDMDL
MODEL 7
REMARK VINA RESULT:    -2.817      3.167      6.222
REMARK INTER + INTRA:          -7.887
REMARK INTER:                  -5.733
REMARK INTRA:                  -2.154
REMARK UNBOUND:                -2.764
REMARK SMILES CCCCCCCCCCCCCC[C@H](C)C(=O)[O-]
REMARK SMILES IDX 9 1 10 2 11 3 12 4 13 5 14 6 15 7 16 8 17 9 18 10 19 11 8 12
REMARK SMILES IDX 7 13 6 14 5 15 4 16 3 17 2 18 1 19
REMARK H PARENT
REMARK Flexibility Score: inf
ROOT
ATOM      1  C   UNL     1    -104.994 -29.164 -14.914  1.00  0.00     0.000 C 
ENDROOT
BRANCH   1   2
ATOM      2  C   UNL     1    -103.546 -29.550 -14.568  1.00  0.00     0.000 C 
BRANCH   2   3
ATOM      3  C   UNL     1    -102.619 -29.531 -15.801  1.00  0.00     0.000 C 
BRANCH   3   4
ATOM      4  C   UNL     1    -101.442 -28.544 -15.676  1.00  0.00     0.000 C 
BRANCH   4   5
ATOM      5  C   UNL     1    -101.491 -27.623 -14.446  1.00  0.00     0.001 C 
BRANCH   5   6
ATOM      6  C   UNL     1    -100.388 -27.843 -13.383  1.00  0.00     0.009 C 
BRANCH   6   7
ATOM      7  C   UNL     1    -100.103 -29.303 -12.938  1.00  0.00     0.032 C 
ATOM      8  C   UNL     1    -101.115 -29.829 -11.911  1.00  0.00     0.014 C 
BRANCH   7   9
ATOM      9  C   UNL     1     -98.679 -29.515 -12.493  1.00  0.00     0.044 C 
ATOM     10  O   UNL     1     -97.741 -29.415 -13.326  1.00  0.00    -0.550 OA
ATOM     11  O   UNL     1     -98.380 -29.776 -11.160  1.00  0.00    -0.550 OA
ENDBRANCH   7   9
ENDBRANCH   6   7
ENDBRANCH   5   6
ENDBRANCH   4   5
ENDBRANCH   3   4
ENDBRANCH   2   3
ENDBRANCH   1   2
BRANCH   1  12
ATOM     12  C   UNL     1    -105.156 -28.681 -16.367  1.00  0.00     0.000 C 
BRANCH  12  13
ATOM     13  C   UNL     1    -105.411 -27.171 -16.529  1.00  0.00    -0.000 C 
BRANCH  13  14
ATOM     14  C   UNL     1    -104.212 -26.419 -17.124  1.00  0.00    -0.000 C 
BRANCH  14  15
ATOM     15  C   UNL     1    -103.687 -25.360 -16.144  1.00  0.00    -0.000 C 
BRANCH  15  16
ATOM     16  C   UNL     1    -104.409 -25.397 -14.787  1.00  0.00    -0.000 C 
BRANCH  16  17
ATOM     17  C   UNL     1    -104.992 -24.029 -14.389  1.00  0.00    -0.000 C 
BRANCH  17  18
ATOM     18  C   UNL     1    -105.582 -23.270 -15.587  1.00  0.00    -0.003 C 
ATOM     19  C   UNL     1    -105.099 -21.823 -15.670  1.00  0.00     0.004 C 
ENDBRANCH  17  18
ENDBRANCH  16  17
ENDBRANCH  15  16
ENDBRANCH  14  15
ENDBRANCH  13  14
ENDBRANCH  12  13
ENDBRANCH   1  12
TORSDOF 14
ENDMDL
MODEL 8
REMARK VINA RESULT:    -2.794      4.054      6.710
REMARK INTER + INTRA:          -7.845
REMARK INTER:                  -5.726
REMARK INTRA:                  -2.119
REMARK UNBOUND:                -2.764
REMARK SMILES CCCCCCCCCCCCCC[C@H](C)C(=O)[O-]
REMARK SMILES IDX 9 1 10 2 11 3 12 4 13 5 14 6 15 7 16 8 17 9 18 10 19 11 8 12
REMARK SMILES IDX 7 13 6 14 5 15 4 16 3 17 2 18 1 19
REMARK H PARENT
REMARK Flexibility Score: inf
ROOT
ATOM      1  C   UNL     1    -102.232 -30.248 -13.375  1.00  0.00     0.000 C 
ENDROOT
BRANCH   1   2
ATOM      2  C   UNL     1    -102.118 -29.433 -12.076  1.00  0.00     0.000 C 
BRANCH   2   3
ATOM      3  C   UNL     1    -100.974 -28.399 -12.126  1.00  0.00     0.000 C 
BRANCH   3   4
ATOM      4  C   UNL     1    -100.072 -28.532 -13.369  1.00  0.00     0.000 C 
BRANCH   4   5
ATOM      5  C   UNL     1     -98.688 -29.147 -13.108  1.00  0.00     0.001 C 
BRANCH   5   6
ATOM      6  C   UNL     1     -98.526 -30.644 -13.465  1.00  0.00     0.009 C 
BRANCH   6   7
ATOM      7  C   UNL     1     -98.346 -31.008 -14.963  1.00  0.00     0.032 C 
ATOM      8  C   UNL     1     -99.582 -31.686 -15.572  1.00  0.00     0.014 C 
BRANCH   7   9
ATOM      9  C   UNL     1     -97.082 -31.783 -15.232  1.00  0.00     0.044 C 
ATOM     10  O   UNL     1     -96.029 -31.501 -14.602  1.00  0.00    -0.550 OA
ATOM     11  O   UNL     1     -97.071 -32.838 -16.138  1.00  0.00    -0.550 OA
ENDBRANCH   7   9
ENDBRANCH   6   7
ENDBRANCH   5   6
ENDBRANCH   4   5
ENDBRANCH   3   4
ENDBRANCH   2   3
ENDBRANCH   1   2
BRANCH   1  12
ATOM     12  C   UNL     1    -103.634 -30.179 -14.007  1.00  0.00     0.000 C 
BRANCH  12  13
ATOM     13  C   UNL     1    -103.713 -29.415 -15.341  1.00  0.00    -0.000 C 
BRANCH  13  14
ATOM     14  C   UNL     1    -102.401 -29.460 -16.138  1.00  0.00    -0.000 C 
BRANCH  14  15
ATOM     15  C   UNL     1    -101.944 -28.045 -16.524  1.00  0.00    -0.000 C 
BRANCH  15  16
ATOM     16  C   UNL     1    -102.569 -26.957 -15.636  1.00  0.00    -0.000 C 
BRANCH  16  17
ATOM     17  C   UNL     1    -103.400 -25.941 -16.440  1.00  0.00    -0.000 C 
BRANCH  17  18
ATOM     18  C   UNL     1    -104.208 -24.996 -15.537  1.00  0.00    -0.003 C 
ATOM     19  C   UNL     1    -104.321 -25.501 -14.100  1.00  0.00     0.004 C 
ENDBRANCH  17  18
ENDBRANCH  16  17
ENDBRANCH  15  16
ENDBRANCH  14  15
ENDBRANCH  13  14
ENDBRANCH  12  13
ENDBRANCH   1  12
TORSDOF 14
ENDMDL
MODEL 9
REMARK VINA RESULT:    -2.790      3.816      6.434
REMARK INTER + INTRA:          -7.838
REMARK INTER:                  -5.403
REMARK INTRA:                  -2.435
REMARK UNBOUND:                -2.764
REMARK SMILES CCCCCCCCCCCCCC[C@H](C)C(=O)[O-]
REMARK SMILES IDX 9 1 10 2 11 3 12 4 13 5 14 6 15 7 16 8 17 9 18 10 19 11 8 12
REMARK SMILES IDX 7 13 6 14 5 15 4 16 3 17 2 18 1 19
REMARK H PARENT
REMARK Flexibility Score: inf
ROOT
ATOM      1  C   UNL     1    -102.293 -31.518 -14.749  1.00  0.00     0.000 C 
ENDROOT
BRANCH   1   2
ATOM      2  C   UNL     1    -102.219 -31.524 -13.213  1.00  0.00     0.000 C 
BRANCH   2   3
ATOM      3  C   UNL     1    -100.805 -31.196 -12.689  1.00  0.00     0.000 C 
BRANCH   3   4
ATOM      4  C   UNL     1     -99.673 -31.668 -13.623  1.00  0.00     0.000 C 
BRANCH   4   5
ATOM      5  C   UNL     1     -98.761 -30.553 -14.159  1.00  0.00     0.001 C 
BRANCH   5   6
ATOM      6  C   UNL     1     -98.089 -29.650 -13.097  1.00  0.00     0.009 C 
BRANCH   6   7
ATOM      7  C   UNL     1     -96.591 -29.908 -12.783  1.00  0.00     0.032 C 
ATOM      8  C   UNL     1     -96.030 -31.147 -13.495  1.00  0.00     0.014 C 
BRANCH   7   9
ATOM      9  C   UNL     1     -96.292 -29.917 -11.306  1.00  0.00     0.044 C 
ATOM     10  O   UNL     1     -95.098 -29.893 -10.909  1.00  0.00    -0.550 OA
ATOM     11  O   UNL     1     -97.321 -29.907 -10.369  1.00  0.00    -0.550 OA
ENDBRANCH   7   9
ENDBRANCH   6   7
ENDBRANCH   5   6
ENDBRANCH   4   5
ENDBRANCH   3   4
ENDBRANCH   2   3
ENDBRANCH   1   2
BRANCH   1  12
ATOM     12  C   UNL     1    -102.821 -30.189 -15.319  1.00  0.00     0.000 C 
BRANCH  12  13
ATOM     13  C   UNL     1    -101.941 -29.551 -16.410  1.00  0.00    -0.000 C 
BRANCH  13  14
ATOM     14  C   UNL     1    -101.765 -28.036 -16.229  1.00  0.00    -0.000 C 
BRANCH  14  15
ATOM     15  C   UNL     1    -102.147 -27.605 -14.805  1.00  0.00    -0.000 C 
BRANCH  15  16
ATOM     16  C   UNL     1    -100.944 -27.578 -13.849  1.00  0.00    -0.000 C 
BRANCH  16  17
ATOM     17  C   UNL     1    -101.355 -27.731 -12.374  1.00  0.00    -0.000 C 
BRANCH  17  18
ATOM     18  C   UNL     1    -102.862 -27.981 -12.206  1.00  0.00    -0.003 C 
ATOM     19  C   UNL     1    -103.197 -28.753 -10.932  1.00  0.00     0.004 C 
ENDBRANCH  17  18
ENDBRANCH  16  17
ENDBRANCH  15  16
ENDBRANCH  14  15
ENDBRANCH  13  14
ENDBRANCH  12  13
ENDBRANCH   1  12
TORSDOF 14
ENDMDL
