MODEL 1
REMARK VINA RESULT:    -5.707      0.000      0.000
REMARK INTER + INTRA:         -12.236
REMARK INTER:                 -11.045
REMARK INTRA:                  -1.191
REMARK UNBOUND:                -1.191
REMARK SMILES CCCCCCCCCCCCCCCCCC(=O)[O-]
REMARK SMILES IDX 10 1 11 2 12 3 13 4 14 5 15 6 16 7 17 8 18 9 19 10 20 11
REMARK SMILES IDX 9 12 8 13 7 14 6 15 5 16 4 17 3 18 2 19 1 20
REMARK H PARENT
REMARK Flexibility Score: inf
ROOT
ATOM      1  C   UNL     1      -7.230  12.891   2.807  1.00  0.00     0.000 C 
ENDROOT
BRANCH   1   2
ATOM      2  C   UNL     1      -6.206  11.762   3.019  1.00  0.00     0.000 C 
BRANCH   2   3
ATOM      3  C   UNL     1      -6.494  10.533   2.142  1.00  0.00     0.000 C 
BRANCH   3   4
ATOM      4  C   UNL     1      -6.339   9.208   2.907  1.00  0.00     0.000 C 
BRANCH   4   5
ATOM      5  C   UNL     1      -5.146   9.269   3.872  1.00  0.00     0.000 C 
BRANCH   5   6
ATOM      6  C   UNL     1      -5.230   8.224   4.997  1.00  0.00     0.000 C 
BRANCH   6   7
ATOM      7  C   UNL     1      -4.396   8.548   6.254  1.00  0.00     0.006 C 
BRANCH   7   8
ATOM      8  C   UNL     1      -5.047   8.124   7.579  1.00  0.00     0.053 C 
BRANCH   8   9
ATOM      9  C   UNL     1      -5.108   6.635   7.721  1.00  0.00     0.041 C 
ATOM     10  O   UNL     1      -6.167   6.077   8.112  1.00  0.00    -0.550 OA
ATOM     11  O   UNL     1      -3.983   5.865   7.455  1.00  0.00    -0.550 OA
ENDBRANCH   8   9
ENDBRANCH   7   8
ENDBRANCH   6   7
ENDBRANCH   5   6
ENDBRANCH   4   5
ENDBRANCH   3   4
ENDBRANCH   2   3
ENDBRANCH   1   2
BRANCH   1  12
ATOM     12  C   UNL     1      -7.868  13.364   4.124  1.00  0.00     0.000 C 
BRANCH  12  13
ATOM     13  C   UNL     1      -9.398  13.217   4.129  1.00  0.00    -0.000 C 
BRANCH  13  14
ATOM     14  C   UNL     1      -9.854  12.198   3.079  1.00  0.00    -0.000 C 
BRANCH  14  15
ATOM     15  C   UNL     1     -10.719  11.100   3.714  1.00  0.00    -0.000 C 
BRANCH  15  16
ATOM     16  C   UNL     1     -11.218  11.467   5.123  1.00  0.00    -0.000 C 
BRANCH  16  17
ATOM     17  C   UNL     1     -12.104  10.402   5.795  1.00  0.00    -0.000 C 
BRANCH  17  18
ATOM     18  C   UNL     1     -11.958  10.383   7.327  1.00  0.00    -0.000 C 
BRANCH  18  19
ATOM     19  C   UNL     1     -12.269  11.746   7.963  1.00  0.00    -0.003 C 
ATOM     20  C   UNL     1     -11.193  12.193   8.952  1.00  0.00     0.004 C 
ENDBRANCH  18  19
ENDBRANCH  17  18
ENDBRANCH  16  17
ENDBRANCH  15  16
ENDBRANCH  14  15
ENDBRANCH  13  14
ENDBRANCH  12  13
ENDBRANCH   1  12
TORSDOF 16
ENDMDL
MODEL 2
REMARK VINA RESULT:    -5.698      4.412      7.612
REMARK INTER + INTRA:         -12.220
REMARK INTER:                 -10.714
REMARK INTRA:                  -1.506
REMARK UNBOUND:                -1.191
REMARK SMILES CCCCCCCCCCCCCCCCCC(=O)[O-]
REMARK SMILES IDX 10 1 11 2 12 3 13 4 14 5 15 6 16 7 17 8 18 9 19 10 20 11
REMARK SMILES IDX 9 12 8 13 7 14 6 15 5 16 4 17 3 18 2 19 1 20
REMARK H PARENT
REMARK Flexibility Score: inf
ROOT
ATOM      1  C   UNL     1     -11.092  12.250   8.956  1.00  0.00     0.000 C 
ENDROOT
BRANCH   1   2
ATOM      2  C   UNL     1     -12.564  12.253   8.508  1.00  0.00     0.000 C 
BRANCH   2   3
ATOM      3  C   UNL     1     -12.751  11.682   7.093  1.00  0.00     0.000 C 
BRANCH   3   4
ATOM      4  C   UNL     1     -11.431  11.207   6.464  1.00  0.00     0.000 C 
BRANCH   4   5
ATOM      5  C   UNL     1     -11.624  10.866   4.979  1.00  0.00     0.000 C 
BRANCH   5   6
ATOM      6  C   UNL     1     -10.506  11.428   4.084  1.00  0.00     0.000 C 
BRANCH   6   7
ATOM      7  C   UNL     1      -9.778  12.666   4.647  1.00  0.00     0.006 C 
BRANCH   7   8
ATOM      8  C   UNL     1      -9.349  13.691   3.587  1.00  0.00     0.053 C 
BRANCH   8   9
ATOM      9  C   UNL     1      -8.021  13.351   2.985  1.00  0.00     0.041 C 
ATOM     10  O   UNL     1      -7.752  13.694   1.803  1.00  0.00    -0.550 OA
ATOM     11  O   UNL     1      -7.091  12.626   3.719  1.00  0.00    -0.550 OA
ENDBRANCH   8   9
ENDBRANCH   7   8
ENDBRANCH   6   7
ENDBRANCH   5   6
ENDBRANCH   4   5
ENDBRANCH   3   4
ENDBRANCH   2   3
ENDBRANCH   1   2
BRANCH   1  12
ATOM     12  C   UNL     1     -10.565  13.661   9.263  1.00  0.00     0.000 C 
BRANCH  12  13
ATOM     13  C   UNL     1      -9.341  14.036   8.412  1.00  0.00    -0.000 C 
BRANCH  13  14
ATOM     14  C   UNL     1      -8.263  14.710   9.269  1.00  0.00    -0.000 C 
BRANCH  14  15
ATOM     15  C   UNL     1      -8.893  15.649  10.309  1.00  0.00    -0.000 C 
BRANCH  15  16
ATOM     16  C   UNL     1      -7.847  16.408  11.145  1.00  0.00    -0.000 C 
BRANCH  16  17
ATOM     17  C   UNL     1      -7.900  16.129  12.659  1.00  0.00    -0.000 C 
BRANCH  17  18
ATOM     18  C   UNL     1      -8.098  14.639  12.985  1.00  0.00    -0.000 C 
BRANCH  18  19
ATOM     19  C   UNL     1      -6.860  13.794  12.650  1.00  0.00    -0.003 C 
ATOM     20  C   UNL     1      -7.219  12.423  12.079  1.00  0.00     0.004 C 
ENDBRANCH  18  19
ENDBRANCH  17  18
ENDBRANCH  16  17
ENDBRANCH  15  16
ENDBRANCH  14  15
ENDBRANCH  13  14
ENDBRANCH  12  13
ENDBRANCH   1  12
TORSDOF 16
ENDMDL
MODEL 3
REMARK VINA RESULT:    -5.599      3.317      7.218
REMARK INTER + INTRA:         -12.027
REMARK INTER:                 -10.967
REMARK INTRA:                  -1.060
REMARK UNBOUND:                -1.191
REMARK SMILES CCCCCCCCCCCCCCCCCC(=O)[O-]
REMARK SMILES IDX 10 1 11 2 12 3 13 4 14 5 15 6 16 7 17 8 18 9 19 10 20 11
REMARK SMILES IDX 9 12 8 13 7 14 6 15 5 16 4 17 3 18 2 19 1 20
REMARK H PARENT
REMARK Flexibility Score: inf
ROOT
ATOM      1  C   UNL     1     -10.781  11.163   3.951  1.00  0.00     0.000 C 
ENDROOT
BRANCH   1   2
ATOM      2  C   UNL     1     -11.229  11.491   5.386  1.00  0.00     0.000 C 
BRANCH   2   3
ATOM      3  C   UNL     1     -12.166  10.422   5.970  1.00  0.00     0.000 C 
BRANCH   3   4
ATOM      4  C   UNL     1     -12.746  10.823   7.337  1.00  0.00     0.000 C 
BRANCH   4   5
ATOM      5  C   UNL     1     -11.623  11.136   8.337  1.00  0.00     0.000 C 
BRANCH   5   6
ATOM      6  C   UNL     1     -11.671  12.581   8.860  1.00  0.00     0.000 C 
BRANCH   6   7
ATOM      7  C   UNL     1     -10.395  13.055   9.586  1.00  0.00     0.006 C 
BRANCH   7   8
ATOM      8  C   UNL     1      -9.557  14.076   8.802  1.00  0.00     0.053 C 
BRANCH   8   9
ATOM      9  C   UNL     1      -8.732  14.937   9.708  1.00  0.00     0.041 C 
ATOM     10  O   UNL     1      -7.535  14.634   9.957  1.00  0.00    -0.550 OA
ATOM     11  O   UNL     1      -9.296  16.057  10.306  1.00  0.00    -0.550 OA
ENDBRANCH   8   9
ENDBRANCH   7   8
ENDBRANCH   6   7
ENDBRANCH   5   6
ENDBRANCH   4   5
ENDBRANCH   3   4
ENDBRANCH   2   3
ENDBRANCH   1   2
BRANCH   1  12
ATOM     12  C   UNL     1      -9.897  12.265   3.343  1.00  0.00     0.000 C 
BRANCH  12  13
ATOM     13  C   UNL     1      -9.120  13.058   4.406  1.00  0.00    -0.000 C 
BRANCH  13  14
ATOM     14  C   UNL     1      -7.686  13.336   3.943  1.00  0.00    -0.000 C 
BRANCH  14  15
ATOM     15  C   UNL     1      -7.202  12.255   2.965  1.00  0.00    -0.000 C 
BRANCH  15  16
ATOM     16  C   UNL     1      -5.941  11.522   3.455  1.00  0.00    -0.000 C 
BRANCH  16  17
ATOM     17  C   UNL     1      -5.932  10.004   3.198  1.00  0.00    -0.000 C 
BRANCH  17  18
ATOM     18  C   UNL     1      -4.599   9.340   3.584  1.00  0.00    -0.000 C 
BRANCH  18  19
ATOM     19  C   UNL     1      -4.755   8.335   4.736  1.00  0.00    -0.003 C 
ATOM     20  C   UNL     1      -4.489   8.963   6.104  1.00  0.00     0.004 C 
ENDBRANCH  18  19
ENDBRANCH  17  18
ENDBRANCH  16  17
ENDBRANCH  15  16
ENDBRANCH  14  15
ENDBRANCH  13  14
ENDBRANCH  12  13
ENDBRANCH   1  12
TORSDOF 16
ENDMDL
MODEL 4
REMARK VINA RESULT:    -5.590      4.400      7.796
REMARK INTER + INTRA:         -12.009
REMARK INTER:                 -11.110
REMARK INTRA:                  -0.900
REMARK UNBOUND:                -1.191
REMARK SMILES CCCCCCCCCCCCCCCCCC(=O)[O-]
REMARK SMILES IDX 10 1 11 2 12 3 13 4 14 5 15 6 16 7 17 8 18 9 19 10 20 11
REMARK SMILES IDX 9 12 8 13 7 14 6 15 5 16 4 17 3 18 2 19 1 20
REMARK H PARENT
REMARK Flexibility Score: inf
ROOT
ATOM      1  C   UNL     1     -10.939  12.614   9.000  1.00  0.00     0.000 C 
ENDROOT
BRANCH   1   2
ATOM      2  C   UNL     1     -12.455  12.653   8.742  1.00  0.00     0.000 C 
BRANCH   2   3
ATOM      3  C   UNL     1     -12.947  11.444   7.931  1.00  0.00     0.000 C 
BRANCH   3   4
ATOM      4  C   UNL     1     -11.813  10.736   7.172  1.00  0.00     0.000 C 
BRANCH   4   5
ATOM      5  C   UNL     1     -12.050  10.793   5.656  1.00  0.00     0.000 C 
BRANCH   5   6
ATOM      6  C   UNL     1     -10.960  11.579   4.907  1.00  0.00     0.000 C 
BRANCH   6   7
ATOM      7  C   UNL     1     -10.630  11.054   3.494  1.00  0.00     0.006 C 
BRANCH   7   8
ATOM      8  C   UNL     1      -9.366  11.661   2.868  1.00  0.00     0.053 C 
BRANCH   8   9
ATOM      9  C   UNL     1      -9.157  13.081   3.294  1.00  0.00     0.041 C 
ATOM     10  O   UNL     1      -8.316  13.359   4.190  1.00  0.00    -0.550 OA
ATOM     11  O   UNL     1      -9.915  14.096   2.725  1.00  0.00    -0.550 OA
ENDBRANCH   8   9
ENDBRANCH   7   8
ENDBRANCH   6   7
ENDBRANCH   5   6
ENDBRANCH   4   5
ENDBRANCH   3   4
ENDBRANCH   2   3
ENDBRANCH   1   2
BRANCH   1  12
ATOM     12  C   UNL     1     -10.391  13.960   9.504  1.00  0.00     0.000 C 
BRANCH  12  13
ATOM     13  C   UNL     1      -9.164  14.436   8.710  1.00  0.00    -0.000 C 
BRANCH  13  14
ATOM     14  C   UNL     1      -7.933  14.542   9.617  1.00  0.00    -0.000 C 
BRANCH  14  15
ATOM     15  C   UNL     1      -8.191  13.882  10.979  1.00  0.00    -0.000 C 
BRANCH  15  16
ATOM     16  C   UNL     1      -7.136  14.251  12.037  1.00  0.00    -0.000 C 
BRANCH  16  17
ATOM     17  C   UNL     1      -6.354  13.057  12.616  1.00  0.00    -0.000 C 
BRANCH  17  18
ATOM     18  C   UNL     1      -7.160  11.747  12.591  1.00  0.00    -0.000 C 
BRANCH  18  19
ATOM     19  C   UNL     1      -6.305  10.540  12.174  1.00  0.00    -0.003 C 
ATOM     20  C   UNL     1      -6.849   9.218  12.715  1.00  0.00     0.004 C 
ENDBRANCH  18  19
ENDBRANCH  17  18
ENDBRANCH  16  17
ENDBRANCH  15  16
ENDBRANCH  14  15
ENDBRANCH  13  14
ENDBRANCH  12  13
ENDBRANCH   1  12
TORSDOF 16
ENDMDL
MODEL 5
REMARK VINA RESULT:    -5.571      2.831      6.433
REMARK INTER + INTRA:         -11.973
REMARK INTER:                 -10.376
REMARK INTRA:                  -1.598
REMARK UNBOUND:                -1.191
REMARK SMILES CCCCCCCCCCCCCCCCCC(=O)[O-]
REMARK SMILES IDX 10 1 11 2 12 3 13 4 14 5 15 6 16 7 17 8 18 9 19 10 20 11
REMARK SMILES IDX 9 12 8 13 7 14 6 15 5 16 4 17 3 18 2 19 1 20
REMARK H PARENT
REMARK Flexibility Score: inf
ROOT
ATOM      1  C   UNL     1      -6.449  12.640   2.083  1.00  0.00     0.000 C 
ENDROOT
BRANCH   1   2
ATOM      2  C   UNL     1      -7.467  13.650   2.642  1.00  0.00     0.000 C 
BRANCH   2   3
ATOM      3  C   UNL     1      -7.860  13.347   4.097  1.00  0.00     0.000 C 
BRANCH   3   4
ATOM      4  C   UNL     1      -9.377  13.180   4.281  1.00  0.00     0.000 C 
BRANCH   4   5
ATOM      5  C   UNL     1      -9.924  12.086   3.351  1.00  0.00     0.000 C 
BRANCH   5   6
ATOM      6  C   UNL     1     -10.951  11.171   4.040  1.00  0.00     0.000 C 
BRANCH   6   7
ATOM      7  C   UNL     1     -11.184  11.462   5.537  1.00  0.00     0.006 C 
BRANCH   7   8
ATOM      8  C   UNL     1     -12.016  10.399   6.271  1.00  0.00     0.053 C 
BRANCH   8   9
ATOM      9  C   UNL     1     -12.246  10.761   7.706  1.00  0.00     0.041 C 
ATOM     10  O   UNL     1     -13.265  10.337   8.313  1.00  0.00    -0.550 OA
ATOM     11  O   UNL     1     -11.352  11.596   8.364  1.00  0.00    -0.550 OA
ENDBRANCH   8   9
ENDBRANCH   7   8
ENDBRANCH   6   7
ENDBRANCH   5   6
ENDBRANCH   4   5
ENDBRANCH   3   4
ENDBRANCH   2   3
ENDBRANCH   1   2
BRANCH   1  12
ATOM     12  C   UNL     1      -7.041  11.762   0.969  1.00  0.00     0.000 C 
BRANCH  12  13
ATOM     13  C   UNL     1      -6.760  10.266   1.179  1.00  0.00    -0.000 C 
BRANCH  13  14
ATOM     14  C   UNL     1      -7.084   9.844   2.617  1.00  0.00    -0.000 C 
BRANCH  14  15
ATOM     15  C   UNL     1      -5.954   8.987   3.208  1.00  0.00    -0.000 C 
BRANCH  15  16
ATOM     16  C   UNL     1      -4.844   9.826   3.865  1.00  0.00    -0.000 C 
BRANCH  16  17
ATOM     17  C   UNL     1      -4.464   9.393   5.293  1.00  0.00    -0.000 C 
BRANCH  17  18
ATOM     18  C   UNL     1      -4.450   7.865   5.471  1.00  0.00    -0.000 C 
BRANCH  18  19
ATOM     19  C   UNL     1      -5.453   7.389   6.533  1.00  0.00    -0.003 C 
ATOM     20  C   UNL     1      -5.152   7.953   7.922  1.00  0.00     0.004 C 
ENDBRANCH  18  19
ENDBRANCH  17  18
ENDBRANCH  16  17
ENDBRANCH  15  16
ENDBRANCH  14  15
ENDBRANCH  13  14
ENDBRANCH  12  13
ENDBRANCH   1  12
TORSDOF 16
ENDMDL
MODEL 6
REMARK VINA RESULT:    -5.464      1.799      3.113
REMARK INTER + INTRA:         -11.766
REMARK INTER:                 -10.321
REMARK INTRA:                  -1.444
REMARK UNBOUND:                -1.191
REMARK SMILES CCCCCCCCCCCCCCCCCC(=O)[O-]
REMARK SMILES IDX 10 1 11 2 12 3 13 4 14 5 15 6 16 7 17 8 18 9 19 10 20 11
REMARK SMILES IDX 9 12 8 13 7 14 6 15 5 16 4 17 3 18 2 19 1 20
REMARK H PARENT
REMARK Flexibility Score: inf
ROOT
ATOM      1  C   UNL     1      -6.675  10.095   2.725  1.00  0.00     0.000 C 
ENDROOT
BRANCH   1   2
ATOM      2  C   UNL     1      -5.746   8.962   3.195  1.00  0.00     0.000 C 
BRANCH   2   3
ATOM      3  C   UNL     1      -6.161   7.590   2.641  1.00  0.00     0.000 C 
BRANCH   3   4
ATOM      4  C   UNL     1      -5.963   6.454   3.658  1.00  0.00     0.000 C 
BRANCH   4   5
ATOM      5  C   UNL     1      -5.021   6.890   4.790  1.00  0.00     0.000 C 
BRANCH   5   6
ATOM      6  C   UNL     1      -5.641   6.718   6.187  1.00  0.00     0.000 C 
BRANCH   6   7
ATOM      7  C   UNL     1      -5.251   7.802   7.213  1.00  0.00     0.006 C 
BRANCH   7   8
ATOM      8  C   UNL     1      -4.225   8.824   6.701  1.00  0.00     0.053 C 
BRANCH   8   9
ATOM      9  C   UNL     1      -3.856   9.823   7.754  1.00  0.00     0.041 C 
ATOM     10  O   UNL     1      -3.065  10.766   7.487  1.00  0.00    -0.550 OA
ATOM     11  O   UNL     1      -4.359   9.691   9.043  1.00  0.00    -0.550 OA
ENDBRANCH   8   9
ENDBRANCH   7   8
ENDBRANCH   6   7
ENDBRANCH   5   6
ENDBRANCH   4   5
ENDBRANCH   3   4
ENDBRANCH   2   3
ENDBRANCH   1   2
BRANCH   1  12
ATOM     12  C   UNL     1      -6.206  11.479   3.203  1.00  0.00     0.000 C 
BRANCH  12  13
ATOM     13  C   UNL     1      -6.415  12.575   2.146  1.00  0.00    -0.000 C 
BRANCH  13  14
ATOM     14  C   UNL     1      -7.467  13.589   2.607  1.00  0.00    -0.000 C 
BRANCH  14  15
ATOM     15  C   UNL     1      -7.917  13.301   4.047  1.00  0.00    -0.000 C 
BRANCH  15  16
ATOM     16  C   UNL     1      -9.429  13.035   4.162  1.00  0.00    -0.000 C 
BRANCH  16  17
ATOM     17  C   UNL     1      -9.888  11.664   3.634  1.00  0.00    -0.000 C 
BRANCH  17  18
ATOM     18  C   UNL     1     -11.194  11.179   4.286  1.00  0.00    -0.000 C 
BRANCH  18  19
ATOM     19  C   UNL     1     -11.230  11.446   5.798  1.00  0.00    -0.003 C 
ATOM     20  C   UNL     1     -12.059  10.411   6.559  1.00  0.00     0.004 C 
ENDBRANCH  18  19
ENDBRANCH  17  18
ENDBRANCH  16  17
ENDBRANCH  15  16
ENDBRANCH  14  15
ENDBRANCH  13  14
ENDBRANCH  12  13
ENDBRANCH   1  12
TORSDOF 16
ENDMDL
MODEL 7
REMARK VINA RESULT:    -5.448      3.997      7.433
REMARK INTER + INTRA:         -11.736
REMARK INTER:                 -10.299
REMARK INTRA:                  -1.437
REMARK UNBOUND:                -1.191
REMARK SMILES CCCCCCCCCCCCCCCCCC(=O)[O-]
REMARK SMILES IDX 10 1 11 2 12 3 13 4 14 5 15 6 16 7 17 8 18 9 19 10 20 11
REMARK SMILES IDX 9 12 8 13 7 14 6 15 5 16 4 17 3 18 2 19 1 20
REMARK H PARENT
REMARK Flexibility Score: inf
ROOT
ATOM      1  C   UNL     1     -10.878  11.600   4.787  1.00  0.00     0.000 C 
ENDROOT
BRANCH   1   2
ATOM      2  C   UNL     1     -12.040  10.655   5.138  1.00  0.00     0.000 C 
BRANCH   2   3
ATOM      3  C   UNL     1     -12.025  10.224   6.613  1.00  0.00     0.000 C 
BRANCH   3   4
ATOM      4  C   UNL     1     -12.571  11.309   7.556  1.00  0.00     0.000 C 
BRANCH   4   5
ATOM      5  C   UNL     1     -11.601  11.562   8.719  1.00  0.00     0.000 C 
BRANCH   5   6
ATOM      6  C   UNL     1     -10.722  12.807   8.509  1.00  0.00     0.000 C 
BRANCH   6   7
ATOM      7  C   UNL     1     -10.050  13.355   9.785  1.00  0.00     0.006 C 
BRANCH   7   8
ATOM      8  C   UNL     1      -9.766  14.865   9.757  1.00  0.00     0.053 C 
BRANCH   8   9
ATOM      9  C   UNL     1      -8.301  15.160   9.848  1.00  0.00     0.041 C 
ATOM     10  O   UNL     1      -7.896  16.179  10.469  1.00  0.00    -0.550 OA
ATOM     11  O   UNL     1      -7.384  14.329   9.219  1.00  0.00    -0.550 OA
ENDBRANCH   8   9
ENDBRANCH   7   8
ENDBRANCH   6   7
ENDBRANCH   5   6
ENDBRANCH   4   5
ENDBRANCH   3   4
ENDBRANCH   2   3
ENDBRANCH   1   2
BRANCH   1  12
ATOM     12  C   UNL     1     -10.854  11.978   3.296  1.00  0.00     0.000 C 
BRANCH  12  13
ATOM     13  C   UNL     1      -9.894  13.139   2.993  1.00  0.00    -0.000 C 
BRANCH  13  14
ATOM     14  C   UNL     1      -8.921  13.364   4.156  1.00  0.00    -0.000 C 
BRANCH  14  15
ATOM     15  C   UNL     1      -7.471  13.438   3.656  1.00  0.00    -0.000 C 
BRANCH  15  16
ATOM     16  C   UNL     1      -6.869  12.056   3.351  1.00  0.00    -0.000 C 
BRANCH  16  17
ATOM     17  C   UNL     1      -6.509  11.818   1.872  1.00  0.00    -0.000 C 
BRANCH  17  18
ATOM     18  C   UNL     1      -6.008  13.090   1.167  1.00  0.00    -0.000 C 
BRANCH  18  19
ATOM     19  C   UNL     1      -6.890  13.486  -0.027  1.00  0.00    -0.003 C 
ATOM     20  C   UNL     1      -7.822  14.655   0.292  1.00  0.00     0.004 C 
ENDBRANCH  18  19
ENDBRANCH  17  18
ENDBRANCH  16  17
ENDBRANCH  15  16
ENDBRANCH  14  15
ENDBRANCH  13  14
ENDBRANCH  12  13
ENDBRANCH   1  12
TORSDOF 16
ENDMDL
MODEL 8
REMARK VINA RESULT:    -5.442      4.395      7.806
REMARK INTER + INTRA:         -11.723
REMARK INTER:                 -10.626
REMARK INTRA:                  -1.097
REMARK UNBOUND:                -1.191
REMARK SMILES CCCCCCCCCCCCCCCCCC(=O)[O-]
REMARK SMILES IDX 10 1 11 2 12 3 13 4 14 5 15 6 16 7 17 8 18 9 19 10 20 11
REMARK SMILES IDX 9 12 8 13 7 14 6 15 5 16 4 17 3 18 2 19 1 20
REMARK H PARENT
REMARK Flexibility Score: inf
ROOT
ATOM      1  C   UNL     1     -11.251  11.518   7.005  1.00  0.00     0.000 C 
ENDROOT
BRANCH   1   2
ATOM      2  C   UNL     1     -11.985  10.646   8.039  1.00  0.00     0.000 C 
BRANCH   2   3
ATOM      3  C   UNL     1     -12.724   9.463   7.393  1.00  0.00     0.000 C 
BRANCH   3   4
ATOM      4  C   UNL     1     -13.218   8.436   8.426  1.00  0.00     0.000 C 
BRANCH   4   5
ATOM      5  C   UNL     1     -14.473   7.710   7.919  1.00  0.00     0.000 C 
BRANCH   5   6
ATOM      6  C   UNL     1     -14.150   6.408   7.167  1.00  0.00     0.000 C 
BRANCH   6   7
ATOM      7  C   UNL     1     -14.713   5.124   7.811  1.00  0.00     0.006 C 
BRANCH   7   8
ATOM      8  C   UNL     1     -13.895   4.596   9.000  1.00  0.00     0.053 C 
BRANCH   8   9
ATOM      9  C   UNL     1     -14.657   4.684  10.286  1.00  0.00     0.041 C 
ATOM     10  O   UNL     1     -14.302   4.000  11.283  1.00  0.00    -0.550 OA
ATOM     11  O   UNL     1     -15.782   5.493  10.374  1.00  0.00    -0.550 OA
ENDBRANCH   8   9
ENDBRANCH   7   8
ENDBRANCH   6   7
ENDBRANCH   5   6
ENDBRANCH   4   5
ENDBRANCH   3   4
ENDBRANCH   2   3
ENDBRANCH   1   2
BRANCH   1  12
ATOM     12  C   UNL     1     -11.662  11.192   5.560  1.00  0.00     0.000 C 
BRANCH  12  13
ATOM     13  C   UNL     1     -10.691  11.774   4.520  1.00  0.00    -0.000 C 
BRANCH  13  14
ATOM     14  C   UNL     1     -10.897  11.118   3.150  1.00  0.00    -0.000 C 
BRANCH  14  15
ATOM     15  C   UNL     1      -9.687  11.360   2.235  1.00  0.00    -0.000 C 
BRANCH  15  16
ATOM     16  C   UNL     1      -8.370  10.829   2.827  1.00  0.00    -0.000 C 
BRANCH  16  17
ATOM     17  C   UNL     1      -7.194  11.823   2.788  1.00  0.00    -0.000 C 
BRANCH  17  18
ATOM     18  C   UNL     1      -7.555  13.198   3.376  1.00  0.00    -0.000 C 
BRANCH  18  19
ATOM     19  C   UNL     1      -7.632  14.295   2.303  1.00  0.00    -0.003 C 
ATOM     20  C   UNL     1      -9.031  14.895   2.174  1.00  0.00     0.004 C 
ENDBRANCH  18  19
ENDBRANCH  17  18
ENDBRANCH  16  17
ENDBRANCH  15  16
ENDBRANCH  14  15
ENDBRANCH  13  14
ENDBRANCH  12  13
ENDBRANCH   1  12
TORSDOF 16
ENDMDL
MODEL 9
REMARK VINA RESULT:    -5.435      2.942      6.433
REMARK INTER + INTRA:         -11.710
REMARK INTER:                 -10.271
REMARK INTRA:                  -1.439
REMARK UNBOUND:                -1.191
REMARK SMILES CCCCCCCCCCCCCCCCCC(=O)[O-]
REMARK SMILES IDX 10 1 11 2 12 3 13 4 14 5 15 6 16 7 17 8 18 9 19 10 20 11
REMARK SMILES IDX 9 12 8 13 7 14 6 15 5 16 4 17 3 18 2 19 1 20
REMARK H PARENT
REMARK Flexibility Score: inf
ROOT
ATOM      1  C   UNL     1      -5.689  11.727   2.200  1.00  0.00     0.000 C 
ENDROOT
BRANCH   1   2
ATOM      2  C   UNL     1      -7.110  12.076   1.724  1.00  0.00     0.000 C 
BRANCH   2   3
ATOM      3  C   UNL     1      -8.039  10.851   1.691  1.00  0.00     0.000 C 
BRANCH   3   4
ATOM      4  C   UNL     1      -9.414  11.130   2.319  1.00  0.00     0.000 C 
BRANCH   4   5
ATOM      5  C   UNL     1      -9.278  12.028   3.558  1.00  0.00     0.000 C 
BRANCH   5   6
ATOM      6  C   UNL     1     -10.615  12.255   4.284  1.00  0.00     0.000 C 
BRANCH   6   7
ATOM      7  C   UNL     1     -11.232  10.995   4.925  1.00  0.00     0.006 C 
BRANCH   7   8
ATOM      8  C   UNL     1     -11.484  11.107   6.436  1.00  0.00     0.053 C 
BRANCH   8   9
ATOM      9  C   UNL     1     -12.392  10.024   6.934  1.00  0.00     0.041 C 
ATOM     10  O   UNL     1     -12.481   9.787   8.168  1.00  0.00    -0.550 OA
ATOM     11  O   UNL     1     -13.113   9.252   6.032  1.00  0.00    -0.550 OA
ENDBRANCH   8   9
ENDBRANCH   7   8
ENDBRANCH   6   7
ENDBRANCH   5   6
ENDBRANCH   4   5
ENDBRANCH   3   4
ENDBRANCH   2   3
ENDBRANCH   1   2
BRANCH   1  12
ATOM     12  C   UNL     1      -5.620  11.473   3.715  1.00  0.00     0.000 C 
BRANCH  12  13
ATOM     13  C   UNL     1      -4.983  10.118   4.062  1.00  0.00    -0.000 C 
BRANCH  13  14
ATOM     14  C   UNL     1      -5.776   8.964   3.438  1.00  0.00    -0.000 C 
BRANCH  14  15
ATOM     15  C   UNL     1      -5.367   7.618   4.053  1.00  0.00    -0.000 C 
BRANCH  15  16
ATOM     16  C   UNL     1      -4.624   7.769   5.392  1.00  0.00    -0.000 C 
BRANCH  16  17
ATOM     17  C   UNL     1      -5.451   7.403   6.638  1.00  0.00    -0.000 C 
BRANCH  17  18
ATOM     18  C   UNL     1      -5.034   8.198   7.887  1.00  0.00    -0.000 C 
BRANCH  18  19
ATOM     19  C   UNL     1      -3.665   8.876   7.722  1.00  0.00    -0.003 C 
ATOM     20  C   UNL     1      -3.763  10.401   7.705  1.00  0.00     0.004 C 
ENDBRANCH  18  19
ENDBRANCH  17  18
ENDBRANCH  16  17
ENDBRANCH  15  16
ENDBRANCH  14  15
ENDBRANCH  13  14
ENDBRANCH  12  13
ENDBRANCH   1  12
TORSDOF 16
ENDMDL
