MODEL 1
REMARK VINA RESULT:    -4.615      0.000      0.000
REMARK INTER + INTRA:          -4.900
REMARK INTER:                  -4.884
REMARK INTRA:                  -0.016
REMARK UNBOUND:                -0.016
REMARK SMILES O=C([O-])c1cccnc1
REMARK SMILES IDX 4 1 5 2 9 3 6 4 8 5 7 6 2 7 1 8 3 9
REMARK H PARENT
REMARK Flexibility Score: inf
ROOT
ATOM      1  C   UNL     1      12.851 -10.993   9.390  1.00  0.00     0.016 A 
ATOM      2  C   UNL     1      12.861 -11.290   8.016  1.00  0.00     0.013 A 
ATOM      3  C   UNL     1      13.201  -9.694   9.795  1.00  0.00     0.120 A 
ATOM      4  C   UNL     1      13.212 -10.307   7.090  1.00  0.00     0.021 A 
ATOM      5  N   UNL     1      13.539  -8.755   8.870  1.00  0.00    -0.264 NA
ATOM      6  C   UNL     1      13.551  -9.032   7.540  1.00  0.00     0.111 A 
ENDROOT
BRANCH   1   7
ATOM      7  C   UNL     1      12.483 -12.020  10.388  1.00  0.00     0.073 C 
ATOM      8  O   UNL     1      13.342 -12.837  10.815  1.00  0.00    -0.545 OA
ATOM      9  O   UNL     1      11.180 -12.098  10.870  1.00  0.00    -0.545 OA
ENDBRANCH   1   7
TORSDOF 1
ENDMDL
MODEL 2
REMARK VINA RESULT:    -4.234      9.217     10.820
REMARK INTER + INTRA:          -4.497
REMARK INTER:                  -4.477
REMARK INTRA:                  -0.020
REMARK UNBOUND:                -0.016
REMARK SMILES O=C([O-])c1cccnc1
REMARK SMILES IDX 4 1 5 2 9 3 6 4 8 5 7 6 2 7 1 8 3 9
REMARK H PARENT
REMARK Flexibility Score: inf
ROOT
ATOM      1  C   UNL     1       6.823 -12.709  16.664  1.00  0.00     0.016 A 
ATOM      2  C   UNL     1       6.626 -12.100  17.915  1.00  0.00     0.013 A 
ATOM      3  C   UNL     1       5.978 -13.771  16.299  1.00  0.00     0.120 A 
ATOM      4  C   UNL     1       5.614 -12.551  18.763  1.00  0.00     0.021 A 
ATOM      5  N   UNL     1       4.999 -14.191  17.144  1.00  0.00    -0.264 NA
ATOM      6  C   UNL     1       4.801 -13.609  18.356  1.00  0.00     0.111 A 
ENDROOT
BRANCH   1   7
ATOM      7  C   UNL     1       7.890 -12.247  15.751  1.00  0.00     0.073 C 
ATOM      8  O   UNL     1       8.134 -11.017  15.622  1.00  0.00    -0.545 OA
ATOM      9  O   UNL     1       8.639 -13.163  15.021  1.00  0.00    -0.545 OA
ENDBRANCH   1   7
TORSDOF 1
ENDMDL
MODEL 3
REMARK VINA RESULT:    -4.097      9.259     10.781
REMARK INTER + INTRA:          -4.353
REMARK INTER:                  -4.331
REMARK INTRA:                  -0.022
REMARK UNBOUND:                -0.016
REMARK SMILES O=C([O-])c1cccnc1
REMARK SMILES IDX 4 1 5 2 9 3 6 4 8 5 7 6 2 7 1 8 3 9
REMARK H PARENT
REMARK Flexibility Score: inf
ROOT
ATOM      1  C   UNL     1       6.785 -12.677  16.755  1.00  0.00     0.016 A 
ATOM      2  C   UNL     1       5.958 -13.735  16.342  1.00  0.00     0.013 A 
ATOM      3  C   UNL     1       6.562 -12.110  18.021  1.00  0.00     0.120 A 
ATOM      4  C   UNL     1       4.943 -14.199  17.180  1.00  0.00     0.021 A 
ATOM      5  N   UNL     1       5.565 -12.582  18.818  1.00  0.00    -0.264 NA
ATOM      6  C   UNL     1       4.760 -13.604  18.427  1.00  0.00     0.111 A 
ENDROOT
BRANCH   1   7
ATOM      7  C   UNL     1       7.866 -12.171  15.883  1.00  0.00     0.073 C 
ATOM      8  O   UNL     1       8.229 -10.965  15.945  1.00  0.00    -0.545 OA
ATOM      9  O   UNL     1       8.499 -13.019  14.980  1.00  0.00    -0.545 OA
ENDBRANCH   1   7
TORSDOF 1
ENDMDL
MODEL 4
REMARK VINA RESULT:    -3.943     10.683     11.477
REMARK INTER + INTRA:          -4.190
REMARK INTER:                  -4.171
REMARK INTRA:                  -0.019
REMARK UNBOUND:                -0.016
REMARK SMILES O=C([O-])c1cccnc1
REMARK SMILES IDX 4 1 5 2 9 3 6 4 8 5 7 6 2 7 1 8 3 9
REMARK H PARENT
REMARK Flexibility Score: inf
ROOT
ATOM      1  C   UNL     1       5.218 -13.607  16.523  1.00  0.00     0.016 A 
ATOM      2  C   UNL     1       3.899 -13.122  16.500  1.00  0.00     0.013 A 
ATOM      3  C   UNL     1       5.541 -14.703  15.705  1.00  0.00     0.120 A 
ATOM      4  C   UNL     1       2.945 -13.727  15.680  1.00  0.00     0.021 A 
ATOM      5  N   UNL     1       4.592 -15.273  14.915  1.00  0.00    -0.264 NA
ATOM      6  C   UNL     1       3.314 -14.812  14.886  1.00  0.00     0.111 A 
ENDROOT
BRANCH   1   7
ATOM      7  C   UNL     1       6.244 -12.981  17.384  1.00  0.00     0.073 C 
ATOM      8  O   UNL     1       6.003 -12.741  18.598  1.00  0.00    -0.545 OA
ATOM      9  O   UNL     1       7.491 -12.648  16.866  1.00  0.00    -0.545 OA
ENDBRANCH   1   7
TORSDOF 1
ENDMDL
MODEL 5
REMARK VINA RESULT:    -3.801      8.549      9.772
REMARK INTER + INTRA:          -4.039
REMARK INTER:                  -4.015
REMARK INTRA:                  -0.024
REMARK UNBOUND:                -0.016
REMARK SMILES O=C([O-])c1cccnc1
REMARK SMILES IDX 4 1 5 2 9 3 6 4 8 5 7 6 2 7 1 8 3 9
REMARK H PARENT
REMARK Flexibility Score: inf
ROOT
ATOM      1  C   UNL     1       6.897 -12.350  16.996  1.00  0.00     0.016 A 
ATOM      2  C   UNL     1       7.291 -13.355  16.097  1.00  0.00     0.013 A 
ATOM      3  C   UNL     1       7.312 -11.031  16.745  1.00  0.00     0.120 A 
ATOM      4  C   UNL     1       8.076 -13.036  14.989  1.00  0.00     0.021 A 
ATOM      5  N   UNL     1       8.077 -10.747  15.657  1.00  0.00    -0.264 NA
ATOM      6  C   UNL     1       8.463 -11.712  14.783  1.00  0.00     0.111 A 
ENDROOT
BRANCH   1   7
ATOM      7  C   UNL     1       6.065 -12.667  18.176  1.00  0.00     0.073 C 
ATOM      8  O   UNL     1       5.588 -13.823  18.333  1.00  0.00    -0.545 OA
ATOM      9  O   UNL     1       5.797 -11.692  19.131  1.00  0.00    -0.545 OA
ENDBRANCH   1   7
TORSDOF 1
ENDMDL
MODEL 6
REMARK VINA RESULT:    -3.781     11.204     12.001
REMARK INTER + INTRA:          -4.018
REMARK INTER:                  -3.998
REMARK INTRA:                  -0.020
REMARK UNBOUND:                -0.016
REMARK SMILES O=C([O-])c1cccnc1
REMARK SMILES IDX 4 1 5 2 9 3 6 4 8 5 7 6 2 7 1 8 3 9
REMARK H PARENT
REMARK Flexibility Score: inf
ROOT
ATOM      1  C   UNL     1       4.310 -13.541  16.551  1.00  0.00     0.016 A 
ATOM      2  C   UNL     1       5.703 -13.368  16.488  1.00  0.00     0.013 A 
ATOM      3  C   UNL     1       3.637 -13.125  17.712  1.00  0.00     0.120 A 
ATOM      4  C   UNL     1       6.387 -12.797  17.562  1.00  0.00     0.021 A 
ATOM      5  N   UNL     1       4.328 -12.570  18.744  1.00  0.00    -0.264 NA
ATOM      6  C   UNL     1       5.675 -12.399  18.693  1.00  0.00     0.111 A 
ENDROOT
BRANCH   1   7
ATOM      7  C   UNL     1       3.567 -14.145  15.424  1.00  0.00     0.073 C 
ATOM      8  O   UNL     1       4.024 -15.153  14.821  1.00  0.00    -0.545 OA
ATOM      9  O   UNL     1       2.351 -13.608  15.015  1.00  0.00    -0.545 OA
ENDBRANCH   1   7
TORSDOF 1
ENDMDL
MODEL 7
REMARK VINA RESULT:    -3.771      2.979      3.516
REMARK INTER + INTRA:          -4.007
REMARK INTER:                  -3.991
REMARK INTRA:                  -0.016
REMARK UNBOUND:                -0.016
REMARK SMILES O=C([O-])c1cccnc1
REMARK SMILES IDX 4 1 5 2 9 3 6 4 8 5 7 6 2 7 1 8 3 9
REMARK H PARENT
REMARK Flexibility Score: inf
ROOT
ATOM      1  C   UNL     1      13.674  -9.055   8.595  1.00  0.00     0.016 A 
ATOM      2  C   UNL     1      13.410  -9.002   7.216  1.00  0.00     0.013 A 
ATOM      3  C   UNL     1      13.497 -10.279   9.262  1.00  0.00     0.120 A 
ATOM      4  C   UNL     1      12.982 -10.145   6.540  1.00  0.00     0.021 A 
ATOM      5  N   UNL     1      13.079 -11.379   8.578  1.00  0.00    -0.264 NA
ATOM      6  C   UNL     1      12.821 -11.337   7.245  1.00  0.00     0.111 A 
ENDROOT
BRANCH   1   7
ATOM      7  C   UNL     1      14.128  -7.856   9.330  1.00  0.00     0.073 C 
ATOM      8  O   UNL     1      15.331  -7.739   9.686  1.00  0.00    -0.545 OA
ATOM      9  O   UNL     1      13.232  -6.838   9.639  1.00  0.00    -0.545 OA
ENDBRANCH   1   7
TORSDOF 1
ENDMDL
MODEL 8
REMARK VINA RESULT:    -3.742     11.073     11.582
REMARK INTER + INTRA:          -3.977
REMARK INTER:                  -3.960
REMARK INTRA:                  -0.017
REMARK UNBOUND:                -0.016
REMARK SMILES O=C([O-])c1cccnc1
REMARK SMILES IDX 4 1 5 2 9 3 6 4 8 5 7 6 2 7 1 8 3 9
REMARK H PARENT
REMARK Flexibility Score: inf
ROOT
ATOM      1  C   UNL     1       4.956 -13.840  16.487  1.00  0.00     0.016 A 
ATOM      2  C   UNL     1       5.242 -14.969  15.701  1.00  0.00     0.013 A 
ATOM      3  C   UNL     1       3.710 -13.212  16.323  1.00  0.00     0.120 A 
ATOM      4  C   UNL     1       4.302 -15.442  14.785  1.00  0.00     0.021 A 
ATOM      5  N   UNL     1       2.811 -13.694  15.423  1.00  0.00    -0.264 NA
ATOM      6  C   UNL     1       3.079 -14.784  14.659  1.00  0.00     0.111 A 
ENDROOT
BRANCH   1   7
ATOM      7  C   UNL     1       5.938 -13.323  17.463  1.00  0.00     0.073 C 
ATOM      8  O   UNL     1       5.737 -13.446  18.701  1.00  0.00    -0.545 OA
ATOM      9  O   UNL     1       7.099 -12.693  17.028  1.00  0.00    -0.545 OA
ENDBRANCH   1   7
TORSDOF 1
ENDMDL
MODEL 9
REMARK VINA RESULT:    -3.599     11.356     11.893
REMARK INTER + INTRA:          -3.826
REMARK INTER:                  -3.809
REMARK INTRA:                  -0.017
REMARK UNBOUND:                -0.016
REMARK SMILES O=C([O-])c1cccnc1
REMARK SMILES IDX 4 1 5 2 9 3 6 4 8 5 7 6 2 7 1 8 3 9
REMARK H PARENT
REMARK Flexibility Score: inf
ROOT
ATOM      1  C   UNL     1       3.819 -15.596  14.582  1.00  0.00     0.016 A 
ATOM      2  C   UNL     1       2.704 -14.743  14.528  1.00  0.00     0.013 A 
ATOM      3  C   UNL     1       4.874 -15.261  15.448  1.00  0.00     0.120 A 
ATOM      4  C   UNL     1       2.661 -13.594  15.320  1.00  0.00     0.021 A 
ATOM      5  N   UNL     1       4.807 -14.136  16.209  1.00  0.00    -0.264 NA
ATOM      6  C   UNL     1       3.733 -13.305  16.164  1.00  0.00     0.111 A 
ENDROOT
BRANCH   1   7
ATOM      7  C   UNL     1       3.885 -16.817  13.751  1.00  0.00     0.073 C 
ATOM      8  O   UNL     1       3.986 -16.735  12.498  1.00  0.00    -0.545 OA
ATOM      9  O   UNL     1       3.835 -18.075  14.342  1.00  0.00    -0.545 OA
ENDBRANCH   1   7
TORSDOF 1
ENDMDL
