MODEL 1
REMARK VINA RESULT:     8.926      0.000      0.000
REMARK INTER + INTRA:           9.962
REMARK INTER:                   9.709
REMARK INTRA:                   0.254
REMARK UNBOUND:                 0.254
REMARK SMILES C[C@@H]1[C@H](C)CC[C@@]2(C(=O)[O-])CC[C@]3(C)C(=CC[C@@H]4[C@]5(C)CC[C@H](O)C(C)(C)[C@@H]5CC[C@@]43C)[C@H]12
REMARK SMILES IDX 7 1 6 2 11 3 33 4 5 5 12 6 15 7 2 8 3 9 13 10 16 11 1 12
REMARK SMILES IDX 4 13 14 14 31 15 17 16 18 17 30 18 32 19 19 20 29 21 28 22
REMARK SMILES IDX 21 23 20 24 25 25 22 26 23 27 26 28 27 29 8 30 9 31 10 32
REMARK SMILES IDX 24 33
REMARK H PARENT 24 34
REMARK Flexibility Score: inf
ROOT
ATOM      1  C   UNL     1       2.815   6.875 -12.074  1.00  0.00     0.017 C 
ATOM      2  C   UNL     1       3.889   5.914 -11.439  1.00  0.00     0.014 C 
ATOM      3  C   UNL     1       3.530   8.091 -12.695  1.00  0.00     0.014 C 
ATOM      4  C   UNL     1       2.088   6.148 -13.249  1.00  0.00     0.030 C 
ATOM      5  C   UNL     1       3.683   4.411 -11.726  1.00  0.00     0.004 C 
ATOM      6  C   UNL     1       2.541   9.129 -13.243  1.00  0.00     0.013 C 
ATOM      7  C   UNL     1       1.369   7.051 -14.278  1.00  0.00    -0.063 C 
ATOM      8  C   UNL     1       1.403   4.783 -12.842  1.00  0.00    -0.003 C 
ATOM      9  C   UNL     1       2.202   3.989 -11.749  1.00  0.00    -0.011 C 
ATOM     10  C   UNL     1       1.425   8.597 -14.238  1.00  0.00    -0.006 C 
ATOM     11  C   UNL     1       0.830   6.443 -15.353  1.00  0.00    -0.027 C 
ATOM     12  C   UNL     1      -0.125   4.820 -12.612  1.00  0.00     0.008 C 
ATOM     13  C   UNL     1       1.606   3.997 -10.327  1.00  0.00     0.008 C 
ATOM     14  C   UNL     1       0.037   9.037 -13.677  1.00  0.00     0.017 C 
ATOM     15  C   UNL     1       1.643   9.222 -15.712  1.00  0.00    -0.020 C 
ATOM     16  C   UNL     1       0.572   7.090 -16.675  1.00  0.00     0.032 C 
ATOM     17  C   UNL     1       0.597   8.645 -16.739  1.00  0.00     0.006 C 
ATOM     18  C   UNL     1       3.081   8.881 -16.236  1.00  0.00     0.008 C 
ATOM     19  C   UNL     1       1.469  10.783 -15.615  1.00  0.00     0.012 C 
ATOM     20  C   UNL     1       0.738   9.232 -18.247  1.00  0.00    -0.025 C 
ATOM     21  C   UNL     1       3.236   8.703 -17.767  1.00  0.00     0.005 C 
ATOM     22  C   UNL     1       2.261   9.570 -18.606  1.00  0.00     0.003 C 
ATOM     23  C   UNL     1       0.106   8.229 -19.286  1.00  0.00     0.010 C 
ATOM     24  C   UNL     1      -0.125  10.539 -18.337  1.00  0.00     0.012 C 
ATOM     25  C   UNL     1       2.622   9.661 -20.162  1.00  0.00    -0.006 C 
ATOM     26  C   UNL     1       0.410   8.531 -20.753  1.00  0.00     0.033 C 
ATOM     27  C   UNL     1       1.921   8.551 -20.995  1.00  0.00     0.120 C 
ATOM     28  C   UNL     1       4.152   9.556 -20.426  1.00  0.00     0.014 C 
ATOM     29  C   UNL     1       2.229  11.059 -20.722  1.00  0.00     0.014 C 
ENDROOT
BRANCH   1  30
ATOM     30  C   UNL     1       1.908   7.385 -10.957  1.00  0.00     0.048 C 
ATOM     31  O   UNL     1       2.417   7.762  -9.866  1.00  0.00    -0.550 OA
ATOM     32  O   UNL     1       0.535   7.471 -11.099  1.00  0.00    -0.550 OA
ENDBRANCH   1  30
BRANCH  27  33
ATOM     33  O   UNL     1       2.465   7.290 -20.685  1.00  0.00    -0.393 OA
ATOM     34  H   UNL     1       2.530   7.234 -19.696  1.00  0.00     0.210 HD
ENDBRANCH  27  33
TORSDOF 2
ENDMDL
