MODEL 1
REMARK VINA RESULT:    -3.639      0.000      0.000
REMARK INTER + INTRA:          -7.080
REMARK INTER:                  -6.405
REMARK INTRA:                  -0.675
REMARK UNBOUND:                -0.675
REMARK SMILES CCCCCCC=CCCCCCCCC(=O)[O-]
REMARK SMILES IDX 10 1 11 2 12 3 13 4 14 5 15 6 16 7 17 8 18 9 9 10 8 11 7 12
REMARK SMILES IDX 6 13 5 14 4 15 3 16 2 17 1 18
REMARK H PARENT
REMARK Flexibility Score: inf
ROOT
ATOM      1  C   UNL     1     120.975  69.711  -0.998  1.00  0.00     0.004 C 
ENDROOT
BRANCH   1   2
ATOM      2  C   UNL     1     119.881  69.136  -0.091  1.00  0.00     0.000 C 
BRANCH   2   3
ATOM      3  C   UNL     1     119.875  69.834   1.275  1.00  0.00     0.000 C 
BRANCH   3   4
ATOM      4  C   UNL     1     120.285  71.308   1.141  1.00  0.00     0.000 C 
BRANCH   4   5
ATOM      5  C   UNL     1     121.013  71.835   2.388  1.00  0.00     0.006 C 
BRANCH   5   6
ATOM      6  C   UNL     1     120.047  72.346   3.464  1.00  0.00     0.053 C 
BRANCH   6   7
ATOM      7  C   UNL     1     120.354  71.713   4.785  1.00  0.00     0.041 C 
ATOM      8  O   UNL     1     120.033  72.294   5.856  1.00  0.00    -0.550 OA
ATOM      9  O   UNL     1     121.039  70.506   4.836  1.00  0.00    -0.550 OA
ENDBRANCH   6   7
ENDBRANCH   5   6
ENDBRANCH   4   5
ENDBRANCH   3   4
ENDBRANCH   2   3
ENDBRANCH   1   2
BRANCH   1  10
ATOM     10  C   UNL     1     120.476  69.850  -2.441  1.00  0.00     0.027 C 
BRANCH  10  11
ATOM     11  C   UNL     1     120.030  68.524  -3.004  1.00  0.00    -0.031 C 
ATOM     12  C   UNL     1     120.009  68.200  -4.311  1.00  0.00    -0.031 C 
BRANCH  12  13
ATOM     13  C   UNL     1     120.400  69.118  -5.447  1.00  0.00     0.027 C 
BRANCH  13  14
ATOM     14  C   UNL     1     120.564  68.354  -6.772  1.00  0.00     0.004 C 
BRANCH  14  15
ATOM     15  C   UNL     1     121.173  66.946  -6.633  1.00  0.00     0.000 C 
BRANCH  15  16
ATOM     16  C   UNL     1     120.161  65.785  -6.693  1.00  0.00    -0.000 C 
BRANCH  16  17
ATOM     17  C   UNL     1     120.738  64.432  -6.227  1.00  0.00    -0.003 C 
ATOM     18  C   UNL     1     121.943  63.992  -7.059  1.00  0.00     0.004 C 
ENDBRANCH  16  17
ENDBRANCH  15  16
ENDBRANCH  14  15
ENDBRANCH  13  14
ENDBRANCH  12  13
ENDBRANCH  10  11
ENDBRANCH   1  10
TORSDOF 13
ENDMDL
MODEL 2
REMARK VINA RESULT:    -3.469      1.552      2.360
REMARK INTER + INTRA:          -6.780
REMARK INTER:                  -6.306
REMARK INTRA:                  -0.474
REMARK UNBOUND:                -0.675
REMARK SMILES CCCCCCC=CCCCCCCCC(=O)[O-]
REMARK SMILES IDX 10 1 11 2 12 3 13 4 14 5 15 6 16 7 17 8 18 9 9 10 8 11 7 12
REMARK SMILES IDX 6 13 5 14 4 15 3 16 2 17 1 18
REMARK H PARENT
REMARK Flexibility Score: inf
ROOT
ATOM      1  C   UNL     1     121.295  70.244   0.359  1.00  0.00     0.004 C 
ENDROOT
BRANCH   1   2
ATOM      2  C   UNL     1     120.288  70.843   1.347  1.00  0.00     0.000 C 
BRANCH   2   3
ATOM      3  C   UNL     1     120.986  71.301   2.634  1.00  0.00     0.000 C 
BRANCH   3   4
ATOM      4  C   UNL     1     120.934  72.830   2.773  1.00  0.00     0.000 C 
BRANCH   4   5
ATOM      5  C   UNL     1     120.130  73.285   4.002  1.00  0.00     0.006 C 
BRANCH   5   6
ATOM      6  C   UNL     1     119.887  72.147   5.002  1.00  0.00     0.053 C 
BRANCH   6   7
ATOM      7  C   UNL     1     119.915  72.670   6.404  1.00  0.00     0.041 C 
ATOM      8  O   UNL     1     119.926  73.911   6.617  1.00  0.00    -0.550 OA
ATOM      9  O   UNL     1     119.979  71.787   7.474  1.00  0.00    -0.550 OA
ENDBRANCH   6   7
ENDBRANCH   5   6
ENDBRANCH   4   5
ENDBRANCH   3   4
ENDBRANCH   2   3
ENDBRANCH   1   2
BRANCH   1  10
ATOM     10  C   UNL     1     120.583  69.668  -0.871  1.00  0.00     0.027 C 
BRANCH  10  11
ATOM     11  C   UNL     1     120.393  68.176  -0.754  1.00  0.00    -0.031 C 
ATOM     12  C   UNL     1     120.142  67.340  -1.780  1.00  0.00    -0.031 C 
BRANCH  12  13
ATOM     13  C   UNL     1     119.974  67.753  -3.224  1.00  0.00     0.027 C 
BRANCH  13  14
ATOM     14  C   UNL     1     119.900  66.537  -4.164  1.00  0.00     0.004 C 
BRANCH  14  15
ATOM     15  C   UNL     1     120.671  66.697  -5.488  1.00  0.00     0.000 C 
BRANCH  15  16
ATOM     16  C   UNL     1     120.032  66.003  -6.706  1.00  0.00    -0.000 C 
BRANCH  16  17
ATOM     17  C   UNL     1     120.771  66.270  -8.033  1.00  0.00    -0.003 C 
ATOM     18  C   UNL     1     120.940  67.763  -8.319  1.00  0.00     0.004 C 
ENDBRANCH  16  17
ENDBRANCH  15  16
ENDBRANCH  14  15
ENDBRANCH  13  14
ENDBRANCH  12  13
ENDBRANCH  10  11
ENDBRANCH   1  10
TORSDOF 13
ENDMDL
MODEL 3
REMARK VINA RESULT:    -3.456      4.058      5.669
REMARK INTER + INTRA:          -6.758
REMARK INTER:                  -5.868
REMARK INTRA:                  -0.890
REMARK UNBOUND:                -0.675
REMARK SMILES CCCCCCC=CCCCCCCCC(=O)[O-]
REMARK SMILES IDX 10 1 11 2 12 3 13 4 14 5 15 6 16 7 17 8 18 9 9 10 8 11 7 12
REMARK SMILES IDX 6 13 5 14 4 15 3 16 2 17 1 18
REMARK H PARENT
REMARK Flexibility Score: inf
ROOT
ATOM      1  C   UNL     1     121.217  72.547   3.878  1.00  0.00     0.004 C 
ENDROOT
BRANCH   1   2
ATOM      2  C   UNL     1     121.354  71.071   4.270  1.00  0.00     0.000 C 
BRANCH   2   3
ATOM      3  C   UNL     1     120.164  70.616   5.124  1.00  0.00     0.000 C 
BRANCH   3   4
ATOM      4  C   UNL     1     119.890  71.612   6.260  1.00  0.00     0.000 C 
BRANCH   4   5
ATOM      5  C   UNL     1     120.580  71.212   7.575  1.00  0.00     0.006 C 
BRANCH   5   6
ATOM      6  C   UNL     1     121.248  72.401   8.276  1.00  0.00     0.053 C 
BRANCH   6   7
ATOM      7  C   UNL     1     120.482  72.782   9.503  1.00  0.00     0.041 C 
ATOM      8  O   UNL     1     120.093  71.895  10.308  1.00  0.00    -0.550 OA
ATOM      9  O   UNL     1     120.154  74.113   9.734  1.00  0.00    -0.550 OA
ENDBRANCH   6   7
ENDBRANCH   5   6
ENDBRANCH   4   5
ENDBRANCH   3   4
ENDBRANCH   2   3
ENDBRANCH   1   2
BRANCH   1  10
ATOM     10  C   UNL     1     121.125  72.706   2.356  1.00  0.00     0.027 C 
BRANCH  10  11
ATOM     11  C   UNL     1     119.958  71.938   1.787  1.00  0.00    -0.031 C 
ATOM     12  C   UNL     1     120.018  71.091   0.742  1.00  0.00    -0.031 C 
BRANCH  12  13
ATOM     13  C   UNL     1     121.258  70.782  -0.065  1.00  0.00     0.027 C 
BRANCH  13  14
ATOM     14  C   UNL     1     121.038  69.601  -1.026  1.00  0.00     0.004 C 
BRANCH  14  15
ATOM     15  C   UNL     1     120.042  68.539  -0.524  1.00  0.00     0.000 C 
BRANCH  15  16
ATOM     16  C   UNL     1     120.675  67.206  -0.078  1.00  0.00    -0.000 C 
BRANCH  16  17
ATOM     17  C   UNL     1     119.907  65.959  -0.563  1.00  0.00    -0.003 C 
ATOM     18  C   UNL     1     120.249  64.709   0.247  1.00  0.00     0.004 C 
ENDBRANCH  16  17
ENDBRANCH  15  16
ENDBRANCH  14  15
ENDBRANCH  13  14
ENDBRANCH  12  13
ENDBRANCH  10  11
ENDBRANCH   1  10
TORSDOF 13
ENDMDL
MODEL 4
REMARK VINA RESULT:    -3.324      4.814     10.227
REMARK INTER + INTRA:          -6.525
REMARK INTER:                  -5.960
REMARK INTRA:                  -0.565
REMARK UNBOUND:                -0.675
REMARK SMILES CCCCCCC=CCCCCCCCC(=O)[O-]
REMARK SMILES IDX 10 1 11 2 12 3 13 4 14 5 15 6 16 7 17 8 18 9 9 10 8 11 7 12
REMARK SMILES IDX 6 13 5 14 4 15 3 16 2 17 1 18
REMARK H PARENT
REMARK Flexibility Score: inf
ROOT
ATOM      1  C   UNL     1     120.752  69.152  -2.824  1.00  0.00     0.004 C 
ENDROOT
BRANCH   1   2
ATOM      2  C   UNL     1     119.875  69.525  -4.024  1.00  0.00     0.000 C 
BRANCH   2   3
ATOM      3  C   UNL     1     120.728  70.039  -5.191  1.00  0.00     0.000 C 
BRANCH   3   4
ATOM      4  C   UNL     1     120.047  69.752  -6.537  1.00  0.00     0.000 C 
BRANCH   4   5
ATOM      5  C   UNL     1     119.897  68.247  -6.815  1.00  0.00     0.006 C 
BRANCH   5   6
ATOM      6  C   UNL     1     121.246  67.547  -7.020  1.00  0.00     0.053 C 
BRANCH   6   7
ATOM      7  C   UNL     1     121.050  66.218  -7.679  1.00  0.00     0.041 C 
ATOM      8  O   UNL     1     121.413  65.162  -7.095  1.00  0.00    -0.550 OA
ATOM      9  O   UNL     1     120.511  66.148  -8.957  1.00  0.00    -0.550 OA
ENDBRANCH   6   7
ENDBRANCH   5   6
ENDBRANCH   4   5
ENDBRANCH   3   4
ENDBRANCH   2   3
ENDBRANCH   1   2
BRANCH   1  10
ATOM     10  C   UNL     1     120.053  69.496  -1.503  1.00  0.00     0.027 C 
BRANCH  10  11
ATOM     11  C   UNL     1     121.022  69.497  -0.347  1.00  0.00    -0.031 C 
ATOM     12  C   UNL     1     121.078  70.432   0.622  1.00  0.00    -0.031 C 
BRANCH  12  13
ATOM     13  C   UNL     1     120.203  71.660   0.704  1.00  0.00     0.027 C 
BRANCH  13  14
ATOM     14  C   UNL     1     120.253  72.309   2.098  1.00  0.00     0.004 C 
BRANCH  14  15
ATOM     15  C   UNL     1     120.093  71.325   3.273  1.00  0.00     0.000 C 
BRANCH  15  16
ATOM     16  C   UNL     1     120.146  71.964   4.675  1.00  0.00    -0.000 C 
BRANCH  16  17
ATOM     17  C   UNL     1     119.966  70.953   5.826  1.00  0.00    -0.003 C 
ATOM     18  C   UNL     1     120.703  71.376   7.097  1.00  0.00     0.004 C 
ENDBRANCH  16  17
ENDBRANCH  15  16
ENDBRANCH  14  15
ENDBRANCH  13  14
ENDBRANCH  12  13
ENDBRANCH  10  11
ENDBRANCH   1  10
TORSDOF 13
ENDMDL
MODEL 5
REMARK VINA RESULT:    -3.306      1.708      3.104
REMARK INTER + INTRA:          -6.494
REMARK INTER:                  -6.115
REMARK INTRA:                  -0.378
REMARK UNBOUND:                -0.675
REMARK SMILES CCCCCCC=CCCCCCCCC(=O)[O-]
REMARK SMILES IDX 10 1 11 2 12 3 13 4 14 5 15 6 16 7 17 8 18 9 9 10 8 11 7 12
REMARK SMILES IDX 6 13 5 14 4 15 3 16 2 17 1 18
REMARK H PARENT
REMARK Flexibility Score: inf
ROOT
ATOM      1  C   UNL     1     120.908  70.821   1.388  1.00  0.00     0.004 C 
ENDROOT
BRANCH   1   2
ATOM      2  C   UNL     1     119.969  71.785   2.121  1.00  0.00     0.000 C 
BRANCH   2   3
ATOM      3  C   UNL     1     120.599  72.280   3.429  1.00  0.00     0.000 C 
BRANCH   3   4
ATOM      4  C   UNL     1     120.171  71.399   4.612  1.00  0.00     0.000 C 
BRANCH   4   5
ATOM      5  C   UNL     1     119.955  72.206   5.903  1.00  0.00     0.006 C 
BRANCH   5   6
ATOM      6  C   UNL     1     120.207  71.376   7.168  1.00  0.00     0.053 C 
BRANCH   6   7
ATOM      7  C   UNL     1     120.447  72.273   8.341  1.00  0.00     0.041 C 
ATOM      8  O   UNL     1     120.446  71.802   9.509  1.00  0.00    -0.550 OA
ATOM      9  O   UNL     1     120.624  73.638   8.150  1.00  0.00    -0.550 OA
ENDBRANCH   6   7
ENDBRANCH   5   6
ENDBRANCH   4   5
ENDBRANCH   3   4
ENDBRANCH   2   3
ENDBRANCH   1   2
BRANCH   1  10
ATOM     10  C   UNL     1     120.475  70.631  -0.070  1.00  0.00     0.027 C 
BRANCH  10  11
ATOM     11  C   UNL     1     120.945  69.308  -0.621  1.00  0.00    -0.031 C 
ATOM     12  C   UNL     1     120.695  68.849  -1.863  1.00  0.00    -0.031 C 
BRANCH  12  13
ATOM     13  C   UNL     1     119.875  69.563  -2.912  1.00  0.00     0.027 C 
BRANCH  13  14
ATOM     14  C   UNL     1     120.530  69.486  -4.302  1.00  0.00     0.004 C 
BRANCH  14  15
ATOM     15  C   UNL     1     119.944  68.406  -5.232  1.00  0.00     0.000 C 
BRANCH  15  16
ATOM     16  C   UNL     1     120.923  67.845  -6.281  1.00  0.00    -0.000 C 
BRANCH  16  17
ATOM     17  C   UNL     1     120.383  66.615  -7.040  1.00  0.00    -0.003 C 
ATOM     18  C   UNL     1     120.456  65.334  -6.209  1.00  0.00     0.004 C 
ENDBRANCH  16  17
ENDBRANCH  15  16
ENDBRANCH  14  15
ENDBRANCH  13  14
ENDBRANCH  12  13
ENDBRANCH  10  11
ENDBRANCH   1  10
TORSDOF 13
ENDMDL
MODEL 6
REMARK VINA RESULT:    -3.009      4.584     11.427
REMARK INTER + INTRA:          -5.971
REMARK INTER:                  -4.991
REMARK INTRA:                  -0.980
REMARK UNBOUND:                -0.675
REMARK SMILES CCCCCCC=CCCCCCCCC(=O)[O-]
REMARK SMILES IDX 10 1 11 2 12 3 13 4 14 5 15 6 16 7 17 8 18 9 9 10 8 11 7 12
REMARK SMILES IDX 6 13 5 14 4 15 3 16 2 17 1 18
REMARK H PARENT
REMARK Flexibility Score: inf
ROOT
ATOM      1  C   UNL     1     121.421  71.206   4.108  1.00  0.00     0.004 C 
ENDROOT
BRANCH   1   2
ATOM      2  C   UNL     1     121.746  72.240   3.025  1.00  0.00     0.000 C 
BRANCH   2   3
ATOM      3  C   UNL     1     120.490  73.018   2.611  1.00  0.00     0.000 C 
BRANCH   3   4
ATOM      4  C   UNL     1     119.935  72.495   1.278  1.00  0.00     0.000 C 
BRANCH   4   5
ATOM      5  C   UNL     1     120.751  71.319   0.718  1.00  0.00     0.006 C 
BRANCH   5   6
ATOM      6  C   UNL     1     120.111  70.695  -0.528  1.00  0.00     0.053 C 
BRANCH   6   7
ATOM      7  C   UNL     1     120.647  69.317  -0.757  1.00  0.00     0.041 C 
ATOM      8  O   UNL     1     121.597  68.882  -0.054  1.00  0.00    -0.550 OA
ATOM      9  O   UNL     1     120.130  68.530  -1.778  1.00  0.00    -0.550 OA
ENDBRANCH   6   7
ENDBRANCH   5   6
ENDBRANCH   4   5
ENDBRANCH   3   4
ENDBRANCH   2   3
ENDBRANCH   1   2
BRANCH   1  10
ATOM     10  C   UNL     1     120.074  71.510   4.774  1.00  0.00     0.027 C 
BRANCH  10  11
ATOM     11  C   UNL     1     119.948  70.822   6.111  1.00  0.00    -0.031 C 
ATOM     12  C   UNL     1     119.909  71.443   7.305  1.00  0.00    -0.031 C 
BRANCH  12  13
ATOM     13  C   UNL     1     120.015  72.935   7.521  1.00  0.00     0.027 C 
BRANCH  13  14
ATOM     14  C   UNL     1     120.993  73.283   8.656  1.00  0.00     0.004 C 
BRANCH  14  15
ATOM     15  C   UNL     1     120.325  73.770   9.956  1.00  0.00     0.000 C 
BRANCH  15  16
ATOM     16  C   UNL     1     119.875  72.653  10.918  1.00  0.00    -0.000 C 
BRANCH  16  17
ATOM     17  C   UNL     1     120.849  71.458  10.982  1.00  0.00    -0.003 C 
ATOM     18  C   UNL     1     120.123  70.116  11.075  1.00  0.00     0.004 C 
ENDBRANCH  16  17
ENDBRANCH  15  16
ENDBRANCH  14  15
ENDBRANCH  13  14
ENDBRANCH  12  13
ENDBRANCH  10  11
ENDBRANCH   1  10
TORSDOF 13
ENDMDL
MODEL 7
REMARK VINA RESULT:    -2.971      4.402     10.480
REMARK INTER + INTRA:          -5.905
REMARK INTER:                  -5.259
REMARK INTRA:                  -0.646
REMARK UNBOUND:                -0.675
REMARK SMILES CCCCCCC=CCCCCCCCC(=O)[O-]
REMARK SMILES IDX 10 1 11 2 12 3 13 4 14 5 15 6 16 7 17 8 18 9 9 10 8 11 7 12
REMARK SMILES IDX 6 13 5 14 4 15 3 16 2 17 1 18
REMARK H PARENT
REMARK Flexibility Score: inf
ROOT
ATOM      1  C   UNL     1     120.704  69.553   0.034  1.00  0.00     0.004 C 
ENDROOT
BRANCH   1   2
ATOM      2  C   UNL     1     120.544  70.092  -1.392  1.00  0.00     0.000 C 
BRANCH   2   3
ATOM      3  C   UNL     1     119.878  69.052  -2.302  1.00  0.00     0.000 C 
BRANCH   3   4
ATOM      4  C   UNL     1     120.161  67.626  -1.806  1.00  0.00     0.000 C 
BRANCH   4   5
ATOM      5  C   UNL     1     119.875  66.560  -2.877  1.00  0.00     0.006 C 
BRANCH   5   6
ATOM      6  C   UNL     1     120.456  66.930  -4.247  1.00  0.00     0.053 C 
BRANCH   6   7
ATOM      7  C   UNL     1     120.146  65.864  -5.251  1.00  0.00     0.041 C 
ATOM      8  O   UNL     1     120.000  66.160  -6.466  1.00  0.00    -0.550 OA
ATOM      9  O   UNL     1     119.969  64.549  -4.837  1.00  0.00    -0.550 OA
ENDBRANCH   6   7
ENDBRANCH   5   6
ENDBRANCH   4   5
ENDBRANCH   3   4
ENDBRANCH   2   3
ENDBRANCH   1   2
BRANCH   1  10
ATOM     10  C   UNL     1     121.669  70.425   0.847  1.00  0.00     0.027 C 
BRANCH  10  11
ATOM     11  C   UNL     1     121.017  71.713   1.284  1.00  0.00    -0.031 C 
ATOM     12  C   UNL     1     120.363  71.899   2.447  1.00  0.00    -0.031 C 
BRANCH  12  13
ATOM     13  C   UNL     1     120.139  70.843   3.505  1.00  0.00     0.027 C 
BRANCH  13  14
ATOM     14  C   UNL     1     119.875  71.462   4.888  1.00  0.00     0.004 C 
BRANCH  14  15
ATOM     15  C   UNL     1     120.275  70.572   6.080  1.00  0.00     0.000 C 
BRANCH  15  16
ATOM     16  C   UNL     1     120.836  71.327   7.301  1.00  0.00    -0.000 C 
BRANCH  16  17
ATOM     17  C   UNL     1     119.960  72.512   7.756  1.00  0.00    -0.003 C 
ATOM     18  C   UNL     1     120.649  73.379   8.811  1.00  0.00     0.004 C 
ENDBRANCH  16  17
ENDBRANCH  15  16
ENDBRANCH  14  15
ENDBRANCH  13  14
ENDBRANCH  12  13
ENDBRANCH  10  11
ENDBRANCH   1  10
TORSDOF 13
ENDMDL
MODEL 8
REMARK VINA RESULT:    -2.946      4.440     10.484
REMARK INTER + INTRA:          -5.860
REMARK INTER:                  -5.723
REMARK INTRA:                  -0.137
REMARK UNBOUND:                -0.675
REMARK SMILES CCCCCCC=CCCCCCCCC(=O)[O-]
REMARK SMILES IDX 10 1 11 2 12 3 13 4 14 5 15 6 16 7 17 8 18 9 9 10 8 11 7 12
REMARK SMILES IDX 6 13 5 14 4 15 3 16 2 17 1 18
REMARK H PARENT
REMARK Flexibility Score: inf
ROOT
ATOM      1  C   UNL     1     120.736  69.982   0.613  1.00  0.00     0.004 C 
ENDROOT
BRANCH   1   2
ATOM      2  C   UNL     1     119.943  69.737  -0.676  1.00  0.00     0.000 C 
BRANCH   2   3
ATOM      3  C   UNL     1     120.741  68.867  -1.656  1.00  0.00     0.000 C 
BRANCH   3   4
ATOM      4  C   UNL     1     119.876  68.459  -2.858  1.00  0.00     0.000 C 
BRANCH   4   5
ATOM      5  C   UNL     1     120.176  69.295  -4.113  1.00  0.00     0.006 C 
BRANCH   5   6
ATOM      6  C   UNL     1     120.539  68.429  -5.326  1.00  0.00     0.053 C 
BRANCH   6   7
ATOM      7  C   UNL     1     120.518  69.249  -6.578  1.00  0.00     0.041 C 
ATOM      8  O   UNL     1     120.053  70.419  -6.561  1.00  0.00    -0.550 OA
ATOM      9  O   UNL     1     120.967  68.704  -7.774  1.00  0.00    -0.550 OA
ENDBRANCH   6   7
ENDBRANCH   5   6
ENDBRANCH   4   5
ENDBRANCH   3   4
ENDBRANCH   2   3
ENDBRANCH   1   2
BRANCH   1  10
ATOM     10  C   UNL     1     121.331  71.395   0.632  1.00  0.00     0.027 C 
BRANCH  10  11
ATOM     11  C   UNL     1     120.423  72.370   1.338  1.00  0.00    -0.031 C 
ATOM     12  C   UNL     1     119.891  72.192   2.563  1.00  0.00    -0.031 C 
BRANCH  12  13
ATOM     13  C   UNL     1     120.085  70.972   3.433  1.00  0.00     0.027 C 
BRANCH  13  14
ATOM     14  C   UNL     1     120.969  71.273   4.654  1.00  0.00     0.004 C 
BRANCH  14  15
ATOM     15  C   UNL     1     120.434  70.721   5.989  1.00  0.00     0.000 C 
BRANCH  15  16
ATOM     16  C   UNL     1     120.967  71.428   7.251  1.00  0.00    -0.000 C 
BRANCH  16  17
ATOM     17  C   UNL     1     119.957  72.404   7.889  1.00  0.00    -0.003 C 
ATOM     18  C   UNL     1     120.178  72.577   9.392  1.00  0.00     0.004 C 
ENDBRANCH  16  17
ENDBRANCH  15  16
ENDBRANCH  14  15
ENDBRANCH  13  14
ENDBRANCH  12  13
ENDBRANCH  10  11
ENDBRANCH   1  10
TORSDOF 13
ENDMDL
