MODEL 1
REMARK VINA RESULT:    -7.324      0.000      0.000
REMARK INTER + INTRA:         -14.592
REMARK INTER:                 -12.035
REMARK INTRA:                  -2.557
REMARK UNBOUND:                -2.557
REMARK SMILES C[C@@H]1O[C@H](OC[C@@H]2O[C@@H](Oc3c(-c4ccc(O)c(O)c4)oc4cc(O)cc(O)c4c3=O)[C@@H](O)[C@@H](O)[C@@H]2O)[C@@H](O)[C@@H](O)[C@@H]1O
REMARK SMILES IDX 7 1 36 2 34 3 32 4 9 5 8 6 6 7 5 8 4 9 1 10 2 11 42 12 3 13
REMARK SMILES IDX 40 14 38 15 43 16 41 18 39 20 37 22 35 24 10 26 11 27 12 28
REMARK SMILES IDX 30 29 21 30 29 31 31 32 22 33 27 34 23 35 26 36 24 37 13 38
REMARK SMILES IDX 20 39 14 40 18 41 15 42 16 43 19 44 17 46 28 48 25 50 33 52
REMARK H PARENT 43 17 41 19 39 21 37 23 35 25 19 45 17 47 28 49 25 51 33 53
REMARK Flexibility Score: inf
ROOT
ATOM      1  C   UNL     1      20.194  33.847  33.052  1.00  0.00     0.180 C 
ATOM      2  C   UNL     1      21.666  33.942  32.745  1.00  0.00     0.177 C 
ATOM      3  C   UNL     1      22.338  34.618  34.037  1.00  0.00     0.180 C 
ATOM      4  C   UNL     1      21.745  34.128  35.483  1.00  0.00     0.214 C 
ATOM      5  C   UNL     1      21.044  32.747  35.118  1.00  0.00     0.339 C 
ATOM      6  O   UNL     1      20.079  32.826  34.077  1.00  0.00    -0.332 OA
ENDROOT
BRANCH   1   7
ATOM      7  C   UNL     1      19.438  35.070  33.557  1.00  0.00     0.198 C 
BRANCH   7   8
ATOM      8  O   UNL     1      18.118  34.960  34.093  1.00  0.00    -0.347 OA
BRANCH   8   9
ATOM      9  C   UNL     1      18.031  35.411  35.414  1.00  0.00     0.281 C 
ATOM     10  C   UNL     1      15.159  35.862  34.604  1.00  0.00     0.041 C 
ATOM     11  C   UNL     1      15.943  36.512  35.804  1.00  0.00     0.150 C 
ATOM     12  C   UNL     1      15.591  35.860  37.153  1.00  0.00     0.174 C 
ATOM     13  O   UNL     1      17.282  36.714  35.608  1.00  0.00    -0.344 OA
ATOM     14  C   UNL     1      16.244  34.333  37.101  1.00  0.00     0.179 C 
ATOM     15  C   UNL     1      17.778  34.354  36.620  1.00  0.00     0.202 C 
BRANCH  12  16
ATOM     16  O   UNL     1      14.161  36.118  37.319  1.00  0.00    -0.388 OA
ATOM     17  H   UNL     1      13.818  36.616  36.527  1.00  0.00     0.211 HD
ENDBRANCH  12  16
BRANCH  14  18
ATOM     18  O   UNL     1      16.135  33.770  38.427  1.00  0.00    -0.387 OA
ATOM     19  H   UNL     1      17.019  33.292  38.710  1.00  0.00     0.211 HD
ENDBRANCH  14  18
BRANCH  15  20
ATOM     20  O   UNL     1      18.628  34.754  37.729  1.00  0.00    -0.385 OA
ATOM     21  H   UNL     1      18.082  34.997  38.541  1.00  0.00     0.211 HD
ENDBRANCH  15  20
ENDBRANCH   8   9
ENDBRANCH   7   8
ENDBRANCH   1   7
BRANCH   2  22
ATOM     22  O   UNL     1      21.763  34.779  31.643  1.00  0.00    -0.387 OA
ATOM     23  H   UNL     1      21.047  35.438  31.782  1.00  0.00     0.211 HD
ENDBRANCH   2  22
BRANCH   3  24
ATOM     24  O   UNL     1      23.656  34.218  33.922  1.00  0.00    -0.387 OA
ATOM     25  H   UNL     1      23.849  34.156  32.885  1.00  0.00     0.211 HD
ENDBRANCH   3  24
BRANCH   5  26
ATOM     26  O   UNL     1      21.873  31.489  35.054  1.00  0.00    -0.454 OA
BRANCH  26  27
ATOM     27  C   UNL     1      22.060  30.647  36.236  1.00  0.00     0.214 A 
ATOM     28  C   UNL     1      20.961  29.847  36.860  1.00  0.00     0.180 A 
ATOM     29  C   UNL     1      23.279  30.546  36.840  1.00  0.00     0.239 A 
ATOM     30  O   UNL     1      21.271  28.927  37.754  1.00  0.00    -0.452 OA
ATOM     31  C   UNL     1      23.405  29.847  38.055  1.00  0.00     0.111 A 
ATOM     32  O   UNL     1      24.358  31.210  36.459  1.00  0.00    -0.285 OA
ATOM     33  C   UNL     1      22.473  28.887  38.373  1.00  0.00     0.146 A 
ATOM     34  C   UNL     1      24.167  30.344  39.117  1.00  0.00     0.134 A 
ATOM     35  C   UNL     1      22.751  27.955  39.434  1.00  0.00     0.094 A 
ATOM     36  C   UNL     1      24.422  29.476  40.208  1.00  0.00     0.093 A 
ATOM     37  C   UNL     1      23.730  28.264  40.379  1.00  0.00     0.123 A 
BRANCH  28  38
ATOM     38  C   UNL     1      19.485  29.948  36.677  1.00  0.00     0.025 A 
ATOM     39  C   UNL     1      18.845  29.479  35.466  1.00  0.00     0.062 A 
ATOM     40  C   UNL     1      18.650  30.581  37.615  1.00  0.00     0.016 A 
ATOM     41  C   UNL     1      17.475  29.484  35.287  1.00  0.00     0.158 A 
ATOM     42  C   UNL     1      17.303  30.692  37.401  1.00  0.00     0.051 A 
ATOM     43  C   UNL     1      16.667  29.880  36.384  1.00  0.00     0.157 A 
BRANCH  41  44
ATOM     44  O   UNL     1      16.907  28.987  34.166  1.00  0.00    -0.504 OA
ATOM     45  H   UNL     1      16.049  29.381  33.801  1.00  0.00     0.293 HD
ENDBRANCH  41  44
BRANCH  43  46
ATOM     46  O   UNL     1      15.337  29.542  36.575  1.00  0.00    -0.504 OA
ATOM     47  H   UNL     1      14.860  29.797  37.427  1.00  0.00     0.293 HD
ENDBRANCH  43  46
ENDBRANCH  28  38
BRANCH  34  48
ATOM     48  O   UNL     1      24.622  31.671  39.213  1.00  0.00    -0.507 OA
ATOM     49  H   UNL     1      24.069  32.431  38.790  1.00  0.00     0.293 HD
ENDBRANCH  34  48
BRANCH  37  50
ATOM     50  O   UNL     1      23.974  27.445  41.464  1.00  0.00    -0.508 OA
ATOM     51  H   UNL     1      23.744  26.462  41.387  1.00  0.00     0.293 HD
ENDBRANCH  37  50
ENDBRANCH  26  27
ENDBRANCH   5  26
BRANCH   4  52
ATOM     52  O   UNL     1      22.859  33.808  36.216  1.00  0.00    -0.384 OA
ATOM     53  H   UNL     1      23.018  32.816  36.066  1.00  0.00     0.211 HD
ENDBRANCH   4  52
TORSDOF 16
ENDMDL
MODEL 2
REMARK VINA RESULT:    -7.114      1.421      2.103
REMARK INTER + INTRA:         -14.247
REMARK INTER:                 -11.141
REMARK INTRA:                  -3.106
REMARK UNBOUND:                -2.557
REMARK SMILES C[C@@H]1O[C@H](OC[C@@H]2O[C@@H](Oc3c(-c4ccc(O)c(O)c4)oc4cc(O)cc(O)c4c3=O)[C@@H](O)[C@@H](O)[C@@H]2O)[C@@H](O)[C@@H](O)[C@@H]1O
REMARK SMILES IDX 7 1 36 2 34 3 32 4 9 5 8 6 6 7 5 8 4 9 1 10 2 11 42 12 3 13
REMARK SMILES IDX 40 14 38 15 43 16 41 18 39 20 37 22 35 24 10 26 11 27 12 28
REMARK SMILES IDX 30 29 21 30 29 31 31 32 22 33 27 34 23 35 26 36 24 37 13 38
REMARK SMILES IDX 20 39 14 40 18 41 15 42 16 43 19 44 17 46 28 48 25 50 33 52
REMARK H PARENT 43 17 41 19 39 21 37 23 35 25 19 45 17 47 28 49 25 51 33 53
REMARK Flexibility Score: inf
ROOT
ATOM      1  C   UNL     1      19.735  33.788  34.369  1.00  0.00     0.180 C 
ATOM      2  C   UNL     1      20.591  33.648  33.137  1.00  0.00     0.177 C 
ATOM      3  C   UNL     1      21.876  34.577  33.393  1.00  0.00     0.180 C 
ATOM      4  C   UNL     1      22.473  34.556  34.918  1.00  0.00     0.214 C 
ATOM      5  C   UNL     1      21.872  33.206  35.507  1.00  0.00     0.339 C 
ATOM      6  O   UNL     1      20.456  33.098  35.422  1.00  0.00    -0.332 OA
ENDROOT
BRANCH   1   7
ATOM      7  C   UNL     1      19.385  35.172  34.903  1.00  0.00     0.198 C 
BRANCH   7   8
ATOM      8  O   UNL     1      18.043  35.516  35.255  1.00  0.00    -0.347 OA
BRANCH   8   9
ATOM      9  C   UNL     1      17.514  34.685  36.247  1.00  0.00     0.281 C 
ATOM     10  C   UNL     1      17.788  37.206  37.883  1.00  0.00     0.041 C 
ATOM     11  C   UNL     1      17.659  35.725  38.397  1.00  0.00     0.150 C 
ATOM     12  C   UNL     1      16.242  35.402  38.901  1.00  0.00     0.174 C 
ATOM     13  O   UNL     1      18.205  34.760  37.595  1.00  0.00    -0.344 OA
ATOM     14  C   UNL     1      15.274  35.384  37.550  1.00  0.00     0.179 C 
ATOM     15  C   UNL     1      15.908  34.489  36.374  1.00  0.00     0.202 C 
BRANCH  12  16
ATOM     16  O   UNL     1      16.038  36.319  40.023  1.00  0.00    -0.388 OA
ATOM     17  H   UNL     1      15.579  37.142  39.701  1.00  0.00     0.211 HD
ENDBRANCH  12  16
BRANCH  14  18
ATOM     18  O   UNL     1      13.986  34.864  37.947  1.00  0.00    -0.387 OA
ATOM     19  H   UNL     1      14.082  34.147  38.699  1.00  0.00     0.211 HD
ENDBRANCH  14  18
BRANCH  15  20
ATOM     20  O   UNL     1      15.665  33.084  36.651  1.00  0.00    -0.385 OA
ATOM     21  H   UNL     1      14.723  32.818  36.407  1.00  0.00     0.211 HD
ENDBRANCH  15  20
ENDBRANCH   8   9
ENDBRANCH   7   8
ENDBRANCH   1   7
BRANCH   2  22
ATOM     22  O   UNL     1      19.825  34.143  32.092  1.00  0.00    -0.387 OA
ATOM     23  H   UNL     1      20.445  34.156  31.329  1.00  0.00     0.211 HD
ENDBRANCH   2  22
BRANCH   3  24
ATOM     24  O   UNL     1      22.807  34.029  32.529  1.00  0.00    -0.387 OA
ATOM     25  H   UNL     1      22.466  33.051  32.321  1.00  0.00     0.211 HD
ENDBRANCH   3  24
BRANCH   5  26
ATOM     26  O   UNL     1      22.576  31.901  35.235  1.00  0.00    -0.454 OA
BRANCH  26  27
ATOM     27  C   UNL     1      23.014  31.036  36.331  1.00  0.00     0.214 A 
ATOM     28  C   UNL     1      22.110  30.069  37.029  1.00  0.00     0.180 A 
ATOM     29  C   UNL     1      24.301  31.070  36.781  1.00  0.00     0.239 A 
ATOM     30  O   UNL     1      22.643  29.157  37.820  1.00  0.00    -0.452 OA
ATOM     31  C   UNL     1      24.664  30.337  37.926  1.00  0.00     0.111 A 
ATOM     32  O   UNL     1      25.232  31.889  36.317  1.00  0.00    -0.285 OA
ATOM     33  C   UNL     1      23.909  29.248  38.290  1.00  0.00     0.146 A 
ATOM     34  C   UNL     1      25.485  30.881  38.920  1.00  0.00     0.134 A 
ATOM     35  C   UNL     1      24.432  28.313  39.250  1.00  0.00     0.094 A 
ATOM     36  C   UNL     1      25.981  30.005  39.916  1.00  0.00     0.093 A 
ATOM     37  C   UNL     1      25.474  28.705  40.091  1.00  0.00     0.123 A 
BRANCH  28  38
ATOM     38  C   UNL     1      20.623  29.980  37.027  1.00  0.00     0.025 A 
ATOM     39  C   UNL     1      19.814  30.930  37.761  1.00  0.00     0.062 A 
ATOM     40  C   UNL     1      19.930  28.929  36.400  1.00  0.00     0.016 A 
ATOM     41  C   UNL     1      18.432  30.929  37.726  1.00  0.00     0.158 A 
ATOM     42  C   UNL     1      18.565  28.854  36.448  1.00  0.00     0.051 A 
ATOM     43  C   UNL     1      17.794  30.012  36.850  1.00  0.00     0.157 A 
BRANCH  41  44
ATOM     44  O   UNL     1      17.708  31.865  38.379  1.00  0.00    -0.504 OA
ATOM     45  H   UNL     1      16.710  31.753  38.504  1.00  0.00     0.293 HD
ENDBRANCH  41  44
BRANCH  43  46
ATOM     46  O   UNL     1      16.515  30.139  36.335  1.00  0.00    -0.504 OA
ATOM     47  H   UNL     1      15.957  29.322  36.138  1.00  0.00     0.293 HD
ENDBRANCH  43  46
ENDBRANCH  28  38
BRANCH  34  48
ATOM     48  O   UNL     1      25.777  32.251  39.045  1.00  0.00    -0.507 OA
ATOM     49  H   UNL     1      25.690  32.708  39.965  1.00  0.00     0.293 HD
ENDBRANCH  34  48
BRANCH  37  50
ATOM     50  O   UNL     1      25.953  27.875  41.087  1.00  0.00    -0.508 OA
ATOM     51  H   UNL     1      25.293  27.487  41.750  1.00  0.00     0.293 HD
ENDBRANCH  37  50
ENDBRANCH  26  27
ENDBRANCH   5  26
BRANCH   4  52
ATOM     52  O   UNL     1      23.817  34.335  34.754  1.00  0.00    -0.384 OA
ATOM     53  H   UNL     1      24.284  35.156  35.130  1.00  0.00     0.211 HD
ENDBRANCH   4  52
TORSDOF 16
ENDMDL
MODEL 3
REMARK VINA RESULT:    -7.101      1.166      1.853
REMARK INTER + INTRA:         -14.225
REMARK INTER:                 -12.163
REMARK INTRA:                  -2.062
REMARK UNBOUND:                -2.557
REMARK SMILES C[C@@H]1O[C@H](OC[C@@H]2O[C@@H](Oc3c(-c4ccc(O)c(O)c4)oc4cc(O)cc(O)c4c3=O)[C@@H](O)[C@@H](O)[C@@H]2O)[C@@H](O)[C@@H](O)[C@@H]1O
REMARK SMILES IDX 7 1 36 2 34 3 32 4 9 5 8 6 6 7 5 8 4 9 1 10 2 11 42 12 3 13
REMARK SMILES IDX 40 14 38 15 43 16 41 18 39 20 37 22 35 24 10 26 11 27 12 28
REMARK SMILES IDX 30 29 21 30 29 31 31 32 22 33 27 34 23 35 26 36 24 37 13 38
REMARK SMILES IDX 20 39 14 40 18 41 15 42 16 43 19 44 17 46 28 48 25 50 33 52
REMARK H PARENT 43 17 41 19 39 21 37 23 35 25 19 45 17 47 28 49 25 51 33 53
REMARK Flexibility Score: inf
ROOT
ATOM      1  C   UNL     1      20.355  33.623  33.188  1.00  0.00     0.180 C 
ATOM      2  C   UNL     1      21.751  33.599  32.623  1.00  0.00     0.177 C 
ATOM      3  C   UNL     1      22.664  34.381  33.687  1.00  0.00     0.180 C 
ATOM      4  C   UNL     1      22.319  34.096  35.263  1.00  0.00     0.214 C 
ATOM      5  C   UNL     1      21.516  32.724  35.198  1.00  0.00     0.339 C 
ATOM      6  O   UNL     1      20.386  32.736  34.336  1.00  0.00    -0.332 OA
ENDROOT
BRANCH   1   7
ATOM      7  C   UNL     1      19.743  34.938  33.659  1.00  0.00     0.198 C 
BRANCH   7   8
ATOM      8  O   UNL     1      18.505  34.969  34.373  1.00  0.00    -0.347 OA
BRANCH   8   9
ATOM      9  C   UNL     1      17.585  35.865  33.821  1.00  0.00     0.281 C 
ATOM     10  C   UNL     1      16.136  35.280  36.402  1.00  0.00     0.041 C 
ATOM     11  C   UNL     1      15.544  35.869  35.069  1.00  0.00     0.150 C 
ATOM     12  C   UNL     1      15.330  37.391  35.148  1.00  0.00     0.174 C 
ATOM     13  O   UNL     1      16.132  35.443  33.910  1.00  0.00    -0.344 OA
ATOM     14  C   UNL     1      16.850  38.061  35.177  1.00  0.00     0.179 C 
ATOM     15  C   UNL     1      17.789  37.464  34.016  1.00  0.00     0.202 C 
BRANCH  12  16
ATOM     16  O   UNL     1      14.355  37.565  36.224  1.00  0.00    -0.388 OA
ATOM     17  H   UNL     1      14.800  37.980  37.013  1.00  0.00     0.211 HD
ENDBRANCH  12  16
BRANCH  14  18
ATOM     18  O   UNL     1      16.697  39.489  35.022  1.00  0.00    -0.387 OA
ATOM     19  H   UNL     1      15.821  39.828  35.475  1.00  0.00     0.211 HD
ENDBRANCH  14  18
BRANCH  15  20
ATOM     20  O   UNL     1      17.458  38.099  32.752  1.00  0.00    -0.385 OA
ATOM     21  H   UNL     1      17.408  37.425  32.003  1.00  0.00     0.211 HD
ENDBRANCH  15  20
ENDBRANCH   8   9
ENDBRANCH   7   8
ENDBRANCH   1   7
BRANCH   2  22
ATOM     22  O   UNL     1      21.681  34.295  31.426  1.00  0.00    -0.387 OA
ATOM     23  H   UNL     1      22.048  33.667  30.765  1.00  0.00     0.211 HD
ENDBRANCH   2  22
BRANCH   3  24
ATOM     24  O   UNL     1      23.926  33.897  33.399  1.00  0.00    -0.387 OA
ATOM     25  H   UNL     1      23.962  32.923  33.810  1.00  0.00     0.211 HD
ENDBRANCH   3  24
BRANCH   5  26
ATOM     26  O   UNL     1      22.276  31.423  35.149  1.00  0.00    -0.454 OA
BRANCH  26  27
ATOM     27  C   UNL     1      22.461  30.610  36.353  1.00  0.00     0.214 A 
ATOM     28  C   UNL     1      21.357  29.837  37.002  1.00  0.00     0.180 A 
ATOM     29  C   UNL     1      23.681  30.515  36.955  1.00  0.00     0.239 A 
ATOM     30  O   UNL     1      21.663  28.938  37.918  1.00  0.00    -0.452 OA
ATOM     31  C   UNL     1      23.806  29.847  38.187  1.00  0.00     0.111 A 
ATOM     32  O   UNL     1      24.765  31.160  36.552  1.00  0.00    -0.285 OA
ATOM     33  C   UNL     1      22.868  28.904  38.534  1.00  0.00     0.146 A 
ATOM     34  C   UNL     1      24.577  30.367  39.233  1.00  0.00     0.134 A 
ATOM     35  C   UNL     1      23.142  27.999  39.618  1.00  0.00     0.094 A 
ATOM     36  C   UNL     1      24.829  29.526  40.345  1.00  0.00     0.093 A 
ATOM     37  C   UNL     1      24.127  28.325  40.551  1.00  0.00     0.123 A 
BRANCH  28  38
ATOM     38  C   UNL     1      19.882  29.945  36.822  1.00  0.00     0.025 A 
ATOM     39  C   UNL     1      19.225  29.388  35.658  1.00  0.00     0.062 A 
ATOM     40  C   UNL     1      19.064  30.666  37.710  1.00  0.00     0.016 A 
ATOM     41  C   UNL     1      17.853  29.400  35.489  1.00  0.00     0.158 A 
ATOM     42  C   UNL     1      17.717  30.780  37.497  1.00  0.00     0.051 A 
ATOM     43  C   UNL     1      17.061  29.897  36.556  1.00  0.00     0.157 A 
BRANCH  41  44
ATOM     44  O   UNL     1      17.269  28.821  34.417  1.00  0.00    -0.504 OA
ATOM     45  H   UNL     1      16.570  28.099  34.536  1.00  0.00     0.293 HD
ENDBRANCH  41  44
BRANCH  43  46
ATOM     46  O   UNL     1      15.728  29.597  36.784  1.00  0.00    -0.504 OA
ATOM     47  H   UNL     1      15.214  30.066  37.515  1.00  0.00     0.293 HD
ENDBRANCH  43  46
ENDBRANCH  28  38
BRANCH  34  48
ATOM     48  O   UNL     1      25.044  31.692  39.292  1.00  0.00    -0.507 OA
ATOM     49  H   UNL     1      25.805  31.935  39.943  1.00  0.00     0.293 HD
ENDBRANCH  34  48
BRANCH  37  50
ATOM     50  O   UNL     1      24.369  27.533  41.657  1.00  0.00    -0.508 OA
ATOM     51  H   UNL     1      23.595  27.318  42.274  1.00  0.00     0.293 HD
ENDBRANCH  37  50
ENDBRANCH  26  27
ENDBRANCH   5  26
BRANCH   4  52
ATOM     52  O   UNL     1      23.534  33.801  35.828  1.00  0.00    -0.384 OA
ATOM     53  H   UNL     1      23.583  34.346  36.685  1.00  0.00     0.211 HD
ENDBRANCH   4  52
TORSDOF 16
ENDMDL
MODEL 4
REMARK VINA RESULT:    -7.081      0.849      1.558
REMARK INTER + INTRA:         -14.192
REMARK INTER:                 -11.821
REMARK INTRA:                  -2.371
REMARK UNBOUND:                -2.557
REMARK SMILES C[C@@H]1O[C@H](OC[C@@H]2O[C@@H](Oc3c(-c4ccc(O)c(O)c4)oc4cc(O)cc(O)c4c3=O)[C@@H](O)[C@@H](O)[C@@H]2O)[C@@H](O)[C@@H](O)[C@@H]1O
REMARK SMILES IDX 7 1 36 2 34 3 32 4 9 5 8 6 6 7 5 8 4 9 1 10 2 11 42 12 3 13
REMARK SMILES IDX 40 14 38 15 43 16 41 18 39 20 37 22 35 24 10 26 11 27 12 28
REMARK SMILES IDX 30 29 21 30 29 31 31 32 22 33 27 34 23 35 26 36 24 37 13 38
REMARK SMILES IDX 20 39 14 40 18 41 15 42 16 43 19 44 17 46 28 48 25 50 33 52
REMARK H PARENT 43 17 41 19 39 21 37 23 35 25 19 45 17 47 28 49 25 51 33 53
REMARK Flexibility Score: inf
ROOT
ATOM      1  C   UNL     1      20.261  33.954  33.491  1.00  0.00     0.180 C 
ATOM      2  C   UNL     1      21.553  33.738  32.747  1.00  0.00     0.177 C 
ATOM      3  C   UNL     1      22.700  34.376  33.672  1.00  0.00     0.180 C 
ATOM      4  C   UNL     1      22.530  34.130  35.283  1.00  0.00     0.214 C 
ATOM      5  C   UNL     1      21.541  32.885  35.340  1.00  0.00     0.339 C 
ATOM      6  O   UNL     1      20.319  33.063  34.634  1.00  0.00    -0.332 OA
ENDROOT
BRANCH   1   7
ATOM      7  C   UNL     1      19.909  35.338  34.024  1.00  0.00     0.198 C 
BRANCH   7   8
ATOM      8  O   UNL     1      19.230  35.505  35.271  1.00  0.00    -0.347 OA
BRANCH   8   9
ATOM      9  C   UNL     1      17.924  35.005  35.246  1.00  0.00     0.281 C 
ATOM     10  C   UNL     1      18.208  35.351  38.230  1.00  0.00     0.041 C 
ATOM     11  C   UNL     1      17.183  34.446  37.452  1.00  0.00     0.150 C 
ATOM     12  C   UNL     1      15.781  35.076  37.386  1.00  0.00     0.174 C 
ATOM     13  O   UNL     1      17.622  33.924  36.266  1.00  0.00    -0.344 OA
ATOM     14  C   UNL     1      15.921  36.388  36.376  1.00  0.00     0.179 C 
ATOM     15  C   UNL     1      16.672  36.010  35.005  1.00  0.00     0.202 C 
BRANCH  12  16
ATOM     16  O   UNL     1      15.363  35.179  38.784  1.00  0.00    -0.388 OA
ATOM     17  H   UNL     1      16.072  34.800  39.372  1.00  0.00     0.211 HD
ENDBRANCH  12  16
BRANCH  14  18
ATOM     18  O   UNL     1      14.587  36.872  36.106  1.00  0.00    -0.387 OA
ATOM     19  H   UNL     1      14.132  37.233  36.973  1.00  0.00     0.211 HD
ENDBRANCH  14  18
BRANCH  15  20
ATOM     20  O   UNL     1      15.743  35.336  34.114  1.00  0.00    -0.385 OA
ATOM     21  H   UNL     1      14.875  35.843  34.036  1.00  0.00     0.211 HD
ENDBRANCH  15  20
ENDBRANCH   8   9
ENDBRANCH   7   8
ENDBRANCH   1   7
BRANCH   2  22
ATOM     22  O   UNL     1      21.424  34.447  31.562  1.00  0.00    -0.387 OA
ATOM     23  H   UNL     1      20.478  34.713  31.546  1.00  0.00     0.211 HD
ENDBRANCH   2  22
BRANCH   3  24
ATOM     24  O   UNL     1      23.832  33.720  33.225  1.00  0.00    -0.387 OA
ATOM     25  H   UNL     1      23.793  33.764  32.170  1.00  0.00     0.211 HD
ENDBRANCH   3  24
BRANCH   5  26
ATOM     26  O   UNL     1      22.097  31.490  35.205  1.00  0.00    -0.454 OA
BRANCH  26  27
ATOM     27  C   UNL     1      22.280  30.634  36.378  1.00  0.00     0.214 A 
ATOM     28  C   UNL     1      21.178  29.829  36.991  1.00  0.00     0.180 A 
ATOM     29  C   UNL     1      23.497  30.524  36.983  1.00  0.00     0.239 A 
ATOM     30  O   UNL     1      21.485  28.898  37.874  1.00  0.00    -0.452 OA
ATOM     31  C   UNL     1      23.619  29.811  38.190  1.00  0.00     0.111 A 
ATOM     32  O   UNL     1      24.579  31.190  36.611  1.00  0.00    -0.285 OA
ATOM     33  C   UNL     1      22.686  28.849  38.495  1.00  0.00     0.146 A 
ATOM     34  C   UNL     1      24.381  30.295  39.259  1.00  0.00     0.134 A 
ATOM     35  C   UNL     1      22.960  27.905  39.546  1.00  0.00     0.094 A 
ATOM     36  C   UNL     1      24.632  29.413  40.340  1.00  0.00     0.093 A 
ATOM     37  C   UNL     1      23.937  28.201  40.496  1.00  0.00     0.123 A 
BRANCH  28  38
ATOM     38  C   UNL     1      19.703  29.934  36.806  1.00  0.00     0.025 A 
ATOM     39  C   UNL     1      19.064  29.476  35.590  1.00  0.00     0.062 A 
ATOM     40  C   UNL     1      18.867  30.561  37.747  1.00  0.00     0.016 A 
ATOM     41  C   UNL     1      17.694  29.486  35.408  1.00  0.00     0.158 A 
ATOM     42  C   UNL     1      17.521  30.677  37.532  1.00  0.00     0.051 A 
ATOM     43  C   UNL     1      16.885  29.875  36.508  1.00  0.00     0.157 A 
BRANCH  41  44
ATOM     44  O   UNL     1      17.127  28.999  34.283  1.00  0.00    -0.504 OA
ATOM     45  H   UNL     1      17.595  28.292  33.732  1.00  0.00     0.293 HD
ENDBRANCH  41  44
BRANCH  43  46
ATOM     46  O   UNL     1      15.554  29.538  36.694  1.00  0.00    -0.504 OA
ATOM     47  H   UNL     1      14.849  29.856  36.045  1.00  0.00     0.293 HD
ENDBRANCH  43  46
ENDBRANCH  28  38
BRANCH  34  48
ATOM     48  O   UNL     1      24.838  31.620  39.372  1.00  0.00    -0.507 OA
ATOM     49  H   UNL     1      24.420  32.245  40.077  1.00  0.00     0.293 HD
ENDBRANCH  34  48
BRANCH  37  50
ATOM     50  O   UNL     1      24.178  27.369  41.573  1.00  0.00    -0.508 OA
ATOM     51  H   UNL     1      25.136  27.120  41.784  1.00  0.00     0.293 HD
ENDBRANCH  37  50
ENDBRANCH  26  27
ENDBRANCH   5  26
BRANCH   4  52
ATOM     52  O   UNL     1      23.755  33.662  35.686  1.00  0.00    -0.384 OA
ATOM     53  H   UNL     1      24.286  34.480  35.974  1.00  0.00     0.211 HD
ENDBRANCH   4  52
TORSDOF 16
ENDMDL
MODEL 5
REMARK VINA RESULT:    -7.054      1.956      7.273
REMARK INTER + INTRA:         -14.147
REMARK INTER:                 -11.112
REMARK INTRA:                  -3.034
REMARK UNBOUND:                -2.557
REMARK SMILES C[C@@H]1O[C@H](OC[C@@H]2O[C@@H](Oc3c(-c4ccc(O)c(O)c4)oc4cc(O)cc(O)c4c3=O)[C@@H](O)[C@@H](O)[C@@H]2O)[C@@H](O)[C@@H](O)[C@@H]1O
REMARK SMILES IDX 7 1 36 2 34 3 32 4 9 5 8 6 6 7 5 8 4 9 1 10 2 11 42 12 3 13
REMARK SMILES IDX 40 14 38 15 43 16 41 18 39 20 37 22 35 24 10 26 11 27 12 28
REMARK SMILES IDX 30 29 21 30 29 31 31 32 22 33 27 34 23 35 26 36 24 37 13 38
REMARK SMILES IDX 20 39 14 40 18 41 15 42 16 43 19 44 17 46 28 48 25 50 33 52
REMARK H PARENT 43 17 41 19 39 21 37 23 35 25 19 45 17 47 28 49 25 51 33 53
REMARK Flexibility Score: inf
ROOT
ATOM      1  C   UNL     1      23.029  34.047  35.754  1.00  0.00     0.180 C 
ATOM      2  C   UNL     1      22.286  35.285  35.324  1.00  0.00     0.177 C 
ATOM      3  C   UNL     1      22.605  35.462  33.760  1.00  0.00     0.180 C 
ATOM      4  C   UNL     1      22.644  34.079  32.884  1.00  0.00     0.214 C 
ATOM      5  C   UNL     1      21.834  33.064  33.804  1.00  0.00     0.339 C 
ATOM      6  O   UNL     1      22.328  32.940  35.131  1.00  0.00    -0.332 OA
ENDROOT
BRANCH   1   7
ATOM      7  C   UNL     1      24.506  33.885  35.416  1.00  0.00     0.198 C 
BRANCH   7   8
ATOM      8  O   UNL     1      25.468  33.560  36.422  1.00  0.00    -0.347 OA
BRANCH   8   9
ATOM      9  C   UNL     1      25.936  32.246  36.317  1.00  0.00     0.281 C 
ATOM     10  C   UNL     1      24.324  31.941  38.849  1.00  0.00     0.041 C 
ATOM     11  C   UNL     1      25.482  31.018  38.320  1.00  0.00     0.150 C 
ATOM     12  C   UNL     1      24.951  29.725  37.678  1.00  0.00     0.174 C 
ATOM     13  O   UNL     1      26.466  31.641  37.602  1.00  0.00    -0.344 OA
ATOM     14  C   UNL     1      24.209  30.192  36.266  1.00  0.00     0.179 C 
ATOM     15  C   UNL     1      25.142  31.171  35.396  1.00  0.00     0.202 C 
BRANCH  12  16
ATOM     16  O   UNL     1      24.252  29.040  38.764  1.00  0.00    -0.388 OA
ATOM     17  H   UNL     1      23.815  28.217  38.412  1.00  0.00     0.211 HD
ENDBRANCH  12  16
BRANCH  14  18
ATOM     18  O   UNL     1      23.898  28.994  35.522  1.00  0.00    -0.387 OA
ATOM     19  H   UNL     1      23.127  29.160  34.840  1.00  0.00     0.211 HD
ENDBRANCH  14  18
BRANCH  15  20
ATOM     20  O   UNL     1      26.142  30.386  34.691  1.00  0.00    -0.385 OA
ATOM     21  H   UNL     1      25.953  30.354  33.701  1.00  0.00     0.211 HD
ENDBRANCH  15  20
ENDBRANCH   8   9
ENDBRANCH   7   8
ENDBRANCH   1   7
BRANCH   2  22
ATOM     22  O   UNL     1      22.836  36.325  36.060  1.00  0.00    -0.387 OA
ATOM     23  H   UNL     1      22.479  36.188  36.966  1.00  0.00     0.211 HD
ENDBRANCH   2  22
BRANCH   3  24
ATOM     24  O   UNL     1      21.548  36.245  33.334  1.00  0.00    -0.387 OA
ATOM     25  H   UNL     1      20.673  35.755  33.669  1.00  0.00     0.211 HD
ENDBRANCH   3  24
BRANCH   5  26
ATOM     26  O   UNL     1      20.328  33.042  33.735  1.00  0.00    -0.454 OA
BRANCH  26  27
ATOM     27  C   UNL     1      19.514  33.491  34.866  1.00  0.00     0.214 A 
ATOM     28  C   UNL     1      19.413  32.742  36.157  1.00  0.00     0.180 A 
ATOM     29  C   UNL     1      18.792  34.646  34.796  1.00  0.00     0.239 A 
ATOM     30  O   UNL     1      18.871  33.342  37.200  1.00  0.00    -0.452 OA
ATOM     31  C   UNL     1      17.907  34.985  35.836  1.00  0.00     0.111 A 
ATOM     32  O   UNL     1      18.722  35.419  33.724  1.00  0.00    -0.285 OA
ATOM     33  C   UNL     1      18.116  34.459  37.089  1.00  0.00     0.146 A 
ATOM     34  C   UNL     1      16.625  35.485  35.581  1.00  0.00     0.134 A 
ATOM     35  C   UNL     1      17.430  35.028  38.218  1.00  0.00     0.094 A 
ATOM     36  C   UNL     1      15.893  36.009  36.675  1.00  0.00     0.093 A 
ATOM     37  C   UNL     1      16.288  35.801  38.009  1.00  0.00     0.123 A 
BRANCH  28  38
ATOM     38  C   UNL     1      19.792  31.337  36.477  1.00  0.00     0.025 A 
ATOM     39  C   UNL     1      19.228  30.222  35.745  1.00  0.00     0.062 A 
ATOM     40  C   UNL     1      20.634  31.010  37.555  1.00  0.00     0.016 A 
ATOM     41  C   UNL     1      19.609  28.911  35.960  1.00  0.00     0.158 A 
ATOM     42  C   UNL     1      20.933  29.707  37.849  1.00  0.00     0.051 A 
ATOM     43  C   UNL     1      20.669  28.671  36.873  1.00  0.00     0.157 A 
BRANCH  41  44
ATOM     44  O   UNL     1      19.104  27.899  35.220  1.00  0.00    -0.504 OA
ATOM     45  H   UNL     1      19.577  27.582  34.385  1.00  0.00     0.293 HD
ENDBRANCH  41  44
BRANCH  43  46
ATOM     46  O   UNL     1      21.479  27.548  36.897  1.00  0.00    -0.504 OA
ATOM     47  H   UNL     1      22.481  27.640  36.962  1.00  0.00     0.293 HD
ENDBRANCH  43  46
ENDBRANCH  28  38
BRANCH  34  48
ATOM     48  O   UNL     1      15.984  35.422  34.331  1.00  0.00    -0.507 OA
ATOM     49  H   UNL     1      15.532  36.266  33.947  1.00  0.00     0.293 HD
ENDBRANCH  34  48
BRANCH  37  50
ATOM     50  O   UNL     1      15.545  36.297  39.063  1.00  0.00    -0.508 OA
ATOM     51  H   UNL     1      15.083  35.639  39.679  1.00  0.00     0.293 HD
ENDBRANCH  37  50
ENDBRANCH  26  27
ENDBRANCH   5  26
BRANCH   4  52
ATOM     52  O   UNL     1      21.840  34.339  31.803  1.00  0.00    -0.384 OA
ATOM     53  H   UNL     1      20.989  34.748  32.179  1.00  0.00     0.211 HD
ENDBRANCH   4  52
TORSDOF 16
ENDMDL
MODEL 6
REMARK VINA RESULT:    -6.959      2.281      4.078
REMARK INTER + INTRA:         -13.991
REMARK INTER:                 -11.250
REMARK INTRA:                  -2.741
REMARK UNBOUND:                -2.557
REMARK SMILES C[C@@H]1O[C@H](OC[C@@H]2O[C@@H](Oc3c(-c4ccc(O)c(O)c4)oc4cc(O)cc(O)c4c3=O)[C@@H](O)[C@@H](O)[C@@H]2O)[C@@H](O)[C@@H](O)[C@@H]1O
REMARK SMILES IDX 7 1 36 2 34 3 32 4 9 5 8 6 6 7 5 8 4 9 1 10 2 11 42 12 3 13
REMARK SMILES IDX 40 14 38 15 43 16 41 18 39 20 37 22 35 24 10 26 11 27 12 28
REMARK SMILES IDX 30 29 21 30 29 31 31 32 22 33 27 34 23 35 26 36 24 37 13 38
REMARK SMILES IDX 20 39 14 40 18 41 15 42 16 43 19 44 17 46 28 48 25 50 33 52
REMARK H PARENT 43 17 41 19 39 21 37 23 35 25 19 45 17 47 28 49 25 51 33 53
REMARK Flexibility Score: inf
ROOT
ATOM      1  C   UNL     1      20.424  34.324  36.364  1.00  0.00     0.180 C 
ATOM      2  C   UNL     1      19.716  33.691  35.195  1.00  0.00     0.177 C 
ATOM      3  C   UNL     1      20.573  34.093  33.898  1.00  0.00     0.180 C 
ATOM      4  C   UNL     1      22.200  34.075  34.090  1.00  0.00     0.214 C 
ATOM      5  C   UNL     1      22.386  33.155  35.374  1.00  0.00     0.339 C 
ATOM      6  O   UNL     1      21.658  33.578  36.520  1.00  0.00    -0.332 OA
ENDROOT
BRANCH   1   7
ATOM      7  C   UNL     1      20.800  35.801  36.321  1.00  0.00     0.198 C 
BRANCH   7   8
ATOM      8  O   UNL     1      20.710  36.626  37.485  1.00  0.00    -0.347 OA
BRANCH   8   9
ATOM      9  C   UNL     1      21.962  36.997  37.983  1.00  0.00     0.281 C 
ATOM     10  C   UNL     1      21.075  35.250  40.278  1.00  0.00     0.041 C 
ATOM     11  C   UNL     1      22.190  36.360  40.278  1.00  0.00     0.150 C 
ATOM     12  C   UNL     1      23.607  35.763  40.208  1.00  0.00     0.174 C 
ATOM     13  O   UNL     1      21.984  37.420  39.439  1.00  0.00    -0.344 OA
ATOM     14  C   UNL     1      23.754  35.125  38.681  1.00  0.00     0.179 C 
ATOM     15  C   UNL     1      23.289  36.169  37.549  1.00  0.00     0.202 C 
BRANCH  12  16
ATOM     16  O   UNL     1      23.725  34.964  41.427  1.00  0.00    -0.388 OA
ATOM     17  H   UNL     1      24.369  35.400  42.050  1.00  0.00     0.211 HD
ENDBRANCH  12  16
BRANCH  14  18
ATOM     18  O   UNL     1      25.139  34.759  38.495  1.00  0.00    -0.387 OA
ATOM     19  H   UNL     1      25.692  34.916  39.366  1.00  0.00     0.211 HD
ENDBRANCH  14  18
BRANCH  15  20
ATOM     20  O   UNL     1      24.347  37.138  37.320  1.00  0.00    -0.385 OA
ATOM     21  H   UNL     1      24.477  37.316  36.337  1.00  0.00     0.211 HD
ENDBRANCH  15  20
ENDBRANCH   8   9
ENDBRANCH   7   8
ENDBRANCH   1   7
BRANCH   2  22
ATOM     22  O   UNL     1      18.460  34.278  35.157  1.00  0.00    -0.387 OA
ATOM     23  H   UNL     1      17.948  33.703  34.544  1.00  0.00     0.211 HD
ENDBRANCH   2  22
BRANCH   3  24
ATOM     24  O   UNL     1      20.207  33.114  32.993  1.00  0.00    -0.387 OA
ATOM     25  H   UNL     1      19.335  33.474  32.516  1.00  0.00     0.211 HD
ENDBRANCH   3  24
BRANCH   5  26
ATOM     26  O   UNL     1      22.408  31.655  35.215  1.00  0.00    -0.454 OA
BRANCH  26  27
ATOM     27  C   UNL     1      22.650  30.778  36.361  1.00  0.00     0.214 A 
ATOM     28  C   UNL     1      21.573  29.988  37.036  1.00  0.00     0.180 A 
ATOM     29  C   UNL     1      23.902  30.632  36.881  1.00  0.00     0.239 A 
ATOM     30  O   UNL     1      21.918  29.037  37.884  1.00  0.00    -0.452 OA
ATOM     31  C   UNL     1      24.089  29.898  38.067  1.00  0.00     0.111 A 
ATOM     32  O   UNL     1      24.971  31.280  36.446  1.00  0.00    -0.285 OA
ATOM     33  C   UNL     1      23.157  28.952  38.421  1.00  0.00     0.146 A 
ATOM     34  C   UNL     1      24.932  30.349  39.089  1.00  0.00     0.134 A 
ATOM     35  C   UNL     1      23.479  27.987  39.438  1.00  0.00     0.094 A 
ATOM     36  C   UNL     1      25.235  29.446  40.138  1.00  0.00     0.093 A 
ATOM     37  C   UNL     1      24.525  28.247  40.324  1.00  0.00     0.123 A 
BRANCH  28  38
ATOM     38  C   UNL     1      20.092  30.128  36.952  1.00  0.00     0.025 A 
ATOM     39  C   UNL     1      19.344  29.551  35.855  1.00  0.00     0.062 A 
ATOM     40  C   UNL     1      19.354  30.898  37.869  1.00  0.00     0.016 A 
ATOM     41  C   UNL     1      17.965  29.593  35.779  1.00  0.00     0.158 A 
ATOM     42  C   UNL     1      17.999  31.039  37.745  1.00  0.00     0.051 A 
ATOM     43  C   UNL     1      17.259  30.145  36.880  1.00  0.00     0.157 A 
BRANCH  41  44
ATOM     44  O   UNL     1      17.294  28.996  34.770  1.00  0.00    -0.504 OA
ATOM     45  H   UNL     1      17.775  28.395  34.113  1.00  0.00     0.293 HD
ENDBRANCH  41  44
BRANCH  43  46
ATOM     46  O   UNL     1      15.938  29.886  37.208  1.00  0.00    -0.504 OA
ATOM     47  H   UNL     1      15.202  30.052  36.538  1.00  0.00     0.293 HD
ENDBRANCH  43  46
ENDBRANCH  28  38
BRANCH  34  48
ATOM     48  O   UNL     1      25.426  31.662  39.188  1.00  0.00    -0.507 OA
ATOM     49  H   UNL     1      25.030  32.401  38.589  1.00  0.00     0.293 HD
ENDBRANCH  34  48
BRANCH  37  50
ATOM     50  O   UNL     1      24.818  27.394  41.370  1.00  0.00    -0.508 OA
ATOM     51  H   UNL     1      24.104  26.745  41.678  1.00  0.00     0.293 HD
ENDBRANCH  37  50
ENDBRANCH  26  27
ENDBRANCH   5  26
BRANCH   4  52
ATOM     52  O   UNL     1      22.659  33.341  33.025  1.00  0.00    -0.384 OA
ATOM     53  H   UNL     1      23.039  32.484  33.419  1.00  0.00     0.211 HD
ENDBRANCH   4  52
TORSDOF 16
ENDMDL
MODEL 7
REMARK VINA RESULT:    -6.956      2.269      3.198
REMARK INTER + INTRA:         -13.987
REMARK INTER:                 -11.694
REMARK INTRA:                  -2.292
REMARK UNBOUND:                -2.557
REMARK SMILES C[C@@H]1O[C@H](OC[C@@H]2O[C@@H](Oc3c(-c4ccc(O)c(O)c4)oc4cc(O)cc(O)c4c3=O)[C@@H](O)[C@@H](O)[C@@H]2O)[C@@H](O)[C@@H](O)[C@@H]1O
REMARK SMILES IDX 7 1 36 2 34 3 32 4 9 5 8 6 6 7 5 8 4 9 1 10 2 11 42 12 3 13
REMARK SMILES IDX 40 14 38 15 43 16 41 18 39 20 37 22 35 24 10 26 11 27 12 28
REMARK SMILES IDX 30 29 21 30 29 31 31 32 22 33 27 34 23 35 26 36 24 37 13 38
REMARK SMILES IDX 20 39 14 40 18 41 15 42 16 43 19 44 17 46 28 48 25 50 33 52
REMARK H PARENT 43 17 41 19 39 21 37 23 35 25 19 45 17 47 28 49 25 51 33 53
REMARK Flexibility Score: inf
ROOT
ATOM      1  C   UNL     1      19.755  34.533  35.062  1.00  0.00     0.180 C 
ATOM      2  C   UNL     1      19.858  33.986  33.662  1.00  0.00     0.177 C 
ATOM      3  C   UNL     1      21.303  34.436  33.125  1.00  0.00     0.180 C 
ATOM      4  C   UNL     1      22.520  34.361  34.218  1.00  0.00     0.214 C 
ATOM      5  C   UNL     1      21.939  33.365  35.315  1.00  0.00     0.339 C 
ATOM      6  O   UNL     1      20.679  33.744  35.854  1.00  0.00    -0.332 OA
ENDROOT
BRANCH   1   7
ATOM      7  C   UNL     1      20.073  35.999  35.336  1.00  0.00     0.198 C 
BRANCH   7   8
ATOM      8  O   UNL     1      20.829  36.394  36.483  1.00  0.00    -0.347 OA
BRANCH   8   9
ATOM      9  C   UNL     1      20.029  36.611  37.609  1.00  0.00     0.281 C 
ATOM     10  C   UNL     1      22.063  34.769  38.862  1.00  0.00     0.041 C 
ATOM     11  C   UNL     1      20.615  35.107  39.375  1.00  0.00     0.150 C 
ATOM     12  C   UNL     1      20.627  36.115  40.537  1.00  0.00     0.174 C 
ATOM     13  O   UNL     1      19.682  35.372  38.410  1.00  0.00    -0.344 OA
ATOM     14  C   UNL     1      21.106  37.563  39.875  1.00  0.00     0.179 C 
ATOM     15  C   UNL     1      20.276  37.915  38.543  1.00  0.00     0.202 C 
BRANCH  12  16
ATOM     16  O   UNL     1      21.364  35.435  41.600  1.00  0.00    -0.388 OA
ATOM     17  H   UNL     1      20.804  35.397  42.423  1.00  0.00     0.211 HD
ENDBRANCH  12  16
BRANCH  14  18
ATOM     18  O   UNL     1      20.913  38.583  40.879  1.00  0.00    -0.387 OA
ATOM     19  H   UNL     1      21.784  38.742  41.431  1.00  0.00     0.211 HD
ENDBRANCH  14  18
BRANCH  15  20
ATOM     20  O   UNL     1      18.971  38.437  38.911  1.00  0.00    -0.385 OA
ATOM     21  H   UNL     1      18.236  38.000  38.377  1.00  0.00     0.211 HD
ENDBRANCH  15  20
ENDBRANCH   8   9
ENDBRANCH   7   8
ENDBRANCH   1   7
BRANCH   2  22
ATOM     22  O   UNL     1      18.848  34.609  32.943  1.00  0.00    -0.387 OA
ATOM     23  H   UNL     1      19.324  35.266  32.387  1.00  0.00     0.211 HD
ENDBRANCH   2  22
BRANCH   3  24
ATOM     24  O   UNL     1      21.536  33.519  32.116  1.00  0.00    -0.387 OA
ATOM     25  H   UNL     1      22.561  33.610  31.876  1.00  0.00     0.211 HD
ENDBRANCH   3  24
BRANCH   5  26
ATOM     26  O   UNL     1      22.063  31.878  35.105  1.00  0.00    -0.454 OA
BRANCH  26  27
ATOM     27  C   UNL     1      22.378  30.982  36.218  1.00  0.00     0.214 A 
ATOM     28  C   UNL     1      21.372  30.078  36.859  1.00  0.00     0.180 A 
ATOM     29  C   UNL     1      23.638  30.923  36.737  1.00  0.00     0.239 A 
ATOM     30  O   UNL     1      21.796  29.129  37.672  1.00  0.00    -0.452 OA
ATOM     31  C   UNL     1      23.886  30.164  37.895  1.00  0.00     0.111 A 
ATOM     32  O   UNL     1      24.648  31.676  36.331  1.00  0.00    -0.285 OA
ATOM     33  C   UNL     1      23.037  29.130  38.211  1.00  0.00     0.146 A 
ATOM     34  C   UNL     1      24.687  30.647  38.937  1.00  0.00     0.134 A 
ATOM     35  C   UNL     1      23.440  28.158  39.192  1.00  0.00     0.094 A 
ATOM     36  C   UNL     1      25.065  29.734  39.953  1.00  0.00     0.093 A 
ATOM     37  C   UNL     1      24.459  28.473  40.092  1.00  0.00     0.123 A 
BRANCH  28  38
ATOM     38  C   UNL     1      19.885  30.095  36.776  1.00  0.00     0.025 A 
ATOM     39  C   UNL     1      19.193  29.586  35.610  1.00  0.00     0.062 A 
ATOM     40  C   UNL     1      19.080  30.683  37.768  1.00  0.00     0.016 A 
ATOM     41  C   UNL     1      17.815  29.514  35.523  1.00  0.00     0.158 A 
ATOM     42  C   UNL     1      17.717  30.717  37.645  1.00  0.00     0.051 A 
ATOM     43  C   UNL     1      17.061  29.867  36.673  1.00  0.00     0.157 A 
BRANCH  41  44
ATOM     44  O   UNL     1      17.202  28.982  34.443  1.00  0.00    -0.504 OA
ATOM     45  H   UNL     1      17.186  29.477  33.561  1.00  0.00     0.293 HD
ENDBRANCH  41  44
BRANCH  43  46
ATOM     46  O   UNL     1      15.768  29.456  36.953  1.00  0.00    -0.504 OA
ATOM     47  H   UNL     1      15.024  29.618  36.291  1.00  0.00     0.293 HD
ENDBRANCH  43  46
ENDBRANCH  28  38
BRANCH  34  48
ATOM     48  O   UNL     1      25.067  31.992  39.086  1.00  0.00    -0.507 OA
ATOM     49  H   UNL     1      24.845  32.490  39.962  1.00  0.00     0.293 HD
ENDBRANCH  34  48
BRANCH  37  50
ATOM     50  O   UNL     1      24.824  27.610  41.106  1.00  0.00    -0.508 OA
ATOM     51  H   UNL     1      25.358  27.978  41.884  1.00  0.00     0.293 HD
ENDBRANCH  37  50
ENDBRANCH  26  27
ENDBRANCH   5  26
BRANCH   4  52
ATOM     52  O   UNL     1      23.517  33.676  33.570  1.00  0.00    -0.384 OA
ATOM     53  H   UNL     1      24.270  34.344  33.430  1.00  0.00     0.211 HD
ENDBRANCH   4  52
TORSDOF 16
ENDMDL
MODEL 8
REMARK VINA RESULT:    -6.903      2.413      6.350
REMARK INTER + INTRA:         -13.900
REMARK INTER:                 -11.200
REMARK INTRA:                  -2.700
REMARK UNBOUND:                -2.557
REMARK SMILES C[C@@H]1O[C@H](OC[C@@H]2O[C@@H](Oc3c(-c4ccc(O)c(O)c4)oc4cc(O)cc(O)c4c3=O)[C@@H](O)[C@@H](O)[C@@H]2O)[C@@H](O)[C@@H](O)[C@@H]1O
REMARK SMILES IDX 7 1 36 2 34 3 32 4 9 5 8 6 6 7 5 8 4 9 1 10 2 11 42 12 3 13
REMARK SMILES IDX 40 14 38 15 43 16 41 18 39 20 37 22 35 24 10 26 11 27 12 28
REMARK SMILES IDX 30 29 21 30 29 31 31 32 22 33 27 34 23 35 26 36 24 37 13 38
REMARK SMILES IDX 20 39 14 40 18 41 15 42 16 43 19 44 17 46 28 48 25 50 33 52
REMARK H PARENT 43 17 41 19 39 21 37 23 35 25 19 45 17 47 28 49 25 51 33 53
REMARK Flexibility Score: inf
ROOT
ATOM      1  C   UNL     1      18.951  36.875  37.211  1.00  0.00     0.180 C 
ATOM      2  C   UNL     1      17.782  36.790  38.156  1.00  0.00     0.177 C 
ATOM      3  C   UNL     1      16.594  36.107  37.319  1.00  0.00     0.180 C 
ATOM      4  C   UNL     1      17.041  34.889  36.320  1.00  0.00     0.214 C 
ATOM      5  C   UNL     1      18.452  34.454  36.914  1.00  0.00     0.339 C 
ATOM      6  O   UNL     1      19.400  35.508  37.027  1.00  0.00    -0.332 OA
ENDROOT
BRANCH   1   7
ATOM      7  C   UNL     1      18.769  37.474  35.821  1.00  0.00     0.198 C 
BRANCH   7   8
ATOM      8  O   UNL     1      19.883  37.694  34.954  1.00  0.00    -0.347 OA
BRANCH   8   9
ATOM      9  C   UNL     1      19.692  37.154  33.679  1.00  0.00     0.281 C 
ATOM     10  C   UNL     1      22.687  36.831  33.849  1.00  0.00     0.041 C 
ATOM     11  C   UNL     1      21.784  36.843  32.561  1.00  0.00     0.150 C 
ATOM     12  C   UNL     1      21.538  35.429  32.007  1.00  0.00     0.174 C 
ATOM     13  O   UNL     1      20.665  37.628  32.618  1.00  0.00    -0.344 OA
ATOM     14  C   UNL     1      20.552  34.676  33.113  1.00  0.00     0.179 C 
ATOM     15  C   UNL     1      19.291  35.590  33.510  1.00  0.00     0.202 C 
BRANCH  12  16
ATOM     16  O   UNL     1      22.870  34.940  31.654  1.00  0.00    -0.388 OA
ATOM     17  H   UNL     1      22.963  34.914  30.662  1.00  0.00     0.211 HD
ENDBRANCH  12  16
BRANCH  14  18
ATOM     18  O   UNL     1      20.113  33.431  32.525  1.00  0.00    -0.387 OA
ATOM     19  H   UNL     1      19.083  33.433  32.359  1.00  0.00     0.211 HD
ENDBRANCH  14  18
BRANCH  15  20
ATOM     20  O   UNL     1      18.288  35.512  32.461  1.00  0.00    -0.385 OA
ATOM     21  H   UNL     1      17.915  34.579  32.376  1.00  0.00     0.211 HD
ENDBRANCH  15  20
ENDBRANCH   8   9
ENDBRANCH   7   8
ENDBRANCH   1   7
BRANCH   2  22
ATOM     22  O   UNL     1      17.466  38.102  38.479  1.00  0.00    -0.387 OA
ATOM     23  H   UNL     1      18.269  38.432  38.941  1.00  0.00     0.211 HD
ENDBRANCH   2  22
BRANCH   3  24
ATOM     24  O   UNL     1      15.784  35.605  38.320  1.00  0.00    -0.387 OA
ATOM     25  H   UNL     1      16.395  34.953  38.886  1.00  0.00     0.211 HD
ENDBRANCH   3  24
BRANCH   5  26
ATOM     26  O   UNL     1      18.503  33.494  38.076  1.00  0.00    -0.454 OA
BRANCH  26  27
ATOM     27  C   UNL     1      19.280  32.256  37.999  1.00  0.00     0.214 A 
ATOM     28  C   UNL     1      20.734  32.175  38.339  1.00  0.00     0.180 A 
ATOM     29  C   UNL     1      18.699  31.087  37.605  1.00  0.00     0.239 A 
ATOM     30  O   UNL     1      21.287  30.986  38.489  1.00  0.00    -0.452 OA
ATOM     31  C   UNL     1      19.493  29.943  37.401  1.00  0.00     0.111 A 
ATOM     32  O   UNL     1      17.437  30.971  37.225  1.00  0.00    -0.285 OA
ATOM     33  C   UNL     1      20.707  29.849  38.040  1.00  0.00     0.146 A 
ATOM     34  C   UNL     1      19.310  29.105  36.295  1.00  0.00     0.134 A 
ATOM     35  C   UNL     1      21.378  28.578  38.100  1.00  0.00     0.094 A 
ATOM     36  C   UNL     1      19.994  27.864  36.289  1.00  0.00     0.093 A 
ATOM     37  C   UNL     1      21.029  27.575  37.196  1.00  0.00     0.123 A 
BRANCH  28  38
ATOM     38  C   UNL     1      21.740  33.262  38.497  1.00  0.00     0.025 A 
ATOM     39  C   UNL     1      21.951  33.910  39.775  1.00  0.00     0.062 A 
ATOM     40  C   UNL     1      22.466  33.782  37.411  1.00  0.00     0.016 A 
ATOM     41  C   UNL     1      22.924  34.870  39.982  1.00  0.00     0.158 A 
ATOM     42  C   UNL     1      23.356  34.808  37.581  1.00  0.00     0.051 A 
ATOM     43  C   UNL     1      23.812  35.152  38.911  1.00  0.00     0.157 A 
BRANCH  41  44
ATOM     44  O   UNL     1      23.131  35.414  41.201  1.00  0.00    -0.504 OA
ATOM     45  H   UNL     1      22.380  35.472  41.876  1.00  0.00     0.293 HD
ENDBRANCH  41  44
BRANCH  43  46
ATOM     46  O   UNL     1      25.076  35.706  39.031  1.00  0.00    -0.504 OA
ATOM     47  H   UNL     1      25.830  35.396  38.437  1.00  0.00     0.293 HD
ENDBRANCH  43  46
ENDBRANCH  28  38
BRANCH  34  48
ATOM     48  O   UNL     1      18.564  29.450  35.154  1.00  0.00    -0.507 OA
ATOM     49  H   UNL     1      17.663  29.939  35.264  1.00  0.00     0.293 HD
ENDBRANCH  34  48
BRANCH  37  50
ATOM     50  O   UNL     1      21.702  26.369  37.155  1.00  0.00    -0.508 OA
ATOM     51  H   UNL     1      21.538  25.700  37.897  1.00  0.00     0.293 HD
ENDBRANCH  37  50
ENDBRANCH  26  27
ENDBRANCH   5  26
BRANCH   4  52
ATOM     52  O   UNL     1      16.172  33.869  36.617  1.00  0.00    -0.384 OA
ATOM     53  H   UNL     1      15.446  34.281  37.197  1.00  0.00     0.211 HD
ENDBRANCH   4  52
TORSDOF 16
ENDMDL
MODEL 9
REMARK VINA RESULT:    -6.900      2.991      7.038
REMARK INTER + INTRA:         -13.895
REMARK INTER:                 -11.385
REMARK INTRA:                  -2.509
REMARK UNBOUND:                -2.557
REMARK SMILES C[C@@H]1O[C@H](OC[C@@H]2O[C@@H](Oc3c(-c4ccc(O)c(O)c4)oc4cc(O)cc(O)c4c3=O)[C@@H](O)[C@@H](O)[C@@H]2O)[C@@H](O)[C@@H](O)[C@@H]1O
REMARK SMILES IDX 7 1 36 2 34 3 32 4 9 5 8 6 6 7 5 8 4 9 1 10 2 11 42 12 3 13
REMARK SMILES IDX 40 14 38 15 43 16 41 18 39 20 37 22 35 24 10 26 11 27 12 28
REMARK SMILES IDX 30 29 21 30 29 31 31 32 22 33 27 34 23 35 26 36 24 37 13 38
REMARK SMILES IDX 20 39 14 40 18 41 15 42 16 43 19 44 17 46 28 48 25 50 33 52
REMARK H PARENT 43 17 41 19 39 21 37 23 35 25 19 45 17 47 28 49 25 51 33 53
REMARK Flexibility Score: inf
ROOT
ATOM      1  C   UNL     1      23.436  30.586  38.829  1.00  0.00     0.180 C 
ATOM      2  C   UNL     1      24.890  30.197  38.883  1.00  0.00     0.177 C 
ATOM      3  C   UNL     1      25.182  29.411  37.513  1.00  0.00     0.180 C 
ATOM      4  C   UNL     1      24.457  30.022  36.178  1.00  0.00     0.214 C 
ATOM      5  C   UNL     1      24.116  31.512  36.621  1.00  0.00     0.339 C 
ATOM      6  O   UNL     1      23.349  31.617  37.813  1.00  0.00    -0.332 OA
ENDROOT
BRANCH   1   7
ATOM      7  C   UNL     1      22.377  29.541  38.493  1.00  0.00     0.198 C 
BRANCH   7   8
ATOM      8  O   UNL     1      20.992  29.776  38.755  1.00  0.00    -0.347 OA
BRANCH   8   9
ATOM      9  C   UNL     1      20.352  30.452  37.712  1.00  0.00     0.281 C 
ATOM     10  C   UNL     1      20.023  27.635  36.680  1.00  0.00     0.041 C 
ATOM     11  C   UNL     1      19.937  28.981  35.870  1.00  0.00     0.150 C 
ATOM     12  C   UNL     1      18.485  29.393  35.574  1.00  0.00     0.174 C 
ATOM     13  O   UNL     1      20.732  30.002  36.315  1.00  0.00    -0.344 OA
ATOM     14  C   UNL     1      17.830  29.828  37.038  1.00  0.00     0.179 C 
ATOM     15  C   UNL     1      18.782  30.846  37.840  1.00  0.00     0.202 C 
BRANCH  12  16
ATOM     16  O   UNL     1      17.959  28.304  34.751  1.00  0.00    -0.388 OA
ATOM     17  H   UNL     1      18.407  28.314  33.861  1.00  0.00     0.211 HD
ENDBRANCH  12  16
BRANCH  14  18
ATOM     18  O   UNL     1      16.545  30.435  36.775  1.00  0.00    -0.387 OA
ATOM     19  H   UNL     1      16.487  30.789  35.795  1.00  0.00     0.211 HD
ENDBRANCH  14  18
BRANCH  15  20
ATOM     20  O   UNL     1      18.628  32.184  37.295  1.00  0.00    -0.385 OA
ATOM     21  H   UNL     1      17.920  32.210  36.577  1.00  0.00     0.211 HD
ENDBRANCH  15  20
ENDBRANCH   8   9
ENDBRANCH   7   8
ENDBRANCH   1   7
BRANCH   2  22
ATOM     22  O   UNL     1      25.009  29.348  39.974  1.00  0.00    -0.387 OA
ATOM     23  H   UNL     1      25.753  28.752  39.730  1.00  0.00     0.211 HD
ENDBRANCH   2  22
BRANCH   3  24
ATOM     24  O   UNL     1      26.553  29.540  37.390  1.00  0.00    -0.387 OA
ATOM     25  H   UNL     1      26.772  30.541  37.650  1.00  0.00     0.211 HD
ENDBRANCH   3  24
BRANCH   5  26
ATOM     26  O   UNL     1      25.176  32.579  36.510  1.00  0.00    -0.454 OA
BRANCH  26  27
ATOM     27  C   UNL     1      24.860  33.986  36.757  1.00  0.00     0.214 A 
ATOM     28  C   UNL     1      23.658  34.673  36.189  1.00  0.00     0.180 A 
ATOM     29  C   UNL     1      25.665  34.759  37.540  1.00  0.00     0.239 A 
ATOM     30  O   UNL     1      23.314  35.854  36.667  1.00  0.00    -0.452 OA
ATOM     31  C   UNL     1      25.422  36.141  37.649  1.00  0.00     0.111 A 
ATOM     32  O   UNL     1      26.792  34.341  38.094  1.00  0.00    -0.285 OA
ATOM     33  C   UNL     1      24.157  36.619  37.398  1.00  0.00     0.146 A 
ATOM     34  C   UNL     1      26.459  37.079  37.599  1.00  0.00     0.134 A 
ATOM     35  C   UNL     1      23.813  37.955  37.804  1.00  0.00     0.094 A 
ATOM     36  C   UNL     1      26.151  38.419  37.942  1.00  0.00     0.093 A 
ATOM     37  C   UNL     1      24.827  38.877  38.062  1.00  0.00     0.123 A 
BRANCH  28  38
ATOM     38  C   UNL     1      22.756  34.255  35.078  1.00  0.00     0.025 A 
ATOM     39  C   UNL     1      21.548  33.500  35.336  1.00  0.00     0.062 A 
ATOM     40  C   UNL     1      23.068  34.485  33.727  1.00  0.00     0.016 A 
ATOM     41  C   UNL     1      20.647  33.158  34.344  1.00  0.00     0.158 A 
ATOM     42  C   UNL     1      22.239  34.056  32.726  1.00  0.00     0.051 A 
ATOM     43  C   UNL     1      20.881  33.660  33.038  1.00  0.00     0.157 A 
BRANCH  41  44
ATOM     44  O   UNL     1      19.502  32.500  34.627  1.00  0.00    -0.504 OA
ATOM     45  H   UNL     1      19.175  32.417  35.581  1.00  0.00     0.293 HD
ENDBRANCH  41  44
BRANCH  43  46
ATOM     46  O   UNL     1      19.925  33.822  32.048  1.00  0.00    -0.504 OA
ATOM     47  H   UNL     1      18.958  33.972  32.290  1.00  0.00     0.293 HD
ENDBRANCH  43  46
ENDBRANCH  28  38
BRANCH  34  48
ATOM     48  O   UNL     1      27.761  36.798  37.148  1.00  0.00    -0.507 OA
ATOM     49  H   UNL     1      28.456  36.416  37.806  1.00  0.00     0.293 HD
ENDBRANCH  34  48
BRANCH  37  50
ATOM     50  O   UNL     1      24.549  40.195  38.370  1.00  0.00    -0.508 OA
ATOM     51  H   UNL     1      25.320  40.850  38.427  1.00  0.00     0.293 HD
ENDBRANCH  37  50
ENDBRANCH  26  27
ENDBRANCH   5  26
BRANCH   4  52
ATOM     52  O   UNL     1      25.469  30.120  35.257  1.00  0.00    -0.384 OA
ATOM     53  H   UNL     1      25.450  31.080  34.921  1.00  0.00     0.211 HD
ENDBRANCH   4  52
TORSDOF 16
ENDMDL
