MODEL 1
REMARK VINA RESULT:    -4.196      0.000      0.000
REMARK INTER + INTRA:         -12.731
REMARK INTER:                  -9.592
REMARK INTRA:                  -3.140
REMARK UNBOUND:                -3.140
REMARK SMILES CCCCCCCCCCCCCCCCCCCCCCCC(=O)[O-]
REMARK SMILES IDX 13 1 14 2 15 3 16 4 17 5 18 6 19 7 20 8 21 9 22 10 23 11
REMARK SMILES IDX 24 12 25 13 26 14 12 15 11 16 10 17 9 18 8 19 7 20 6 21 5 22
REMARK SMILES IDX 4 23 3 24 2 25 1 26
REMARK H PARENT
REMARK Flexibility Score: inf
ROOT
ATOM      1  C   UNL     1     -10.990   7.999  29.034  1.00  0.00     0.000 C 
ENDROOT
BRANCH   1   2
ATOM      2  C   UNL     1     -10.966   6.739  28.150  1.00  0.00     0.000 C 
BRANCH   2   3
ATOM      3  C   UNL     1     -11.465   5.484  28.886  1.00  0.00     0.000 C 
BRANCH   3   4
ATOM      4  C   UNL     1     -11.528   5.688  30.416  1.00  0.00     0.000 C 
BRANCH   4   5
ATOM      5  C   UNL     1     -11.591   4.378  31.220  1.00  0.00     0.000 C 
BRANCH   5   6
ATOM      6  C   UNL     1     -10.781   3.241  30.576  1.00  0.00     0.000 C 
BRANCH   6   7
ATOM      7  C   UNL     1     -10.000   2.410  31.608  1.00  0.00     0.000 C 
BRANCH   7   8
ATOM      8  C   UNL     1      -8.500   2.761  31.617  1.00  0.00     0.000 C 
BRANCH   8   9
ATOM      9  C   UNL     1      -8.198   4.067  32.369  1.00  0.00     0.000 C 
BRANCH   9  10
ATOM     10  C   UNL     1      -7.186   4.958  31.629  1.00  0.00     0.006 C 
BRANCH  10  11
ATOM     11  C   UNL     1      -7.856   5.717  30.479  1.00  0.00     0.053 C 
BRANCH  11  12
ATOM     12  C   UNL     1      -7.320   5.256  29.160  1.00  0.00     0.041 C 
ATOM     13  O   UNL     1      -8.064   4.633  28.356  1.00  0.00    -0.550 OA
ATOM     14  O   UNL     1      -6.009   5.551  28.800  1.00  0.00    -0.550 OA
ENDBRANCH  11  12
ENDBRANCH  10  11
ENDBRANCH   9  10
ENDBRANCH   8   9
ENDBRANCH   7   8
ENDBRANCH   6   7
ENDBRANCH   5   6
ENDBRANCH   4   5
ENDBRANCH   3   4
ENDBRANCH   2   3
ENDBRANCH   1   2
BRANCH   1  15
ATOM     15  C   UNL     1     -12.102   9.007  28.687  1.00  0.00     0.000 C 
BRANCH  15  16
ATOM     16  C   UNL     1     -12.977   8.541  27.509  1.00  0.00     0.000 C 
BRANCH  16  17
ATOM     17  C   UNL     1     -14.468   8.467  27.877  1.00  0.00     0.000 C 
BRANCH  17  18
ATOM     18  C   UNL     1     -14.694   8.200  29.374  1.00  0.00    -0.000 C 
BRANCH  18  19
ATOM     19  C   UNL     1     -15.132   6.754  29.667  1.00  0.00    -0.000 C 
BRANCH  19  20
ATOM     20  C   UNL     1     -16.294   6.647  30.677  1.00  0.00    -0.000 C 
BRANCH  20  21
ATOM     21  C   UNL     1     -16.500   5.212  31.186  1.00  0.00    -0.000 C 
BRANCH  21  22
ATOM     22  C   UNL     1     -15.184   4.619  31.715  1.00  0.00    -0.000 C 
BRANCH  22  23
ATOM     23  C   UNL     1     -15.297   3.123  32.051  1.00  0.00    -0.000 C 
BRANCH  23  24
ATOM     24  C   UNL     1     -16.750   2.670  32.276  1.00  0.00    -0.000 C 
BRANCH  24  25
ATOM     25  C   UNL     1     -17.113   2.589  33.768  1.00  0.00    -0.003 C 
ATOM     26  C   UNL     1     -16.102   1.775  34.578  1.00  0.00     0.004 C 
ENDBRANCH  24  25
ENDBRANCH  23  24
ENDBRANCH  22  23
ENDBRANCH  21  22
ENDBRANCH  20  21
ENDBRANCH  19  20
ENDBRANCH  18  19
ENDBRANCH  17  18
ENDBRANCH  16  17
ENDBRANCH  15  16
ENDBRANCH   1  15
TORSDOF 22
ENDMDL
MODEL 2
REMARK VINA RESULT:    -4.100      1.595      2.629
REMARK INTER + INTRA:         -12.514
REMARK INTER:                  -9.093
REMARK INTRA:                  -3.420
REMARK UNBOUND:                -3.140
REMARK SMILES CCCCCCCCCCCCCCCCCCCCCCCC(=O)[O-]
REMARK SMILES IDX 13 1 14 2 15 3 16 4 17 5 18 6 19 7 20 8 21 9 22 10 23 11
REMARK SMILES IDX 24 12 25 13 26 14 12 15 11 16 10 17 9 18 8 19 7 20 6 21 5 22
REMARK SMILES IDX 4 23 3 24 2 25 1 26
REMARK H PARENT
REMARK Flexibility Score: inf
ROOT
ATOM      1  C   UNL     1     -12.455   8.865  28.444  1.00  0.00     0.000 C 
ENDROOT
BRANCH   1   2
ATOM      2  C   UNL     1     -11.229   7.965  28.208  1.00  0.00     0.000 C 
BRANCH   2   3
ATOM      3  C   UNL     1     -10.221   8.012  29.371  1.00  0.00     0.000 C 
BRANCH   3   4
ATOM      4  C   UNL     1      -9.904   6.606  29.927  1.00  0.00     0.000 C 
BRANCH   4   5
ATOM      5  C   UNL     1     -10.826   6.166  31.077  1.00  0.00     0.000 C 
BRANCH   5   6
ATOM      6  C   UNL     1     -11.352   4.732  30.907  1.00  0.00     0.000 C 
BRANCH   6   7
ATOM      7  C   UNL     1     -10.728   4.010  29.700  1.00  0.00     0.000 C 
BRANCH   7   8
ATOM      8  C   UNL     1      -9.823   2.841  30.130  1.00  0.00     0.000 C 
BRANCH   8   9
ATOM      9  C   UNL     1      -9.915   2.536  31.634  1.00  0.00     0.000 C 
BRANCH   9  10
ATOM     10  C   UNL     1      -8.567   2.693  32.355  1.00  0.00     0.006 C 
BRANCH  10  11
ATOM     11  C   UNL     1      -7.485   3.206  31.399  1.00  0.00     0.053 C 
BRANCH  11  12
ATOM     12  C   UNL     1      -7.039   4.578  31.797  1.00  0.00     0.041 C 
ATOM     13  O   UNL     1      -6.810   4.845  33.007  1.00  0.00    -0.550 OA
ATOM     14  O   UNL     1      -6.834   5.552  30.825  1.00  0.00    -0.550 OA
ENDBRANCH  11  12
ENDBRANCH  10  11
ENDBRANCH   9  10
ENDBRANCH   8   9
ENDBRANCH   7   8
ENDBRANCH   6   7
ENDBRANCH   5   6
ENDBRANCH   4   5
ENDBRANCH   3   4
ENDBRANCH   2   3
ENDBRANCH   1   2
BRANCH   1  15
ATOM     15  C   UNL     1     -13.806   8.125  28.439  1.00  0.00     0.000 C 
BRANCH  15  16
ATOM     16  C   UNL     1     -13.644   6.595  28.442  1.00  0.00     0.000 C 
BRANCH  16  17
ATOM     17  C   UNL     1     -14.591   5.904  29.436  1.00  0.00     0.000 C 
BRANCH  17  18
ATOM     18  C   UNL     1     -15.152   4.579  28.894  1.00  0.00    -0.000 C 
BRANCH  18  19
ATOM     19  C   UNL     1     -15.664   3.644  30.003  1.00  0.00    -0.000 C 
BRANCH  19  20
ATOM     20  C   UNL     1     -14.680   2.514  30.371  1.00  0.00    -0.000 C 
BRANCH  20  21
ATOM     21  C   UNL     1     -14.199   2.604  31.827  1.00  0.00    -0.000 C 
BRANCH  21  22
ATOM     22  C   UNL     1     -14.970   3.686  32.598  1.00  0.00    -0.000 C 
BRANCH  22  23
ATOM     23  C   UNL     1     -15.545   3.175  33.929  1.00  0.00    -0.000 C 
BRANCH  23  24
ATOM     24  C   UNL     1     -16.997   2.681  33.801  1.00  0.00    -0.000 C 
BRANCH  24  25
ATOM     25  C   UNL     1     -17.124   1.168  34.042  1.00  0.00    -0.003 C 
ATOM     26  C   UNL     1     -16.964   0.351  32.761  1.00  0.00     0.004 C 
ENDBRANCH  24  25
ENDBRANCH  23  24
ENDBRANCH  22  23
ENDBRANCH  21  22
ENDBRANCH  20  21
ENDBRANCH  19  20
ENDBRANCH  18  19
ENDBRANCH  17  18
ENDBRANCH  16  17
ENDBRANCH  15  16
ENDBRANCH   1  15
TORSDOF 22
ENDMDL
MODEL 3
REMARK VINA RESULT:    -4.025      2.222      4.359
REMARK INTER + INTRA:         -12.341
REMARK INTER:                  -8.315
REMARK INTRA:                  -4.026
REMARK UNBOUND:                -3.140
REMARK SMILES CCCCCCCCCCCCCCCCCCCCCCCC(=O)[O-]
REMARK SMILES IDX 13 1 14 2 15 3 16 4 17 5 18 6 19 7 20 8 21 9 22 10 23 11
REMARK SMILES IDX 24 12 25 13 26 14 12 15 11 16 10 17 9 18 8 19 7 20 6 21 5 22
REMARK SMILES IDX 4 23 3 24 2 25 1 26
REMARK H PARENT
REMARK Flexibility Score: inf
ROOT
ATOM      1  C   UNL     1     -13.938   6.611  29.421  1.00  0.00     0.000 C 
ENDROOT
BRANCH   1   2
ATOM      2  C   UNL     1     -13.552   6.681  27.932  1.00  0.00     0.000 C 
BRANCH   2   3
ATOM      3  C   UNL     1     -13.001   8.058  27.522  1.00  0.00     0.000 C 
BRANCH   3   4
ATOM      4  C   UNL     1     -12.426   8.840  28.724  1.00  0.00     0.000 C 
BRANCH   4   5
ATOM      5  C   UNL     1     -10.888   8.861  28.779  1.00  0.00     0.000 C 
BRANCH   5   6
ATOM      6  C   UNL     1     -10.301   7.683  29.574  1.00  0.00     0.000 C 
BRANCH   6   7
ATOM      7  C   UNL     1      -9.769   6.560  28.666  1.00  0.00     0.000 C 
BRANCH   7   8
ATOM      8  C   UNL     1     -10.128   5.163  29.203  1.00  0.00     0.000 C 
BRANCH   8   9
ATOM      9  C   UNL     1     -10.682   5.199  30.637  1.00  0.00     0.000 C 
BRANCH   9  10
ATOM     10  C   UNL     1      -9.688   4.646  31.671  1.00  0.00     0.006 C 
BRANCH  10  11
ATOM     11  C   UNL     1      -9.711   3.114  31.697  1.00  0.00     0.053 C 
BRANCH  11  12
ATOM     12  C   UNL     1      -8.320   2.566  31.639  1.00  0.00     0.041 C 
ATOM     13  O   UNL     1      -7.377   3.275  31.197  1.00  0.00    -0.550 OA
ATOM     14  O   UNL     1      -8.056   1.285  32.113  1.00  0.00    -0.550 OA
ENDBRANCH  11  12
ENDBRANCH  10  11
ENDBRANCH   9  10
ENDBRANCH   8   9
ENDBRANCH   7   8
ENDBRANCH   6   7
ENDBRANCH   5   6
ENDBRANCH   4   5
ENDBRANCH   3   4
ENDBRANCH   2   3
ENDBRANCH   1   2
BRANCH   1  15
ATOM     15  C   UNL     1     -15.255   7.324  29.778  1.00  0.00     0.000 C 
BRANCH  15  16
ATOM     16  C   UNL     1     -16.246   6.405  30.515  1.00  0.00     0.000 C 
BRANCH  16  17
ATOM     17  C   UNL     1     -16.389   5.032  29.841  1.00  0.00     0.000 C 
BRANCH  17  18
ATOM     18  C   UNL     1     -16.781   3.924  30.833  1.00  0.00    -0.000 C 
BRANCH  18  19
ATOM     19  C   UNL     1     -16.095   4.073  32.202  1.00  0.00    -0.000 C 
BRANCH  19  20
ATOM     20  C   UNL     1     -15.004   3.016  32.473  1.00  0.00    -0.000 C 
BRANCH  20  21
ATOM     21  C   UNL     1     -13.690   3.327  31.739  1.00  0.00    -0.000 C 
BRANCH  21  22
ATOM     22  C   UNL     1     -13.055   2.046  31.176  1.00  0.00    -0.000 C 
BRANCH  22  23
ATOM     23  C   UNL     1     -13.422   1.796  29.704  1.00  0.00    -0.000 C 
BRANCH  23  24
ATOM     24  C   UNL     1     -13.267   3.052  28.829  1.00  0.00    -0.000 C 
BRANCH  24  25
ATOM     25  C   UNL     1     -14.247   3.066  27.645  1.00  0.00    -0.003 C 
ATOM     26  C   UNL     1     -14.510   1.669  27.081  1.00  0.00     0.004 C 
ENDBRANCH  24  25
ENDBRANCH  23  24
ENDBRANCH  22  23
ENDBRANCH  21  22
ENDBRANCH  20  21
ENDBRANCH  19  20
ENDBRANCH  18  19
ENDBRANCH  17  18
ENDBRANCH  16  17
ENDBRANCH  15  16
ENDBRANCH   1  15
TORSDOF 22
ENDMDL
MODEL 4
REMARK VINA RESULT:    -4.000      3.936      9.483
REMARK INTER + INTRA:         -12.284
REMARK INTER:                 -10.325
REMARK INTRA:                  -1.959
REMARK UNBOUND:                -3.140
REMARK SMILES CCCCCCCCCCCCCCCCCCCCCCCC(=O)[O-]
REMARK SMILES IDX 13 1 14 2 15 3 16 4 17 5 18 6 19 7 20 8 21 9 22 10 23 11
REMARK SMILES IDX 24 12 25 13 26 14 12 15 11 16 10 17 9 18 8 19 7 20 6 21 5 22
REMARK SMILES IDX 4 23 3 24 2 25 1 26
REMARK H PARENT
REMARK Flexibility Score: inf
ROOT
ATOM      1  C   UNL     1     -12.268   3.189  30.074  1.00  0.00     0.000 C 
ENDROOT
BRANCH   1   2
ATOM      2  C   UNL     1     -11.753   4.506  29.464  1.00  0.00     0.000 C 
BRANCH   2   3
ATOM      3  C   UNL     1     -12.438   5.748  30.059  1.00  0.00     0.000 C 
BRANCH   3   4
ATOM      4  C   UNL     1     -13.086   6.635  28.974  1.00  0.00     0.000 C 
BRANCH   4   5
ATOM      5  C   UNL     1     -14.480   7.166  29.350  1.00  0.00     0.000 C 
BRANCH   5   6
ATOM      6  C   UNL     1     -15.480   6.044  29.675  1.00  0.00     0.000 C 
BRANCH   6   7
ATOM      7  C   UNL     1     -16.331   6.350  30.920  1.00  0.00     0.000 C 
BRANCH   7   8
ATOM      8  C   UNL     1     -16.637   5.082  31.738  1.00  0.00     0.000 C 
BRANCH   8   9
ATOM      9  C   UNL     1     -15.480   4.069  31.723  1.00  0.00     0.000 C 
BRANCH   9  10
ATOM     10  C   UNL     1     -15.175   3.497  33.117  1.00  0.00     0.006 C 
BRANCH  10  11
ATOM     11  C   UNL     1     -16.463   3.108  33.850  1.00  0.00     0.053 C 
BRANCH  11  12
ATOM     12  C   UNL     1     -16.449   1.654  34.204  1.00  0.00     0.041 C 
ATOM     13  O   UNL     1     -16.242   1.293  35.394  1.00  0.00    -0.550 OA
ATOM     14  O   UNL     1     -16.709   0.697  33.229  1.00  0.00    -0.550 OA
ENDBRANCH  11  12
ENDBRANCH  10  11
ENDBRANCH   9  10
ENDBRANCH   8   9
ENDBRANCH   7   8
ENDBRANCH   6   7
ENDBRANCH   5   6
ENDBRANCH   4   5
ENDBRANCH   3   4
ENDBRANCH   2   3
ENDBRANCH   1   2
BRANCH   1  15
ATOM     15  C   UNL     1     -11.467   2.686  31.289  1.00  0.00     0.000 C 
BRANCH  15  16
ATOM     16  C   UNL     1     -10.004   2.361  30.941  1.00  0.00     0.000 C 
BRANCH  16  17
ATOM     17  C   UNL     1      -9.025   2.802  32.041  1.00  0.00     0.000 C 
BRANCH  17  18
ATOM     18  C   UNL     1      -8.498   4.231  31.824  1.00  0.00    -0.000 C 
BRANCH  18  19
ATOM     19  C   UNL     1      -7.115   4.464  32.457  1.00  0.00    -0.000 C 
BRANCH  19  20
ATOM     20  C   UNL     1      -6.145   5.262  31.562  1.00  0.00    -0.000 C 
BRANCH  20  21
ATOM     21  C   UNL     1      -4.852   5.651  32.296  1.00  0.00    -0.000 C 
BRANCH  21  22
ATOM     22  C   UNL     1      -5.152   6.142  33.721  1.00  0.00    -0.000 C 
BRANCH  22  23
ATOM     23  C   UNL     1      -4.102   7.137  34.242  1.00  0.00    -0.000 C 
BRANCH  23  24
ATOM     24  C   UNL     1      -2.684   6.832  33.727  1.00  0.00    -0.000 C 
BRANCH  24  25
ATOM     25  C   UNL     1      -1.840   6.066  34.758  1.00  0.00    -0.003 C 
ATOM     26  C   UNL     1      -1.672   4.589  34.405  1.00  0.00     0.004 C 
ENDBRANCH  24  25
ENDBRANCH  23  24
ENDBRANCH  22  23
ENDBRANCH  21  22
ENDBRANCH  20  21
ENDBRANCH  19  20
ENDBRANCH  18  19
ENDBRANCH  17  18
ENDBRANCH  16  17
ENDBRANCH  15  16
ENDBRANCH   1  15
TORSDOF 22
ENDMDL
MODEL 5
REMARK VINA RESULT:    -3.992      2.187      5.110
REMARK INTER + INTRA:         -12.265
REMARK INTER:                  -9.026
REMARK INTRA:                  -3.239
REMARK UNBOUND:                -3.140
REMARK SMILES CCCCCCCCCCCCCCCCCCCCCCCC(=O)[O-]
REMARK SMILES IDX 13 1 14 2 15 3 16 4 17 5 18 6 19 7 20 8 21 9 22 10 23 11
REMARK SMILES IDX 24 12 25 13 26 14 12 15 11 16 10 17 9 18 8 19 7 20 6 21 5 22
REMARK SMILES IDX 4 23 3 24 2 25 1 26
REMARK H PARENT
REMARK Flexibility Score: inf
ROOT
ATOM      1  C   UNL     1     -15.409   3.441  30.617  1.00  0.00     0.000 C 
ENDROOT
BRANCH   1   2
ATOM      2  C   UNL     1     -14.364   3.851  31.671  1.00  0.00     0.000 C 
BRANCH   2   3
ATOM      3  C   UNL     1     -13.023   4.279  31.047  1.00  0.00     0.000 C 
BRANCH   3   4
ATOM      4  C   UNL     1     -12.385   3.153  30.203  1.00  0.00     0.000 C 
BRANCH   4   5
ATOM      5  C   UNL     1     -11.550   2.154  31.022  1.00  0.00     0.000 C 
BRANCH   5   6
ATOM      6  C   UNL     1     -10.235   2.759  31.542  1.00  0.00     0.000 C 
BRANCH   6   7
ATOM      7  C   UNL     1      -8.992   2.098  30.921  1.00  0.00     0.000 C 
BRANCH   7   8
ATOM      8  C   UNL     1      -7.685   2.620  31.548  1.00  0.00     0.000 C 
BRANCH   8   9
ATOM      9  C   UNL     1      -7.050   3.762  30.738  1.00  0.00     0.000 C 
BRANCH   9  10
ATOM     10  C   UNL     1      -7.028   5.094  31.507  1.00  0.00     0.006 C 
BRANCH  10  11
ATOM     11  C   UNL     1      -5.642   5.745  31.444  1.00  0.00     0.053 C 
BRANCH  11  12
ATOM     12  C   UNL     1      -4.934   5.602  32.755  1.00  0.00     0.041 C 
ATOM     13  O   UNL     1      -3.733   5.222  32.788  1.00  0.00    -0.550 OA
ATOM     14  O   UNL     1      -5.586   5.931  33.938  1.00  0.00    -0.550 OA
ENDBRANCH  11  12
ENDBRANCH  10  11
ENDBRANCH   9  10
ENDBRANCH   8   9
ENDBRANCH   7   8
ENDBRANCH   6   7
ENDBRANCH   5   6
ENDBRANCH   4   5
ENDBRANCH   3   4
ENDBRANCH   2   3
ENDBRANCH   1   2
BRANCH   1  15
ATOM     15  C   UNL     1     -16.323   4.584  30.139  1.00  0.00     0.000 C 
BRANCH  15  16
ATOM     16  C   UNL     1     -16.302   5.796  31.088  1.00  0.00     0.000 C 
BRANCH  16  17
ATOM     17  C   UNL     1     -15.993   7.112  30.355  1.00  0.00     0.000 C 
BRANCH  17  18
ATOM     18  C   UNL     1     -14.757   7.006  29.447  1.00  0.00    -0.000 C 
BRANCH  18  19
ATOM     19  C   UNL     1     -14.467   8.303  28.672  1.00  0.00    -0.000 C 
BRANCH  19  20
ATOM     20  C   UNL     1     -12.981   8.488  28.299  1.00  0.00    -0.000 C 
BRANCH  20  21
ATOM     21  C   UNL     1     -12.067   7.468  28.997  1.00  0.00    -0.000 C 
BRANCH  21  22
ATOM     22  C   UNL     1     -10.764   8.129  29.474  1.00  0.00    -0.000 C 
BRANCH  22  23
ATOM     23  C   UNL     1      -9.625   7.118  29.680  1.00  0.00    -0.000 C 
BRANCH  23  24
ATOM     24  C   UNL     1     -10.019   5.685  29.282  1.00  0.00    -0.000 C 
BRANCH  24  25
ATOM     25  C   UNL     1      -9.252   5.189  28.045  1.00  0.00    -0.003 C 
ATOM     26  C   UNL     1      -9.516   3.715  27.738  1.00  0.00     0.004 C 
ENDBRANCH  24  25
ENDBRANCH  23  24
ENDBRANCH  22  23
ENDBRANCH  21  22
ENDBRANCH  20  21
ENDBRANCH  19  20
ENDBRANCH  18  19
ENDBRANCH  17  18
ENDBRANCH  16  17
ENDBRANCH  15  16
ENDBRANCH   1  15
TORSDOF 22
ENDMDL
MODEL 6
REMARK VINA RESULT:    -3.953      2.848      3.958
REMARK INTER + INTRA:         -12.177
REMARK INTER:                  -9.842
REMARK INTRA:                  -2.334
REMARK UNBOUND:                -3.140
REMARK SMILES CCCCCCCCCCCCCCCCCCCCCCCC(=O)[O-]
REMARK SMILES IDX 13 1 14 2 15 3 16 4 17 5 18 6 19 7 20 8 21 9 22 10 23 11
REMARK SMILES IDX 24 12 25 13 26 14 12 15 11 16 10 17 9 18 8 19 7 20 6 21 5 22
REMARK SMILES IDX 4 23 3 24 2 25 1 26
REMARK H PARENT
REMARK Flexibility Score: inf
ROOT
ATOM      1  C   UNL     1     -11.969   7.797  28.303  1.00  0.00     0.000 C 
ENDROOT
BRANCH   1   2
ATOM      2  C   UNL     1     -10.834   7.716  29.341  1.00  0.00     0.000 C 
BRANCH   2   3
ATOM      3  C   UNL     1     -10.238   6.303  29.465  1.00  0.00     0.000 C 
BRANCH   3   4
ATOM      4  C   UNL     1     -10.312   5.761  30.910  1.00  0.00     0.000 C 
BRANCH   4   5
ATOM      5  C   UNL     1      -9.803   4.318  31.064  1.00  0.00     0.000 C 
BRANCH   5   6
ATOM      6  C   UNL     1      -8.785   4.161  32.205  1.00  0.00     0.000 C 
BRANCH   6   7
ATOM      7  C   UNL     1      -7.356   3.904  31.695  1.00  0.00     0.000 C 
BRANCH   7   8
ATOM      8  C   UNL     1      -6.468   5.157  31.806  1.00  0.00     0.000 C 
BRANCH   8   9
ATOM      9  C   UNL     1      -5.833   5.317  33.197  1.00  0.00     0.000 C 
BRANCH   9  10
ATOM     10  C   UNL     1      -4.332   5.643  33.130  1.00  0.00     0.006 C 
BRANCH  10  11
ATOM     11  C   UNL     1      -4.008   6.917  33.916  1.00  0.00     0.053 C 
BRANCH  11  12
ATOM     12  C   UNL     1      -2.701   6.776  34.633  1.00  0.00     0.041 C 
ATOM     13  O   UNL     1      -2.132   5.653  34.698  1.00  0.00    -0.550 OA
ATOM     14  O   UNL     1      -2.089   7.892  35.192  1.00  0.00    -0.550 OA
ENDBRANCH  11  12
ENDBRANCH  10  11
ENDBRANCH   9  10
ENDBRANCH   8   9
ENDBRANCH   7   8
ENDBRANCH   6   7
ENDBRANCH   5   6
ENDBRANCH   4   5
ENDBRANCH   3   4
ENDBRANCH   2   3
ENDBRANCH   1   2
BRANCH   1  15
ATOM     15  C   UNL     1     -13.088   8.795  28.651  1.00  0.00     0.000 C 
BRANCH  15  16
ATOM     16  C   UNL     1     -14.439   8.104  28.913  1.00  0.00     0.000 C 
BRANCH  16  17
ATOM     17  C   UNL     1     -14.273   6.673  29.450  1.00  0.00     0.000 C 
BRANCH  17  18
ATOM     18  C   UNL     1     -15.617   5.942  29.607  1.00  0.00    -0.000 C 
BRANCH  18  19
ATOM     19  C   UNL     1     -16.366   6.330  30.893  1.00  0.00    -0.000 C 
BRANCH  19  20
ATOM     20  C   UNL     1     -16.726   5.129  31.792  1.00  0.00    -0.000 C 
BRANCH  20  21
ATOM     21  C   UNL     1     -15.491   4.315  32.209  1.00  0.00    -0.000 C 
BRANCH  21  22
ATOM     22  C   UNL     1     -15.688   2.820  31.914  1.00  0.00    -0.000 C 
BRANCH  22  23
ATOM     23  C   UNL     1     -14.361   2.075  31.700  1.00  0.00    -0.000 C 
BRANCH  23  24
ATOM     24  C   UNL     1     -13.275   2.961  31.067  1.00  0.00    -0.000 C 
BRANCH  24  25
ATOM     25  C   UNL     1     -12.851   2.463  29.675  1.00  0.00    -0.003 C 
ATOM     26  C   UNL     1     -12.723   3.596  28.656  1.00  0.00     0.004 C 
ENDBRANCH  24  25
ENDBRANCH  23  24
ENDBRANCH  22  23
ENDBRANCH  21  22
ENDBRANCH  20  21
ENDBRANCH  19  20
ENDBRANCH  18  19
ENDBRANCH  17  18
ENDBRANCH  16  17
ENDBRANCH  15  16
ENDBRANCH   1  15
TORSDOF 22
ENDMDL
MODEL 7
REMARK VINA RESULT:    -3.929      1.816      4.606
REMARK INTER + INTRA:         -12.122
REMARK INTER:                  -9.529
REMARK INTRA:                  -2.593
REMARK UNBOUND:                -3.140
REMARK SMILES CCCCCCCCCCCCCCCCCCCCCCCC(=O)[O-]
REMARK SMILES IDX 13 1 14 2 15 3 16 4 17 5 18 6 19 7 20 8 21 9 22 10 23 11
REMARK SMILES IDX 24 12 25 13 26 14 12 15 11 16 10 17 9 18 8 19 7 20 6 21 5 22
REMARK SMILES IDX 4 23 3 24 2 25 1 26
REMARK H PARENT
REMARK Flexibility Score: inf
ROOT
ATOM      1  C   UNL     1     -15.518   7.095  30.095  1.00  0.00     0.000 C 
ENDROOT
BRANCH   1   2
ATOM      2  C   UNL     1     -14.332   7.109  29.113  1.00  0.00     0.000 C 
BRANCH   2   3
ATOM      3  C   UNL     1     -14.075   8.499  28.506  1.00  0.00     0.000 C 
BRANCH   3   4
ATOM      4  C   UNL     1     -12.585   8.721  28.164  1.00  0.00     0.000 C 
BRANCH   4   5
ATOM      5  C   UNL     1     -11.616   8.284  29.276  1.00  0.00     0.000 C 
BRANCH   5   6
ATOM      6  C   UNL     1     -10.844   7.000  28.927  1.00  0.00     0.000 C 
BRANCH   6   7
ATOM      7  C   UNL     1     -10.289   6.285  30.171  1.00  0.00     0.000 C 
BRANCH   7   8
ATOM      8  C   UNL     1     -11.357   5.422  30.867  1.00  0.00     0.000 C 
BRANCH   8   9
ATOM      9  C   UNL     1     -10.768   4.174  31.544  1.00  0.00     0.000 C 
BRANCH   9  10
ATOM     10  C   UNL     1      -9.561   3.600  30.783  1.00  0.00     0.006 C 
BRANCH  10  11
ATOM     11  C   UNL     1      -8.486   3.096  31.750  1.00  0.00     0.053 C 
BRANCH  11  12
ATOM     12  C   UNL     1      -7.214   3.864  31.570  1.00  0.00     0.041 C 
ATOM     13  O   UNL     1      -6.402   3.541  30.662  1.00  0.00    -0.550 OA
ATOM     14  O   UNL     1      -6.944   4.964  32.378  1.00  0.00    -0.550 OA
ENDBRANCH  11  12
ENDBRANCH  10  11
ENDBRANCH   9  10
ENDBRANCH   8   9
ENDBRANCH   7   8
ENDBRANCH   6   7
ENDBRANCH   5   6
ENDBRANCH   4   5
ENDBRANCH   3   4
ENDBRANCH   2   3
ENDBRANCH   1   2
BRANCH   1  15
ATOM     15  C   UNL     1     -16.256   5.747  30.194  1.00  0.00     0.000 C 
BRANCH  15  16
ATOM     16  C   UNL     1     -16.715   5.427  31.628  1.00  0.00     0.000 C 
BRANCH  16  17
ATOM     17  C   UNL     1     -15.941   4.251  32.245  1.00  0.00     0.000 C 
BRANCH  17  18
ATOM     18  C   UNL     1     -16.800   3.425  33.217  1.00  0.00    -0.000 C 
BRANCH  18  19
ATOM     19  C   UNL     1     -15.964   2.678  34.271  1.00  0.00    -0.000 C 
BRANCH  19  20
ATOM     20  C   UNL     1     -16.141   1.145  34.236  1.00  0.00    -0.000 C 
BRANCH  20  21
ATOM     21  C   UNL     1     -16.488   0.625  32.832  1.00  0.00    -0.000 C 
BRANCH  21  22
ATOM     22  C   UNL     1     -15.611  -0.579  32.456  1.00  0.00    -0.000 C 
BRANCH  22  23
ATOM     23  C   UNL     1     -14.783  -0.339  31.183  1.00  0.00    -0.000 C 
BRANCH  23  24
ATOM     24  C   UNL     1     -15.014   1.057  30.576  1.00  0.00    -0.000 C 
BRANCH  24  25
ATOM     25  C   UNL     1     -13.729   1.900  30.543  1.00  0.00    -0.003 C 
ATOM     26  C   UNL     1     -13.792   3.033  29.519  1.00  0.00     0.004 C 
ENDBRANCH  24  25
ENDBRANCH  23  24
ENDBRANCH  22  23
ENDBRANCH  21  22
ENDBRANCH  20  21
ENDBRANCH  19  20
ENDBRANCH  18  19
ENDBRANCH  17  18
ENDBRANCH  16  17
ENDBRANCH  15  16
ENDBRANCH   1  15
TORSDOF 22
ENDMDL
MODEL 8
REMARK VINA RESULT:    -3.906     16.950     20.628
REMARK INTER + INTRA:         -12.070
REMARK INTER:                  -8.211
REMARK INTRA:                  -3.859
REMARK UNBOUND:                -3.140
REMARK SMILES CCCCCCCCCCCCCCCCCCCCCCCC(=O)[O-]
REMARK SMILES IDX 13 1 14 2 15 3 16 4 17 5 18 6 19 7 20 8 21 9 22 10 23 11
REMARK SMILES IDX 24 12 25 13 26 14 12 15 11 16 10 17 9 18 8 19 7 20 6 21 5 22
REMARK SMILES IDX 4 23 3 24 2 25 1 26
REMARK H PARENT
REMARK Flexibility Score: inf
ROOT
ATOM      1  C   UNL     1       1.035  -7.430  21.696  1.00  0.00     0.000 C 
ENDROOT
BRANCH   1   2
ATOM      2  C   UNL     1       2.524  -7.821  21.705  1.00  0.00     0.000 C 
BRANCH   2   3
ATOM      3  C   UNL     1       2.769  -9.251  21.192  1.00  0.00     0.000 C 
BRANCH   3   4
ATOM      4  C   UNL     1       3.086  -9.284  19.680  1.00  0.00     0.000 C 
BRANCH   4   5
ATOM      5  C   UNL     1       2.348 -10.394  18.911  1.00  0.00     0.000 C 
BRANCH   5   6
ATOM      6  C   UNL     1       1.157  -9.866  18.094  1.00  0.00     0.000 C 
BRANCH   6   7
ATOM      7  C   UNL     1       1.124  -8.330  18.018  1.00  0.00     0.000 C 
BRANCH   7   8
ATOM      8  C   UNL     1       0.379  -7.829  16.767  1.00  0.00     0.000 C 
BRANCH   8   9
ATOM      9  C   UNL     1      -1.108  -7.545  17.031  1.00  0.00     0.000 C 
BRANCH   9  10
ATOM     10  C   UNL     1      -1.340  -6.755  18.330  1.00  0.00     0.006 C 
BRANCH  10  11
ATOM     11  C   UNL     1      -2.034  -7.621  19.386  1.00  0.00     0.053 C 
BRANCH  11  12
ATOM     12  C   UNL     1      -3.316  -6.986  19.828  1.00  0.00     0.041 C 
ATOM     13  O   UNL     1      -3.508  -6.726  21.046  1.00  0.00    -0.550 OA
ATOM     14  O   UNL     1      -4.282  -6.642  18.889  1.00  0.00    -0.550 OA
ENDBRANCH  11  12
ENDBRANCH  10  11
ENDBRANCH   9  10
ENDBRANCH   8   9
ENDBRANCH   7   8
ENDBRANCH   6   7
ENDBRANCH   5   6
ENDBRANCH   4   5
ENDBRANCH   3   4
ENDBRANCH   2   3
ENDBRANCH   1   2
BRANCH   1  15
ATOM     15  C   UNL     1       0.756  -5.972  21.287  1.00  0.00     0.000 C 
BRANCH  15  16
ATOM     16  C   UNL     1       1.640  -5.504  20.117  1.00  0.00     0.000 C 
BRANCH  16  17
ATOM     17  C   UNL     1       2.486  -4.273  20.475  1.00  0.00     0.000 C 
BRANCH  17  18
ATOM     18  C   UNL     1       2.120  -3.682  21.847  1.00  0.00    -0.000 C 
BRANCH  18  19
ATOM     19  C   UNL     1       2.609  -2.235  22.028  1.00  0.00    -0.000 C 
BRANCH  19  20
ATOM     20  C   UNL     1       1.521  -1.171  21.771  1.00  0.00    -0.000 C 
BRANCH  20  21
ATOM     21  C   UNL     1       1.781  -0.362  20.490  1.00  0.00    -0.000 C 
BRANCH  21  22
ATOM     22  C   UNL     1       1.290  -1.121  19.248  1.00  0.00    -0.000 C 
BRANCH  22  23
ATOM     23  C   UNL     1      -0.236  -1.310  19.229  1.00  0.00    -0.000 C 
BRANCH  23  24
ATOM     24  C   UNL     1      -0.653  -2.791  19.222  1.00  0.00    -0.000 C 
BRANCH  24  25
ATOM     25  C   UNL     1      -1.594  -3.139  20.386  1.00  0.00    -0.003 C 
ATOM     26  C   UNL     1      -3.038  -3.360  19.934  1.00  0.00     0.004 C 
ENDBRANCH  24  25
ENDBRANCH  23  24
ENDBRANCH  22  23
ENDBRANCH  21  22
ENDBRANCH  20  21
ENDBRANCH  19  20
ENDBRANCH  18  19
ENDBRANCH  17  18
ENDBRANCH  16  17
ENDBRANCH  15  16
ENDBRANCH   1  15
TORSDOF 22
ENDMDL
MODEL 9
REMARK VINA RESULT:    -3.859     16.738     20.163
REMARK INTER + INTRA:         -11.963
REMARK INTER:                  -7.445
REMARK INTRA:                  -4.517
REMARK UNBOUND:                -3.140
REMARK SMILES CCCCCCCCCCCCCCCCCCCCCCCC(=O)[O-]
REMARK SMILES IDX 13 1 14 2 15 3 16 4 17 5 18 6 19 7 20 8 21 9 22 10 23 11
REMARK SMILES IDX 24 12 25 13 26 14 12 15 11 16 10 17 9 18 8 19 7 20 6 21 5 22
REMARK SMILES IDX 4 23 3 24 2 25 1 26
REMARK H PARENT
REMARK Flexibility Score: inf
ROOT
ATOM      1  C   UNL     1       1.205  -6.961  22.199  1.00  0.00     0.000 C 
ENDROOT
BRANCH   1   2
ATOM      2  C   UNL     1       1.376  -8.470  21.949  1.00  0.00     0.000 C 
BRANCH   2   3
ATOM      3  C   UNL     1       2.758  -8.827  21.374  1.00  0.00     0.000 C 
BRANCH   3   4
ATOM      4  C   UNL     1       2.670  -9.357  19.926  1.00  0.00     0.000 C 
BRANCH   4   5
ATOM      5  C   UNL     1       1.264  -9.258  19.308  1.00  0.00     0.000 C 
BRANCH   5   6
ATOM      6  C   UNL     1       1.195  -8.271  18.132  1.00  0.00     0.000 C 
BRANCH   6   7
ATOM      7  C   UNL     1      -0.182  -7.598  18.002  1.00  0.00     0.000 C 
BRANCH   7   8
ATOM      8  C   UNL     1      -1.195  -8.151  19.022  1.00  0.00     0.000 C 
BRANCH   8   9
ATOM      9  C   UNL     1      -2.316  -7.152  19.350  1.00  0.00     0.000 C 
BRANCH   9  10
ATOM     10  C   UNL     1      -2.580  -6.158  18.207  1.00  0.00     0.006 C 
BRANCH  10  11
ATOM     11  C   UNL     1      -4.010  -6.295  17.675  1.00  0.00     0.053 C 
BRANCH  11  12
ATOM     12  C   UNL     1      -4.693  -4.963  17.651  1.00  0.00     0.041 C 
ATOM     13  O   UNL     1      -4.445  -4.107  18.543  1.00  0.00    -0.550 OA
ATOM     14  O   UNL     1      -5.571  -4.649  16.619  1.00  0.00    -0.550 OA
ENDBRANCH  11  12
ENDBRANCH  10  11
ENDBRANCH   9  10
ENDBRANCH   8   9
ENDBRANCH   7   8
ENDBRANCH   6   7
ENDBRANCH   5   6
ENDBRANCH   4   5
ENDBRANCH   3   4
ENDBRANCH   2   3
ENDBRANCH   1   2
BRANCH   1  15
ATOM     15  C   UNL     1       2.369  -6.089  21.694  1.00  0.00     0.000 C 
BRANCH  15  16
ATOM     16  C   UNL     1       1.981  -5.226  20.480  1.00  0.00     0.000 C 
BRANCH  16  17
ATOM     17  C   UNL     1       0.468  -4.969  20.401  1.00  0.00     0.000 C 
BRANCH  17  18
ATOM     18  C   UNL     1       0.091  -4.007  19.261  1.00  0.00    -0.000 C 
BRANCH  18  19
ATOM     19  C   UNL     1      -1.036  -3.033  19.644  1.00  0.00    -0.000 C 
BRANCH  19  20
ATOM     20  C   UNL     1      -0.679  -1.547  19.424  1.00  0.00    -0.000 C 
BRANCH  20  21
ATOM     21  C   UNL     1       0.772  -1.355  18.953  1.00  0.00    -0.000 C 
BRANCH  21  22
ATOM     22  C   UNL     1       1.602  -0.611  20.010  1.00  0.00    -0.000 C 
BRANCH  22  23
ATOM     23  C   UNL     1       2.225  -1.554  21.052  1.00  0.00    -0.000 C 
BRANCH  23  24
ATOM     24  C   UNL     1       1.696  -1.303  22.475  1.00  0.00    -0.000 C 
BRANCH  24  25
ATOM     25  C   UNL     1       1.320  -2.606  23.198  1.00  0.00    -0.003 C 
ATOM     26  C   UNL     1      -0.192  -2.824  23.274  1.00  0.00     0.004 C 
ENDBRANCH  24  25
ENDBRANCH  23  24
ENDBRANCH  22  23
ENDBRANCH  21  22
ENDBRANCH  20  21
ENDBRANCH  19  20
ENDBRANCH  18  19
ENDBRANCH  17  18
ENDBRANCH  16  17
ENDBRANCH  15  16
ENDBRANCH   1  15
TORSDOF 22
ENDMDL
