MODEL 1
REMARK VINA RESULT:    -6.361      0.000      0.000
REMARK INTER + INTRA:         -20.262
REMARK INTER:                 -16.774
REMARK INTRA:                  -3.488
REMARK UNBOUND:                -3.488
REMARK SMILES CCCCCCCCCCCCCCCCCCCCCCCCCCCCCC(=O)[O-]
REMARK SMILES IDX 16 1 17 2 18 3 19 4 20 5 21 6 22 7 23 8 24 9 25 10 26 11
REMARK SMILES IDX 27 12 28 13 29 14 30 15 31 16 32 17 15 18 14 19 13 20 12 21
REMARK SMILES IDX 11 22 10 23 9 24 8 25 7 26 6 27 5 28 4 29 3 30 2 31 1 32
REMARK H PARENT
REMARK Flexibility Score: inf
ROOT
ATOM      1  C   UNL     1      55.239  30.518  42.947  1.00  0.00     0.000 C 
ENDROOT
BRANCH   1   2
ATOM      2  C   UNL     1      53.951  29.807  43.401  1.00  0.00     0.000 C 
BRANCH   2   3
ATOM      3  C   UNL     1      52.834  29.874  42.347  1.00  0.00     0.000 C 
BRANCH   3   4
ATOM      4  C   UNL     1      51.520  29.292  42.887  1.00  0.00     0.000 C 
BRANCH   4   5
ATOM      5  C   UNL     1      50.408  30.348  43.012  1.00  0.00     0.000 C 
BRANCH   5   6
ATOM      6  C   UNL     1      50.670  31.591  42.147  1.00  0.00     0.000 C 
BRANCH   6   7
ATOM      7  C   UNL     1      50.805  32.851  43.012  1.00  0.00     0.000 C 
BRANCH   7   8
ATOM      8  C   UNL     1      52.042  33.665  42.602  1.00  0.00     0.000 C 
BRANCH   8   9
ATOM      9  C   UNL     1      52.215  34.941  43.441  1.00  0.00     0.000 C 
BRANCH   9  10
ATOM     10  C   UNL     1      53.119  34.722  44.666  1.00  0.00     0.000 C 
BRANCH  10  11
ATOM     11  C   UNL     1      53.272  36.001  45.517  1.00  0.00     0.000 C 
BRANCH  11  12
ATOM     12  C   UNL     1      52.179  37.052  45.257  1.00  0.00     0.000 C 
BRANCH  12  13
ATOM     13  C   UNL     1      52.746  38.422  44.862  1.00  0.00     0.006 C 
BRANCH  13  14
ATOM     14  C   UNL     1      53.145  38.446  43.383  1.00  0.00     0.053 C 
BRANCH  14  15
ATOM     15  C   UNL     1      52.952  39.814  42.812  1.00  0.00     0.041 C 
ATOM     16  O   UNL     1      53.352  40.078  41.648  1.00  0.00    -0.550 OA
ATOM     17  O   UNL     1      52.377  40.815  43.584  1.00  0.00    -0.550 OA
ENDBRANCH  14  15
ENDBRANCH  13  14
ENDBRANCH  12  13
ENDBRANCH  11  12
ENDBRANCH  10  11
ENDBRANCH   9  10
ENDBRANCH   8   9
ENDBRANCH   7   8
ENDBRANCH   6   7
ENDBRANCH   5   6
ENDBRANCH   4   5
ENDBRANCH   3   4
ENDBRANCH   2   3
ENDBRANCH   1   2
BRANCH   1  18
ATOM     18  C   UNL     1      55.248  32.042  43.171  1.00  0.00     0.000 C 
BRANCH  18  19
ATOM     19  C   UNL     1      56.071  32.844  42.143  1.00  0.00     0.000 C 
BRANCH  19  20
ATOM     20  C   UNL     1      55.590  34.289  41.907  1.00  0.00     0.000 C 
BRANCH  20  21
ATOM     21  C   UNL     1      56.221  35.293  42.885  1.00  0.00     0.000 C 
BRANCH  21  22
ATOM     22  C   UNL     1      56.024  36.740  42.414  1.00  0.00     0.000 C 
BRANCH  22  23
ATOM     23  C   UNL     1      55.812  36.790  40.893  1.00  0.00     0.000 C 
BRANCH  23  24
ATOM     24  C   UNL     1      55.933  38.208  40.315  1.00  0.00    -0.000 C 
BRANCH  24  25
ATOM     25  C   UNL     1      57.165  38.377  39.407  1.00  0.00    -0.000 C 
BRANCH  25  26
ATOM     26  C   UNL     1      56.998  37.699  38.028  1.00  0.00    -0.000 C 
BRANCH  26  27
ATOM     27  C   UNL     1      58.085  38.077  37.004  1.00  0.00    -0.000 C 
BRANCH  27  28
ATOM     28  C   UNL     1      59.075  36.947  36.673  1.00  0.00    -0.000 C 
BRANCH  28  29
ATOM     29  C   UNL     1      60.545  37.308  36.981  1.00  0.00    -0.000 C 
BRANCH  29  30
ATOM     30  C   UNL     1      60.695  38.053  38.316  1.00  0.00    -0.000 C 
BRANCH  30  31
ATOM     31  C   UNL     1      61.538  39.331  38.193  1.00  0.00    -0.003 C 
ATOM     32  C   UNL     1      61.065  40.247  37.065  1.00  0.00     0.004 C 
ENDBRANCH  30  31
ENDBRANCH  29  30
ENDBRANCH  28  29
ENDBRANCH  27  28
ENDBRANCH  26  27
ENDBRANCH  25  26
ENDBRANCH  24  25
ENDBRANCH  23  24
ENDBRANCH  22  23
ENDBRANCH  21  22
ENDBRANCH  20  21
ENDBRANCH  19  20
ENDBRANCH  18  19
ENDBRANCH   1  18
TORSDOF 28
ENDMDL
MODEL 2
REMARK VINA RESULT:    -6.291      1.525      2.583
REMARK INTER + INTRA:         -20.077
REMARK INTER:                 -16.536
REMARK INTRA:                  -3.541
REMARK UNBOUND:                -3.488
REMARK SMILES CCCCCCCCCCCCCCCCCCCCCCCCCCCCCC(=O)[O-]
REMARK SMILES IDX 16 1 17 2 18 3 19 4 20 5 21 6 22 7 23 8 24 9 25 10 26 11
REMARK SMILES IDX 27 12 28 13 29 14 30 15 31 16 32 17 15 18 14 19 13 20 12 21
REMARK SMILES IDX 11 22 10 23 9 24 8 25 7 26 6 27 5 28 4 29 3 30 2 31 1 32
REMARK H PARENT
REMARK Flexibility Score: inf
ROOT
ATOM      1  C   UNL     1      55.213  32.392  43.243  1.00  0.00     0.000 C 
ENDROOT
BRANCH   1   2
ATOM      2  C   UNL     1      55.510  30.904  42.981  1.00  0.00     0.000 C 
BRANCH   2   3
ATOM      3  C   UNL     1      54.377  29.982  43.458  1.00  0.00     0.000 C 
BRANCH   3   4
ATOM      4  C   UNL     1      53.270  29.863  42.400  1.00  0.00     0.000 C 
BRANCH   4   5
ATOM      5  C   UNL     1      52.019  29.141  42.926  1.00  0.00     0.000 C 
BRANCH   5   6
ATOM      6  C   UNL     1      50.772  30.040  42.930  1.00  0.00     0.000 C 
BRANCH   6   7
ATOM      7  C   UNL     1      50.991  31.295  42.076  1.00  0.00     0.000 C 
BRANCH   7   8
ATOM      8  C   UNL     1      50.666  32.565  42.879  1.00  0.00     0.000 C 
BRANCH   8   9
ATOM      9  C   UNL     1      51.765  33.633  42.767  1.00  0.00     0.000 C 
BRANCH   9  10
ATOM     10  C   UNL     1      52.052  34.325  44.111  1.00  0.00     0.000 C 
BRANCH  10  11
ATOM     11  C   UNL     1      50.779  34.932  44.740  1.00  0.00     0.000 C 
BRANCH  11  12
ATOM     12  C   UNL     1      51.033  35.660  46.072  1.00  0.00     0.000 C 
BRANCH  12  13
ATOM     13  C   UNL     1      52.494  36.094  46.250  1.00  0.00     0.006 C 
BRANCH  13  14
ATOM     14  C   UNL     1      52.648  37.028  47.454  1.00  0.00     0.053 C 
BRANCH  14  15
ATOM     15  C   UNL     1      53.087  38.386  47.009  1.00  0.00     0.041 C 
ATOM     16  O   UNL     1      53.709  39.143  47.801  1.00  0.00    -0.550 OA
ATOM     17  O   UNL     1      52.763  38.840  45.737  1.00  0.00    -0.550 OA
ENDBRANCH  14  15
ENDBRANCH  13  14
ENDBRANCH  12  13
ENDBRANCH  11  12
ENDBRANCH  10  11
ENDBRANCH   9  10
ENDBRANCH   8   9
ENDBRANCH   7   8
ENDBRANCH   6   7
ENDBRANCH   5   6
ENDBRANCH   4   5
ENDBRANCH   3   4
ENDBRANCH   2   3
ENDBRANCH   1   2
BRANCH   1  18
ATOM     18  C   UNL     1      55.772  33.359  42.180  1.00  0.00     0.000 C 
BRANCH  18  19
ATOM     19  C   UNL     1      55.238  34.803  42.272  1.00  0.00     0.000 C 
BRANCH  19  20
ATOM     20  C   UNL     1      56.084  35.757  43.135  1.00  0.00     0.000 C 
BRANCH  20  21
ATOM     21  C   UNL     1      55.254  36.894  43.752  1.00  0.00     0.000 C 
BRANCH  21  22
ATOM     22  C   UNL     1      53.925  37.088  43.013  1.00  0.00     0.000 C 
BRANCH  22  23
ATOM     23  C   UNL     1      53.943  38.389  42.197  1.00  0.00     0.000 C 
BRANCH  23  24
ATOM     24  C   UNL     1      54.145  38.153  40.692  1.00  0.00    -0.000 C 
BRANCH  24  25
ATOM     25  C   UNL     1      55.630  38.131  40.288  1.00  0.00    -0.000 C 
BRANCH  25  26
ATOM     26  C   UNL     1      55.935  37.122  39.157  1.00  0.00    -0.000 C 
BRANCH  26  27
ATOM     27  C   UNL     1      56.997  37.605  38.150  1.00  0.00    -0.000 C 
BRANCH  27  28
ATOM     28  C   UNL     1      58.089  38.505  38.752  1.00  0.00    -0.000 C 
BRANCH  28  29
ATOM     29  C   UNL     1      59.058  39.085  37.696  1.00  0.00    -0.000 C 
BRANCH  29  30
ATOM     30  C   UNL     1      60.363  38.281  37.598  1.00  0.00    -0.000 C 
BRANCH  30  31
ATOM     31  C   UNL     1      60.836  38.090  36.149  1.00  0.00    -0.003 C 
ATOM     32  C   UNL     1      60.678  36.651  35.657  1.00  0.00     0.004 C 
ENDBRANCH  30  31
ENDBRANCH  29  30
ENDBRANCH  28  29
ENDBRANCH  27  28
ENDBRANCH  26  27
ENDBRANCH  25  26
ENDBRANCH  24  25
ENDBRANCH  23  24
ENDBRANCH  22  23
ENDBRANCH  21  22
ENDBRANCH  20  21
ENDBRANCH  19  20
ENDBRANCH  18  19
ENDBRANCH   1  18
TORSDOF 28
ENDMDL
MODEL 3
REMARK VINA RESULT:    -6.288      1.949      3.438
REMARK INTER + INTRA:         -20.069
REMARK INTER:                 -16.819
REMARK INTRA:                  -3.250
REMARK UNBOUND:                -3.488
REMARK SMILES CCCCCCCCCCCCCCCCCCCCCCCCCCCCCC(=O)[O-]
REMARK SMILES IDX 16 1 17 2 18 3 19 4 20 5 21 6 22 7 23 8 24 9 25 10 26 11
REMARK SMILES IDX 27 12 28 13 29 14 30 15 31 16 32 17 15 18 14 19 13 20 12 21
REMARK SMILES IDX 11 22 10 23 9 24 8 25 7 26 6 27 5 28 4 29 3 30 2 31 1 32
REMARK H PARENT
REMARK Flexibility Score: inf
ROOT
ATOM      1  C   UNL     1      55.579  33.773  42.251  1.00  0.00     0.000 C 
ENDROOT
BRANCH   1   2
ATOM      2  C   UNL     1      55.147  32.716  43.283  1.00  0.00     0.000 C 
BRANCH   2   3
ATOM      3  C   UNL     1      55.576  31.294  42.890  1.00  0.00     0.000 C 
BRANCH   3   4
ATOM      4  C   UNL     1      54.623  30.240  43.472  1.00  0.00     0.000 C 
BRANCH   4   5
ATOM      5  C   UNL     1      53.471  29.887  42.516  1.00  0.00     0.000 C 
BRANCH   5   6
ATOM      6  C   UNL     1      52.348  29.096  43.206  1.00  0.00     0.000 C 
BRANCH   6   7
ATOM      7  C   UNL     1      50.974  29.712  42.913  1.00  0.00     0.000 C 
BRANCH   7   8
ATOM      8  C   UNL     1      51.113  30.962  42.030  1.00  0.00     0.000 C 
BRANCH   8   9
ATOM      9  C   UNL     1      50.580  32.231  42.714  1.00  0.00     0.000 C 
BRANCH   9  10
ATOM     10  C   UNL     1      51.520  33.435  42.534  1.00  0.00     0.000 C 
BRANCH  10  11
ATOM     11  C   UNL     1      51.795  34.166  43.866  1.00  0.00     0.000 C 
BRANCH  11  12
ATOM     12  C   UNL     1      50.529  34.443  44.695  1.00  0.00     0.000 C 
BRANCH  12  13
ATOM     13  C   UNL     1      50.492  35.861  45.281  1.00  0.00     0.006 C 
BRANCH  13  14
ATOM     14  C   UNL     1      51.048  35.881  46.708  1.00  0.00     0.053 C 
BRANCH  14  15
ATOM     15  C   UNL     1      52.338  36.636  46.756  1.00  0.00     0.041 C 
ATOM     16  O   UNL     1      53.231  36.312  47.582  1.00  0.00    -0.550 OA
ATOM     17  O   UNL     1      52.533  37.732  45.926  1.00  0.00    -0.550 OA
ENDBRANCH  14  15
ENDBRANCH  13  14
ENDBRANCH  12  13
ENDBRANCH  11  12
ENDBRANCH  10  11
ENDBRANCH   9  10
ENDBRANCH   8   9
ENDBRANCH   7   8
ENDBRANCH   6   7
ENDBRANCH   5   6
ENDBRANCH   4   5
ENDBRANCH   3   4
ENDBRANCH   2   3
ENDBRANCH   1   2
BRANCH   1  18
ATOM     18  C   UNL     1      55.998  35.129  42.852  1.00  0.00     0.000 C 
BRANCH  18  19
ATOM     19  C   UNL     1      54.906  35.837  43.678  1.00  0.00     0.000 C 
BRANCH  19  20
ATOM     20  C   UNL     1      54.646  37.306  43.293  1.00  0.00     0.000 C 
BRANCH  20  21
ATOM     21  C   UNL     1      53.832  37.446  41.997  1.00  0.00     0.000 C 
BRANCH  21  22
ATOM     22  C   UNL     1      54.499  38.415  41.013  1.00  0.00     0.000 C 
BRANCH  22  23
ATOM     23  C   UNL     1      55.497  37.671  40.113  1.00  0.00     0.000 C 
BRANCH  23  24
ATOM     24  C   UNL     1      56.799  38.453  39.882  1.00  0.00    -0.000 C 
BRANCH  24  25
ATOM     25  C   UNL     1      57.470  38.107  38.541  1.00  0.00    -0.000 C 
BRANCH  25  26
ATOM     26  C   UNL     1      58.973  38.471  38.504  1.00  0.00    -0.000 C 
BRANCH  26  27
ATOM     27  C   UNL     1      59.732  37.892  37.295  1.00  0.00    -0.000 C 
BRANCH  27  28
ATOM     28  C   UNL     1      58.895  36.968  36.394  1.00  0.00    -0.000 C 
BRANCH  28  29
ATOM     29  C   UNL     1      58.895  37.394  34.908  1.00  0.00    -0.000 C 
BRANCH  29  30
ATOM     30  C   UNL     1      57.553  38.005  34.477  1.00  0.00    -0.000 C 
BRANCH  30  31
ATOM     31  C   UNL     1      57.484  39.520  34.720  1.00  0.00    -0.003 C 
ATOM     32  C   UNL     1      58.809  40.227  34.441  1.00  0.00     0.004 C 
ENDBRANCH  30  31
ENDBRANCH  29  30
ENDBRANCH  28  29
ENDBRANCH  27  28
ENDBRANCH  26  27
ENDBRANCH  25  26
ENDBRANCH  24  25
ENDBRANCH  23  24
ENDBRANCH  22  23
ENDBRANCH  21  22
ENDBRANCH  20  21
ENDBRANCH  19  20
ENDBRANCH  18  19
ENDBRANCH   1  18
TORSDOF 28
ENDMDL
MODEL 4
REMARK VINA RESULT:    -6.161      1.815      2.371
REMARK INTER + INTRA:         -19.733
REMARK INTER:                 -16.645
REMARK INTRA:                  -3.088
REMARK UNBOUND:                -3.488
REMARK SMILES CCCCCCCCCCCCCCCCCCCCCCCCCCCCCC(=O)[O-]
REMARK SMILES IDX 16 1 17 2 18 3 19 4 20 5 21 6 22 7 23 8 24 9 25 10 26 11
REMARK SMILES IDX 27 12 28 13 29 14 30 15 31 16 32 17 15 18 14 19 13 20 12 21
REMARK SMILES IDX 11 22 10 23 9 24 8 25 7 26 6 27 5 28 4 29 3 30 2 31 1 32
REMARK H PARENT
REMARK Flexibility Score: inf
ROOT
ATOM      1  C   UNL     1      54.973  32.371  43.418  1.00  0.00     0.000 C 
ENDROOT
BRANCH   1   2
ATOM      2  C   UNL     1      55.129  30.857  43.652  1.00  0.00     0.000 C 
BRANCH   2   3
ATOM      3  C   UNL     1      54.439  30.017  42.566  1.00  0.00     0.000 C 
BRANCH   3   4
ATOM      4  C   UNL     1      53.062  29.523  43.033  1.00  0.00     0.000 C 
BRANCH   4   5
ATOM      5  C   UNL     1      51.924  29.955  42.091  1.00  0.00     0.000 C 
BRANCH   5   6
ATOM      6  C   UNL     1      50.793  30.692  42.826  1.00  0.00     0.000 C 
BRANCH   6   7
ATOM      7  C   UNL     1      50.492  32.044  42.166  1.00  0.00     0.000 C 
BRANCH   7   8
ATOM      8  C   UNL     1      51.565  33.081  42.531  1.00  0.00     0.000 C 
BRANCH   8   9
ATOM      9  C   UNL     1      51.165  33.946  43.737  1.00  0.00     0.000 C 
BRANCH   9  10
ATOM     10  C   UNL     1      52.294  34.891  44.183  1.00  0.00     0.000 C 
BRANCH  10  11
ATOM     11  C   UNL     1      52.357  36.173  43.326  1.00  0.00     0.000 C 
BRANCH  11  12
ATOM     12  C   UNL     1      52.348  37.472  44.152  1.00  0.00     0.000 C 
BRANCH  12  13
ATOM     13  C   UNL     1      53.708  37.789  44.786  1.00  0.00     0.006 C 
BRANCH  13  14
ATOM     14  C   UNL     1      53.597  38.954  45.775  1.00  0.00     0.053 C 
BRANCH  14  15
ATOM     15  C   UNL     1      53.355  38.443  47.159  1.00  0.00     0.041 C 
ATOM     16  O   UNL     1      53.185  39.248  48.112  1.00  0.00    -0.550 OA
ATOM     17  O   UNL     1      53.369  37.077  47.409  1.00  0.00    -0.550 OA
ENDBRANCH  14  15
ENDBRANCH  13  14
ENDBRANCH  12  13
ENDBRANCH  11  12
ENDBRANCH  10  11
ENDBRANCH   9  10
ENDBRANCH   8   9
ENDBRANCH   7   8
ENDBRANCH   6   7
ENDBRANCH   5   6
ENDBRANCH   4   5
ENDBRANCH   3   4
ENDBRANCH   2   3
ENDBRANCH   1   2
BRANCH   1  18
ATOM     18  C   UNL     1      55.898  32.955  42.333  1.00  0.00     0.000 C 
BRANCH  18  19
ATOM     19  C   UNL     1      55.585  34.410  41.929  1.00  0.00     0.000 C 
BRANCH  19  20
ATOM     20  C   UNL     1      55.944  35.473  42.985  1.00  0.00     0.000 C 
BRANCH  20  21
ATOM     21  C   UNL     1      56.363  36.813  42.361  1.00  0.00     0.000 C 
BRANCH  21  22
ATOM     22  C   UNL     1      55.824  36.964  40.933  1.00  0.00     0.000 C 
BRANCH  22  23
ATOM     23  C   UNL     1      56.622  38.026  40.162  1.00  0.00     0.000 C 
BRANCH  23  24
ATOM     24  C   UNL     1      56.842  37.660  38.686  1.00  0.00    -0.000 C 
BRANCH  24  25
ATOM     25  C   UNL     1      57.928  38.521  38.015  1.00  0.00    -0.000 C 
BRANCH  25  26
ATOM     26  C   UNL     1      58.211  38.106  36.553  1.00  0.00    -0.000 C 
BRANCH  26  27
ATOM     27  C   UNL     1      59.152  36.893  36.413  1.00  0.00    -0.000 C 
BRANCH  27  28
ATOM     28  C   UNL     1      59.918  36.826  35.082  1.00  0.00    -0.000 C 
BRANCH  28  29
ATOM     29  C   UNL     1      61.434  37.089  35.232  1.00  0.00    -0.000 C 
BRANCH  29  30
ATOM     30  C   UNL     1      61.790  38.571  35.041  1.00  0.00    -0.000 C 
BRANCH  30  31
ATOM     31  C   UNL     1      61.974  39.315  36.373  1.00  0.00    -0.003 C 
ATOM     32  C   UNL     1      60.911  40.387  36.606  1.00  0.00     0.004 C 
ENDBRANCH  30  31
ENDBRANCH  29  30
ENDBRANCH  28  29
ENDBRANCH  27  28
ENDBRANCH  26  27
ENDBRANCH  25  26
ENDBRANCH  24  25
ENDBRANCH  23  24
ENDBRANCH  22  23
ENDBRANCH  21  22
ENDBRANCH  20  21
ENDBRANCH  19  20
ENDBRANCH  18  19
ENDBRANCH   1  18
TORSDOF 28
ENDMDL
MODEL 5
REMARK VINA RESULT:    -6.154      4.652      8.798
REMARK INTER + INTRA:         -19.716
REMARK INTER:                 -16.078
REMARK INTRA:                  -3.637
REMARK UNBOUND:                -3.488
REMARK SMILES CCCCCCCCCCCCCCCCCCCCCCCCCCCCCC(=O)[O-]
REMARK SMILES IDX 16 1 17 2 18 3 19 4 20 5 21 6 22 7 23 8 24 9 25 10 26 11
REMARK SMILES IDX 27 12 28 13 29 14 30 15 31 16 32 17 15 18 14 19 13 20 12 21
REMARK SMILES IDX 11 22 10 23 9 24 8 25 7 26 6 27 5 28 4 29 3 30 2 31 1 32
REMARK H PARENT
REMARK Flexibility Score: inf
ROOT
ATOM      1  C   UNL     1      53.275  39.165  43.218  1.00  0.00     0.000 C 
ENDROOT
BRANCH   1   2
ATOM      2  C   UNL     1      52.905  39.170  44.713  1.00  0.00     0.000 C 
BRANCH   2   3
ATOM      3  C   UNL     1      53.997  38.544  45.595  1.00  0.00     0.000 C 
BRANCH   3   4
ATOM      4  C   UNL     1      53.950  37.010  45.539  1.00  0.00     0.000 C 
BRANCH   4   5
ATOM      5  C   UNL     1      52.932  36.410  46.523  1.00  0.00     0.000 C 
BRANCH   5   6
ATOM      6  C   UNL     1      51.620  35.993  45.839  1.00  0.00     0.000 C 
BRANCH   6   7
ATOM      7  C   UNL     1      50.588  35.510  46.867  1.00  0.00     0.000 C 
BRANCH   7   8
ATOM      8  C   UNL     1      50.825  36.175  48.232  1.00  0.00     0.000 C 
BRANCH   8   9
ATOM      9  C   UNL     1      49.548  36.245  49.085  1.00  0.00     0.000 C 
BRANCH   9  10
ATOM     10  C   UNL     1      49.316  34.963  49.903  1.00  0.00     0.000 C 
BRANCH  10  11
ATOM     11  C   UNL     1      48.519  35.231  51.198  1.00  0.00     0.000 C 
BRANCH  11  12
ATOM     12  C   UNL     1      47.505  34.125  51.541  1.00  0.00     0.000 C 
BRANCH  12  13
ATOM     13  C   UNL     1      46.049  34.555  51.317  1.00  0.00     0.006 C 
BRANCH  13  14
ATOM     14  C   UNL     1      45.955  36.059  51.043  1.00  0.00     0.053 C 
BRANCH  14  15
ATOM     15  C   UNL     1      44.886  36.341  50.037  1.00  0.00     0.041 C 
ATOM     16  O   UNL     1      44.199  37.393  50.119  1.00  0.00    -0.550 OA
ATOM     17  O   UNL     1      44.610  35.418  49.038  1.00  0.00    -0.550 OA
ENDBRANCH  14  15
ENDBRANCH  13  14
ENDBRANCH  12  13
ENDBRANCH  11  12
ENDBRANCH  10  11
ENDBRANCH   9  10
ENDBRANCH   8   9
ENDBRANCH   7   8
ENDBRANCH   6   7
ENDBRANCH   5   6
ENDBRANCH   4   5
ENDBRANCH   3   4
ENDBRANCH   2   3
ENDBRANCH   1   2
BRANCH   1  18
ATOM     18  C   UNL     1      52.614  38.044  42.393  1.00  0.00     0.000 C 
BRANCH  18  19
ATOM     19  C   UNL     1      53.211  37.836  40.986  1.00  0.00     0.000 C 
BRANCH  19  20
ATOM     20  C   UNL     1      54.706  38.185  40.854  1.00  0.00     0.000 C 
BRANCH  20  21
ATOM     21  C   UNL     1      55.624  36.980  41.114  1.00  0.00     0.000 C 
BRANCH  21  22
ATOM     22  C   UNL     1      56.096  36.934  42.573  1.00  0.00     0.000 C 
BRANCH  22  23
ATOM     23  C   UNL     1      56.364  35.486  43.011  1.00  0.00     0.000 C 
BRANCH  23  24
ATOM     24  C   UNL     1      55.620  34.451  42.153  1.00  0.00    -0.000 C 
BRANCH  24  25
ATOM     25  C   UNL     1      55.019  33.307  42.990  1.00  0.00    -0.000 C 
BRANCH  25  26
ATOM     26  C   UNL     1      53.788  33.745  43.818  1.00  0.00    -0.000 C 
BRANCH  26  27
ATOM     27  C   UNL     1      52.685  34.433  42.990  1.00  0.00    -0.000 C 
BRANCH  27  28
ATOM     28  C   UNL     1      51.723  33.469  42.276  1.00  0.00    -0.000 C 
BRANCH  28  29
ATOM     29  C   UNL     1      50.681  32.829  43.221  1.00  0.00    -0.000 C 
BRANCH  29  30
ATOM     30  C   UNL     1      50.263  31.424  42.762  1.00  0.00    -0.000 C 
BRANCH  30  31
ATOM     31  C   UNL     1      51.404  30.660  42.073  1.00  0.00    -0.003 C 
ATOM     32  C   UNL     1      51.868  29.441  42.870  1.00  0.00     0.004 C 
ENDBRANCH  30  31
ENDBRANCH  29  30
ENDBRANCH  28  29
ENDBRANCH  27  28
ENDBRANCH  26  27
ENDBRANCH  25  26
ENDBRANCH  24  25
ENDBRANCH  23  24
ENDBRANCH  22  23
ENDBRANCH  21  22
ENDBRANCH  20  21
ENDBRANCH  19  20
ENDBRANCH  18  19
ENDBRANCH   1  18
TORSDOF 28
ENDMDL
MODEL 6
REMARK VINA RESULT:    -6.114      1.424      2.808
REMARK INTER + INTRA:         -19.609
REMARK INTER:                 -16.176
REMARK INTRA:                  -3.433
REMARK UNBOUND:                -3.488
REMARK SMILES CCCCCCCCCCCCCCCCCCCCCCCCCCCCCC(=O)[O-]
REMARK SMILES IDX 16 1 17 2 18 3 19 4 20 5 21 6 22 7 23 8 24 9 25 10 26 11
REMARK SMILES IDX 27 12 28 13 29 14 30 15 31 16 32 17 15 18 14 19 13 20 12 21
REMARK SMILES IDX 11 22 10 23 9 24 8 25 7 26 6 27 5 28 4 29 3 30 2 31 1 32
REMARK H PARENT
REMARK Flexibility Score: inf
ROOT
ATOM      1  C   UNL     1      54.882  32.875  43.209  1.00  0.00     0.000 C 
ENDROOT
BRANCH   1   2
ATOM      2  C   UNL     1      55.589  31.518  43.037  1.00  0.00     0.000 C 
BRANCH   2   3
ATOM      3  C   UNL     1      54.739  30.340  43.537  1.00  0.00     0.000 C 
BRANCH   3   4
ATOM      4  C   UNL     1      53.518  30.109  42.634  1.00  0.00     0.000 C 
BRANCH   4   5
ATOM      5  C   UNL     1      52.468  29.188  43.278  1.00  0.00     0.000 C 
BRANCH   5   6
ATOM      6  C   UNL     1      51.027  29.642  42.996  1.00  0.00     0.000 C 
BRANCH   6   7
ATOM      7  C   UNL     1      50.987  30.701  41.886  1.00  0.00     0.000 C 
BRANCH   7   8
ATOM      8  C   UNL     1      50.358  32.006  42.400  1.00  0.00     0.000 C 
BRANCH   8   9
ATOM      9  C   UNL     1      51.393  33.128  42.585  1.00  0.00     0.000 C 
BRANCH   9  10
ATOM     10  C   UNL     1      51.269  33.824  43.951  1.00  0.00     0.000 C 
BRANCH  10  11
ATOM     11  C   UNL     1      51.872  35.245  43.941  1.00  0.00     0.000 C 
BRANCH  11  12
ATOM     12  C   UNL     1      52.627  35.606  45.233  1.00  0.00     0.000 C 
BRANCH  12  13
ATOM     13  C   UNL     1      53.571  36.804  45.061  1.00  0.00     0.006 C 
BRANCH  13  14
ATOM     14  C   UNL     1      52.926  37.894  44.200  1.00  0.00     0.053 C 
BRANCH  14  15
ATOM     15  C   UNL     1      53.257  39.249  44.738  1.00  0.00     0.041 C 
ATOM     16  O   UNL     1      52.962  40.282  44.081  1.00  0.00    -0.550 OA
ATOM     17  O   UNL     1      53.939  39.372  45.941  1.00  0.00    -0.550 OA
ENDBRANCH  14  15
ENDBRANCH  13  14
ENDBRANCH  12  13
ENDBRANCH  11  12
ENDBRANCH  10  11
ENDBRANCH   9  10
ENDBRANCH   8   9
ENDBRANCH   7   8
ENDBRANCH   6   7
ENDBRANCH   5   6
ENDBRANCH   4   5
ENDBRANCH   3   4
ENDBRANCH   2   3
ENDBRANCH   1   2
BRANCH   1  18
ATOM     18  C   UNL     1      55.750  34.103  42.872  1.00  0.00     0.000 C 
BRANCH  18  19
ATOM     19  C   UNL     1      55.043  35.187  42.033  1.00  0.00     0.000 C 
BRANCH  19  20
ATOM     20  C   UNL     1      55.714  36.573  42.060  1.00  0.00     0.000 C 
BRANCH  20  21
ATOM     21  C   UNL     1      55.055  37.571  41.094  1.00  0.00     0.000 C 
BRANCH  21  22
ATOM     22  C   UNL     1      55.780  37.612  39.743  1.00  0.00     0.000 C 
BRANCH  22  23
ATOM     23  C   UNL     1      57.227  38.097  39.919  1.00  0.00     0.000 C 
BRANCH  23  24
ATOM     24  C   UNL     1      57.921  38.416  38.585  1.00  0.00    -0.000 C 
BRANCH  24  25
ATOM     25  C   UNL     1      59.456  38.380  38.691  1.00  0.00    -0.000 C 
BRANCH  25  26
ATOM     26  C   UNL     1      60.138  37.826  37.418  1.00  0.00    -0.000 C 
BRANCH  26  27
ATOM     27  C   UNL     1      61.030  38.848  36.687  1.00  0.00    -0.000 C 
BRANCH  27  28
ATOM     28  C   UNL     1      60.624  39.127  35.230  1.00  0.00    -0.000 C 
BRANCH  28  29
ATOM     29  C   UNL     1      59.881  40.470  35.046  1.00  0.00    -0.000 C 
BRANCH  29  30
ATOM     30  C   UNL     1      58.388  40.362  35.391  1.00  0.00    -0.000 C 
BRANCH  30  31
ATOM     31  C   UNL     1      57.614  39.468  34.410  1.00  0.00    -0.003 C 
ATOM     32  C   UNL     1      57.088  38.189  35.061  1.00  0.00     0.004 C 
ENDBRANCH  30  31
ENDBRANCH  29  30
ENDBRANCH  28  29
ENDBRANCH  27  28
ENDBRANCH  26  27
ENDBRANCH  25  26
ENDBRANCH  24  25
ENDBRANCH  23  24
ENDBRANCH  22  23
ENDBRANCH  21  22
ENDBRANCH  20  21
ENDBRANCH  19  20
ENDBRANCH  18  19
ENDBRANCH   1  18
TORSDOF 28
ENDMDL
MODEL 7
REMARK VINA RESULT:    -6.112      2.576      7.732
REMARK INTER + INTRA:         -19.604
REMARK INTER:                 -16.229
REMARK INTRA:                  -3.375
REMARK UNBOUND:                -3.488
REMARK SMILES CCCCCCCCCCCCCCCCCCCCCCCCCCCCCC(=O)[O-]
REMARK SMILES IDX 16 1 17 2 18 3 19 4 20 5 21 6 22 7 23 8 24 9 25 10 26 11
REMARK SMILES IDX 27 12 28 13 29 14 30 15 31 16 32 17 15 18 14 19 13 20 12 21
REMARK SMILES IDX 11 22 10 23 9 24 8 25 7 26 6 27 5 28 4 29 3 30 2 31 1 32
REMARK H PARENT
REMARK Flexibility Score: inf
ROOT
ATOM      1  C   UNL     1      53.179  29.614  43.183  1.00  0.00     0.000 C 
ENDROOT
BRANCH   1   2
ATOM      2  C   UNL     1      54.639  29.942  42.821  1.00  0.00     0.000 C 
BRANCH   2   3
ATOM      3  C   UNL     1      55.245  31.024  43.729  1.00  0.00     0.000 C 
BRANCH   3   4
ATOM      4  C   UNL     1      55.716  32.238  42.915  1.00  0.00     0.000 C 
BRANCH   4   5
ATOM      5  C   UNL     1      54.786  33.454  43.068  1.00  0.00     0.000 C 
BRANCH   5   6
ATOM      6  C   UNL     1      55.251  34.664  42.242  1.00  0.00     0.000 C 
BRANCH   6   7
ATOM      7  C   UNL     1      55.673  35.826  43.151  1.00  0.00     0.000 C 
BRANCH   7   8
ATOM      8  C   UNL     1      56.348  36.939  42.335  1.00  0.00     0.000 C 
BRANCH   8   9
ATOM      9  C   UNL     1      55.632  37.214  41.003  1.00  0.00     0.000 C 
BRANCH   9  10
ATOM     10  C   UNL     1      56.543  37.911  39.978  1.00  0.00     0.000 C 
BRANCH  10  11
ATOM     11  C   UNL     1      56.302  37.403  38.540  1.00  0.00     0.000 C 
BRANCH  11  12
ATOM     12  C   UNL     1      57.379  37.851  37.537  1.00  0.00     0.000 C 
BRANCH  12  13
ATOM     13  C   UNL     1      58.300  38.946  38.092  1.00  0.00     0.006 C 
BRANCH  13  14
ATOM     14  C   UNL     1      59.655  38.939  37.379  1.00  0.00     0.053 C 
BRANCH  14  15
ATOM     15  C   UNL     1      60.409  37.689  37.701  1.00  0.00     0.041 C 
ATOM     16  O   UNL     1      60.915  37.530  38.843  1.00  0.00    -0.550 OA
ATOM     17  O   UNL     1      60.600  36.721  36.725  1.00  0.00    -0.550 OA
ENDBRANCH  14  15
ENDBRANCH  13  14
ENDBRANCH  12  13
ENDBRANCH  11  12
ENDBRANCH  10  11
ENDBRANCH   9  10
ENDBRANCH   8   9
ENDBRANCH   7   8
ENDBRANCH   6   7
ENDBRANCH   5   6
ENDBRANCH   4   5
ENDBRANCH   3   4
ENDBRANCH   2   3
ENDBRANCH   1   2
BRANCH   1  18
ATOM     18  C   UNL     1      52.163  29.859  42.050  1.00  0.00     0.000 C 
BRANCH  18  19
ATOM     19  C   UNL     1      50.763  30.306  42.520  1.00  0.00     0.000 C 
BRANCH  19  20
ATOM     20  C   UNL     1      50.370  31.742  42.124  1.00  0.00     0.000 C 
BRANCH  20  21
ATOM     21  C   UNL     1      51.164  32.810  42.893  1.00  0.00     0.000 C 
BRANCH  21  22
ATOM     22  C   UNL     1      50.358  33.373  44.071  1.00  0.00     0.000 C 
BRANCH  22  23
ATOM     23  C   UNL     1      51.058  34.603  44.667  1.00  0.00     0.000 C 
BRANCH  23  24
ATOM     24  C   UNL     1      51.893  35.379  43.637  1.00  0.00    -0.000 C 
BRANCH  24  25
ATOM     25  C   UNL     1      51.775  36.905  43.803  1.00  0.00    -0.000 C 
BRANCH  25  26
ATOM     26  C   UNL     1      52.482  37.693  42.677  1.00  0.00    -0.000 C 
BRANCH  26  27
ATOM     27  C   UNL     1      53.241  38.942  43.164  1.00  0.00    -0.000 C 
BRANCH  27  28
ATOM     28  C   UNL     1      52.937  39.353  44.614  1.00  0.00    -0.000 C 
BRANCH  28  29
ATOM     29  C   UNL     1      54.039  38.936  45.615  1.00  0.00    -0.000 C 
BRANCH  29  30
ATOM     30  C   UNL     1      53.872  37.486  46.094  1.00  0.00    -0.000 C 
BRANCH  30  31
ATOM     31  C   UNL     1      53.308  37.392  47.520  1.00  0.00    -0.003 C 
ATOM     32  C   UNL     1      51.924  36.747  47.570  1.00  0.00     0.004 C 
ENDBRANCH  30  31
ENDBRANCH  29  30
ENDBRANCH  28  29
ENDBRANCH  27  28
ENDBRANCH  26  27
ENDBRANCH  25  26
ENDBRANCH  24  25
ENDBRANCH  23  24
ENDBRANCH  22  23
ENDBRANCH  21  22
ENDBRANCH  20  21
ENDBRANCH  19  20
ENDBRANCH  18  19
ENDBRANCH   1  18
TORSDOF 28
ENDMDL
MODEL 8
REMARK VINA RESULT:    -6.099      2.217      4.568
REMARK INTER + INTRA:         -19.571
REMARK INTER:                 -15.680
REMARK INTRA:                  -3.891
REMARK UNBOUND:                -3.488
REMARK SMILES CCCCCCCCCCCCCCCCCCCCCCCCCCCCCC(=O)[O-]
REMARK SMILES IDX 16 1 17 2 18 3 19 4 20 5 21 6 22 7 23 8 24 9 25 10 26 11
REMARK SMILES IDX 27 12 28 13 29 14 30 15 31 16 32 17 15 18 14 19 13 20 12 21
REMARK SMILES IDX 11 22 10 23 9 24 8 25 7 26 6 27 5 28 4 29 3 30 2 31 1 32
REMARK H PARENT
REMARK Flexibility Score: inf
ROOT
ATOM      1  C   UNL     1      55.976  36.808  42.650  1.00  0.00     0.000 C 
ENDROOT
BRANCH   1   2
ATOM      2  C   UNL     1      55.193  35.749  43.447  1.00  0.00     0.000 C 
BRANCH   2   3
ATOM      3  C   UNL     1      55.359  34.333  42.873  1.00  0.00     0.000 C 
BRANCH   3   4
ATOM      4  C   UNL     1      54.100  33.485  43.104  1.00  0.00     0.000 C 
BRANCH   4   5
ATOM      5  C   UNL     1      52.802  34.252  42.799  1.00  0.00     0.000 C 
BRANCH   5   6
ATOM      6  C   UNL     1      51.834  34.279  43.993  1.00  0.00     0.000 C 
BRANCH   6   7
ATOM      7  C   UNL     1      51.476  35.718  44.385  1.00  0.00     0.000 C 
BRANCH   7   8
ATOM      8  C   UNL     1      52.296  36.173  45.603  1.00  0.00     0.000 C 
BRANCH   8   9
ATOM      9  C   UNL     1      52.739  37.641  45.503  1.00  0.00     0.000 C 
BRANCH   9  10
ATOM     10  C   UNL     1      52.447  38.251  44.121  1.00  0.00     0.000 C 
BRANCH  10  11
ATOM     11  C   UNL     1      53.390  39.428  43.790  1.00  0.00     0.000 C 
BRANCH  11  12
ATOM     12  C   UNL     1      53.361  39.846  42.309  1.00  0.00     0.000 C 
BRANCH  12  13
ATOM     13  C   UNL     1      53.249  41.364  42.116  1.00  0.00     0.006 C 
BRANCH  13  14
ATOM     14  C   UNL     1      54.430  41.904  41.303  1.00  0.00     0.053 C 
BRANCH  14  15
ATOM     15  C   UNL     1      54.505  43.393  41.416  1.00  0.00     0.041 C 
ATOM     16  O   UNL     1      53.921  43.987  42.360  1.00  0.00    -0.550 OA
ATOM     17  O   UNL     1      55.176  44.131  40.450  1.00  0.00    -0.550 OA
ENDBRANCH  14  15
ENDBRANCH  13  14
ENDBRANCH  12  13
ENDBRANCH  11  12
ENDBRANCH  10  11
ENDBRANCH   9  10
ENDBRANCH   8   9
ENDBRANCH   7   8
ENDBRANCH   6   7
ENDBRANCH   5   6
ENDBRANCH   4   5
ENDBRANCH   3   4
ENDBRANCH   2   3
ENDBRANCH   1   2
BRANCH   1  18
ATOM     18  C   UNL     1      55.983  36.592  41.124  1.00  0.00     0.000 C 
BRANCH  18  19
ATOM     19  C   UNL     1      56.203  37.869  40.289  1.00  0.00     0.000 C 
BRANCH  19  20
ATOM     20  C   UNL     1      56.006  37.698  38.770  1.00  0.00     0.000 C 
BRANCH  20  21
ATOM     21  C   UNL     1      57.326  37.454  38.023  1.00  0.00     0.000 C 
BRANCH  21  22
ATOM     22  C   UNL     1      58.289  38.638  38.178  1.00  0.00     0.000 C 
BRANCH  22  23
ATOM     23  C   UNL     1      59.632  38.171  38.758  1.00  0.00     0.000 C 
BRANCH  23  24
ATOM     24  C   UNL     1      60.831  38.961  38.212  1.00  0.00    -0.000 C 
BRANCH  24  25
ATOM     25  C   UNL     1      60.513  39.689  36.893  1.00  0.00    -0.000 C 
BRANCH  25  26
ATOM     26  C   UNL     1      61.190  39.039  35.665  1.00  0.00    -0.000 C 
BRANCH  26  27
ATOM     27  C   UNL     1      61.373  37.513  35.780  1.00  0.00    -0.000 C 
BRANCH  27  28
ATOM     28  C   UNL     1      60.237  36.682  35.159  1.00  0.00    -0.000 C 
BRANCH  28  29
ATOM     29  C   UNL     1      59.416  37.457  34.104  1.00  0.00    -0.000 C 
BRANCH  29  30
ATOM     30  C   UNL     1      57.953  37.653  34.532  1.00  0.00    -0.000 C 
BRANCH  30  31
ATOM     31  C   UNL     1      57.329  38.930  33.950  1.00  0.00    -0.003 C 
ATOM     32  C   UNL     1      57.635  40.173  34.783  1.00  0.00     0.004 C 
ENDBRANCH  30  31
ENDBRANCH  29  30
ENDBRANCH  28  29
ENDBRANCH  27  28
ENDBRANCH  26  27
ENDBRANCH  25  26
ENDBRANCH  24  25
ENDBRANCH  23  24
ENDBRANCH  22  23
ENDBRANCH  21  22
ENDBRANCH  20  21
ENDBRANCH  19  20
ENDBRANCH  18  19
ENDBRANCH   1  18
TORSDOF 28
ENDMDL
MODEL 9
REMARK VINA RESULT:    -6.060      2.683      9.244
REMARK INTER + INTRA:         -19.469
REMARK INTER:                 -16.299
REMARK INTRA:                  -3.170
REMARK UNBOUND:                -3.488
REMARK SMILES CCCCCCCCCCCCCCCCCCCCCCCCCCCCCC(=O)[O-]
REMARK SMILES IDX 16 1 17 2 18 3 19 4 20 5 21 6 22 7 23 8 24 9 25 10 26 11
REMARK SMILES IDX 27 12 28 13 29 14 30 15 31 16 32 17 15 18 14 19 13 20 12 21
REMARK SMILES IDX 11 22 10 23 9 24 8 25 7 26 6 27 5 28 4 29 3 30 2 31 1 32
REMARK H PARENT
REMARK Flexibility Score: inf
ROOT
ATOM      1  C   UNL     1      55.625  33.035  42.506  1.00  0.00     0.000 C 
ENDROOT
BRANCH   1   2
ATOM      2  C   UNL     1      55.800  34.539  42.780  1.00  0.00     0.000 C 
BRANCH   2   3
ATOM      3  C   UNL     1      55.644  35.394  41.512  1.00  0.00     0.000 C 
BRANCH   3   4
ATOM      4  C   UNL     1      56.013  36.861  41.778  1.00  0.00     0.000 C 
BRANCH   4   5
ATOM      5  C   UNL     1      55.674  37.783  40.595  1.00  0.00     0.000 C 
BRANCH   5   6
ATOM      6  C   UNL     1      56.914  38.185  39.781  1.00  0.00     0.000 C 
BRANCH   6   7
ATOM      7  C   UNL     1      56.845  37.627  38.353  1.00  0.00     0.000 C 
BRANCH   7   8
ATOM      8  C   UNL     1      57.857  38.336  37.440  1.00  0.00     0.000 C 
BRANCH   8   9
ATOM      9  C   UNL     1      58.678  37.352  36.591  1.00  0.00     0.000 C 
BRANCH   9  10
ATOM     10  C   UNL     1      60.144  37.260  37.051  1.00  0.00     0.000 C 
BRANCH  10  11
ATOM     11  C   UNL     1      61.029  36.506  36.035  1.00  0.00     0.000 C 
BRANCH  11  12
ATOM     12  C   UNL     1      61.351  37.320  34.769  1.00  0.00     0.000 C 
BRANCH  12  13
ATOM     13  C   UNL     1      62.091  38.630  35.070  1.00  0.00     0.006 C 
BRANCH  13  14
ATOM     14  C   UNL     1      61.420  39.815  34.369  1.00  0.00     0.053 C 
BRANCH  14  15
ATOM     15  C   UNL     1      60.445  40.480  35.287  1.00  0.00     0.041 C 
ATOM     16  O   UNL     1      59.353  40.921  34.841  1.00  0.00    -0.550 OA
ATOM     17  O   UNL     1      60.764  40.663  36.626  1.00  0.00    -0.550 OA
ENDBRANCH  14  15
ENDBRANCH  13  14
ENDBRANCH  12  13
ENDBRANCH  11  12
ENDBRANCH  10  11
ENDBRANCH   9  10
ENDBRANCH   8   9
ENDBRANCH   7   8
ENDBRANCH   6   7
ENDBRANCH   5   6
ENDBRANCH   4   5
ENDBRANCH   3   4
ENDBRANCH   2   3
ENDBRANCH   1   2
BRANCH   1  18
ATOM     18  C   UNL     1      54.881  32.259  43.611  1.00  0.00     0.000 C 
BRANCH  18  19
ATOM     19  C   UNL     1      55.173  30.746  43.650  1.00  0.00     0.000 C 
BRANCH  19  20
ATOM     20  C   UNL     1      54.475  29.918  42.554  1.00  0.00     0.000 C 
BRANCH  20  21
ATOM     21  C   UNL     1      53.062  29.469  42.957  1.00  0.00     0.000 C 
BRANCH  21  22
ATOM     22  C   UNL     1      52.014  29.910  41.927  1.00  0.00     0.000 C 
BRANCH  22  23
ATOM     23  C   UNL     1      50.799  30.538  42.626  1.00  0.00     0.000 C 
BRANCH  23  24
ATOM     24  C   UNL     1      50.531  31.985  42.183  1.00  0.00    -0.000 C 
BRANCH  24  25
ATOM     25  C   UNL     1      51.073  33.023  43.183  1.00  0.00    -0.000 C 
BRANCH  25  26
ATOM     26  C   UNL     1      51.918  34.128  42.509  1.00  0.00    -0.000 C 
BRANCH  26  27
ATOM     27  C   UNL     1      52.510  35.156  43.493  1.00  0.00    -0.000 C 
BRANCH  27  28
ATOM     28  C   UNL     1      51.477  35.846  44.399  1.00  0.00    -0.000 C 
BRANCH  28  29
ATOM     29  C   UNL     1      51.831  37.315  44.726  1.00  0.00    -0.000 C 
BRANCH  29  30
ATOM     30  C   UNL     1      53.344  37.528  44.887  1.00  0.00    -0.000 C 
BRANCH  30  31
ATOM     31  C   UNL     1      53.847  38.786  44.164  1.00  0.00    -0.003 C 
ATOM     32  C   UNL     1      53.054  39.100  42.896  1.00  0.00     0.004 C 
ENDBRANCH  30  31
ENDBRANCH  29  30
ENDBRANCH  28  29
ENDBRANCH  27  28
ENDBRANCH  26  27
ENDBRANCH  25  26
ENDBRANCH  24  25
ENDBRANCH  23  24
ENDBRANCH  22  23
ENDBRANCH  21  22
ENDBRANCH  20  21
ENDBRANCH  19  20
ENDBRANCH  18  19
ENDBRANCH   1  18
TORSDOF 28
ENDMDL
