MODEL 1
REMARK VINA RESULT:    -4.876      0.000      0.000
REMARK INTER + INTRA:          -5.374
REMARK INTER:                  -5.303
REMARK INTRA:                  -0.071
REMARK UNBOUND:                -0.071
REMARK SMILES CCc1cccc(O)c1
REMARK SMILES IDX 3 1 9 2 7 3 6 4 5 5 4 6 2 7 1 8 8 9
REMARK H PARENT 8 10
REMARK Flexibility Score: inf
ROOT
ATOM      1  C   UNL     1       2.568  11.661   9.494  1.00  0.00    -0.045 A 
ATOM      2  C   UNL     1       3.323  10.483   9.365  1.00  0.00     0.049 A 
ATOM      3  C   UNL     1       4.679  10.547   9.012  1.00  0.00     0.115 A 
ATOM      4  C   UNL     1       5.284  11.788   8.796  1.00  0.00     0.046 A 
ATOM      5  C   UNL     1       4.541  12.964   8.936  1.00  0.00     0.004 A 
ATOM      6  C   UNL     1       3.191  12.903   9.289  1.00  0.00     0.004 A 
ENDROOT
BRANCH   1   7
ATOM      7  C   UNL     1       1.122  11.596   9.905  1.00  0.00     0.032 C 
ATOM      8  C   UNL     1       0.324  12.720   9.252  1.00  0.00     0.009 C 
ENDBRANCH   1   7
BRANCH   3   9
ATOM      9  O   UNL     1       5.432   9.382   8.877  1.00  0.00    -0.508 OA
ATOM     10  H   UNL     1       5.233   8.556   9.427  1.00  0.00     0.293 HD
ENDBRANCH   3   9
TORSDOF 2
ENDMDL
MODEL 2
REMARK VINA RESULT:    -4.738     17.916     18.777
REMARK INTER + INTRA:          -5.224
REMARK INTER:                  -5.177
REMARK INTRA:                  -0.047
REMARK UNBOUND:                -0.071
REMARK SMILES CCc1cccc(O)c1
REMARK SMILES IDX 3 1 9 2 7 3 6 4 5 5 4 6 2 7 1 8 8 9
REMARK H PARENT 8 10
REMARK Flexibility Score: inf
ROOT
ATOM      1  C   UNL     1      -4.762  11.426  -6.691  1.00  0.00    -0.045 A 
ATOM      2  C   UNL     1      -5.634  10.368  -6.999  1.00  0.00     0.049 A 
ATOM      3  C   UNL     1      -5.512   9.684  -8.218  1.00  0.00     0.115 A 
ATOM      4  C   UNL     1      -4.514  10.051  -9.125  1.00  0.00     0.046 A 
ATOM      5  C   UNL     1      -3.636  11.095  -8.817  1.00  0.00     0.004 A 
ATOM      6  C   UNL     1      -3.755  11.777  -7.604  1.00  0.00     0.004 A 
ENDROOT
BRANCH   1   7
ATOM      7  C   UNL     1      -4.871  12.139  -5.370  1.00  0.00     0.032 C 
ATOM      8  C   UNL     1      -6.045  13.113  -5.377  1.00  0.00     0.009 C 
ENDBRANCH   1   7
BRANCH   3   9
ATOM      9  O   UNL     1      -6.376   8.637  -8.533  1.00  0.00    -0.508 OA
ATOM     10  H   UNL     1      -7.379   8.770  -8.564  1.00  0.00     0.293 HD
ENDBRANCH   3   9
TORSDOF 2
ENDMDL
MODEL 3
REMARK VINA RESULT:    -4.612      2.451      4.260
REMARK INTER + INTRA:          -5.087
REMARK INTER:                  -5.013
REMARK INTRA:                  -0.074
REMARK UNBOUND:                -0.071
REMARK SMILES CCc1cccc(O)c1
REMARK SMILES IDX 3 1 9 2 7 3 6 4 5 5 4 6 2 7 1 8 8 9
REMARK H PARENT 8 10
REMARK Flexibility Score: inf
ROOT
ATOM      1  C   UNL     1       5.321  10.919   6.800  1.00  0.00    -0.045 A 
ATOM      2  C   UNL     1       5.478  10.948   8.196  1.00  0.00     0.049 A 
ATOM      3  C   UNL     1       4.406  10.615   9.036  1.00  0.00     0.115 A 
ATOM      4  C   UNL     1       3.177  10.243   8.481  1.00  0.00     0.046 A 
ATOM      5  C   UNL     1       3.019  10.200   7.093  1.00  0.00     0.004 A 
ATOM      6  C   UNL     1       4.086  10.531   6.254  1.00  0.00     0.004 A 
ENDROOT
BRANCH   1   7
ATOM      7  C   UNL     1       6.480  11.245   5.898  1.00  0.00     0.032 C 
ATOM      8  C   UNL     1       5.993  11.579   4.491  1.00  0.00     0.009 C 
ENDBRANCH   1   7
BRANCH   3   9
ATOM      9  O   UNL     1       4.553  10.647  10.421  1.00  0.00    -0.508 OA
ATOM     10  H   UNL     1       5.293  10.137  10.887  1.00  0.00     0.293 HD
ENDBRANCH   3   9
TORSDOF 2
ENDMDL
MODEL 4
REMARK VINA RESULT:    -4.603      4.077      6.105
REMARK INTER + INTRA:          -5.077
REMARK INTER:                  -5.001
REMARK INTRA:                  -0.076
REMARK UNBOUND:                -0.071
REMARK SMILES CCc1cccc(O)c1
REMARK SMILES IDX 3 1 9 2 7 3 6 4 5 5 4 6 2 7 1 8 8 9
REMARK H PARENT 8 10
REMARK Flexibility Score: inf
ROOT
ATOM      1  C   UNL     1       7.716  11.497   5.326  1.00  0.00    -0.045 A 
ATOM      2  C   UNL     1       7.711  10.982   6.634  1.00  0.00     0.049 A 
ATOM      3  C   UNL     1       6.509  10.562   7.223  1.00  0.00     0.115 A 
ATOM      4  C   UNL     1       5.314  10.648   6.503  1.00  0.00     0.046 A 
ATOM      5  C   UNL     1       5.316  11.147   5.197  1.00  0.00     0.004 A 
ATOM      6  C   UNL     1       6.512  11.565   4.608  1.00  0.00     0.004 A 
ENDROOT
BRANCH   1   7
ATOM      7  C   UNL     1       9.009  11.917   4.681  1.00  0.00     0.032 C 
ATOM      8  C   UNL     1       8.772  12.379   3.247  1.00  0.00     0.009 C 
ENDBRANCH   1   7
BRANCH   3   9
ATOM      9  O   UNL     1       6.495  10.056   8.522  1.00  0.00    -0.508 OA
ATOM     10  H   UNL     1       5.681   9.588   8.898  1.00  0.00     0.293 HD
ENDBRANCH   3   9
TORSDOF 2
ENDMDL
MODEL 5
REMARK VINA RESULT:    -4.582      2.390      3.969
REMARK INTER + INTRA:          -5.054
REMARK INTER:                  -4.979
REMARK INTRA:                  -0.076
REMARK UNBOUND:                -0.071
REMARK SMILES CCc1cccc(O)c1
REMARK SMILES IDX 3 1 9 2 7 3 6 4 5 5 4 6 2 7 1 8 8 9
REMARK H PARENT 8 10
REMARK Flexibility Score: inf
ROOT
ATOM      1  C   UNL     1       5.169  11.032   6.600  1.00  0.00    -0.045 A 
ATOM      2  C   UNL     1       4.192  10.216   7.197  1.00  0.00     0.049 A 
ATOM      3  C   UNL     1       3.955  10.292   8.577  1.00  0.00     0.115 A 
ATOM      4  C   UNL     1       4.688  11.188   9.361  1.00  0.00     0.046 A 
ATOM      5  C   UNL     1       5.651  12.011   8.770  1.00  0.00     0.004 A 
ATOM      6  C   UNL     1       5.888  11.938   7.395  1.00  0.00     0.004 A 
ENDROOT
BRANCH   1   7
ATOM      7  C   UNL     1       5.401  10.975   5.114  1.00  0.00     0.032 C 
ATOM      8  C   UNL     1       6.309  12.116   4.666  1.00  0.00     0.009 C 
ENDBRANCH   1   7
BRANCH   3   9
ATOM      9  O   UNL     1       2.992   9.482   9.177  1.00  0.00    -0.508 OA
ATOM     10  H   UNL     1       2.449   8.819   8.639  1.00  0.00     0.293 HD
ENDBRANCH   3   9
TORSDOF 2
ENDMDL
MODEL 6
REMARK VINA RESULT:    -4.543      1.574      1.989
REMARK INTER + INTRA:          -5.012
REMARK INTER:                  -4.962
REMARK INTRA:                  -0.050
REMARK UNBOUND:                -0.071
REMARK SMILES CCc1cccc(O)c1
REMARK SMILES IDX 3 1 9 2 7 3 6 4 5 5 4 6 2 7 1 8 8 9
REMARK H PARENT 8 10
REMARK Flexibility Score: inf
ROOT
ATOM      1  C   UNL     1       2.811  11.098   8.866  1.00  0.00    -0.045 A 
ATOM      2  C   UNL     1       3.991  11.619   9.424  1.00  0.00     0.049 A 
ATOM      3  C   UNL     1       5.214  11.474   8.752  1.00  0.00     0.115 A 
ATOM      4  C   UNL     1       5.257  10.817   7.519  1.00  0.00     0.046 A 
ATOM      5  C   UNL     1       4.084  10.308   6.954  1.00  0.00     0.004 A 
ATOM      6  C   UNL     1       2.865  10.452   7.620  1.00  0.00     0.004 A 
ENDROOT
BRANCH   1   7
ATOM      7  C   UNL     1       1.493  11.281   9.570  1.00  0.00     0.032 C 
ATOM      8  C   UNL     1       1.184  12.763   9.759  1.00  0.00     0.009 C 
ENDBRANCH   1   7
BRANCH   3   9
ATOM      9  O   UNL     1       6.389  11.983   9.302  1.00  0.00    -0.508 OA
ATOM     10  H   UNL     1       7.037  11.391   9.806  1.00  0.00     0.293 HD
ENDBRANCH   3   9
TORSDOF 2
ENDMDL
MODEL 7
REMARK VINA RESULT:    -4.449      1.681      3.408
REMARK INTER + INTRA:          -4.910
REMARK INTER:                  -4.859
REMARK INTRA:                  -0.050
REMARK UNBOUND:                -0.071
REMARK SMILES CCc1cccc(O)c1
REMARK SMILES IDX 3 1 9 2 7 3 6 4 5 5 4 6 2 7 1 8 8 9
REMARK H PARENT 8 10
REMARK Flexibility Score: inf
ROOT
ATOM      1  C   UNL     1       3.592  11.909   9.186  1.00  0.00    -0.045 A 
ATOM      2  C   UNL     1       3.337  10.649   9.752  1.00  0.00     0.049 A 
ATOM      3  C   UNL     1       2.098  10.382  10.354  1.00  0.00     0.115 A 
ATOM      4  C   UNL     1       1.111  11.371  10.383  1.00  0.00     0.046 A 
ATOM      5  C   UNL     1       1.355  12.623   9.810  1.00  0.00     0.004 A 
ATOM      6  C   UNL     1       2.588  12.891   9.209  1.00  0.00     0.004 A 
ENDROOT
BRANCH   1   7
ATOM      7  C   UNL     1       4.908  12.186   8.511  1.00  0.00     0.032 C 
ATOM      8  C   UNL     1       5.183  11.155   7.421  1.00  0.00     0.009 C 
ENDBRANCH   1   7
BRANCH   3   9
ATOM      9  O   UNL     1       1.840   9.135  10.922  1.00  0.00    -0.508 OA
ATOM     10  H   UNL     1       0.899   8.842  11.148  1.00  0.00     0.293 HD
ENDBRANCH   3   9
TORSDOF 2
ENDMDL
MODEL 8
REMARK VINA RESULT:    -4.425      2.871      3.694
REMARK INTER + INTRA:          -4.884
REMARK INTER:                  -4.834
REMARK INTRA:                  -0.050
REMARK UNBOUND:                -0.071
REMARK SMILES CCc1cccc(O)c1
REMARK SMILES IDX 3 1 9 2 7 3 6 4 5 5 4 6 2 7 1 8 8 9
REMARK H PARENT 8 10
REMARK Flexibility Score: inf
ROOT
ATOM      1  C   UNL     1       4.545  10.456   6.833  1.00  0.00    -0.045 A 
ATOM      2  C   UNL     1       5.768  10.304   7.508  1.00  0.00     0.049 A 
ATOM      3  C   UNL     1       6.979  10.533   6.838  1.00  0.00     0.115 A 
ATOM      4  C   UNL     1       6.968  10.923   5.496  1.00  0.00     0.046 A 
ATOM      5  C   UNL     1       5.754  11.089   4.823  1.00  0.00     0.004 A 
ATOM      6  C   UNL     1       4.547  10.863   5.489  1.00  0.00     0.004 A 
ENDROOT
BRANCH   1   7
ATOM      7  C   UNL     1       3.245  10.243   7.560  1.00  0.00     0.032 C 
ATOM      8  C   UNL     1       3.250  10.971   8.901  1.00  0.00     0.009 C 
ENDBRANCH   1   7
BRANCH   3   9
ATOM      9  O   UNL     1       8.196  10.377   7.500  1.00  0.00    -0.508 OA
ATOM     10  H   UNL     1       8.754   9.540   7.392  1.00  0.00     0.293 HD
ENDBRANCH   3   9
TORSDOF 2
ENDMDL
MODEL 9
REMARK VINA RESULT:    -4.290      1.797      2.175
REMARK INTER + INTRA:          -4.737
REMARK INTER:                  -4.688
REMARK INTRA:                  -0.049
REMARK UNBOUND:                -0.071
REMARK SMILES CCc1cccc(O)c1
REMARK SMILES IDX 3 1 9 2 7 3 6 4 5 5 4 6 2 7 1 8 8 9
REMARK H PARENT 8 10
REMARK Flexibility Score: inf
ROOT
ATOM      1  C   UNL     1       3.777  10.963   8.775  1.00  0.00    -0.045 A 
ATOM      2  C   UNL     1       3.809  10.442   7.470  1.00  0.00     0.049 A 
ATOM      3  C   UNL     1       4.851  10.785   6.597  1.00  0.00     0.115 A 
ATOM      4  C   UNL     1       5.867  11.643   7.029  1.00  0.00     0.046 A 
ATOM      5  C   UNL     1       5.847  12.154   8.330  1.00  0.00     0.004 A 
ATOM      6  C   UNL     1       4.810  11.812   9.202  1.00  0.00     0.004 A 
ENDROOT
BRANCH   1   7
ATOM      7  C   UNL     1       2.677  10.569   9.723  1.00  0.00     0.032 C 
ATOM      8  C   UNL     1       1.497  11.529   9.610  1.00  0.00     0.009 C 
ENDBRANCH   1   7
BRANCH   3   9
ATOM      9  O   UNL     1       4.886  10.277   5.299  1.00  0.00    -0.508 OA
ATOM     10  H   UNL     1       4.247   9.552   4.998  1.00  0.00     0.293 HD
ENDBRANCH   3   9
TORSDOF 2
ENDMDL
