MODEL 1
REMARK VINA RESULT:    -8.004      0.000      0.000
REMARK INTER + INTRA:          -8.488
REMARK INTER:                  -8.706
REMARK INTRA:                   0.218
REMARK UNBOUND:                 0.218
REMARK SMILES C[C@@H]1[C@@H](C)CC[C@]2(C(=O)[O-])CC[C@]3(C)C(=CC[C@@H]4[C@@]5(C)CC[C@H](O)C(C)(C)[C@@H]5CC[C@]43C)[C@@H]12
REMARK SMILES IDX 7 1 6 2 11 3 33 4 5 5 12 6 15 7 2 8 3 9 13 10 16 11 1 12
REMARK SMILES IDX 4 13 14 14 31 15 17 16 18 17 30 18 32 19 19 20 29 21 28 22
REMARK SMILES IDX 21 23 20 24 25 25 22 26 23 27 26 28 27 29 8 30 9 31 10 32
REMARK SMILES IDX 24 33
REMARK H PARENT 24 34
REMARK Flexibility Score: inf
ROOT
ATOM      1  C   UNL     1      12.499  18.892  28.214  1.00  0.00     0.017 C 
ATOM      2  C   UNL     1      11.487  19.461  27.164  1.00  0.00     0.014 C 
ATOM      3  C   UNL     1      12.841  17.412  27.853  1.00  0.00     0.014 C 
ATOM      4  C   UNL     1      11.909  18.847  29.662  1.00  0.00     0.030 C 
ATOM      5  C   UNL     1      10.064  19.598  27.700  1.00  0.00     0.004 C 
ATOM      6  C   UNL     1      13.902  16.806  28.797  1.00  0.00     0.013 C 
ATOM      7  C   UNL     1      12.995  18.331  30.631  1.00  0.00    -0.063 C 
ATOM      8  C   UNL     1      11.069  20.114  30.057  1.00  0.00    -0.003 C 
ATOM      9  C   UNL     1      10.012  20.497  28.953  1.00  0.00    -0.011 C 
ATOM     10  C   UNL     1      13.589  16.922  30.341  1.00  0.00    -0.006 C 
ATOM     11  C   UNL     1      13.424  19.099  31.666  1.00  0.00    -0.027 C 
ATOM     12  C   UNL     1      10.309  19.901  31.389  1.00  0.00     0.008 C 
ATOM     13  C   UNL     1      10.110  21.989  28.579  1.00  0.00     0.008 C 
ATOM     14  C   UNL     1      12.461  15.877  30.650  1.00  0.00     0.017 C 
ATOM     15  C   UNL     1      14.928  16.642  31.225  1.00  0.00    -0.020 C 
ATOM     16  C   UNL     1      14.458  18.685  32.673  1.00  0.00     0.032 C 
ATOM     17  C   UNL     1      14.678  17.156  32.698  1.00  0.00     0.006 C 
ATOM     18  C   UNL     1      15.274  15.115  31.252  1.00  0.00     0.008 C 
ATOM     19  C   UNL     1      16.150  17.394  30.597  1.00  0.00     0.012 C 
ATOM     20  C   UNL     1      15.653  16.657  33.869  1.00  0.00    -0.025 C 
ATOM     21  C   UNL     1      16.336  14.739  32.284  1.00  0.00     0.005 C 
ATOM     22  C   UNL     1      15.849  15.106  33.711  1.00  0.00     0.003 C 
ATOM     23  C   UNL     1      14.956  16.950  35.256  1.00  0.00     0.010 C 
ATOM     24  C   UNL     1      17.026  17.403  33.872  1.00  0.00     0.012 C 
ATOM     25  C   UNL     1      16.629  14.372  34.882  1.00  0.00    -0.006 C 
ATOM     26  C   UNL     1      14.995  15.800  36.275  1.00  0.00     0.033 C 
ATOM     27  C   UNL     1      16.333  15.042  36.279  1.00  0.00     0.120 C 
ATOM     28  C   UNL     1      18.161  14.302  34.627  1.00  0.00     0.014 C 
ATOM     29  C   UNL     1      16.125  12.902  34.961  1.00  0.00     0.014 C 
ENDROOT
BRANCH   1  30
ATOM     30  C   UNL     1      13.761  19.749  28.127  1.00  0.00     0.048 C 
ATOM     31  O   UNL     1      13.717  20.968  28.450  1.00  0.00    -0.550 OA
ATOM     32  O   UNL     1      14.981  19.211  27.747  1.00  0.00    -0.550 OA
ENDBRANCH   1  30
BRANCH  27  33
ATOM     33  O   UNL     1      17.369  15.903  36.686  1.00  0.00    -0.393 OA
ATOM     34  H   UNL     1      17.919  15.410  37.352  1.00  0.00     0.210 HD
ENDBRANCH  27  33
TORSDOF 2
ENDMDL
MODEL 2
REMARK VINA RESULT:    -7.079      2.059      7.988
REMARK INTER + INTRA:          -7.481
REMARK INTER:                  -7.622
REMARK INTRA:                   0.140
REMARK UNBOUND:                 0.218
REMARK SMILES C[C@@H]1[C@@H](C)CC[C@]2(C(=O)[O-])CC[C@]3(C)C(=CC[C@@H]4[C@@]5(C)CC[C@H](O)C(C)(C)[C@@H]5CC[C@]43C)[C@@H]12
REMARK SMILES IDX 7 1 6 2 11 3 33 4 5 5 12 6 15 7 2 8 3 9 13 10 16 11 1 12
REMARK SMILES IDX 4 13 14 14 31 15 17 16 18 17 30 18 32 19 19 20 29 21 28 22
REMARK SMILES IDX 21 23 20 24 25 25 22 26 23 27 26 28 27 29 8 30 9 31 10 32
REMARK SMILES IDX 24 33
REMARK H PARENT 24 34
REMARK Flexibility Score: inf
ROOT
ATOM      1  C   UNL     1      16.678  15.587  33.153  1.00  0.00     0.017 C 
ATOM      2  C   UNL     1      17.516  14.833  34.239  1.00  0.00     0.014 C 
ATOM      3  C   UNL     1      16.889  17.126  33.313  1.00  0.00     0.014 C 
ATOM      4  C   UNL     1      15.139  15.355  33.307  1.00  0.00     0.030 C 
ATOM      5  C   UNL     1      16.670  14.258  35.372  1.00  0.00     0.004 C 
ATOM      6  C   UNL     1      16.159  17.937  32.220  1.00  0.00     0.013 C 
ATOM      7  C   UNL     1      14.404  16.086  32.161  1.00  0.00    -0.063 C 
ATOM      8  C   UNL     1      14.739  13.876  33.652  1.00  0.00    -0.003 C 
ATOM      9  C   UNL     1      15.590  13.292  34.842  1.00  0.00    -0.011 C 
ATOM     10  C   UNL     1      14.621  17.623  32.049  1.00  0.00    -0.006 C 
ATOM     11  C   UNL     1      13.634  15.397  31.279  1.00  0.00    -0.027 C 
ATOM     12  C   UNL     1      13.244  13.765  34.038  1.00  0.00     0.008 C 
ATOM     13  C   UNL     1      16.194  11.920  34.477  1.00  0.00     0.008 C 
ATOM     14  C   UNL     1      13.890  18.278  33.273  1.00  0.00     0.017 C 
ATOM     15  C   UNL     1      14.066  18.206  30.634  1.00  0.00    -0.020 C 
ATOM     16  C   UNL     1      12.866  16.012  30.145  1.00  0.00     0.032 C 
ATOM     17  C   UNL     1      12.670  17.534  30.322  1.00  0.00     0.006 C 
ATOM     18  C   UNL     1      13.900  19.762  30.693  1.00  0.00     0.008 C 
ATOM     19  C   UNL     1      15.083  17.881  29.487  1.00  0.00     0.012 C 
ATOM     20  C   UNL     1      11.718  18.202  29.219  1.00  0.00    -0.025 C 
ATOM     21  C   UNL     1      13.120  20.346  29.516  1.00  0.00     0.005 C 
ATOM     22  C   UNL     1      11.688  19.752  29.475  1.00  0.00     0.003 C 
ATOM     23  C   UNL     1      10.260  17.620  29.402  1.00  0.00     0.010 C 
ATOM     24  C   UNL     1      12.166  17.879  27.757  1.00  0.00     0.012 C 
ATOM     25  C   UNL     1      10.652  20.589  28.612  1.00  0.00    -0.006 C 
ATOM     26  C   UNL     1       9.124  18.656  29.373  1.00  0.00     0.033 C 
ATOM     27  C   UNL     1       9.341  19.760  28.325  1.00  0.00     0.120 C 
ATOM     28  C   UNL     1      11.266  21.110  27.282  1.00  0.00     0.014 C 
ATOM     29  C   UNL     1      10.233  21.844  29.429  1.00  0.00     0.014 C 
ENDROOT
BRANCH   1  30
ATOM     30  C   UNL     1      17.202  15.134  31.791  1.00  0.00     0.048 C 
ATOM     31  O   UNL     1      18.012  15.863  31.155  1.00  0.00    -0.550 OA
ATOM     32  O   UNL     1      16.850  13.908  31.248  1.00  0.00    -0.550 OA
ENDBRANCH   1  30
BRANCH  27  33
ATOM     33  O   UNL     1       9.335  19.202  27.034  1.00  0.00    -0.393 OA
ATOM     34  H   UNL     1       8.400  19.241  26.698  1.00  0.00     0.210 HD
ENDBRANCH  27  33
TORSDOF 2
ENDMDL
MODEL 3
REMARK VINA RESULT:    -6.892      6.316     10.518
REMARK INTER + INTRA:          -7.278
REMARK INTER:                  -7.606
REMARK INTRA:                   0.327
REMARK UNBOUND:                 0.218
REMARK SMILES C[C@@H]1[C@@H](C)CC[C@]2(C(=O)[O-])CC[C@]3(C)C(=CC[C@@H]4[C@@]5(C)CC[C@H](O)C(C)(C)[C@@H]5CC[C@]43C)[C@@H]12
REMARK SMILES IDX 7 1 6 2 11 3 33 4 5 5 12 6 15 7 2 8 3 9 13 10 16 11 1 12
REMARK SMILES IDX 4 13 14 14 31 15 17 16 18 17 30 18 32 19 19 20 29 21 28 22
REMARK SMILES IDX 21 23 20 24 25 25 22 26 23 27 26 28 27 29 8 30 9 31 10 32
REMARK SMILES IDX 24 33
REMARK H PARENT 24 34
REMARK Flexibility Score: inf
ROOT
ATOM      1  C   UNL     1       8.306  19.788  30.477  1.00  0.00     0.017 C 
ATOM      2  C   UNL     1       9.363  20.637  31.259  1.00  0.00     0.014 C 
ATOM      3  C   UNL     1       7.142  19.394  31.441  1.00  0.00     0.014 C 
ATOM      4  C   UNL     1       8.888  18.437  29.944  1.00  0.00     0.030 C 
ATOM      5  C   UNL     1      10.645  19.871  31.578  1.00  0.00     0.004 C 
ATOM      6  C   UNL     1       6.015  18.625  30.718  1.00  0.00     0.013 C 
ATOM      7  C   UNL     1       7.794  17.702  29.138  1.00  0.00    -0.063 C 
ATOM      8  C   UNL     1      10.336  18.548  29.345  1.00  0.00    -0.003 C 
ATOM      9  C   UNL     1      11.316  19.329  30.300  1.00  0.00    -0.011 C 
ATOM     10  C   UNL     1       6.473  17.361  29.888  1.00  0.00    -0.006 C 
ATOM     11  C   UNL     1       7.980  17.404  27.826  1.00  0.00    -0.027 C 
ATOM     12  C   UNL     1      10.948  17.153  29.073  1.00  0.00     0.008 C 
ATOM     13  C   UNL     1      12.065  20.444  29.541  1.00  0.00     0.008 C 
ATOM     14  C   UNL     1       6.814  16.239  30.929  1.00  0.00     0.017 C 
ATOM     15  C   UNL     1       5.303  16.892  28.858  1.00  0.00    -0.020 C 
ATOM     16  C   UNL     1       6.991  16.677  26.961  1.00  0.00     0.032 C 
ATOM     17  C   UNL     1       5.933  15.914  27.788  1.00  0.00     0.006 C 
ATOM     18  C   UNL     1       4.144  16.164  29.618  1.00  0.00     0.008 C 
ATOM     19  C   UNL     1       4.688  18.142  28.141  1.00  0.00     0.012 C 
ATOM     20  C   UNL     1       4.957  14.995  26.909  1.00  0.00    -0.025 C 
ATOM     21  C   UNL     1       3.156  15.446  28.699  1.00  0.00     0.005 C 
ATOM     22  C   UNL     1       3.889  14.359  27.871  1.00  0.00     0.003 C 
ATOM     23  C   UNL     1       5.816  13.840  26.256  1.00  0.00     0.010 C 
ATOM     24  C   UNL     1       4.272  15.780  25.744  1.00  0.00     0.012 C 
ATOM     25  C   UNL     1       2.936  13.259  27.236  1.00  0.00    -0.006 C 
ATOM     26  C   UNL     1       5.210  12.430  26.348  1.00  0.00     0.033 C 
ATOM     27  C   UNL     1       3.687  12.412  26.139  1.00  0.00     0.120 C 
ATOM     28  C   UNL     1       1.629  13.867  26.653  1.00  0.00     0.014 C 
ATOM     29  C   UNL     1       2.505  12.276  28.362  1.00  0.00     0.014 C 
ENDROOT
BRANCH   1  30
ATOM     30  C   UNL     1       7.767  20.673  29.353  1.00  0.00     0.048 C 
ATOM     31  O   UNL     1       8.567  21.207  28.536  1.00  0.00    -0.550 OA
ATOM     32  O   UNL     1       6.407  20.869  29.169  1.00  0.00    -0.550 OA
ENDBRANCH   1  30
BRANCH  27  33
ATOM     33  O   UNL     1       3.378  12.838  24.834  1.00  0.00    -0.393 OA
ATOM     34  H   UNL     1       3.841  13.705  24.688  1.00  0.00     0.210 HD
ENDBRANCH  27  33
TORSDOF 2
ENDMDL
MODEL 4
REMARK VINA RESULT:    -6.846      3.603      6.618
REMARK INTER + INTRA:          -7.228
REMARK INTER:                  -7.476
REMARK INTRA:                   0.248
REMARK UNBOUND:                 0.218
REMARK SMILES C[C@@H]1[C@@H](C)CC[C@]2(C(=O)[O-])CC[C@]3(C)C(=CC[C@@H]4[C@@]5(C)CC[C@H](O)C(C)(C)[C@@H]5CC[C@]43C)[C@@H]12
REMARK SMILES IDX 7 1 6 2 11 3 33 4 5 5 12 6 15 7 2 8 3 9 13 10 16 11 1 12
REMARK SMILES IDX 4 13 14 14 31 15 17 16 18 17 30 18 32 19 19 20 29 21 28 22
REMARK SMILES IDX 21 23 20 24 25 25 22 26 23 27 26 28 27 29 8 30 9 31 10 32
REMARK SMILES IDX 24 33
REMARK H PARENT 24 34
REMARK Flexibility Score: inf
ROOT
ATOM      1  C   UNL     1       6.645  18.831  29.357  1.00  0.00     0.017 C 
ATOM      2  C   UNL     1       5.106  18.794  29.078  1.00  0.00     0.014 C 
ATOM      3  C   UNL     1       7.210  20.234  28.967  1.00  0.00     0.014 C 
ATOM      4  C   UNL     1       7.442  17.801  28.491  1.00  0.00     0.030 C 
ATOM      5  C   UNL     1       4.728  17.975  27.847  1.00  0.00     0.004 C 
ATOM      6  C   UNL     1       8.712  20.375  29.294  1.00  0.00     0.013 C 
ATOM      7  C   UNL     1       8.936  17.868  28.879  1.00  0.00    -0.063 C 
ATOM      8  C   UNL     1       6.750  16.397  28.354  1.00  0.00    -0.003 C 
ATOM      9  C   UNL     1       5.230  16.520  27.956  1.00  0.00    -0.011 C 
ATOM     10  C   UNL     1       9.647  19.243  28.714  1.00  0.00    -0.006 C 
ATOM     11  C   UNL     1       9.577  16.775  29.370  1.00  0.00    -0.027 C 
ATOM     12  C   UNL     1       7.450  15.517  27.291  1.00  0.00     0.008 C 
ATOM     13  C   UNL     1       4.337  15.686  28.896  1.00  0.00     0.008 C 
ATOM     14  C   UNL     1       9.776  19.511  27.175  1.00  0.00     0.017 C 
ATOM     15  C   UNL     1      11.100  19.259  29.451  1.00  0.00    -0.020 C 
ATOM     16  C   UNL     1      11.027  16.730  29.758  1.00  0.00     0.032 C 
ATOM     17  C   UNL     1      11.837  17.895  29.146  1.00  0.00     0.006 C 
ATOM     18  C   UNL     1      11.974  20.455  28.945  1.00  0.00     0.008 C 
ATOM     19  C   UNL     1      10.912  19.430  30.998  1.00  0.00     0.012 C 
ATOM     20  C   UNL     1      13.417  17.794  29.401  1.00  0.00    -0.025 C 
ATOM     21  C   UNL     1      13.440  20.374  29.370  1.00  0.00     0.005 C 
ATOM     22  C   UNL     1      14.089  19.083  28.805  1.00  0.00     0.003 C 
ATOM     23  C   UNL     1      13.964  16.525  28.636  1.00  0.00     0.010 C 
ATOM     24  C   UNL     1      13.776  17.617  30.912  1.00  0.00     0.012 C 
ATOM     25  C   UNL     1      15.676  19.102  28.779  1.00  0.00    -0.006 C 
ATOM     26  C   UNL     1      15.252  16.743  27.825  1.00  0.00     0.033 C 
ATOM     27  C   UNL     1      16.264  17.659  28.535  1.00  0.00     0.120 C 
ATOM     28  C   UNL     1      16.287  19.726  30.064  1.00  0.00     0.014 C 
ATOM     29  C   UNL     1      16.137  19.993  27.590  1.00  0.00     0.014 C 
ENDROOT
BRANCH   1  30
ATOM     30  C   UNL     1       6.833  18.598  30.856  1.00  0.00     0.048 C 
ATOM     31  O   UNL     1       7.391  19.481  31.564  1.00  0.00    -0.550 OA
ATOM     32  O   UNL     1       6.358  17.455  31.480  1.00  0.00    -0.550 OA
ENDBRANCH   1  30
BRANCH  27  33
ATOM     33  O   UNL     1      16.702  17.054  29.726  1.00  0.00    -0.393 OA
ATOM     34  H   UNL     1      17.676  17.235  29.811  1.00  0.00     0.210 HD
ENDBRANCH  27  33
TORSDOF 2
ENDMDL
MODEL 5
REMARK VINA RESULT:    -6.758      3.430      7.783
REMARK INTER + INTRA:          -7.133
REMARK INTER:                  -7.336
REMARK INTRA:                   0.203
REMARK UNBOUND:                 0.218
REMARK SMILES C[C@@H]1[C@@H](C)CC[C@]2(C(=O)[O-])CC[C@]3(C)C(=CC[C@@H]4[C@@]5(C)CC[C@H](O)C(C)(C)[C@@H]5CC[C@]43C)[C@@H]12
REMARK SMILES IDX 7 1 6 2 11 3 33 4 5 5 12 6 15 7 2 8 3 9 13 10 16 11 1 12
REMARK SMILES IDX 4 13 14 14 31 15 17 16 18 17 30 18 32 19 19 20 29 21 28 22
REMARK SMILES IDX 21 23 20 24 25 25 22 26 23 27 26 28 27 29 8 30 9 31 10 32
REMARK SMILES IDX 24 33
REMARK H PARENT 24 34
REMARK Flexibility Score: inf
ROOT
ATOM      1  C   UNL     1      16.340  18.925  29.781  1.00  0.00     0.017 C 
ATOM      2  C   UNL     1      17.865  18.684  30.039  1.00  0.00     0.014 C 
ATOM      3  C   UNL     1      15.747  19.782  30.944  1.00  0.00     0.014 C 
ATOM      4  C   UNL     1      15.510  17.600  29.769  1.00  0.00     0.030 C 
ATOM      5  C   UNL     1      18.189  17.263  30.492  1.00  0.00     0.004 C 
ATOM      6  C   UNL     1      14.261  20.135  30.716  1.00  0.00     0.013 C 
ATOM      7  C   UNL     1      14.036  17.932  29.449  1.00  0.00    -0.063 C 
ATOM      8  C   UNL     1      16.206  16.407  29.020  1.00  0.00    -0.003 C 
ATOM      9  C   UNL     1      17.704  16.215  29.470  1.00  0.00    -0.011 C 
ATOM     10  C   UNL     1      13.308  18.913  30.413  1.00  0.00    -0.006 C 
ATOM     11  C   UNL     1      13.428  17.409  28.352  1.00  0.00    -0.027 C 
ATOM     12  C   UNL     1      15.462  15.071  29.260  1.00  0.00     0.008 C 
ATOM     13  C   UNL     1      18.647  16.137  28.253  1.00  0.00     0.008 C 
ATOM     14  C   UNL     1      13.103  18.154  31.770  1.00  0.00     0.017 C 
ATOM     15  C   UNL     1      11.892  19.425  29.791  1.00  0.00    -0.020 C 
ATOM     16  C   UNL     1      11.999  17.653  27.962  1.00  0.00     0.032 C 
ATOM     17  C   UNL     1      11.151  18.192  29.137  1.00  0.00     0.006 C 
ATOM     18  C   UNL     1      10.986  20.056  30.901  1.00  0.00     0.008 C 
ATOM     19  C   UNL     1      12.152  20.528  28.708  1.00  0.00     0.012 C 
ATOM     20  C   UNL     1       9.587  18.313  28.810  1.00  0.00    -0.025 C 
ATOM     21  C   UNL     1       9.543  20.296  30.459  1.00  0.00     0.005 C 
ATOM     22  C   UNL     1       8.877  18.954  30.057  1.00  0.00     0.003 C 
ATOM     23  C   UNL     1       9.013  16.859  28.580  1.00  0.00     0.010 C 
ATOM     24  C   UNL     1       9.301  19.136  27.512  1.00  0.00     0.012 C 
ATOM     25  C   UNL     1       7.290  18.991  30.022  1.00  0.00    -0.006 C 
ATOM     26  C   UNL     1       7.685  16.549  29.292  1.00  0.00     0.033 C 
ATOM     27  C   UNL     1       6.702  17.731  29.277  1.00  0.00     0.120 C 
ATOM     28  C   UNL     1       6.737  20.300  29.393  1.00  0.00     0.014 C 
ATOM     29  C   UNL     1       6.766  18.945  31.486  1.00  0.00     0.014 C 
ENDROOT
BRANCH   1  30
ATOM     30  C   UNL     1      16.226  19.694  28.464  1.00  0.00     0.048 C 
ATOM     31  O   UNL     1      16.527  19.127  27.378  1.00  0.00    -0.550 OA
ATOM     32  O   UNL     1      15.750  20.995  28.420  1.00  0.00    -0.550 OA
ENDBRANCH   1  30
BRANCH  27  33
ATOM     33  O   UNL     1       6.326  18.023  27.953  1.00  0.00    -0.393 OA
ATOM     34  H   UNL     1       5.636  18.738  27.992  1.00  0.00     0.210 HD
ENDBRANCH  27  33
TORSDOF 2
ENDMDL
MODEL 6
REMARK VINA RESULT:    -6.627      2.494      7.923
REMARK INTER + INTRA:          -6.990
REMARK INTER:                  -7.191
REMARK INTRA:                   0.201
REMARK UNBOUND:                 0.218
REMARK SMILES C[C@@H]1[C@@H](C)CC[C@]2(C(=O)[O-])CC[C@]3(C)C(=CC[C@@H]4[C@@]5(C)CC[C@H](O)C(C)(C)[C@@H]5CC[C@]43C)[C@@H]12
REMARK SMILES IDX 7 1 6 2 11 3 33 4 5 5 12 6 15 7 2 8 3 9 13 10 16 11 1 12
REMARK SMILES IDX 4 13 14 14 31 15 17 16 18 17 30 18 32 19 19 20 29 21 28 22
REMARK SMILES IDX 21 23 20 24 25 25 22 26 23 27 26 28 27 29 8 30 9 31 10 32
REMARK SMILES IDX 24 33
REMARK H PARENT 24 34
REMARK Flexibility Score: inf
ROOT
ATOM      1  C   UNL     1      17.988  15.666  31.392  1.00  0.00     0.017 C 
ATOM      2  C   UNL     1      19.125  14.767  31.981  1.00  0.00     0.014 C 
ATOM      3  C   UNL     1      17.630  16.788  32.419  1.00  0.00     0.014 C 
ATOM      4  C   UNL     1      16.658  14.880  31.149  1.00  0.00     0.030 C 
ATOM      5  C   UNL     1      18.639  13.397  32.449  1.00  0.00     0.004 C 
ATOM      6  C   UNL     1      16.572  17.770  31.872  1.00  0.00     0.013 C 
ATOM      7  C   UNL     1      15.620  15.831  30.514  1.00  0.00    -0.063 C 
ATOM      8  C   UNL     1      16.857  13.446  30.538  1.00  0.00    -0.003 C 
ATOM      9  C   UNL     1      17.952  12.617  31.309  1.00  0.00    -0.011 C 
ATOM     10  C   UNL     1      15.248  17.110  31.319  1.00  0.00    -0.006 C 
ATOM     11  C   UNL     1      15.091  15.566  29.291  1.00  0.00    -0.027 C 
ATOM     12  C   UNL     1      15.542  12.630  30.558  1.00  0.00     0.008 C 
ATOM     13  C   UNL     1      18.987  12.017  30.336  1.00  0.00     0.008 C 
ATOM     14  C   UNL     1      14.425  16.640  32.569  1.00  0.00     0.017 C 
ATOM     15  C   UNL     1      14.410  18.169  30.410  1.00  0.00    -0.020 C 
ATOM     16  C   UNL     1      14.065  16.414  28.595  1.00  0.00     0.032 C 
ATOM     17  C   UNL     1      13.338  17.373  29.564  1.00  0.00     0.006 C 
ATOM     18  C   UNL     1      13.689  19.232  31.306  1.00  0.00     0.008 C 
ATOM     19  C   UNL     1      15.383  18.938  29.452  1.00  0.00     0.012 C 
ATOM     20  C   UNL     1      12.125  18.180  28.895  1.00  0.00    -0.025 C 
ATOM     21  C   UNL     1      12.661  20.079  30.556  1.00  0.00     0.005 C 
ATOM     22  C   UNL     1      11.548  19.172  29.969  1.00  0.00     0.003 C 
ATOM     23  C   UNL     1      11.001  17.144  28.492  1.00  0.00     0.010 C 
ATOM     24  C   UNL     1      12.546  18.937  27.594  1.00  0.00     0.012 C 
ATOM     25  C   UNL     1      10.214  19.936  29.576  1.00  0.00    -0.006 C 
ATOM     26  C   UNL     1       9.566  17.541  28.874  1.00  0.00     0.033 C 
ATOM     27  C   UNL     1       9.281  19.039  28.675  1.00  0.00     0.120 C 
ATOM     28  C   UNL     1      10.489  21.300  28.882  1.00  0.00     0.014 C 
ATOM     29  C   UNL     1       9.428  20.253  30.881  1.00  0.00     0.014 C 
ENDROOT
BRANCH   1  30
ATOM     30  C   UNL     1      18.534  16.295  30.111  1.00  0.00     0.048 C 
ATOM     31  O   UNL     1      18.657  15.593  29.070  1.00  0.00    -0.550 OA
ATOM     32  O   UNL     1      18.856  17.641  30.041  1.00  0.00    -0.550 OA
ENDBRANCH   1  30
BRANCH  27  33
ATOM     33  O   UNL     1       9.380  19.368  27.312  1.00  0.00    -0.393 OA
ATOM     34  H   UNL     1       8.652  20.013  27.108  1.00  0.00     0.210 HD
ENDBRANCH  27  33
TORSDOF 2
ENDMDL
MODEL 7
REMARK VINA RESULT:    -6.355      3.604      7.401
REMARK INTER + INTRA:          -6.694
REMARK INTER:                  -6.836
REMARK INTRA:                   0.142
REMARK UNBOUND:                 0.218
REMARK SMILES C[C@@H]1[C@@H](C)CC[C@]2(C(=O)[O-])CC[C@]3(C)C(=CC[C@@H]4[C@@]5(C)CC[C@H](O)C(C)(C)[C@@H]5CC[C@]43C)[C@@H]12
REMARK SMILES IDX 7 1 6 2 11 3 33 4 5 5 12 6 15 7 2 8 3 9 13 10 16 11 1 12
REMARK SMILES IDX 4 13 14 14 31 15 17 16 18 17 30 18 32 19 19 20 29 21 28 22
REMARK SMILES IDX 21 23 20 24 25 25 22 26 23 27 26 28 27 29 8 30 9 31 10 32
REMARK SMILES IDX 24 33
REMARK H PARENT 24 34
REMARK Flexibility Score: inf
ROOT
ATOM      1  C   UNL     1      16.430  17.809  28.543  1.00  0.00     0.017 C 
ATOM      2  C   UNL     1      17.903  17.736  28.021  1.00  0.00     0.014 C 
ATOM      3  C   UNL     1      15.603  16.637  27.925  1.00  0.00     0.014 C 
ATOM      4  C   UNL     1      15.695  19.118  28.105  1.00  0.00     0.030 C 
ATOM      5  C   UNL     1      18.235  18.803  26.981  1.00  0.00     0.004 C 
ATOM      6  C   UNL     1      14.156  16.591  28.462  1.00  0.00     0.013 C 
ATOM      7  C   UNL     1      14.276  19.127  28.716  1.00  0.00    -0.063 C 
ATOM      8  C   UNL     1      16.576  20.416  28.198  1.00  0.00    -0.003 C 
ATOM      9  C   UNL     1      17.989  20.225  27.526  1.00  0.00    -0.011 C 
ATOM     10  C   UNL     1      13.341  17.939  28.345  1.00  0.00    -0.006 C 
ATOM     11  C   UNL     1      13.890  20.117  29.562  1.00  0.00    -0.027 C 
ATOM     12  C   UNL     1      15.886  21.623  27.519  1.00  0.00     0.008 C 
ATOM     13  C   UNL     1      19.122  20.669  28.473  1.00  0.00     0.008 C 
ATOM     14  C   UNL     1      12.964  18.107  26.833  1.00  0.00     0.017 C 
ATOM     15  C   UNL     1      12.019  17.899  29.295  1.00  0.00    -0.020 C 
ATOM     16  C   UNL     1      12.531  20.228  30.192  1.00  0.00     0.032 C 
ATOM     17  C   UNL     1      11.472  19.371  29.464  1.00  0.00     0.006 C 
ATOM     18  C   UNL     1      10.906  16.992  28.670  1.00  0.00     0.008 C 
ATOM     19  C   UNL     1      12.385  17.301  30.697  1.00  0.00     0.012 C 
ATOM     20  C   UNL     1       9.977  19.586  30.003  1.00  0.00    -0.025 C 
ATOM     21  C   UNL     1       9.543  17.129  29.347  1.00  0.00     0.005 C 
ATOM     22  C   UNL     1       9.035  18.590  29.235  1.00  0.00     0.003 C 
ATOM     23  C   UNL     1       9.539  21.068  29.677  1.00  0.00     0.010 C 
ATOM     24  C   UNL     1       9.859  19.396  31.550  1.00  0.00     0.012 C 
ATOM     25  C   UNL     1       7.476  18.767  29.479  1.00  0.00    -0.006 C 
ATOM     26  C   UNL     1       8.134  21.227  29.072  1.00  0.00     0.033 C 
ATOM     27  C   UNL     1       7.096  20.282  29.699  1.00  0.00     0.120 C 
ATOM     28  C   UNL     1       6.955  17.899  30.658  1.00  0.00     0.014 C 
ATOM     29  C   UNL     1       6.723  18.284  28.206  1.00  0.00     0.014 C 
ENDROOT
BRANCH   1  30
ATOM     30  C   UNL     1      16.487  17.654  30.062  1.00  0.00     0.048 C 
ATOM     31  O   UNL     1      16.204  16.545  30.592  1.00  0.00    -0.550 OA
ATOM     32  O   UNL     1      16.893  18.694  30.885  1.00  0.00    -0.550 OA
ENDBRANCH   1  30
BRANCH  27  33
ATOM     33  O   UNL     1       6.925  20.595  31.060  1.00  0.00    -0.393 OA
ATOM     34  H   UNL     1       7.784  20.398  31.520  1.00  0.00     0.210 HD
ENDBRANCH  27  33
TORSDOF 2
ENDMDL
MODEL 8
REMARK VINA RESULT:    -6.162      3.220      5.234
REMARK INTER + INTRA:          -6.485
REMARK INTER:                  -7.660
REMARK INTRA:                   1.175
REMARK UNBOUND:                 0.218
REMARK SMILES C[C@@H]1[C@@H](C)CC[C@]2(C(=O)[O-])CC[C@]3(C)C(=CC[C@@H]4[C@@]5(C)CC[C@H](O)C(C)(C)[C@@H]5CC[C@]43C)[C@@H]12
REMARK SMILES IDX 7 1 6 2 11 3 33 4 5 5 12 6 15 7 2 8 3 9 13 10 16 11 1 12
REMARK SMILES IDX 4 13 14 14 31 15 17 16 18 17 30 18 32 19 19 20 29 21 28 22
REMARK SMILES IDX 21 23 20 24 25 25 22 26 23 27 26 28 27 29 8 30 9 31 10 32
REMARK SMILES IDX 24 33
REMARK H PARENT 24 34
REMARK Flexibility Score: inf
ROOT
ATOM      1  C   UNL     1       9.223  20.200  29.733  1.00  0.00     0.017 C 
ATOM      2  C   UNL     1       7.716  20.609  29.627  1.00  0.00     0.014 C 
ATOM      3  C   UNL     1      10.078  21.130  28.816  1.00  0.00     0.014 C 
ATOM      4  C   UNL     1       9.492  18.745  29.225  1.00  0.00     0.030 C 
ATOM      5  C   UNL     1       6.874  19.632  28.811  1.00  0.00     0.004 C 
ATOM      6  C   UNL     1      11.591  20.842  28.933  1.00  0.00     0.013 C 
ATOM      7  C   UNL     1      10.987  18.412  29.425  1.00  0.00    -0.063 C 
ATOM      8  C   UNL     1       8.409  17.695  29.664  1.00  0.00    -0.003 C 
ATOM      9  C   UNL     1       6.943  18.202  29.388  1.00  0.00    -0.011 C 
ATOM     10  C   UNL     1      12.018  19.337  28.714  1.00  0.00    -0.006 C 
ATOM     11  C   UNL     1      11.369  17.375  30.215  1.00  0.00    -0.027 C 
ATOM     12  C   UNL     1       8.591  16.346  28.928  1.00  0.00     0.008 C 
ATOM     13  C   UNL     1       6.057  18.058  30.642  1.00  0.00     0.008 C 
ATOM     14  C   UNL     1      11.902  19.055  27.176  1.00  0.00     0.017 C 
ATOM     15  C   UNL     1      13.531  19.081  29.261  1.00  0.00    -0.020 C 
ATOM     16  C   UNL     1      12.790  16.957  30.459  1.00  0.00     0.032 C 
ATOM     17  C   UNL     1      13.761  17.524  29.399  1.00  0.00     0.006 C 
ATOM     18  C   UNL     1      14.592  19.686  28.282  1.00  0.00     0.008 C 
ATOM     19  C   UNL     1      13.720  19.774  30.653  1.00  0.00     0.012 C 
ATOM     20  C   UNL     1      15.261  16.971  29.528  1.00  0.00    -0.025 C 
ATOM     21  C   UNL     1      16.025  19.242  28.572  1.00  0.00     0.005 C 
ATOM     22  C   UNL     1      16.143  17.700  28.450  1.00  0.00     0.003 C 
ATOM     23  C   UNL     1      15.248  15.421  29.222  1.00  0.00     0.010 C 
ATOM     24  C   UNL     1      15.854  17.157  30.962  1.00  0.00     0.012 C 
ATOM     25  C   UNL     1      17.627  17.164  28.275  1.00  0.00    -0.006 C 
ATOM     26  C   UNL     1      16.351  14.923  28.274  1.00  0.00     0.033 C 
ATOM     27  C   UNL     1      17.707  15.607  28.512  1.00  0.00     0.120 C 
ATOM     28  C   UNL     1      18.641  17.906  29.190  1.00  0.00     0.014 C 
ATOM     29  C   UNL     1      18.074  17.430  26.809  1.00  0.00     0.014 C 
ENDROOT
BRANCH   1  30
ATOM     30  C   UNL     1       9.636  20.392  31.192  1.00  0.00     0.048 C 
ATOM     31  O   UNL     1       9.008  21.209  31.920  1.00  0.00    -0.550 OA
ATOM     32  O   UNL     1      10.659  19.651  31.762  1.00  0.00    -0.550 OA
ENDBRANCH   1  30
BRANCH  27  33
ATOM     33  O   UNL     1      18.184  15.288  29.796  1.00  0.00    -0.393 OA
ATOM     34  H   UNL     1      18.721  14.455  29.715  1.00  0.00     0.210 HD
ENDBRANCH  27  33
TORSDOF 2
ENDMDL
MODEL 9
REMARK VINA RESULT:    -6.004      6.549     10.078
REMARK INTER + INTRA:          -6.312
REMARK INTER:                  -6.872
REMARK INTRA:                   0.560
REMARK UNBOUND:                 0.218
REMARK SMILES C[C@@H]1[C@@H](C)CC[C@]2(C(=O)[O-])CC[C@]3(C)C(=CC[C@@H]4[C@@]5(C)CC[C@H](O)C(C)(C)[C@@H]5CC[C@]43C)[C@@H]12
REMARK SMILES IDX 7 1 6 2 11 3 33 4 5 5 12 6 15 7 2 8 3 9 13 10 16 11 1 12
REMARK SMILES IDX 4 13 14 14 31 15 17 16 18 17 30 18 32 19 19 20 29 21 28 22
REMARK SMILES IDX 21 23 20 24 25 25 22 26 23 27 26 28 27 29 8 30 9 31 10 32
REMARK SMILES IDX 24 33
REMARK H PARENT 24 34
REMARK Flexibility Score: inf
ROOT
ATOM      1  C   UNL     1       3.460  14.216  27.940  1.00  0.00     0.017 C 
ATOM      2  C   UNL     1       2.255  13.397  27.366  1.00  0.00     0.014 C 
ATOM      3  C   UNL     1       2.926  15.296  28.933  1.00  0.00     0.014 C 
ATOM      4  C   UNL     1       4.236  15.006  26.835  1.00  0.00     0.030 C 
ATOM      5  C   UNL     1       1.917  13.744  25.919  1.00  0.00     0.004 C 
ATOM      6  C   UNL     1       4.066  16.090  29.607  1.00  0.00     0.013 C 
ATOM      7  C   UNL     1       5.437  15.729  27.485  1.00  0.00    -0.063 C 
ATOM      8  C   UNL     1       4.455  14.206  25.501  1.00  0.00    -0.003 C 
ATOM      9  C   UNL     1       3.127  13.534  24.985  1.00  0.00    -0.011 C 
ATOM     10  C   UNL     1       5.119  16.740  28.625  1.00  0.00    -0.006 C 
ATOM     11  C   UNL     1       6.708  15.459  27.090  1.00  0.00    -0.027 C 
ATOM     12  C   UNL     1       4.996  15.118  24.373  1.00  0.00     0.008 C 
ATOM     13  C   UNL     1       3.342  12.040  24.671  1.00  0.00     0.008 C 
ATOM     14  C   UNL     1       4.414  17.973  27.962  1.00  0.00     0.017 C 
ATOM     15  C   UNL     1       6.465  17.178  29.431  1.00  0.00    -0.020 C 
ATOM     16  C   UNL     1       7.939  16.118  27.642  1.00  0.00     0.032 C 
ATOM     17  C   UNL     1       7.620  17.436  28.383  1.00  0.00     0.006 C 
ATOM     18  C   UNL     1       6.219  18.475  30.273  1.00  0.00     0.008 C 
ATOM     19  C   UNL     1       6.889  16.041  30.422  1.00  0.00     0.012 C 
ATOM     20  C   UNL     1       8.919  18.254  28.847  1.00  0.00    -0.025 C 
ATOM     21  C   UNL     1       7.497  19.107  30.823  1.00  0.00     0.005 C 
ATOM     22  C   UNL     1       8.438  19.511  29.658  1.00  0.00     0.003 C 
ATOM     23  C   UNL     1       9.690  18.736  27.555  1.00  0.00     0.010 C 
ATOM     24  C   UNL     1       9.913  17.386  29.685  1.00  0.00     0.012 C 
ATOM     25  C   UNL     1       9.558  20.565  30.051  1.00  0.00    -0.006 C 
ATOM     26  C   UNL     1      10.154  20.202  27.568  1.00  0.00     0.033 C 
ATOM     27  C   UNL     1      10.675  20.659  28.941  1.00  0.00     0.120 C 
ATOM     28  C   UNL     1      10.195  20.270  31.438  1.00  0.00     0.014 C 
ATOM     29  C   UNL     1       8.895  21.969  30.156  1.00  0.00     0.014 C 
ENDROOT
BRANCH   1  30
ATOM     30  C   UNL     1       4.356  13.227  28.686  1.00  0.00     0.048 C 
ATOM     31  O   UNL     1       3.906  12.604  29.686  1.00  0.00    -0.550 OA
ATOM     32  O   UNL     1       5.647  12.953  28.263  1.00  0.00    -0.550 OA
ENDBRANCH   1  30
BRANCH  27  33
ATOM     33  O   UNL     1      11.827  19.928  29.282  1.00  0.00    -0.393 OA
ATOM     34  H   UNL     1      12.433  19.944  28.494  1.00  0.00     0.210 HD
ENDBRANCH  27  33
TORSDOF 2
ENDMDL
