MODEL 1
REMARK VINA RESULT:    39.331      0.000      0.000
REMARK INTER + INTRA:          47.036
REMARK INTER:                  47.378
REMARK INTRA:                  -0.342
REMARK UNBOUND:                -0.342
REMARK SMILES Oc1cc(O)c2cc(O)c(-c3ccc(O)c(O)c3)[o+]c2c1.[Cl-]
REMARK SMILES IDX 10 1 19 2 20 3 21 4 2 5 3 6 4 7 6 8 7 9 8 10 11 11 12 12
REMARK SMILES IDX 13 13 14 14 18 15 16 16 15 17 17 19 9 21 1 23 5 25
REMARK H PARENT 15 18 17 20 9 22 1 24 5 26
REMARK Flexibility Score: inf
ROOT
ATOM      1  C   UNL     1      -9.552  23.278 -22.379  1.00  0.00     0.402 A 
ATOM      2  O   UNL     1      -8.973  24.086 -23.262  1.00  0.00    -0.202 OA
ATOM      3  C   UNL     1      -9.594  25.116 -23.826  1.00  0.00     0.368 A 
ATOM      4  C   UNL     1      -8.901  25.908 -24.746  1.00  0.00     0.162 A 
ATOM      5  C   UNL     1      -9.532  26.996 -25.357  1.00  0.00     0.128 A 
ATOM      6  C   UNL     1     -10.860  27.294 -25.046  1.00  0.00     0.093 A 
ATOM      7  C   UNL     1     -11.576  26.516 -24.127  1.00  0.00     0.136 A 
ATOM      8  C   UNL     1     -10.940  25.412 -23.503  1.00  0.00     0.125 A 
ATOM      9  C   UNL     1     -11.575  24.586 -22.560  1.00  0.00     0.078 A 
ATOM     10  C   UNL     1     -10.881  23.518 -21.984  1.00  0.00     0.223 A 
ENDROOT
BRANCH   1  11
ATOM     11  C   UNL     1      -8.757  22.156 -21.829  1.00  0.00     0.087 A 
ATOM     12  C   UNL     1      -8.886  20.850 -22.334  1.00  0.00     0.022 A 
ATOM     13  C   UNL     1      -8.108  19.812 -21.813  1.00  0.00     0.051 A 
ATOM     14  C   UNL     1      -7.182  20.065 -20.792  1.00  0.00     0.157 A 
ATOM     15  C   UNL     1      -7.813  22.408 -20.819  1.00  0.00     0.068 A 
ATOM     16  C   UNL     1      -7.033  21.370 -20.295  1.00  0.00     0.158 A 
BRANCH  14  17
ATOM     17  O   UNL     1      -6.409  19.027 -20.275  1.00  0.00    -0.504 OA
ATOM     18  H   UNL     1      -5.566  18.711 -20.739  1.00  0.00     0.293 HD
ENDBRANCH  14  17
BRANCH  16  19
ATOM     19  O   UNL     1      -6.116  21.656 -19.285  1.00  0.00    -0.504 OA
ATOM     20  H   UNL     1      -5.127  21.765 -19.471  1.00  0.00     0.293 HD
ENDBRANCH  16  19
ENDBRANCH   1  11
BRANCH  10  21
ATOM     21  O   UNL     1     -11.495  22.728 -21.012  1.00  0.00    -0.500 OA
ATOM     22  H   UNL     1     -11.166  22.712 -20.053  1.00  0.00     0.294 HD
ENDBRANCH  10  21
BRANCH   5  23
ATOM     23  O   UNL     1      -8.848  27.789 -26.275  1.00  0.00    -0.507 OA
ATOM     24  H   UNL     1      -7.836  27.776 -26.336  1.00  0.00     0.293 HD
ENDBRANCH   5  23
BRANCH   7  25
ATOM     25  O   UNL     1     -12.902  26.878 -23.873  1.00  0.00    -0.507 OA
ATOM     26  H   UNL     1     -13.672  26.227 -23.825  1.00  0.00     0.293 HD
ENDBRANCH   7  25
TORSDOF 6
ENDMDL
MODEL 2
REMARK VINA RESULT:    39.928      7.404     12.161
REMARK INTER + INTRA:          47.756
REMARK INTER:                  47.911
REMARK INTRA:                  -0.155
REMARK UNBOUND:                -0.342
REMARK SMILES Oc1cc(O)c2cc(O)c(-c3ccc(O)c(O)c3)[o+]c2c1.[Cl-]
REMARK SMILES IDX 10 1 19 2 20 3 21 4 2 5 3 6 4 7 6 8 7 9 8 10 11 11 12 12
REMARK SMILES IDX 13 13 14 14 18 15 16 16 15 17 17 19 9 21 1 23 5 25
REMARK H PARENT 15 18 17 20 9 22 1 24 5 26
REMARK Flexibility Score: inf
ROOT
ATOM      1  C   UNL     1      -2.863  16.419 -19.496  1.00  0.00     0.402 A 
ATOM      2  O   UNL     1      -2.464  15.694 -20.537  1.00  0.00    -0.202 OA
ATOM      3  C   UNL     1      -1.221  15.250 -20.683  1.00  0.00     0.368 A 
ATOM      4  C   UNL     1      -0.896  14.496 -21.815  1.00  0.00     0.162 A 
ATOM      5  C   UNL     1       0.406  14.019 -21.996  1.00  0.00     0.128 A 
ATOM      6  C   UNL     1       1.387  14.297 -21.041  1.00  0.00     0.093 A 
ATOM      7  C   UNL     1       1.087  15.050 -19.899  1.00  0.00     0.136 A 
ATOM      8  C   UNL     1      -0.233  15.534 -19.709  1.00  0.00     0.125 A 
ATOM      9  C   UNL     1      -0.628  16.284 -18.589  1.00  0.00     0.078 A 
ATOM     10  C   UNL     1      -1.949  16.723 -18.470  1.00  0.00     0.223 A 
ENDROOT
BRANCH   1  11
ATOM     11  C   UNL     1      -4.275  16.865 -19.452  1.00  0.00     0.087 A 
ATOM     12  C   UNL     1      -5.137  16.469 -18.415  1.00  0.00     0.022 A 
ATOM     13  C   UNL     1      -6.459  16.922 -18.384  1.00  0.00     0.051 A 
ATOM     14  C   UNL     1      -6.934  17.785 -19.379  1.00  0.00     0.157 A 
ATOM     15  C   UNL     1      -4.751  17.747 -20.437  1.00  0.00     0.068 A 
ATOM     16  C   UNL     1      -6.074  18.202 -20.409  1.00  0.00     0.158 A 
BRANCH  14  17
ATOM     17  O   UNL     1      -8.254  18.233 -19.346  1.00  0.00    -0.504 OA
ATOM     18  H   UNL     1      -9.003  17.651 -18.991  1.00  0.00     0.293 HD
ENDBRANCH  14  17
BRANCH  16  19
ATOM     19  O   UNL     1      -6.515  19.066 -21.410  1.00  0.00    -0.504 OA
ATOM     20  H   UNL     1      -7.464  19.043 -21.762  1.00  0.00     0.293 HD
ENDBRANCH  16  19
ENDBRANCH   1  11
BRANCH  10  21
ATOM     21  O   UNL     1      -2.354  17.426 -17.334  1.00  0.00    -0.500 OA
ATOM     22  H   UNL     1      -1.880  17.319 -16.445  1.00  0.00     0.294 HD
ENDBRANCH  10  21
BRANCH   5  23
ATOM     23  O   UNL     1       0.736  13.268 -23.121  1.00  0.00    -0.507 OA
ATOM     24  H   UNL     1       1.201  12.371 -23.042  1.00  0.00     0.293 HD
ENDBRANCH   5  23
BRANCH   7  25
ATOM     25  O   UNL     1       2.125  15.286 -18.993  1.00  0.00    -0.507 OA
ATOM     26  H   UNL     1       3.096  15.384 -19.251  1.00  0.00     0.293 HD
ENDBRANCH   7  25
TORSDOF 6
ENDMDL
