MODEL 1
REMARK VINA RESULT:    -4.029      0.000      0.000
REMARK INTER + INTRA:          -5.563
REMARK INTER:                  -5.325
REMARK INTRA:                  -0.238
REMARK UNBOUND:                -0.238
REMARK SMILES C=C[C@@H](O)CCCCC
REMARK SMILES IDX 6 1 7 2 8 3 9 4 5 5 3 6 2 7 1 8 4 9
REMARK H PARENT 4 10
REMARK Flexibility Score: inf
ROOT
ATOM      1  C   UNL     1      41.660   8.696  -2.877  1.00  0.00     0.003 C 
ENDROOT
BRANCH   1   2
ATOM      2  C   UNL     1      41.067   8.955  -4.271  1.00  0.00    -0.000 C 
BRANCH   2   3
ATOM      3  C   UNL     1      39.532   8.906  -4.276  1.00  0.00    -0.003 C 
ATOM      4  C   UNL     1      39.005   8.366  -5.603  1.00  0.00     0.004 C 
ENDBRANCH   2   3
ENDBRANCH   1   2
BRANCH   1   5
ATOM      5  C   UNL     1      40.604   8.775  -1.759  1.00  0.00     0.036 C 
BRANCH   5   6
ATOM      6  C   UNL     1      41.086   9.610  -0.563  1.00  0.00     0.136 C 
BRANCH   6   7
ATOM      7  C   UNL     1      41.480   8.715   0.589  1.00  0.00    -0.004 C 
ATOM      8  C   UNL     1      41.183   7.413   0.606  1.00  0.00     0.007 C 
ENDBRANCH   6   7
BRANCH   6   9
ATOM      9  O   UNL     1      42.200  10.365  -0.959  1.00  0.00    -0.389 OA
ATOM     10  H   UNL     1      42.921   9.717  -1.179  1.00  0.00     0.211 HD
ENDBRANCH   6   9
ENDBRANCH   5   6
ENDBRANCH   1   5
TORSDOF 6
ENDMDL
MODEL 2
REMARK VINA RESULT:    -3.984      1.426      4.651
REMARK INTER + INTRA:          -5.503
REMARK INTER:                  -5.300
REMARK INTRA:                  -0.203
REMARK UNBOUND:                -0.238
REMARK SMILES C=C[C@@H](O)CCCCC
REMARK SMILES IDX 6 1 7 2 8 3 9 4 5 5 3 6 2 7 1 8 4 9
REMARK H PARENT 4 10
REMARK Flexibility Score: inf
ROOT
ATOM      1  C   UNL     1      41.004   9.007  -1.107  1.00  0.00     0.003 C 
ENDROOT
BRANCH   1   2
ATOM      2  C   UNL     1      41.427   8.665   0.330  1.00  0.00    -0.000 C 
BRANCH   2   3
ATOM      3  C   UNL     1      41.167   7.194   0.687  1.00  0.00    -0.003 C 
ATOM      4  C   UNL     1      40.557   7.067   2.081  1.00  0.00     0.004 C 
ENDBRANCH   2   3
ENDBRANCH   1   2
BRANCH   1   5
ATOM      5  C   UNL     1      42.115   8.721  -2.136  1.00  0.00     0.036 C 
BRANCH   5   6
ATOM      6  C   UNL     1      41.578   8.686  -3.575  1.00  0.00     0.136 C 
BRANCH   6   7
ATOM      7  C   UNL     1      40.164   9.214  -3.630  1.00  0.00    -0.004 C 
ATOM      8  C   UNL     1      39.260   8.728  -4.484  1.00  0.00     0.007 C 
ENDBRANCH   6   7
BRANCH   6   9
ATOM      9  O   UNL     1      42.398   9.488  -4.382  1.00  0.00    -0.389 OA
ATOM     10  H   UNL     1      43.286   9.043  -4.420  1.00  0.00     0.211 HD
ENDBRANCH   6   9
ENDBRANCH   5   6
ENDBRANCH   1   5
TORSDOF 6
ENDMDL
MODEL 3
REMARK VINA RESULT:    -3.810      1.386      4.709
REMARK INTER + INTRA:          -5.273
REMARK INTER:                  -4.979
REMARK INTRA:                  -0.294
REMARK UNBOUND:                -0.238
REMARK SMILES C=C[C@@H](O)CCCCC
REMARK SMILES IDX 6 1 7 2 8 3 9 4 5 5 3 6 2 7 1 8 4 9
REMARK H PARENT 4 10
REMARK Flexibility Score: inf
ROOT
ATOM      1  C   UNL     1      41.160   8.985   0.493  1.00  0.00     0.003 C 
ENDROOT
BRANCH   1   2
ATOM      2  C   UNL     1      41.167   7.448   0.490  1.00  0.00    -0.000 C 
BRANCH   2   3
ATOM      3  C   UNL     1      40.714   6.853   1.832  1.00  0.00    -0.003 C 
ATOM      4  C   UNL     1      40.403   7.955   2.842  1.00  0.00     0.004 C 
ENDBRANCH   2   3
ENDBRANCH   1   2
BRANCH   1   5
ATOM      5  C   UNL     1      41.558   9.583  -0.869  1.00  0.00     0.036 C 
BRANCH   5   6
ATOM      6  C   UNL     1      41.994   8.503  -1.872  1.00  0.00     0.136 C 
BRANCH   6   7
ATOM      7  C   UNL     1      41.413   8.779  -3.239  1.00  0.00    -0.004 C 
ATOM      8  C   UNL     1      40.109   9.004  -3.420  1.00  0.00     0.007 C 
ENDBRANCH   6   7
BRANCH   6   9
ATOM      9  O   UNL     1      43.395   8.509  -1.959  1.00  0.00    -0.389 OA
ATOM     10  H   UNL     1      43.626   8.953  -2.818  1.00  0.00     0.211 HD
ENDBRANCH   6   9
ENDBRANCH   5   6
ENDBRANCH   1   5
TORSDOF 6
ENDMDL
MODEL 4
REMARK VINA RESULT:    -3.788      7.815      9.220
REMARK INTER + INTRA:          -5.244
REMARK INTER:                  -4.856
REMARK INTRA:                  -0.388
REMARK UNBOUND:                -0.238
REMARK SMILES C=C[C@@H](O)CCCCC
REMARK SMILES IDX 6 1 7 2 8 3 9 4 5 5 3 6 2 7 1 8 4 9
REMARK H PARENT 4 10
REMARK Flexibility Score: inf
ROOT
ATOM      1  C   UNL     1      43.068   2.818  -7.882  1.00  0.00     0.003 C 
ENDROOT
BRANCH   1   2
ATOM      2  C   UNL     1      42.953   2.763  -6.351  1.00  0.00    -0.000 C 
BRANCH   2   3
ATOM      3  C   UNL     1      43.776   1.619  -5.739  1.00  0.00    -0.003 C 
ATOM      4  C   UNL     1      42.950   0.338  -5.645  1.00  0.00     0.004 C 
ENDBRANCH   2   3
ENDBRANCH   1   2
BRANCH   1   5
ATOM      5  C   UNL     1      41.697   2.937  -8.576  1.00  0.00     0.036 C 
BRANCH   5   6
ATOM      6  C   UNL     1      40.548   2.455  -7.676  1.00  0.00     0.136 C 
BRANCH   6   7
ATOM      7  C   UNL     1      39.305   3.280  -7.913  1.00  0.00    -0.004 C 
ATOM      8  C   UNL     1      39.059   4.401  -7.229  1.00  0.00     0.007 C 
ENDBRANCH   6   7
BRANCH   6   9
ATOM      9  O   UNL     1      40.272   1.113  -7.978  1.00  0.00    -0.389 OA
ATOM     10  H   UNL     1      39.790   0.737  -7.194  1.00  0.00     0.211 HD
ENDBRANCH   6   9
ENDBRANCH   5   6
ENDBRANCH   1   5
TORSDOF 6
ENDMDL
MODEL 5
REMARK VINA RESULT:    -3.783      8.473      9.838
REMARK INTER + INTRA:          -5.237
REMARK INTER:                  -4.920
REMARK INTRA:                  -0.318
REMARK UNBOUND:                -0.238
REMARK SMILES C=C[C@@H](O)CCCCC
REMARK SMILES IDX 6 1 7 2 8 3 9 4 5 5 3 6 2 7 1 8 4 9
REMARK H PARENT 4 10
REMARK Flexibility Score: inf
ROOT
ATOM      1  C   UNL     1      41.187   2.303  -6.515  1.00  0.00     0.003 C 
ENDROOT
BRANCH   1   2
ATOM      2  C   UNL     1      42.666   2.665  -6.724  1.00  0.00    -0.000 C 
BRANCH   2   3
ATOM      3  C   UNL     1      43.598   1.911  -5.764  1.00  0.00    -0.003 C 
ATOM      4  C   UNL     1      42.991   0.574  -5.346  1.00  0.00     0.004 C 
ENDBRANCH   2   3
ENDBRANCH   1   2
BRANCH   1   5
ATOM      5  C   UNL     1      40.250   3.060  -7.474  1.00  0.00     0.036 C 
BRANCH   5   6
ATOM      6  C   UNL     1      39.543   2.116  -8.460  1.00  0.00     0.136 C 
BRANCH   6   7
ATOM      7  C   UNL     1      39.923   2.450  -9.883  1.00  0.00    -0.004 C 
ATOM      8  C   UNL     1      41.153   2.857 -10.210  1.00  0.00     0.007 C 
ENDBRANCH   6   7
BRANCH   6   9
ATOM      9  O   UNL     1      39.930   0.798  -8.179  1.00  0.00    -0.389 OA
ATOM     10  H   UNL     1      40.749   0.620  -8.715  1.00  0.00     0.211 HD
ENDBRANCH   6   9
ENDBRANCH   5   6
ENDBRANCH   1   5
TORSDOF 6
ENDMDL
MODEL 6
REMARK VINA RESULT:    -3.767      8.160      9.646
REMARK INTER + INTRA:          -5.216
REMARK INTER:                  -5.056
REMARK INTRA:                  -0.160
REMARK UNBOUND:                -0.238
REMARK SMILES C=C[C@@H](O)CCCCC
REMARK SMILES IDX 6 1 7 2 8 3 9 4 5 5 3 6 2 7 1 8 4 9
REMARK H PARENT 4 10
REMARK Flexibility Score: inf
ROOT
ATOM      1  C   UNL     1      34.379   8.643   4.426  1.00  0.00     0.003 C 
ENDROOT
BRANCH   1   2
ATOM      2  C   UNL     1      34.044   7.222   4.908  1.00  0.00    -0.000 C 
BRANCH   2   3
ATOM      3  C   UNL     1      35.268   6.295   4.905  1.00  0.00    -0.003 C 
ATOM      4  C   UNL     1      35.283   5.400   6.142  1.00  0.00     0.004 C 
ENDBRANCH   2   3
ENDBRANCH   1   2
BRANCH   1   5
ATOM      5  C   UNL     1      34.839   8.677   2.957  1.00  0.00     0.036 C 
BRANCH   5   6
ATOM      6  C   UNL     1      33.912   9.530   2.077  1.00  0.00     0.136 C 
BRANCH   6   7
ATOM      7  C   UNL     1      34.449  10.936   1.944  1.00  0.00    -0.004 C 
ATOM      8  C   UNL     1      33.756  12.000   2.358  1.00  0.00     0.007 C 
ENDBRANCH   6   7
BRANCH   6   9
ATOM      9  O   UNL     1      33.834   8.946   0.804  1.00  0.00    -0.389 OA
ATOM     10  H   UNL     1      34.165   8.014   0.896  1.00  0.00     0.211 HD
ENDBRANCH   6   9
ENDBRANCH   5   6
ENDBRANCH   1   5
TORSDOF 6
ENDMDL
MODEL 7
REMARK VINA RESULT:    -3.765      8.234      8.983
REMARK INTER + INTRA:          -5.213
REMARK INTER:                  -4.897
REMARK INTRA:                  -0.316
REMARK UNBOUND:                -0.238
REMARK SMILES C=C[C@@H](O)CCCCC
REMARK SMILES IDX 6 1 7 2 8 3 9 4 5 5 3 6 2 7 1 8 4 9
REMARK H PARENT 4 10
REMARK Flexibility Score: inf
ROOT
ATOM      1  C   UNL     1      35.581  10.445   4.351  1.00  0.00     0.003 C 
ENDROOT
BRANCH   1   2
ATOM      2  C   UNL     1      34.426  11.244   3.726  1.00  0.00    -0.000 C 
BRANCH   2   3
ATOM      3  C   UNL     1      34.403  11.146   2.193  1.00  0.00    -0.003 C 
ATOM      4  C   UNL     1      33.046  10.653   1.696  1.00  0.00     0.004 C 
ENDBRANCH   2   3
ENDBRANCH   1   2
BRANCH   1   5
ATOM      5  C   UNL     1      35.090   9.233   5.164  1.00  0.00     0.036 C 
BRANCH   5   6
ATOM      6  C   UNL     1      34.498   8.134   4.268  1.00  0.00     0.136 C 
BRANCH   6   7
ATOM      7  C   UNL     1      35.350   6.888   4.318  1.00  0.00    -0.004 C 
ATOM      8  C   UNL     1      36.525   6.810   3.687  1.00  0.00     0.007 C 
ENDBRANCH   6   7
BRANCH   6   9
ATOM      9  O   UNL     1      33.208   7.825   4.726  1.00  0.00    -0.389 OA
ATOM     10  H   UNL     1      33.220   7.938   5.714  1.00  0.00     0.211 HD
ENDBRANCH   6   9
ENDBRANCH   5   6
ENDBRANCH   1   5
TORSDOF 6
ENDMDL
MODEL 8
REMARK VINA RESULT:    -3.739      8.571      9.374
REMARK INTER + INTRA:          -5.179
REMARK INTER:                  -4.952
REMARK INTRA:                  -0.227
REMARK UNBOUND:                -0.238
REMARK SMILES C=C[C@@H](O)CCCCC
REMARK SMILES IDX 6 1 7 2 8 3 9 4 5 5 3 6 2 7 1 8 4 9
REMARK H PARENT 4 10
REMARK Flexibility Score: inf
ROOT
ATOM      1  C   UNL     1      34.756   9.416   3.629  1.00  0.00     0.003 C 
ENDROOT
BRANCH   1   2
ATOM      2  C   UNL     1      34.184   9.818   2.260  1.00  0.00    -0.000 C 
BRANCH   2   3
ATOM      3  C   UNL     1      34.193  11.338   2.041  1.00  0.00    -0.003 C 
ATOM      4  C   UNL     1      33.593  12.069   3.239  1.00  0.00     0.004 C 
ENDBRANCH   2   3
ENDBRANCH   1   2
BRANCH   1   5
ATOM      5  C   UNL     1      35.250   7.958   3.660  1.00  0.00     0.036 C 
BRANCH   5   6
ATOM      6  C   UNL     1      34.618   7.155   4.808  1.00  0.00     0.136 C 
BRANCH   6   7
ATOM      7  C   UNL     1      34.544   7.990   6.065  1.00  0.00    -0.004 C 
ATOM      8  C   UNL     1      35.188   7.642   7.183  1.00  0.00     0.007 C 
ENDBRANCH   6   7
BRANCH   6   9
ATOM      9  O   UNL     1      33.320   6.777   4.432  1.00  0.00    -0.389 OA
ATOM     10  H   UNL     1      32.961   7.511   3.865  1.00  0.00     0.211 HD
ENDBRANCH   6   9
ENDBRANCH   5   6
ENDBRANCH   1   5
TORSDOF 6
ENDMDL
MODEL 9
REMARK VINA RESULT:    -3.648      8.316      9.574
REMARK INTER + INTRA:          -5.058
REMARK INTER:                  -4.588
REMARK INTRA:                  -0.470
REMARK UNBOUND:                -0.238
REMARK SMILES C=C[C@@H](O)CCCCC
REMARK SMILES IDX 6 1 7 2 8 3 9 4 5 5 3 6 2 7 1 8 4 9
REMARK H PARENT 4 10
REMARK Flexibility Score: inf
ROOT
ATOM      1  C   UNL     1      35.092   9.809   5.472  1.00  0.00     0.003 C 
ENDROOT
BRANCH   1   2
ATOM      2  C   UNL     1      34.596   8.468   4.906  1.00  0.00    -0.000 C 
BRANCH   2   3
ATOM      3  C   UNL     1      35.220   8.137   3.542  1.00  0.00    -0.003 C 
ATOM      4  C   UNL     1      36.288   7.054   3.675  1.00  0.00     0.004 C 
ENDBRANCH   2   3
ENDBRANCH   1   2
BRANCH   1   5
ATOM      5  C   UNL     1      35.429  10.829   4.369  1.00  0.00     0.036 C 
BRANCH   5   6
ATOM      6  C   UNL     1      34.456  12.019   4.361  1.00  0.00     0.136 C 
BRANCH   6   7
ATOM      7  C   UNL     1      33.594  11.993   3.121  1.00  0.00    -0.004 C 
ATOM      8  C   UNL     1      33.940  11.300   2.033  1.00  0.00     0.007 C 
ENDBRANCH   6   7
BRANCH   6   9
ATOM      9  O   UNL     1      33.633  11.935   5.494  1.00  0.00    -0.389 OA
ATOM     10  H   UNL     1      32.881  11.330   5.257  1.00  0.00     0.211 HD
ENDBRANCH   6   9
ENDBRANCH   5   6
ENDBRANCH   1   5
TORSDOF 6
ENDMDL
