MODEL 1
REMARK VINA RESULT:    -3.503      0.000      0.000
REMARK INTER + INTRA:          -5.568
REMARK INTER:                  -5.346
REMARK INTRA:                  -0.222
REMARK UNBOUND:                -0.222
REMARK SMILES CC1=CCC[C@@H](C)C(=O)C[C@H](C(C)C)C(=O)C1
REMARK SMILES IDX 8 1 9 2 6 3 7 4 5 5 4 6 3 7 2 8 1 9 10 11 11 12 15 13 16 14
REMARK SMILES IDX 17 15 12 17 13 18 14 19
REMARK H PARENT
REMARK Flexibility Score: 70.00
ROOT
ATOM      1  C   UNL     1     -13.551   3.540  32.982  1.00  0.00     0.136 C 
ATOM      2  O   UNL     1     -12.599   4.175  33.414  1.00  0.00    -0.299 OA
ENDROOT
BRANCH   1   3
ATOM      3  C   UNL     1     -13.367   2.100  32.546  1.00  0.00     0.053 C 
ATOM      4  C   UNL     1     -12.850   1.279  33.732  1.00  0.00     0.016 C 
BRANCH   3   5
ATOM      5  C   UNL     1     -12.411   1.953  31.338  1.00  0.00     0.015 C 
BRANCH   5   6
ATOM      6  C   UNL     1     -12.718   2.922  30.182  1.00  0.00     0.028 C 
BRANCH   6   7
ATOM      7  C   UNL     1     -13.935   2.481  29.402  1.00  0.00    -0.028 C 
ATOM      8  C   UNL     1     -14.975   3.274  29.056  1.00  0.00    -0.070 CG0
ATOM      9  C   UNL     1     -16.095   2.663  28.253  1.00  0.00     0.039 C 
ATOM     10  G   UNL     1     -15.064   4.735  29.449  1.00  0.00     0.000 G0
ENDBRANCH   6   7
ENDBRANCH   5   6
ENDBRANCH   3   5
ENDBRANCH   1   3
BRANCH   1  11
ATOM     11  C   UNL     1     -14.918   4.180  32.969  1.00  0.00     0.087 C 
BRANCH  11  12
ATOM     12  C   UNL     1     -15.000   5.383  31.997  1.00  0.00     0.066 C 
BRANCH  12  13
ATOM     13  C   UNL     1     -15.769   4.977  30.751  1.00  0.00     0.140 C 
ATOM     14  O   UNL     1     -16.989   4.894  30.796  1.00  0.00    -0.299 OA
BRANCH  13  15
ATOM     15  C   UNL     1     -15.071   4.744  29.434  1.00  0.00     0.106 CG0
ATOM     16  G   UNL     1     -14.967   3.271  29.090  1.00  0.00     0.000 G0
ENDBRANCH  13  15
ENDBRANCH  12  13
BRANCH  12  17
ATOM     17  C   UNL     1     -15.663   6.632  32.662  1.00  0.00    -0.006 C 
ATOM     18  C   UNL     1     -14.673   7.808  32.756  1.00  0.00     0.008 C 
ATOM     19  C   UNL     1     -16.202   6.325  34.072  1.00  0.00     0.008 C 
ENDBRANCH  12  17
ENDBRANCH  11  12
ENDBRANCH   1  11
TORSDOF 1
ENDMDL
MODEL 2
REMARK VINA RESULT:    -3.456      4.403      6.251
REMARK INTER + INTRA:          -5.497
REMARK INTER:                  -5.377
REMARK INTRA:                  -0.120
REMARK UNBOUND:                -0.222
REMARK SMILES CC1=CCC[C@@H](C)C(=O)C[C@H](C(C)C)C(=O)C1
REMARK SMILES IDX 8 1 9 2 6 3 7 4 5 5 4 6 3 7 2 8 1 9 10 11 11 12 15 13 16 14
REMARK SMILES IDX 17 15 12 17 13 18 14 19
REMARK H PARENT
REMARK Flexibility Score: 70.00
ROOT
ATOM      1  C   UNL     1     -15.736   8.586  31.673  1.00  0.00     0.136 C 
ATOM      2  O   UNL     1     -16.691   9.189  32.143  1.00  0.00    -0.299 OA
ENDROOT
BRANCH   1   3
ATOM      3  C   UNL     1     -15.275   7.287  32.304  1.00  0.00     0.053 C 
ATOM      4  C   UNL     1     -16.481   6.573  32.921  1.00  0.00     0.016 C 
BRANCH   3   5
ATOM      5  C   UNL     1     -14.172   7.494  33.370  1.00  0.00     0.015 C 
BRANCH   5   6
ATOM      6  C   UNL     1     -12.874   6.720  33.080  1.00  0.00     0.028 C 
BRANCH   6   7
ATOM      7  C   UNL     1     -11.685   7.649  32.996  1.00  0.00    -0.028 C 
ATOM      8  C   UNL     1     -11.337   8.382  31.914  1.00  0.00    -0.070 CG0
ATOM      9  C   UNL     1     -10.128   9.276  32.022  1.00  0.00     0.039 C 
ATOM     10  G   UNL     1     -12.099   8.332  30.604  1.00  0.00     0.000 G0
ENDBRANCH   6   7
ENDBRANCH   5   6
ENDBRANCH   3   5
ENDBRANCH   1   3
BRANCH   1  11
ATOM     11  C   UNL     1     -15.083   9.107  30.415  1.00  0.00     0.087 C 
BRANCH  11  12
ATOM     12  C   UNL     1     -14.002  10.176  30.708  1.00  0.00     0.066 C 
BRANCH  12  13
ATOM     13  C   UNL     1     -12.656   9.690  30.195  1.00  0.00     0.140 C 
ATOM     14  O   UNL     1     -11.978  10.427  29.491  1.00  0.00    -0.299 OA
BRANCH  13  15
ATOM     15  C   UNL     1     -12.098   8.346  30.593  1.00  0.00     0.106 CG0
ATOM     16  G   UNL     1     -11.367   8.397  31.920  1.00  0.00     0.000 G0
ENDBRANCH  13  15
ENDBRANCH  12  13
BRANCH  12  17
ATOM     17  C   UNL     1     -14.357  11.560  30.075  1.00  0.00    -0.006 C 
ATOM     18  C   UNL     1     -14.236  12.696  31.109  1.00  0.00     0.008 C 
ATOM     19  C   UNL     1     -15.778  11.582  29.480  1.00  0.00     0.008 C 
ENDBRANCH  12  17
ENDBRANCH  11  12
ENDBRANCH   1  11
TORSDOF 1
ENDMDL
MODEL 3
REMARK VINA RESULT:    -3.396     10.750     13.204
REMARK INTER + INTRA:          -5.406
REMARK INTER:                  -5.212
REMARK INTRA:                  -0.194
REMARK UNBOUND:                -0.222
REMARK SMILES CC1=CCC[C@@H](C)C(=O)C[C@H](C(C)C)C(=O)C1
REMARK SMILES IDX 8 1 9 2 6 3 7 4 5 5 4 6 3 7 2 8 1 9 10 11 11 12 15 13 16 14
REMARK SMILES IDX 17 15 12 17 13 18 14 19
REMARK H PARENT
REMARK Flexibility Score: 70.00
ROOT
ATOM      1  C   UNL     1      -3.609  -0.391  29.838  1.00  0.00     0.136 C 
ATOM      2  O   UNL     1      -4.205  -1.279  29.243  1.00  0.00    -0.299 OA
ENDROOT
BRANCH   1   3
ATOM      3  C   UNL     1      -4.287   0.346  30.976  1.00  0.00     0.053 C 
ATOM      4  C   UNL     1      -5.213  -0.621  31.719  1.00  0.00     0.016 C 
BRANCH   3   5
ATOM      5  C   UNL     1      -5.079   1.589  30.502  1.00  0.00     0.015 C 
BRANCH   5   6
ATOM      6  C   UNL     1      -4.625   2.903  31.161  1.00  0.00     0.028 C 
BRANCH   6   7
ATOM      7  C   UNL     1      -3.431   2.686  32.060  1.00  0.00    -0.028 C 
ATOM      8  C   UNL     1      -2.139   2.885  31.712  1.00  0.00    -0.070 CG0
ATOM      9  C   UNL     1      -1.078   2.638  32.754  1.00  0.00     0.039 C 
ATOM     10  G   UNL     1      -1.718   3.330  30.325  1.00  0.00     0.000 G0
ENDBRANCH   6   7
ENDBRANCH   5   6
ENDBRANCH   3   5
ENDBRANCH   1   3
BRANCH   1  11
ATOM     11  C   UNL     1      -2.171  -0.102  29.480  1.00  0.00     0.087 C 
BRANCH  11  12
ATOM     12  C   UNL     1      -2.007   1.238  28.722  1.00  0.00     0.066 C 
BRANCH  12  13
ATOM     13  C   UNL     1      -1.124   2.174  29.531  1.00  0.00     0.140 C 
ATOM     14  O   UNL     1       0.092   2.041  29.489  1.00  0.00    -0.299 OA
BRANCH  13  15
ATOM     15  C   UNL     1      -1.706   3.315  30.328  1.00  0.00     0.106 CG0
ATOM     16  G   UNL     1      -2.141   2.885  31.715  1.00  0.00     0.000 G0
ENDBRANCH  13  15
ENDBRANCH  12  13
BRANCH  12  17
ATOM     17  C   UNL     1      -1.416   1.035  27.289  1.00  0.00    -0.006 C 
ATOM     18  C   UNL     1      -2.145   1.912  26.254  1.00  0.00     0.008 C 
ATOM     19  C   UNL     1      -1.487  -0.434  26.832  1.00  0.00     0.008 C 
ENDBRANCH  12  17
ENDBRANCH  11  12
ENDBRANCH   1  11
TORSDOF 1
ENDMDL
MODEL 4
REMARK VINA RESULT:    -3.317      3.863      6.584
REMARK INTER + INTRA:          -5.284
REMARK INTER:                  -5.274
REMARK INTRA:                  -0.011
REMARK UNBOUND:                -0.222
REMARK SMILES CC1=CCC[C@@H](C)C(=O)C[C@H](C(C)C)C(=O)C1
REMARK SMILES IDX 8 1 9 2 6 3 7 4 5 5 4 6 3 7 2 8 1 9 10 11 11 12 15 13 16 14
REMARK SMILES IDX 17 15 12 17 13 18 14 19
REMARK H PARENT
REMARK Flexibility Score: 70.00
ROOT
ATOM      1  C   UNL     1     -14.922  11.078  30.775  1.00  0.00     0.136 C 
ATOM      2  O   UNL     1     -14.662  12.188  31.217  1.00  0.00    -0.299 OA
ENDROOT
BRANCH   1   3
ATOM      3  C   UNL     1     -16.338  10.543  30.854  1.00  0.00     0.053 C 
ATOM      4  C   UNL     1     -16.988  11.032  32.151  1.00  0.00     0.016 C 
BRANCH   3   5
ATOM      5  C   UNL     1     -16.405   8.999  30.771  1.00  0.00     0.015 C 
BRANCH   5   6
ATOM      6  C   UNL     1     -16.141   8.292  32.113  1.00  0.00     0.028 C 
BRANCH   6   7
ATOM      7  C   UNL     1     -15.618   6.891  31.905  1.00  0.00    -0.028 C 
ATOM      8  C   UNL     1     -14.322   6.514  32.000  1.00  0.00    -0.070 CG0
ATOM      9  C   UNL     1     -13.989   5.060  31.783  1.00  0.00     0.039 C 
ATOM     10  G   UNL     1     -13.201   7.488  32.303  1.00  0.00     0.000 G0
ENDBRANCH   6   7
ENDBRANCH   5   6
ENDBRANCH   3   5
ENDBRANCH   1   3
BRANCH   1  11
ATOM     11  C   UNL     1     -13.838  10.290  30.079  1.00  0.00     0.087 C 
BRANCH  11  12
ATOM     12  C   UNL     1     -12.748   9.789  31.058  1.00  0.00     0.066 C 
BRANCH  12  13
ATOM     13  C   UNL     1     -12.744   8.269  31.079  1.00  0.00     0.140 C 
ATOM     14  O   UNL     1     -12.318   7.655  30.111  1.00  0.00    -0.299 OA
BRANCH  13  15
ATOM     15  C   UNL     1     -13.185   7.496  32.297  1.00  0.00     0.106 CG0
ATOM     16  G   UNL     1     -14.322   6.541  31.992  1.00  0.00     0.000 G0
ENDBRANCH  13  15
ENDBRANCH  12  13
BRANCH  12  17
ATOM     17  C   UNL     1     -11.330  10.331  30.687  1.00  0.00    -0.006 C 
ATOM     18  C   UNL     1     -10.266   9.849  31.691  1.00  0.00     0.008 C 
ATOM     19  C   UNL     1     -11.292  11.870  30.624  1.00  0.00     0.008 C 
ENDBRANCH  12  17
ENDBRANCH  11  12
ENDBRANCH   1  11
TORSDOF 1
ENDMDL
MODEL 5
REMARK VINA RESULT:    -3.312      3.880      5.982
REMARK INTER + INTRA:          -5.277
REMARK INTER:                  -4.988
REMARK INTRA:                  -0.289
REMARK UNBOUND:                -0.222
REMARK SMILES CC1=CCC[C@@H](C)C(=O)C[C@H](C(C)C)C(=O)C1
REMARK SMILES IDX 8 1 9 2 6 3 7 4 5 5 4 6 3 7 2 8 1 9 10 11 11 12 15 13 16 14
REMARK SMILES IDX 17 15 12 17 13 18 14 19
REMARK H PARENT
REMARK Flexibility Score: 70.00
ROOT
ATOM      1  C   UNL     1     -13.257   8.566  30.153  1.00  0.00     0.136 C 
ATOM      2  O   UNL     1     -12.930   9.679  29.764  1.00  0.00    -0.299 OA
ENDROOT
BRANCH   1   3
ATOM      3  C   UNL     1     -14.589   7.978  29.732  1.00  0.00     0.053 C 
ATOM      4  C   UNL     1     -14.693   8.010  28.205  1.00  0.00     0.016 C 
BRANCH   3   5
ATOM      5  C   UNL     1     -15.798   8.709  30.366  1.00  0.00     0.015 C 
BRANCH   5   6
ATOM      6  C   UNL     1     -15.852   8.605  31.900  1.00  0.00     0.028 C 
BRANCH   6   7
ATOM      7  C   UNL     1     -15.998   7.171  32.351  1.00  0.00    -0.028 C 
ATOM      8  C   UNL     1     -15.256   6.569  33.308  1.00  0.00    -0.070 CG0
ATOM      9  C   UNL     1     -15.562   5.132  33.644  1.00  0.00     0.039 C 
ATOM     10  G   UNL     1     -14.131   7.272  34.043  1.00  0.00     0.000 G0
ENDBRANCH   6   7
ENDBRANCH   5   6
ENDBRANCH   3   5
ENDBRANCH   1   3
BRANCH   1  11
ATOM     11  C   UNL     1     -12.285   7.760  30.981  1.00  0.00     0.087 C 
BRANCH  11  12
ATOM     12  C   UNL     1     -12.246   8.218  32.460  1.00  0.00     0.066 C 
BRANCH  12  13
ATOM     13  C   UNL     1     -12.795   7.113  33.348  1.00  0.00     0.140 C 
ATOM     14  O   UNL     1     -12.124   6.109  33.543  1.00  0.00    -0.299 OA
BRANCH  13  15
ATOM     15  C   UNL     1     -14.119   7.256  34.057  1.00  0.00     0.106 CG0
ATOM     16  G   UNL     1     -15.249   6.580  33.306  1.00  0.00     0.000 G0
ENDBRANCH  13  15
ENDBRANCH  12  13
BRANCH  12  17
ATOM     17  C   UNL     1     -10.805   8.615  32.915  1.00  0.00    -0.006 C 
ATOM     18  C   UNL     1     -10.803   9.167  34.353  1.00  0.00     0.008 C 
ATOM     19  C   UNL     1     -10.167   9.662  31.982  1.00  0.00     0.008 C 
ENDBRANCH  12  17
ENDBRANCH  11  12
ENDBRANCH   1  11
TORSDOF 1
ENDMDL
MODEL 6
REMARK VINA RESULT:    -3.307      1.872      4.169
REMARK INTER + INTRA:          -5.270
REMARK INTER:                  -5.228
REMARK INTRA:                  -0.042
REMARK UNBOUND:                -0.222
REMARK SMILES CC1=CCC[C@@H](C)C(=O)C[C@H](C(C)C)C(=O)C1
REMARK SMILES IDX 8 1 9 2 6 3 7 4 5 5 4 6 3 7 2 8 1 9 10 11 11 12 15 13 16 14
REMARK SMILES IDX 17 15 12 17 13 18 14 19
REMARK H PARENT
REMARK Flexibility Score: 70.00
ROOT
ATOM      1  C   UNL     1     -13.544   1.876  29.910  1.00  0.00     0.136 C 
ATOM      2  O   UNL     1     -13.961   1.064  29.096  1.00  0.00    -0.299 OA
ENDROOT
BRANCH   1   3
ATOM      3  C   UNL     1     -12.888   1.398  31.190  1.00  0.00     0.053 C 
ATOM      4  C   UNL     1     -13.018  -0.125  31.282  1.00  0.00     0.016 C 
BRANCH   3   5
ATOM      5  C   UNL     1     -13.480   2.063  32.456  1.00  0.00     0.015 C 
BRANCH   5   6
ATOM      6  C   UNL     1     -12.757   3.355  32.875  1.00  0.00     0.028 C 
BRANCH   6   7
ATOM      7  C   UNL     1     -13.726   4.374  33.428  1.00  0.00    -0.028 C 
ATOM      8  C   UNL     1     -14.286   5.385  32.728  1.00  0.00    -0.070 CG0
ATOM      9  C   UNL     1     -15.254   6.293  33.444  1.00  0.00     0.039 C 
ATOM     10  G   UNL     1     -13.976   5.648  31.267  1.00  0.00     0.000 G0
ENDBRANCH   6   7
ENDBRANCH   5   6
ENDBRANCH   3   5
ENDBRANCH   1   3
BRANCH   1  11
ATOM     11  C   UNL     1     -13.616   3.349  29.585  1.00  0.00     0.087 C 
BRANCH  11  12
ATOM     12  C   UNL     1     -15.065   3.895  29.625  1.00  0.00     0.066 C 
BRANCH  12  13
ATOM     13  C   UNL     1     -15.081   5.240  30.333  1.00  0.00     0.140 C 
ATOM     14  O   UNL     1     -16.043   5.983  30.192  1.00  0.00    -0.299 OA
BRANCH  13  15
ATOM     15  C   UNL     1     -13.971   5.652  31.268  1.00  0.00     0.106 CG0
ATOM     16  G   UNL     1     -14.310   5.377  32.720  1.00  0.00     0.000 G0
ENDBRANCH  13  15
ENDBRANCH  12  13
BRANCH  12  17
ATOM     17  C   UNL     1     -15.685   4.025  28.196  1.00  0.00    -0.006 C 
ATOM     18  C   UNL     1     -16.799   2.986  27.973  1.00  0.00     0.008 C 
ATOM     19  C   UNL     1     -14.628   3.866  27.086  1.00  0.00     0.008 C 
ENDBRANCH  12  17
ENDBRANCH  11  12
ENDBRANCH   1  11
TORSDOF 1
ENDMDL
MODEL 7
REMARK VINA RESULT:    -3.298      4.865      6.441
REMARK INTER + INTRA:          -5.255
REMARK INTER:                  -4.949
REMARK INTRA:                  -0.307
REMARK UNBOUND:                -0.222
REMARK SMILES CC1=CCC[C@@H](C)C(=O)C[C@H](C(C)C)C(=O)C1
REMARK SMILES IDX 8 1 9 2 6 3 7 4 5 5 4 6 3 7 2 8 1 9 10 11 11 12 15 13 16 14
REMARK SMILES IDX 17 15 12 17 13 18 14 19
REMARK H PARENT
REMARK Flexibility Score: 70.00
ROOT
ATOM      1  C   UNL     1     -13.097   7.505  32.921  1.00  0.00     0.136 C 
ATOM      2  O   UNL     1     -14.027   7.235  33.668  1.00  0.00    -0.299 OA
ENDROOT
BRANCH   1   3
ATOM      3  C   UNL     1     -11.669   7.383  33.413  1.00  0.00     0.053 C 
ATOM      4  C   UNL     1     -11.489   6.027  34.101  1.00  0.00     0.016 C 
BRANCH   3   5
ATOM      5  C   UNL     1     -11.262   8.528  34.372  1.00  0.00     0.015 C 
BRANCH   5   6
ATOM      6  C   UNL     1     -10.431   9.636  33.701  1.00  0.00     0.028 C 
BRANCH   6   7
ATOM      7  C   UNL     1      -9.545   9.078  32.612  1.00  0.00    -0.028 C 
ATOM      8  C   UNL     1      -9.647   9.362  31.294  1.00  0.00    -0.070 CG0
ATOM      9  C   UNL     1      -8.655   8.728  30.353  1.00  0.00     0.039 C 
ATOM     10  G   UNL     1     -10.716  10.276  30.728  1.00  0.00     0.000 G0
ENDBRANCH   6   7
ENDBRANCH   5   6
ENDBRANCH   3   5
ENDBRANCH   1   3
BRANCH   1  11
ATOM     11  C   UNL     1     -13.389   7.876  31.486  1.00  0.00     0.087 C 
BRANCH  11  12
ATOM     12  C   UNL     1     -13.153   9.381  31.204  1.00  0.00     0.066 C 
BRANCH  12  13
ATOM     13  C   UNL     1     -11.955   9.542  30.282  1.00  0.00     0.140 C 
ATOM     14  O   UNL     1     -12.014   9.112  29.138  1.00  0.00    -0.299 OA
BRANCH  13  15
ATOM     15  C   UNL     1     -10.718  10.287  30.718  1.00  0.00     0.106 CG0
ATOM     16  G   UNL     1      -9.661   9.363  31.289  1.00  0.00     0.000 G0
ENDBRANCH  13  15
ENDBRANCH  12  13
BRANCH  12  17
ATOM     17  C   UNL     1     -14.412  10.068  30.585  1.00  0.00    -0.006 C 
ATOM     18  C   UNL     1     -14.239  11.597  30.516  1.00  0.00     0.008 C 
ATOM     19  C   UNL     1     -15.697   9.750  31.373  1.00  0.00     0.008 C 
ENDBRANCH  12  17
ENDBRANCH  11  12
ENDBRANCH   1  11
TORSDOF 1
ENDMDL
MODEL 8
REMARK VINA RESULT:    -3.221      2.267      5.150
REMARK INTER + INTRA:          -5.138
REMARK INTER:                  -4.894
REMARK INTRA:                  -0.244
REMARK UNBOUND:                -0.222
REMARK SMILES CC1=CCC[C@@H](C)C(=O)C[C@H](C(C)C)C(=O)C1
REMARK SMILES IDX 8 1 9 2 6 3 7 4 5 5 4 6 3 7 2 8 1 9 10 11 11 12 15 13 16 14
REMARK SMILES IDX 17 15 12 17 13 18 14 19
REMARK H PARENT
REMARK Flexibility Score: 70.00
ROOT
ATOM      1  C   UNL     1     -16.388   4.482  29.306  1.00  0.00     0.136 C 
ATOM      2  O   UNL     1     -17.064   5.387  28.837  1.00  0.00    -0.299 OA
ENDROOT
BRANCH   1   3
ATOM      3  C   UNL     1     -15.807   4.614  30.700  1.00  0.00     0.053 C 
ATOM      4  C   UNL     1     -16.919   5.020  31.671  1.00  0.00     0.016 C 
BRANCH   3   5
ATOM      5  C   UNL     1     -14.639   5.627  30.772  1.00  0.00     0.015 C 
BRANCH   5   6
ATOM      6  C   UNL     1     -13.254   4.970  30.914  1.00  0.00     0.028 C 
BRANCH   6   7
ATOM      7  C   UNL     1     -13.340   3.660  31.661  1.00  0.00    -0.028 C 
ATOM      8  C   UNL     1     -13.154   2.434  31.121  1.00  0.00    -0.070 CG0
ATOM      9  C   UNL     1     -13.255   1.236  32.030  1.00  0.00     0.039 C 
ATOM     10  G   UNL     1     -12.860   2.217  29.650  1.00  0.00     0.000 G0
ENDBRANCH   6   7
ENDBRANCH   5   6
ENDBRANCH   3   5
ENDBRANCH   1   3
BRANCH   1  11
ATOM     11  C   UNL     1     -16.214   3.207  28.516  1.00  0.00     0.087 C 
BRANCH  11  12
ATOM     12  C   UNL     1     -14.763   3.018  28.009  1.00  0.00     0.066 C 
BRANCH  12  13
ATOM     13  C   UNL     1     -14.080   1.930  28.821  1.00  0.00     0.140 C 
ATOM     14  O   UNL     1     -14.502   0.782  28.766  1.00  0.00    -0.299 OA
BRANCH  13  15
ATOM     15  C   UNL     1     -12.844   2.214  29.639  1.00  0.00     0.106 CG0
ATOM     16  G   UNL     1     -13.162   2.430  31.106  1.00  0.00     0.000 G0
ENDBRANCH  13  15
ENDBRANCH  12  13
BRANCH  12  17
ATOM     17  C   UNL     1     -14.712   2.672  26.486  1.00  0.00    -0.006 C 
ATOM     18  C   UNL     1     -13.272   2.744  25.943  1.00  0.00     0.008 C 
ATOM     19  C   UNL     1     -15.605   3.605  25.646  1.00  0.00     0.008 C 
ENDBRANCH  12  17
ENDBRANCH  11  12
ENDBRANCH   1  11
TORSDOF 1
ENDMDL
MODEL 9
REMARK VINA RESULT:    -3.205      4.571      6.567
REMARK INTER + INTRA:          -5.113
REMARK INTER:                  -4.902
REMARK INTRA:                  -0.211
REMARK UNBOUND:                -0.222
REMARK SMILES CC1=CCC[C@@H](C)C(=O)C[C@H](C(C)C)C(=O)C1
REMARK SMILES IDX 8 1 9 2 6 3 7 4 5 5 4 6 3 7 2 8 1 9 10 11 11 12 15 13 16 14
REMARK SMILES IDX 17 15 12 17 13 18 14 19
REMARK H PARENT
REMARK Flexibility Score: 70.00
ROOT
ATOM      1  C   UNL     1     -10.785   9.463  31.032  1.00  0.00     0.136 C 
ATOM      2  O   UNL     1      -9.675   9.659  31.508  1.00  0.00    -0.299 OA
ENDROOT
BRANCH   1   3
ATOM      3  C   UNL     1     -11.430  10.518  30.155  1.00  0.00     0.053 C 
ATOM      4  C   UNL     1     -10.372  11.107  29.218  1.00  0.00     0.016 C 
BRANCH   3   5
ATOM      5  C   UNL     1     -12.109  11.645  30.970  1.00  0.00     0.015 C 
BRANCH   5   6
ATOM      6  C   UNL     1     -13.623  11.766  30.722  1.00  0.00     0.028 C 
BRANCH   6   7
ATOM      7  C   UNL     1     -14.100  10.746  29.715  1.00  0.00    -0.028 C 
ATOM      8  C   UNL     1     -14.653   9.548  30.012  1.00  0.00    -0.070 CG0
ATOM      9  C   UNL     1     -15.094   8.668  28.870  1.00  0.00     0.039 C 
ATOM     10  G   UNL     1     -14.838   9.055  31.433  1.00  0.00     0.000 G0
ENDBRANCH   6   7
ENDBRANCH   5   6
ENDBRANCH   3   5
ENDBRANCH   1   3
BRANCH   1  11
ATOM     11  C   UNL     1     -11.459   8.131  31.258  1.00  0.00     0.087 C 
BRANCH  11  12
ATOM     12  C   UNL     1     -12.522   8.189  32.383  1.00  0.00     0.066 C 
BRANCH  12  13
ATOM     13  C   UNL     1     -13.898   7.922  31.795  1.00  0.00     0.140 C 
ATOM     14  O   UNL     1     -14.281   6.767  31.660  1.00  0.00    -0.299 OA
BRANCH  13  15
ATOM     15  C   UNL     1     -14.837   9.048  31.441  1.00  0.00     0.106 CG0
ATOM     16  G   UNL     1     -14.640   9.537  30.020  1.00  0.00     0.000 G0
ENDBRANCH  13  15
ENDBRANCH  12  13
BRANCH  12  17
ATOM     17  C   UNL     1     -12.217   7.177  33.534  1.00  0.00    -0.006 C 
ATOM     18  C   UNL     1     -12.510   7.794  34.914  1.00  0.00     0.008 C 
ATOM     19  C   UNL     1     -10.755   6.690  33.509  1.00  0.00     0.008 C 
ENDBRANCH  12  17
ENDBRANCH  11  12
ENDBRANCH   1  11
TORSDOF 1
ENDMDL
