MODEL 1
REMARK VINA RESULT:    -3.669      0.000      0.000
REMARK INTER + INTRA:          -9.087
REMARK INTER:                  -6.673
REMARK INTRA:                  -2.415
REMARK UNBOUND:                -2.415
REMARK SMILES CCCCCCCCCCCCCCCC(=O)[O-]
REMARK SMILES IDX 9 1 10 2 11 3 12 4 13 5 14 6 15 7 16 8 17 9 18 10 8 11 7 12
REMARK SMILES IDX 6 13 5 14 4 15 3 16 2 17 1 18
REMARK H PARENT
REMARK Flexibility Score: inf
ROOT
ATOM      1  C   UNL     1      -2.793   6.761  39.742  1.00  0.00     0.000 C 
ENDROOT
BRANCH   1   2
ATOM      2  C   UNL     1      -2.150   7.587  38.621  1.00  0.00     0.000 C 
BRANCH   2   3
ATOM      3  C   UNL     1      -2.473   9.079  38.785  1.00  0.00     0.000 C 
BRANCH   3   4
ATOM      4  C   UNL     1      -1.749   9.960  37.752  1.00  0.00     0.000 C 
BRANCH   4   5
ATOM      5  C   UNL     1      -1.683   9.306  36.362  1.00  0.00     0.000 C 
BRANCH   5   6
ATOM      6  C   UNL     1      -0.331   9.528  35.659  1.00  0.00     0.006 C 
BRANCH   6   7
ATOM      7  C   UNL     1       0.172   8.307  34.869  1.00  0.00     0.053 C 
BRANCH   7   8
ATOM      8  C   UNL     1      -0.037   7.017  35.601  1.00  0.00     0.041 C 
ATOM      9  O   UNL     1       0.665   6.737  36.608  1.00  0.00    -0.550 OA
ATOM     10  O   UNL     1      -1.023   6.132  35.182  1.00  0.00    -0.550 OA
ENDBRANCH   7   8
ENDBRANCH   6   7
ENDBRANCH   5   6
ENDBRANCH   4   5
ENDBRANCH   3   4
ENDBRANCH   2   3
ENDBRANCH   1   2
BRANCH   1  11
ATOM     11  C   UNL     1      -3.069   7.628  40.977  1.00  0.00     0.000 C 
BRANCH  11  12
ATOM     12  C   UNL     1      -2.194   7.196  42.161  1.00  0.00    -0.000 C 
BRANCH  12  13
ATOM     13  C   UNL     1      -1.477   8.403  42.783  1.00  0.00    -0.000 C 
BRANCH  13  14
ATOM     14  C   UNL     1      -0.213   8.809  42.006  1.00  0.00    -0.000 C 
BRANCH  14  15
ATOM     15  C   UNL     1       0.565   7.595  41.469  1.00  0.00    -0.000 C 
BRANCH  15  16
ATOM     16  C   UNL     1       1.157   7.835  40.068  1.00  0.00    -0.000 C 
BRANCH  16  17
ATOM     17  C   UNL     1       1.192   9.307  39.622  1.00  0.00    -0.003 C 
ATOM     18  C   UNL     1       2.004   9.528  38.346  1.00  0.00     0.004 C 
ENDBRANCH  16  17
ENDBRANCH  15  16
ENDBRANCH  14  15
ENDBRANCH  13  14
ENDBRANCH  12  13
ENDBRANCH  11  12
ENDBRANCH   1  11
TORSDOF 14
ENDMDL
MODEL 2
REMARK VINA RESULT:    -3.604      1.429      3.195
REMARK INTER + INTRA:          -8.967
REMARK INTER:                  -6.433
REMARK INTRA:                  -2.534
REMARK UNBOUND:                -2.415
REMARK SMILES CCCCCCCCCCCCCCCC(=O)[O-]
REMARK SMILES IDX 9 1 10 2 11 3 12 4 13 5 14 6 15 7 16 8 17 9 18 10 8 11 7 12
REMARK SMILES IDX 6 13 5 14 4 15 3 16 2 17 1 18
REMARK H PARENT
REMARK Flexibility Score: inf
ROOT
ATOM      1  C   UNL     1       0.743   7.904  41.374  1.00  0.00     0.000 C 
ENDROOT
BRANCH   1   2
ATOM      2  C   UNL     1       0.350   9.383  41.474  1.00  0.00     0.000 C 
BRANCH   2   3
ATOM      3  C   UNL     1       0.488  10.081  40.113  1.00  0.00     0.000 C 
BRANCH   3   4
ATOM      4  C   UNL     1      -0.713   9.822  39.188  1.00  0.00     0.000 C 
BRANCH   4   5
ATOM      5  C   UNL     1      -0.307   9.140  37.871  1.00  0.00     0.000 C 
BRANCH   5   6
ATOM      6  C   UNL     1      -1.430   9.156  36.817  1.00  0.00     0.006 C 
BRANCH   6   7
ATOM      7  C   UNL     1      -1.542   7.855  36.001  1.00  0.00     0.053 C 
BRANCH   7   8
ATOM      8  C   UNL     1      -0.271   7.508  35.288  1.00  0.00     0.041 C 
ATOM      9  O   UNL     1       0.240   6.363  35.421  1.00  0.00    -0.550 OA
ATOM     10  O   UNL     1       0.340   8.441  34.461  1.00  0.00    -0.550 OA
ENDBRANCH   7   8
ENDBRANCH   6   7
ENDBRANCH   5   6
ENDBRANCH   4   5
ENDBRANCH   3   4
ENDBRANCH   2   3
ENDBRANCH   1   2
BRANCH   1  11
ATOM     11  C   UNL     1      -0.068   7.050  42.357  1.00  0.00     0.000 C 
BRANCH  11  12
ATOM     12  C   UNL     1      -1.371   7.754  42.753  1.00  0.00    -0.000 C 
BRANCH  12  13
ATOM     13  C   UNL     1      -2.585   7.064  42.114  1.00  0.00    -0.000 C 
BRANCH  13  14
ATOM     14  C   UNL     1      -3.150   7.844  40.915  1.00  0.00    -0.000 C 
BRANCH  14  15
ATOM     15  C   UNL     1      -2.995   7.080  39.589  1.00  0.00    -0.000 C 
BRANCH  15  16
ATOM     16  C   UNL     1      -2.765   5.570  39.791  1.00  0.00    -0.000 C 
BRANCH  16  17
ATOM     17  C   UNL     1      -1.761   4.930  38.815  1.00  0.00    -0.003 C 
ATOM     18  C   UNL     1      -0.386   5.595  38.849  1.00  0.00     0.004 C 
ENDBRANCH  16  17
ENDBRANCH  15  16
ENDBRANCH  14  15
ENDBRANCH  13  14
ENDBRANCH  12  13
ENDBRANCH  11  12
ENDBRANCH   1  11
TORSDOF 14
ENDMDL
MODEL 3
REMARK VINA RESULT:    -3.600      1.650      3.387
REMARK INTER + INTRA:          -8.960
REMARK INTER:                  -6.148
REMARK INTRA:                  -2.812
REMARK UNBOUND:                -2.415
REMARK SMILES CCCCCCCCCCCCCCCC(=O)[O-]
REMARK SMILES IDX 9 1 10 2 11 3 12 4 13 5 14 6 15 7 16 8 17 9 18 10 8 11 7 12
REMARK SMILES IDX 6 13 5 14 4 15 3 16 2 17 1 18
REMARK H PARENT
REMARK Flexibility Score: inf
ROOT
ATOM      1  C   UNL     1      -3.172   6.750  39.978  1.00  0.00     0.000 C 
ENDROOT
BRANCH   1   2
ATOM      2  C   UNL     1      -2.384   5.944  38.938  1.00  0.00     0.000 C 
BRANCH   2   3
ATOM      3  C   UNL     1      -1.773   4.684  39.568  1.00  0.00     0.000 C 
BRANCH   3   4
ATOM      4  C   UNL     1      -0.418   4.306  38.946  1.00  0.00     0.000 C 
BRANCH   4   5
ATOM      5  C   UNL     1      -0.402   4.477  37.418  1.00  0.00     0.000 C 
BRANCH   5   6
ATOM      6  C   UNL     1       0.756   5.366  36.926  1.00  0.00     0.006 C 
BRANCH   6   7
ATOM      7  C   UNL     1       0.308   6.735  36.384  1.00  0.00     0.053 C 
BRANCH   7   8
ATOM      8  C   UNL     1      -0.685   6.620  35.270  1.00  0.00     0.041 C 
ATOM      9  O   UNL     1      -1.810   7.182  35.359  1.00  0.00    -0.550 OA
ATOM     10  O   UNL     1      -0.363   5.908  34.121  1.00  0.00    -0.550 OA
ENDBRANCH   7   8
ENDBRANCH   6   7
ENDBRANCH   5   6
ENDBRANCH   4   5
ENDBRANCH   3   4
ENDBRANCH   2   3
ENDBRANCH   1   2
BRANCH   1  11
ATOM     11  C   UNL     1      -2.880   8.251  39.849  1.00  0.00     0.000 C 
BRANCH  11  12
ATOM     12  C   UNL     1      -2.156   8.560  38.533  1.00  0.00    -0.000 C 
BRANCH  12  13
ATOM     13  C   UNL     1      -1.227   9.774  38.690  1.00  0.00    -0.000 C 
BRANCH  13  14
ATOM     14  C   UNL     1      -0.221   9.608  39.841  1.00  0.00    -0.000 C 
BRANCH  14  15
ATOM     15  C   UNL     1       0.902   8.611  39.504  1.00  0.00    -0.000 C 
BRANCH  15  16
ATOM     16  C   UNL     1       0.905   7.378  40.427  1.00  0.00    -0.000 C 
BRANCH  16  17
ATOM     17  C   UNL     1       0.363   7.627  41.846  1.00  0.00    -0.003 C 
ATOM     18  C   UNL     1      -0.284   6.390  42.466  1.00  0.00     0.004 C 
ENDBRANCH  16  17
ENDBRANCH  15  16
ENDBRANCH  14  15
ENDBRANCH  13  14
ENDBRANCH  12  13
ENDBRANCH  11  12
ENDBRANCH   1  11
TORSDOF 14
ENDMDL
MODEL 4
REMARK VINA RESULT:    -3.583      1.769      4.060
REMARK INTER + INTRA:          -8.930
REMARK INTER:                  -6.420
REMARK INTRA:                  -2.510
REMARK UNBOUND:                -2.415
REMARK SMILES CCCCCCCCCCCCCCCC(=O)[O-]
REMARK SMILES IDX 9 1 10 2 11 3 12 4 13 5 14 6 15 7 16 8 17 9 18 10 8 11 7 12
REMARK SMILES IDX 6 13 5 14 4 15 3 16 2 17 1 18
REMARK H PARENT
REMARK Flexibility Score: inf
ROOT
ATOM      1  C   UNL     1       1.439   8.043  39.245  1.00  0.00     0.000 C 
ENDROOT
BRANCH   1   2
ATOM      2  C   UNL     1       1.959   6.716  38.680  1.00  0.00     0.000 C 
BRANCH   2   3
ATOM      3  C   UNL     1       1.765   6.653  37.158  1.00  0.00     0.000 C 
BRANCH   3   4
ATOM      4  C   UNL     1       0.639   5.692  36.741  1.00  0.00     0.000 C 
BRANCH   4   5
ATOM      5  C   UNL     1      -0.751   6.346  36.817  1.00  0.00     0.000 C 
BRANCH   5   6
ATOM      6  C   UNL     1      -1.121   7.118  35.537  1.00  0.00     0.006 C 
BRANCH   6   7
ATOM      7  C   UNL     1      -1.190   8.645  35.724  1.00  0.00     0.053 C 
BRANCH   7   8
ATOM      8  C   UNL     1       0.123   9.319  35.468  1.00  0.00     0.041 C 
ATOM      9  O   UNL     1       0.707   9.174  34.360  1.00  0.00    -0.550 OA
ATOM     10  O   UNL     1       0.693  10.125  36.445  1.00  0.00    -0.550 OA
ENDBRANCH   7   8
ENDBRANCH   6   7
ENDBRANCH   5   6
ENDBRANCH   4   5
ENDBRANCH   3   4
ENDBRANCH   2   3
ENDBRANCH   1   2
BRANCH   1  11
ATOM     11  C   UNL     1       0.770   7.837  40.610  1.00  0.00     0.000 C 
BRANCH  11  12
ATOM     12  C   UNL     1      -0.483   8.711  40.747  1.00  0.00    -0.000 C 
BRANCH  12  13
ATOM     13  C   UNL     1      -0.938   9.237  39.378  1.00  0.00    -0.000 C 
BRANCH  13  14
ATOM     14  C   UNL     1      -2.384   8.838  39.039  1.00  0.00    -0.000 C 
BRANCH  14  15
ATOM     15  C   UNL     1      -3.000   7.901  40.093  1.00  0.00    -0.000 C 
BRANCH  15  16
ATOM     16  C   UNL     1      -3.192   6.463  39.576  1.00  0.00    -0.000 C 
BRANCH  16  17
ATOM     17  C   UNL     1      -2.667   5.360  40.513  1.00  0.00    -0.003 C 
ATOM     18  C   UNL     1      -1.341   4.760  40.048  1.00  0.00     0.004 C 
ENDBRANCH  16  17
ENDBRANCH  15  16
ENDBRANCH  14  15
ENDBRANCH  13  14
ENDBRANCH  12  13
ENDBRANCH  11  12
ENDBRANCH   1  11
TORSDOF 14
ENDMDL
MODEL 5
REMARK VINA RESULT:    -3.555      2.400      5.461
REMARK INTER + INTRA:          -8.879
REMARK INTER:                  -6.873
REMARK INTRA:                  -2.006
REMARK UNBOUND:                -2.415
REMARK SMILES CCCCCCCCCCCCCCCC(=O)[O-]
REMARK SMILES IDX 9 1 10 2 11 3 12 4 13 5 14 6 15 7 16 8 17 9 18 10 8 11 7 12
REMARK SMILES IDX 6 13 5 14 4 15 3 16 2 17 1 18
REMARK H PARENT
REMARK Flexibility Score: inf
ROOT
ATOM      1  C   UNL     1      -1.975   9.074  38.992  1.00  0.00     0.000 C 
ENDROOT
BRANCH   1   2
ATOM      2  C   UNL     1      -2.052   7.579  38.657  1.00  0.00     0.000 C 
BRANCH   2   3
ATOM      3  C   UNL     1      -2.798   6.808  39.756  1.00  0.00     0.000 C 
BRANCH   3   4
ATOM      4  C   UNL     1      -2.998   7.640  41.034  1.00  0.00     0.000 C 
BRANCH   4   5
ATOM      5  C   UNL     1      -2.863   6.797  42.313  1.00  0.00     0.000 C 
BRANCH   5   6
ATOM      6  C   UNL     1      -1.600   7.139  43.125  1.00  0.00     0.006 C 
BRANCH   6   7
ATOM      7  C   UNL     1      -1.187   8.620  43.048  1.00  0.00     0.053 C 
BRANCH   7   8
ATOM      8  C   UNL     1       0.172   8.811  42.448  1.00  0.00     0.041 C 
ATOM      9  O   UNL     1       1.141   8.102  42.829  1.00  0.00    -0.550 OA
ATOM     10  O   UNL     1       0.365   9.761  41.453  1.00  0.00    -0.550 OA
ENDBRANCH   7   8
ENDBRANCH   6   7
ENDBRANCH   5   6
ENDBRANCH   4   5
ENDBRANCH   3   4
ENDBRANCH   2   3
ENDBRANCH   1   2
BRANCH   1  11
ATOM     11  C   UNL     1      -2.151   9.931  37.732  1.00  0.00     0.000 C 
BRANCH  11  12
ATOM     12  C   UNL     1      -1.588   9.217  36.496  1.00  0.00    -0.000 C 
BRANCH  12  13
ATOM     13  C   UNL     1      -0.340   9.938  35.966  1.00  0.00    -0.000 C 
BRANCH  13  14
ATOM     14  C   UNL     1       0.920   9.058  36.012  1.00  0.00    -0.000 C 
BRANCH  14  15
ATOM     15  C   UNL     1       1.901   9.491  37.116  1.00  0.00    -0.000 C 
BRANCH  15  16
ATOM     16  C   UNL     1       1.646   8.776  38.457  1.00  0.00    -0.000 C 
BRANCH  16  17
ATOM     17  C   UNL     1       1.802   7.245  38.416  1.00  0.00    -0.003 C 
ATOM     18  C   UNL     1       1.282   6.556  39.677  1.00  0.00     0.004 C 
ENDBRANCH  16  17
ENDBRANCH  15  16
ENDBRANCH  14  15
ENDBRANCH  13  14
ENDBRANCH  12  13
ENDBRANCH  11  12
ENDBRANCH   1  11
TORSDOF 14
ENDMDL
MODEL 6
REMARK VINA RESULT:    -3.535      2.331      5.042
REMARK INTER + INTRA:          -8.842
REMARK INTER:                  -6.033
REMARK INTRA:                  -2.809
REMARK UNBOUND:                -2.415
REMARK SMILES CCCCCCCCCCCCCCCC(=O)[O-]
REMARK SMILES IDX 9 1 10 2 11 3 12 4 13 5 14 6 15 7 16 8 17 9 18 10 8 11 7 12
REMARK SMILES IDX 6 13 5 14 4 15 3 16 2 17 1 18
REMARK H PARENT
REMARK Flexibility Score: inf
ROOT
ATOM      1  C   UNL     1       1.451   7.707  39.135  1.00  0.00     0.000 C 
ENDROOT
BRANCH   1   2
ATOM      2  C   UNL     1       1.864   8.966  38.364  1.00  0.00     0.000 C 
BRANCH   2   3
ATOM      3  C   UNL     1       0.896  10.125  38.646  1.00  0.00     0.000 C 
BRANCH   3   4
ATOM      4  C   UNL     1      -0.315   9.695  39.492  1.00  0.00     0.000 C 
BRANCH   4   5
ATOM      5  C   UNL     1      -1.632   9.742  38.701  1.00  0.00     0.000 C 
BRANCH   5   6
ATOM      6  C   UNL     1      -2.622   8.638  39.120  1.00  0.00     0.006 C 
BRANCH   6   7
ATOM      7  C   UNL     1      -2.150   7.797  40.320  1.00  0.00     0.053 C 
BRANCH   7   8
ATOM      8  C   UNL     1      -2.932   6.529  40.482  1.00  0.00     0.041 C 
ATOM      9  O   UNL     1      -3.686   6.125  39.557  1.00  0.00    -0.550 OA
ATOM     10  O   UNL     1      -2.812   5.782  41.647  1.00  0.00    -0.550 OA
ENDBRANCH   7   8
ENDBRANCH   6   7
ENDBRANCH   5   6
ENDBRANCH   4   5
ENDBRANCH   3   4
ENDBRANCH   2   3
ENDBRANCH   1   2
BRANCH   1  11
ATOM     11  C   UNL     1       1.972   6.441  38.443  1.00  0.00     0.000 C 
BRANCH  11  12
ATOM     12  C   UNL     1       1.055   6.029  37.285  1.00  0.00    -0.000 C 
BRANCH  12  13
ATOM     13  C   UNL     1      -0.362   5.720  37.790  1.00  0.00    -0.000 C 
BRANCH  13  14
ATOM     14  C   UNL     1      -1.453   6.125  36.784  1.00  0.00    -0.000 C 
BRANCH  14  15
ATOM     15  C   UNL     1      -0.890   6.917  35.591  1.00  0.00    -0.000 C 
BRANCH  15  16
ATOM     16  C   UNL     1      -1.239   8.416  35.650  1.00  0.00    -0.000 C 
BRANCH  16  17
ATOM     17  C   UNL     1      -0.108   9.364  35.212  1.00  0.00    -0.003 C 
ATOM     18  C   UNL     1       1.082   8.631  34.595  1.00  0.00     0.004 C 
ENDBRANCH  16  17
ENDBRANCH  15  16
ENDBRANCH  14  15
ENDBRANCH  13  14
ENDBRANCH  12  13
ENDBRANCH  11  12
ENDBRANCH   1  11
TORSDOF 14
ENDMDL
MODEL 7
REMARK VINA RESULT:    -3.524      1.641      3.586
REMARK INTER + INTRA:          -8.823
REMARK INTER:                  -6.087
REMARK INTRA:                  -2.736
REMARK UNBOUND:                -2.415
REMARK SMILES CCCCCCCCCCCCCCCC(=O)[O-]
REMARK SMILES IDX 9 1 10 2 11 3 12 4 13 5 14 6 15 7 16 8 17 9 18 10 8 11 7 12
REMARK SMILES IDX 6 13 5 14 4 15 3 16 2 17 1 18
REMARK H PARENT
REMARK Flexibility Score: inf
ROOT
ATOM      1  C   UNL     1       0.404   9.704  38.280  1.00  0.00     0.000 C 
ENDROOT
BRANCH   1   2
ATOM      2  C   UNL     1      -1.070  10.125  38.236  1.00  0.00     0.000 C 
BRANCH   2   3
ATOM      3  C   UNL     1      -1.866   9.239  37.266  1.00  0.00     0.000 C 
BRANCH   3   4
ATOM      4  C   UNL     1      -0.982   8.608  36.176  1.00  0.00     0.000 C 
BRANCH   4   5
ATOM      5  C   UNL     1      -1.578   7.307  35.615  1.00  0.00     0.000 C 
BRANCH   5   6
ATOM      6  C   UNL     1      -0.523   6.202  35.416  1.00  0.00     0.006 C 
BRANCH   6   7
ATOM      7  C   UNL     1       0.917   6.648  35.727  1.00  0.00     0.053 C 
BRANCH   7   8
ATOM      8  C   UNL     1       1.886   5.506  35.745  1.00  0.00     0.041 C 
ATOM      9  O   UNL     1       3.020   5.642  36.276  1.00  0.00    -0.550 OA
ATOM     10  O   UNL     1       1.530   4.283  35.191  1.00  0.00    -0.550 OA
ENDBRANCH   7   8
ENDBRANCH   6   7
ENDBRANCH   5   6
ENDBRANCH   4   5
ENDBRANCH   3   4
ENDBRANCH   2   3
ENDBRANCH   1   2
BRANCH   1  11
ATOM     11  C   UNL     1       0.926   9.670  39.722  1.00  0.00     0.000 C 
BRANCH  11  12
ATOM     12  C   UNL     1       0.782   8.269  40.328  1.00  0.00    -0.000 C 
BRANCH  12  13
ATOM     13  C   UNL     1       1.432   7.211  39.424  1.00  0.00    -0.000 C 
BRANCH  13  14
ATOM     14  C   UNL     1       0.555   5.961  39.245  1.00  0.00    -0.000 C 
BRANCH  14  15
ATOM     15  C   UNL     1      -0.775   6.059  40.012  1.00  0.00    -0.000 C 
BRANCH  15  16
ATOM     16  C   UNL     1      -1.999   6.145  39.080  1.00  0.00    -0.000 C 
BRANCH  16  17
ATOM     17  C   UNL     1      -3.270   6.722  39.728  1.00  0.00    -0.003 C 
ATOM     18  C   UNL     1      -2.980   7.854  40.713  1.00  0.00     0.004 C 
ENDBRANCH  16  17
ENDBRANCH  15  16
ENDBRANCH  14  15
ENDBRANCH  13  14
ENDBRANCH  12  13
ENDBRANCH  11  12
ENDBRANCH   1  11
TORSDOF 14
ENDMDL
MODEL 8
REMARK VINA RESULT:    -3.516      1.761      3.128
REMARK INTER + INTRA:          -8.809
REMARK INTER:                  -6.297
REMARK INTRA:                  -2.512
REMARK UNBOUND:                -2.415
REMARK SMILES CCCCCCCCCCCCCCCC(=O)[O-]
REMARK SMILES IDX 9 1 10 2 11 3 12 4 13 5 14 6 15 7 16 8 17 9 18 10 8 11 7 12
REMARK SMILES IDX 6 13 5 14 4 15 3 16 2 17 1 18
REMARK H PARENT
REMARK Flexibility Score: inf
ROOT
ATOM      1  C   UNL     1      -2.412   5.407  40.359  1.00  0.00     0.000 C 
ENDROOT
BRANCH   1   2
ATOM      2  C   UNL     1      -1.633   4.557  39.349  1.00  0.00     0.000 C 
BRANCH   2   3
ATOM      3  C   UNL     1      -1.656   5.201  37.955  1.00  0.00     0.000 C 
BRANCH   3   4
ATOM      4  C   UNL     1      -0.318   5.056  37.211  1.00  0.00     0.000 C 
BRANCH   4   5
ATOM      5  C   UNL     1      -0.072   6.200  36.213  1.00  0.00     0.000 C 
BRANCH   5   6
ATOM      6  C   UNL     1      -1.376   6.848  35.711  1.00  0.00     0.006 C 
BRANCH   6   7
ATOM      7  C   UNL     1      -1.458   8.365  35.958  1.00  0.00     0.053 C 
BRANCH   7   8
ATOM      8  C   UNL     1      -0.186   9.077  35.612  1.00  0.00     0.041 C 
ATOM      9  O   UNL     1       0.286   9.004  34.446  1.00  0.00    -0.550 OA
ATOM     10  O   UNL     1       0.468   9.839  36.572  1.00  0.00    -0.550 OA
ENDBRANCH   7   8
ENDBRANCH   6   7
ENDBRANCH   5   6
ENDBRANCH   4   5
ENDBRANCH   3   4
ENDBRANCH   2   3
ENDBRANCH   1   2
BRANCH   1  11
ATOM     11  C   UNL     1      -3.270   6.461  39.648  1.00  0.00     0.000 C 
BRANCH  11  12
ATOM     12  C   UNL     1      -3.032   7.856  40.238  1.00  0.00    -0.000 C 
BRANCH  12  13
ATOM     13  C   UNL     1      -2.148   8.702  39.309  1.00  0.00    -0.000 C 
BRANCH  13  14
ATOM     14  C   UNL     1      -0.753   8.970  39.897  1.00  0.00    -0.000 C 
BRANCH  14  15
ATOM     15  C   UNL     1       0.298   7.957  39.408  1.00  0.00    -0.000 C 
BRANCH  15  16
ATOM     16  C   UNL     1       1.066   7.287  40.563  1.00  0.00    -0.000 C 
BRANCH  16  17
ATOM     17  C   UNL     1       0.352   7.325  41.926  1.00  0.00    -0.003 C 
ATOM     18  C   UNL     1       1.115   8.128  42.979  1.00  0.00     0.004 C 
ENDBRANCH  16  17
ENDBRANCH  15  16
ENDBRANCH  14  15
ENDBRANCH  13  14
ENDBRANCH  12  13
ENDBRANCH  11  12
ENDBRANCH   1  11
TORSDOF 14
ENDMDL
MODEL 9
REMARK VINA RESULT:    -3.486      1.625      2.411
REMARK INTER + INTRA:          -8.754
REMARK INTER:                  -6.395
REMARK INTRA:                  -2.359
REMARK UNBOUND:                -2.415
REMARK SMILES CCCCCCCCCCCCCCCC(=O)[O-]
REMARK SMILES IDX 9 1 10 2 11 3 12 4 13 5 14 6 15 7 16 8 17 9 18 10 8 11 7 12
REMARK SMILES IDX 6 13 5 14 4 15 3 16 2 17 1 18
REMARK H PARENT
REMARK Flexibility Score: inf
ROOT
ATOM      1  C   UNL     1      -2.404   5.849  39.180  1.00  0.00     0.000 C 
ENDROOT
BRANCH   1   2
ATOM      2  C   UNL     1      -2.998   6.782  40.242  1.00  0.00     0.000 C 
BRANCH   2   3
ATOM      3  C   UNL     1      -2.980   8.241  39.762  1.00  0.00     0.000 C 
BRANCH   3   4
ATOM      4  C   UNL     1      -1.966   8.482  38.631  1.00  0.00     0.000 C 
BRANCH   4   5
ATOM      5  C   UNL     1      -2.211   9.808  37.893  1.00  0.00     0.000 C 
BRANCH   5   6
ATOM      6  C   UNL     1      -1.545   9.853  36.504  1.00  0.00     0.006 C 
BRANCH   6   7
ATOM      7  C   UNL     1      -0.301   8.956  36.377  1.00  0.00     0.053 C 
BRANCH   7   8
ATOM      8  C   UNL     1      -0.427   7.943  35.280  1.00  0.00     0.041 C 
ATOM      9  O   UNL     1       0.454   7.866  34.382  1.00  0.00    -0.550 OA
ATOM     10  O   UNL     1      -1.507   7.071  35.260  1.00  0.00    -0.550 OA
ENDBRANCH   7   8
ENDBRANCH   6   7
ENDBRANCH   5   6
ENDBRANCH   4   5
ENDBRANCH   3   4
ENDBRANCH   2   3
ENDBRANCH   1   2
BRANCH   1  11
ATOM     11  C   UNL     1      -1.281   4.986  39.770  1.00  0.00     0.000 C 
BRANCH  11  12
ATOM     12  C   UNL     1      -0.879   5.482  41.164  1.00  0.00    -0.000 C 
BRANCH  12  13
ATOM     13  C   UNL     1       0.588   5.936  41.183  1.00  0.00    -0.000 C 
BRANCH  13  14
ATOM     14  C   UNL     1       0.749   7.440  40.909  1.00  0.00    -0.000 C 
BRANCH  14  15
ATOM     15  C   UNL     1       1.354   7.726  39.523  1.00  0.00    -0.000 C 
BRANCH  15  16
ATOM     16  C   UNL     1       2.222   6.567  38.998  1.00  0.00    -0.000 C 
BRANCH  16  17
ATOM     17  C   UNL     1       2.143   6.333  37.479  1.00  0.00    -0.003 C 
ATOM     18  C   UNL     1       1.200   5.193  37.096  1.00  0.00     0.004 C 
ENDBRANCH  16  17
ENDBRANCH  15  16
ENDBRANCH  14  15
ENDBRANCH  13  14
ENDBRANCH  12  13
ENDBRANCH  11  12
ENDBRANCH   1  11
TORSDOF 14
ENDMDL
