MODEL 1
REMARK VINA RESULT:    -3.446      0.000      0.000
REMARK INTER + INTRA:         -12.788
REMARK INTER:                  -7.877
REMARK INTRA:                  -4.911
REMARK UNBOUND:                -4.911
REMARK SMILES CCCCCCCCCCCCCCCCCCCCCCCC(=O)[O-]
REMARK SMILES IDX 13 1 14 2 15 3 16 4 17 5 18 6 19 7 20 8 21 9 22 10 23 11
REMARK SMILES IDX 24 12 25 13 26 14 12 15 11 16 10 17 9 18 8 19 7 20 6 21 5 22
REMARK SMILES IDX 4 23 3 24 2 25 1 26
REMARK H PARENT
REMARK Flexibility Score: inf
ROOT
ATOM      1  C   UNL     1     133.578 145.029 106.000  1.00  0.00     0.000 C 
ENDROOT
BRANCH   1   2
ATOM      2  C   UNL     1     133.890 143.973 104.925  1.00  0.00     0.000 C 
BRANCH   2   3
ATOM      3  C   UNL     1     133.166 142.627 105.113  1.00  0.00     0.000 C 
BRANCH   3   4
ATOM      4  C   UNL     1     131.638 142.746 104.975  1.00  0.00     0.000 C 
BRANCH   4   5
ATOM      5  C   UNL     1     130.903 142.408 106.288  1.00  0.00     0.000 C 
BRANCH   5   6
ATOM      6  C   UNL     1     131.416 141.131 106.975  1.00  0.00     0.000 C 
BRANCH   6   7
ATOM      7  C   UNL     1     131.653 141.316 108.480  1.00  0.00     0.000 C 
BRANCH   7   8
ATOM      8  C   UNL     1     131.514 142.788 108.885  1.00  0.00     0.000 C 
BRANCH   8   9
ATOM      9  C   UNL     1     132.862 143.357 109.354  1.00  0.00     0.000 C 
BRANCH   9  10
ATOM     10  C   UNL     1     132.759 144.118 110.689  1.00  0.00     0.006 C 
BRANCH  10  11
ATOM     11  C   UNL     1     132.515 145.629 110.541  1.00  0.00     0.053 C 
BRANCH  11  12
ATOM     12  C   UNL     1     131.150 146.030 111.012  1.00  0.00     0.041 C 
ATOM     13  O   UNL     1     130.486 146.889 110.373  1.00  0.00    -0.550 OA
ATOM     14  O   UNL     1     130.619 145.467 112.166  1.00  0.00    -0.550 OA
ENDBRANCH  11  12
ENDBRANCH  10  11
ENDBRANCH   9  10
ENDBRANCH   8   9
ENDBRANCH   7   8
ENDBRANCH   6   7
ENDBRANCH   5   6
ENDBRANCH   4   5
ENDBRANCH   3   4
ENDBRANCH   2   3
ENDBRANCH   1   2
BRANCH   1  15
ATOM     15  C   UNL     1     133.174 146.386 105.403  1.00  0.00     0.000 C 
BRANCH  15  16
ATOM     16  C   UNL     1     131.779 146.805 105.882  1.00  0.00     0.000 C 
BRANCH  16  17
ATOM     17  C   UNL     1     131.361 146.003 107.124  1.00  0.00     0.000 C 
BRANCH  17  18
ATOM     18  C   UNL     1     129.866 145.647 107.124  1.00  0.00    -0.000 C 
BRANCH  18  19
ATOM     19  C   UNL     1     129.248 145.682 105.719  1.00  0.00    -0.000 C 
BRANCH  19  20
ATOM     20  C   UNL     1     127.826 145.099 105.729  1.00  0.00    -0.000 C 
BRANCH  20  21
ATOM     21  C   UNL     1     127.724 143.770 104.965  1.00  0.00    -0.000 C 
BRANCH  21  22
ATOM     22  C   UNL     1     127.317 142.596 105.873  1.00  0.00    -0.000 C 
BRANCH  22  23
ATOM     23  C   UNL     1     127.287 142.985 107.360  1.00  0.00    -0.000 C 
BRANCH  23  24
ATOM     24  C   UNL     1     127.827 141.868 108.271  1.00  0.00    -0.000 C 
BRANCH  24  25
ATOM     25  C   UNL     1     128.008 142.332 109.726  1.00  0.00    -0.003 C 
ATOM     26  C   UNL     1     128.037 143.855 109.859  1.00  0.00     0.004 C 
ENDBRANCH  24  25
ENDBRANCH  23  24
ENDBRANCH  22  23
ENDBRANCH  21  22
ENDBRANCH  20  21
ENDBRANCH  19  20
ENDBRANCH  18  19
ENDBRANCH  17  18
ENDBRANCH  16  17
ENDBRANCH  15  16
ENDBRANCH   1  15
TORSDOF 22
ENDMDL
MODEL 2
REMARK VINA RESULT:    -3.410      1.683      5.353
REMARK INTER + INTRA:         -12.707
REMARK INTER:                  -8.613
REMARK INTRA:                  -4.094
REMARK UNBOUND:                -4.911
REMARK SMILES CCCCCCCCCCCCCCCCCCCCCCCC(=O)[O-]
REMARK SMILES IDX 13 1 14 2 15 3 16 4 17 5 18 6 19 7 20 8 21 9 22 10 23 11
REMARK SMILES IDX 24 12 25 13 26 14 12 15 11 16 10 17 9 18 8 19 7 20 6 21 5 22
REMARK SMILES IDX 4 23 3 24 2 25 1 26
REMARK H PARENT
REMARK Flexibility Score: inf
ROOT
ATOM      1  C   UNL     1     132.181 142.245 106.395  1.00  0.00     0.000 C 
ENDROOT
BRANCH   1   2
ATOM      2  C   UNL     1     130.805 142.798 106.807  1.00  0.00     0.000 C 
BRANCH   2   3
ATOM      3  C   UNL     1     130.124 143.688 105.751  1.00  0.00     0.000 C 
BRANCH   3   4
ATOM      4  C   UNL     1     128.882 143.030 105.126  1.00  0.00     0.000 C 
BRANCH   4   5
ATOM      5  C   UNL     1     127.638 143.941 105.197  1.00  0.00     0.000 C 
BRANCH   5   6
ATOM      6  C   UNL     1     127.211 144.296 106.631  1.00  0.00     0.000 C 
BRANCH   6   7
ATOM      7  C   UNL     1     126.878 145.785 106.804  1.00  0.00     0.000 C 
BRANCH   7   8
ATOM      8  C   UNL     1     127.014 146.215 108.269  1.00  0.00     0.000 C 
BRANCH   8   9
ATOM      9  C   UNL     1     128.473 146.110 108.738  1.00  0.00     0.000 C 
BRANCH   9  10
ATOM     10  C   UNL     1     128.637 145.227 109.990  1.00  0.00     0.006 C 
BRANCH  10  11
ATOM     11  C   UNL     1     130.074 144.739 110.237  1.00  0.00     0.053 C 
BRANCH  11  12
ATOM     12  C   UNL     1     130.924 145.790 110.886  1.00  0.00     0.041 C 
ATOM     13  O   UNL     1     131.747 145.473 111.786  1.00  0.00    -0.550 OA
ATOM     14  O   UNL     1     130.795 147.120 110.507  1.00  0.00    -0.550 OA
ENDBRANCH  11  12
ENDBRANCH  10  11
ENDBRANCH   9  10
ENDBRANCH   8   9
ENDBRANCH   7   8
ENDBRANCH   6   7
ENDBRANCH   5   6
ENDBRANCH   4   5
ENDBRANCH   3   4
ENDBRANCH   2   3
ENDBRANCH   1   2
BRANCH   1  15
ATOM     15  C   UNL     1     132.916 143.155 105.400  1.00  0.00     0.000 C 
BRANCH  15  16
ATOM     16  C   UNL     1     134.326 142.627 105.109  1.00  0.00     0.000 C 
BRANCH  16  17
ATOM     17  C   UNL     1     135.194 143.711 104.451  1.00  0.00     0.000 C 
BRANCH  17  18
ATOM     18  C   UNL     1     134.498 145.080 104.404  1.00  0.00    -0.000 C 
BRANCH  18  19
ATOM     19  C   UNL     1     135.346 146.198 105.026  1.00  0.00    -0.000 C 
BRANCH  19  20
ATOM     20  C   UNL     1     136.298 145.637 106.094  1.00  0.00    -0.000 C 
BRANCH  20  21
ATOM     21  C   UNL     1     135.803 145.897 107.525  1.00  0.00    -0.000 C 
BRANCH  21  22
ATOM     22  C   UNL     1     134.996 144.717 108.094  1.00  0.00    -0.000 C 
BRANCH  22  23
ATOM     23  C   UNL     1     133.563 145.117 108.485  1.00  0.00    -0.000 C 
BRANCH  23  24
ATOM     24  C   UNL     1     133.136 146.458 107.863  1.00  0.00    -0.000 C 
BRANCH  24  25
ATOM     25  C   UNL     1     131.762 146.379 107.179  1.00  0.00    -0.003 C 
ATOM     26  C   UNL     1     131.766 146.988 105.777  1.00  0.00     0.004 C 
ENDBRANCH  24  25
ENDBRANCH  23  24
ENDBRANCH  22  23
ENDBRANCH  21  22
ENDBRANCH  20  21
ENDBRANCH  19  20
ENDBRANCH  18  19
ENDBRANCH  17  18
ENDBRANCH  16  17
ENDBRANCH  15  16
ENDBRANCH   1  15
TORSDOF 22
ENDMDL
MODEL 3
REMARK VINA RESULT:    -3.389      2.606      5.965
REMARK INTER + INTRA:         -12.657
REMARK INTER:                  -8.298
REMARK INTRA:                  -4.359
REMARK UNBOUND:                -4.911
REMARK SMILES CCCCCCCCCCCCCCCCCCCCCCCC(=O)[O-]
REMARK SMILES IDX 13 1 14 2 15 3 16 4 17 5 18 6 19 7 20 8 21 9 22 10 23 11
REMARK SMILES IDX 24 12 25 13 26 14 12 15 11 16 10 17 9 18 8 19 7 20 6 21 5 22
REMARK SMILES IDX 4 23 3 24 2 25 1 26
REMARK H PARENT
REMARK Flexibility Score: inf
ROOT
ATOM      1  C   UNL     1     128.603 143.759 111.859  1.00  0.00     0.000 C 
ENDROOT
BRANCH   1   2
ATOM      2  C   UNL     1     128.912 144.417 113.215  1.00  0.00     0.000 C 
BRANCH   2   3
ATOM      3  C   UNL     1     130.120 145.371 113.211  1.00  0.00     0.000 C 
BRANCH   3   4
ATOM      4  C   UNL     1     131.163 145.008 112.139  1.00  0.00     0.000 C 
BRANCH   4   5
ATOM      5  C   UNL     1     131.314 146.112 111.071  1.00  0.00     0.000 C 
BRANCH   5   6
ATOM      6  C   UNL     1     131.522 145.572 109.647  1.00  0.00     0.000 C 
BRANCH   6   7
ATOM      7  C   UNL     1     132.162 144.177 109.624  1.00  0.00     0.000 C 
BRANCH   7   8
ATOM      8  C   UNL     1     131.289 143.180 108.853  1.00  0.00     0.000 C 
BRANCH   8   9
ATOM      9  C   UNL     1     130.981 141.943 109.711  1.00  0.00     0.000 C 
BRANCH   9  10
ATOM     10  C   UNL     1     129.609 141.321 109.392  1.00  0.00     0.006 C 
BRANCH  10  11
ATOM     11  C   UNL     1     129.330 141.133 107.892  1.00  0.00     0.053 C 
BRANCH  11  12
ATOM     12  C   UNL     1     127.887 140.838 107.617  1.00  0.00     0.041 C 
ATOM     13  O   UNL     1     127.076 141.779 107.410  1.00  0.00    -0.550 OA
ATOM     14  O   UNL     1     127.435 139.524 107.606  1.00  0.00    -0.550 OA
ENDBRANCH  11  12
ENDBRANCH  10  11
ENDBRANCH   9  10
ENDBRANCH   8   9
ENDBRANCH   7   8
ENDBRANCH   6   7
ENDBRANCH   5   6
ENDBRANCH   4   5
ENDBRANCH   3   4
ENDBRANCH   2   3
ENDBRANCH   1   2
BRANCH   1  15
ATOM     15  C   UNL     1     127.572 144.545 111.036  1.00  0.00     0.000 C 
BRANCH  15  16
ATOM     16  C   UNL     1     127.963 144.582 109.553  1.00  0.00     0.000 C 
BRANCH  16  17
ATOM     17  C   UNL     1     127.993 146.025 109.029  1.00  0.00     0.000 C 
BRANCH  17  18
ATOM     18  C   UNL     1     126.992 146.263 107.887  1.00  0.00    -0.000 C 
BRANCH  18  19
ATOM     19  C   UNL     1     126.971 145.115 106.868  1.00  0.00    -0.000 C 
BRANCH  19  20
ATOM     20  C   UNL     1     128.030 145.329 105.776  1.00  0.00    -0.000 C 
BRANCH  20  21
ATOM     21  C   UNL     1     129.081 144.209 105.741  1.00  0.00    -0.000 C 
BRANCH  21  22
ATOM     22  C   UNL     1     130.497 144.718 106.066  1.00  0.00    -0.000 C 
BRANCH  22  23
ATOM     23  C   UNL     1     130.562 146.251 106.174  1.00  0.00    -0.000 C 
BRANCH  23  24
ATOM     24  C   UNL     1     131.957 146.806 105.837  1.00  0.00    -0.000 C 
BRANCH  24  25
ATOM     25  C   UNL     1     133.076 145.787 106.102  1.00  0.00    -0.003 C 
ATOM     26  C   UNL     1     134.176 145.830 105.040  1.00  0.00     0.004 C 
ENDBRANCH  24  25
ENDBRANCH  23  24
ENDBRANCH  22  23
ENDBRANCH  21  22
ENDBRANCH  20  21
ENDBRANCH  19  20
ENDBRANCH  18  19
ENDBRANCH  17  18
ENDBRANCH  16  17
ENDBRANCH  15  16
ENDBRANCH   1  15
TORSDOF 22
ENDMDL
MODEL 4
REMARK VINA RESULT:    -3.388      2.082      4.936
REMARK INTER + INTRA:         -12.656
REMARK INTER:                  -8.921
REMARK INTRA:                  -3.734
REMARK UNBOUND:                -4.911
REMARK SMILES CCCCCCCCCCCCCCCCCCCCCCCC(=O)[O-]
REMARK SMILES IDX 13 1 14 2 15 3 16 4 17 5 18 6 19 7 20 8 21 9 22 10 23 11
REMARK SMILES IDX 24 12 25 13 26 14 12 15 11 16 10 17 9 18 8 19 7 20 6 21 5 22
REMARK SMILES IDX 4 23 3 24 2 25 1 26
REMARK H PARENT
REMARK Flexibility Score: inf
ROOT
ATOM      1  C   UNL     1     133.212 146.354 106.987  1.00  0.00     0.000 C 
ENDROOT
BRANCH   1   2
ATOM      2  C   UNL     1     132.307 146.812 105.829  1.00  0.00     0.000 C 
BRANCH   2   3
ATOM      3  C   UNL     1     130.933 146.121 105.772  1.00  0.00     0.000 C 
BRANCH   3   4
ATOM      4  C   UNL     1     130.470 145.598 107.143  1.00  0.00     0.000 C 
BRANCH   4   5
ATOM      5  C   UNL     1     128.936 145.456 107.227  1.00  0.00     0.000 C 
BRANCH   5   6
ATOM      6  C   UNL     1     128.224 145.598 105.871  1.00  0.00     0.000 C 
BRANCH   6   7
ATOM      7  C   UNL     1     127.294 144.419 105.558  1.00  0.00     0.000 C 
BRANCH   7   8
ATOM      8  C   UNL     1     128.094 143.147 105.256  1.00  0.00     0.000 C 
BRANCH   8   9
ATOM      9  C   UNL     1     127.516 141.942 106.015  1.00  0.00     0.000 C 
BRANCH   9  10
ATOM     10  C   UNL     1     127.208 142.257 107.491  1.00  0.00     0.006 C 
BRANCH  10  11
ATOM     11  C   UNL     1     128.334 141.881 108.468  1.00  0.00     0.053 C 
BRANCH  11  12
ATOM     12  C   UNL     1     128.286 142.695 109.726  1.00  0.00     0.041 C 
ATOM     13  O   UNL     1     129.320 143.284 110.139  1.00  0.00    -0.550 OA
ATOM     14  O   UNL     1     127.104 142.788 110.450  1.00  0.00    -0.550 OA
ENDBRANCH  11  12
ENDBRANCH  10  11
ENDBRANCH   9  10
ENDBRANCH   8   9
ENDBRANCH   7   8
ENDBRANCH   6   7
ENDBRANCH   5   6
ENDBRANCH   4   5
ENDBRANCH   3   4
ENDBRANCH   2   3
ENDBRANCH   1   2
BRANCH   1  15
ATOM     15  C   UNL     1     134.638 146.010 106.530  1.00  0.00     0.000 C 
BRANCH  15  16
ATOM     16  C   UNL     1     134.711 145.888 105.003  1.00  0.00     0.000 C 
BRANCH  16  17
ATOM     17  C   UNL     1     135.121 144.468 104.583  1.00  0.00     0.000 C 
BRANCH  17  18
ATOM     18  C   UNL     1     133.916 143.588 104.216  1.00  0.00    -0.000 C 
BRANCH  18  19
ATOM     19  C   UNL     1     133.348 142.825 105.421  1.00  0.00    -0.000 C 
BRANCH  19  20
ATOM     20  C   UNL     1     131.827 142.650 105.295  1.00  0.00    -0.000 C 
BRANCH  20  21
ATOM     21  C   UNL     1     131.243 141.738 106.385  1.00  0.00    -0.000 C 
BRANCH  21  22
ATOM     22  C   UNL     1     131.461 140.245 106.085  1.00  0.00    -0.000 C 
BRANCH  22  23
ATOM     23  C   UNL     1     130.164 139.426 106.196  1.00  0.00    -0.000 C 
BRANCH  23  24
ATOM     24  C   UNL     1     130.220 138.120 105.383  1.00  0.00    -0.000 C 
BRANCH  24  25
ATOM     25  C   UNL     1     128.840 137.692 104.861  1.00  0.00    -0.003 C 
ATOM     26  C   UNL     1     127.698 138.160 105.764  1.00  0.00     0.004 C 
ENDBRANCH  24  25
ENDBRANCH  23  24
ENDBRANCH  22  23
ENDBRANCH  21  22
ENDBRANCH  20  21
ENDBRANCH  19  20
ENDBRANCH  18  19
ENDBRANCH  17  18
ENDBRANCH  16  17
ENDBRANCH  15  16
ENDBRANCH   1  15
TORSDOF 22
ENDMDL
MODEL 5
REMARK VINA RESULT:    -3.385      1.871      4.208
REMARK INTER + INTRA:         -12.648
REMARK INTER:                  -8.702
REMARK INTRA:                  -3.946
REMARK UNBOUND:                -4.911
REMARK SMILES CCCCCCCCCCCCCCCCCCCCCCCC(=O)[O-]
REMARK SMILES IDX 13 1 14 2 15 3 16 4 17 5 18 6 19 7 20 8 21 9 22 10 23 11
REMARK SMILES IDX 24 12 25 13 26 14 12 15 11 16 10 17 9 18 8 19 7 20 6 21 5 22
REMARK SMILES IDX 4 23 3 24 2 25 1 26
REMARK H PARENT
REMARK Flexibility Score: inf
ROOT
ATOM      1  C   UNL     1     129.016 144.322 105.784  1.00  0.00     0.000 C 
ENDROOT
BRANCH   1   2
ATOM      2  C   UNL     1     130.482 144.588 106.173  1.00  0.00     0.000 C 
BRANCH   2   3
ATOM      3  C   UNL     1     130.912 146.064 106.100  1.00  0.00     0.000 C 
BRANCH   3   4
ATOM      4  C   UNL     1     132.414 146.235 105.815  1.00  0.00     0.000 C 
BRANCH   4   5
ATOM      5  C   UNL     1     133.075 144.922 105.346  1.00  0.00     0.000 C 
BRANCH   5   6
ATOM      6  C   UNL     1     134.483 145.112 104.758  1.00  0.00     0.000 C 
BRANCH   6   7
ATOM      7  C   UNL     1     135.371 146.023 105.615  1.00  0.00     0.000 C 
BRANCH   7   8
ATOM      8  C   UNL     1     136.448 145.216 106.349  1.00  0.00     0.000 C 
BRANCH   8   9
ATOM      9  C   UNL     1     136.351 145.426 107.868  1.00  0.00     0.000 C 
BRANCH   9  10
ATOM     10  C   UNL     1     135.045 146.122 108.294  1.00  0.00     0.006 C 
BRANCH  10  11
ATOM     11  C   UNL     1     134.012 145.188 108.944  1.00  0.00     0.053 C 
BRANCH  11  12
ATOM     12  C   UNL     1     133.055 145.930 109.827  1.00  0.00     0.041 C 
ATOM     13  O   UNL     1     132.967 145.641 111.050  1.00  0.00    -0.550 OA
ATOM     14  O   UNL     1     132.249 146.929 109.295  1.00  0.00    -0.550 OA
ENDBRANCH  11  12
ENDBRANCH  10  11
ENDBRANCH   9  10
ENDBRANCH   8   9
ENDBRANCH   7   8
ENDBRANCH   6   7
ENDBRANCH   5   6
ENDBRANCH   4   5
ENDBRANCH   3   4
ENDBRANCH   2   3
ENDBRANCH   1   2
BRANCH   1  15
ATOM     15  C   UNL     1     128.261 145.602 105.395  1.00  0.00     0.000 C 
BRANCH  15  16
ATOM     16  C   UNL     1     126.957 145.734 106.191  1.00  0.00     0.000 C 
BRANCH  16  17
ATOM     17  C   UNL     1     127.052 144.986 107.530  1.00  0.00     0.000 C 
BRANCH  17  18
ATOM     18  C   UNL     1     127.240 145.933 108.726  1.00  0.00    -0.000 C 
BRANCH  18  19
ATOM     19  C   UNL     1     128.718 146.203 109.042  1.00  0.00    -0.000 C 
BRANCH  19  20
ATOM     20  C   UNL     1     129.164 145.423 110.289  1.00  0.00    -0.000 C 
BRANCH  20  21
ATOM     21  C   UNL     1     129.760 144.048 109.946  1.00  0.00    -0.000 C 
BRANCH  21  22
ATOM     22  C   UNL     1     129.078 142.902 110.714  1.00  0.00    -0.000 C 
BRANCH  22  23
ATOM     23  C   UNL     1     128.075 142.125 109.846  1.00  0.00    -0.000 C 
BRANCH  23  24
ATOM     24  C   UNL     1     128.622 141.828 108.438  1.00  0.00    -0.000 C 
BRANCH  24  25
ATOM     25  C   UNL     1     127.525 141.367 107.466  1.00  0.00    -0.003 C 
ATOM     26  C   UNL     1     128.090 140.674 106.225  1.00  0.00     0.004 C 
ENDBRANCH  24  25
ENDBRANCH  23  24
ENDBRANCH  22  23
ENDBRANCH  21  22
ENDBRANCH  20  21
ENDBRANCH  19  20
ENDBRANCH  18  19
ENDBRANCH  17  18
ENDBRANCH  16  17
ENDBRANCH  15  16
ENDBRANCH   1  15
TORSDOF 22
ENDMDL
MODEL 6
REMARK VINA RESULT:    -3.340      2.395      6.464
REMARK INTER + INTRA:         -12.545
REMARK INTER:                  -8.105
REMARK INTRA:                  -4.440
REMARK UNBOUND:                -4.911
REMARK SMILES CCCCCCCCCCCCCCCCCCCCCCCC(=O)[O-]
REMARK SMILES IDX 13 1 14 2 15 3 16 4 17 5 18 6 19 7 20 8 21 9 22 10 23 11
REMARK SMILES IDX 24 12 25 13 26 14 12 15 11 16 10 17 9 18 8 19 7 20 6 21 5 22
REMARK SMILES IDX 4 23 3 24 2 25 1 26
REMARK H PARENT
REMARK Flexibility Score: inf
ROOT
ATOM      1  C   UNL     1     128.380 143.737 109.448  1.00  0.00     0.000 C 
ENDROOT
BRANCH   1   2
ATOM      2  C   UNL     1     127.470 144.971 109.304  1.00  0.00     0.000 C 
BRANCH   2   3
ATOM      3  C   UNL     1     127.825 145.901 108.131  1.00  0.00     0.000 C 
BRANCH   3   4
ATOM      4  C   UNL     1     129.188 145.571 107.498  1.00  0.00     0.000 C 
BRANCH   4   5
ATOM      5  C   UNL     1     129.142 145.606 105.956  1.00  0.00     0.000 C 
BRANCH   5   6
ATOM      6  C   UNL     1     127.794 145.160 105.366  1.00  0.00     0.000 C 
BRANCH   6   7
ATOM      7  C   UNL     1     127.794 143.693 104.915  1.00  0.00     0.000 C 
BRANCH   7   8
ATOM      8  C   UNL     1     127.179 142.785 105.985  1.00  0.00     0.000 C 
BRANCH   8   9
ATOM      9  C   UNL     1     128.151 141.660 106.374  1.00  0.00     0.000 C 
BRANCH   9  10
ATOM     10  C   UNL     1     129.623 142.018 106.095  1.00  0.00     0.006 C 
BRANCH  10  11
ATOM     11  C   UNL     1     130.578 141.725 107.264  1.00  0.00     0.053 C 
BRANCH  11  12
ATOM     12  C   UNL     1     130.255 140.431 107.948  1.00  0.00     0.041 C 
ATOM     13  O   UNL     1     129.830 140.429 109.134  1.00  0.00    -0.550 OA
ATOM     14  O   UNL     1     130.440 139.226 107.280  1.00  0.00    -0.550 OA
ENDBRANCH  11  12
ENDBRANCH  10  11
ENDBRANCH   9  10
ENDBRANCH   8   9
ENDBRANCH   7   8
ENDBRANCH   6   7
ENDBRANCH   5   6
ENDBRANCH   4   5
ENDBRANCH   3   4
ENDBRANCH   2   3
ENDBRANCH   1   2
BRANCH   1  15
ATOM     15  C   UNL     1     128.410 143.183 110.880  1.00  0.00     0.000 C 
BRANCH  15  16
ATOM     16  C   UNL     1     127.746 144.157 111.862  1.00  0.00     0.000 C 
BRANCH  16  17
ATOM     17  C   UNL     1     128.718 144.553 112.983  1.00  0.00     0.000 C 
BRANCH  17  18
ATOM     18  C   UNL     1     130.190 144.475 112.548  1.00  0.00    -0.000 C 
BRANCH  18  19
ATOM     19  C   UNL     1     130.811 145.859 112.305  1.00  0.00    -0.000 C 
BRANCH  19  20
ATOM     20  C   UNL     1     130.636 146.290 110.840  1.00  0.00    -0.000 C 
BRANCH  20  21
ATOM     21  C   UNL     1     131.945 146.211 110.039  1.00  0.00    -0.000 C 
BRANCH  21  22
ATOM     22  C   UNL     1     132.267 144.780 109.575  1.00  0.00    -0.000 C 
BRANCH  22  23
ATOM     23  C   UNL     1     132.628 144.712 108.082  1.00  0.00    -0.000 C 
BRANCH  23  24
ATOM     24  C   UNL     1     133.064 146.077 107.518  1.00  0.00    -0.000 C 
BRANCH  24  25
ATOM     25  C   UNL     1     132.809 146.198 106.007  1.00  0.00    -0.003 C 
ATOM     26  C   UNL     1     134.080 146.002 105.179  1.00  0.00     0.004 C 
ENDBRANCH  24  25
ENDBRANCH  23  24
ENDBRANCH  22  23
ENDBRANCH  21  22
ENDBRANCH  20  21
ENDBRANCH  19  20
ENDBRANCH  18  19
ENDBRANCH  17  18
ENDBRANCH  16  17
ENDBRANCH  15  16
ENDBRANCH   1  15
TORSDOF 22
ENDMDL
MODEL 7
REMARK VINA RESULT:    -3.329      2.062      5.941
REMARK INTER + INTRA:         -12.521
REMARK INTER:                  -8.412
REMARK INTRA:                  -4.109
REMARK UNBOUND:                -4.911
REMARK SMILES CCCCCCCCCCCCCCCCCCCCCCCC(=O)[O-]
REMARK SMILES IDX 13 1 14 2 15 3 16 4 17 5 18 6 19 7 20 8 21 9 22 10 23 11
REMARK SMILES IDX 24 12 25 13 26 14 12 15 11 16 10 17 9 18 8 19 7 20 6 21 5 22
REMARK SMILES IDX 4 23 3 24 2 25 1 26
REMARK H PARENT
REMARK Flexibility Score: inf
ROOT
ATOM      1  C   UNL     1     130.504 144.916 108.739  1.00  0.00     0.000 C 
ENDROOT
BRANCH   1   2
ATOM      2  C   UNL     1     129.539 145.639 107.783  1.00  0.00     0.000 C 
BRANCH   2   3
ATOM      3  C   UNL     1     128.138 145.909 108.360  1.00  0.00     0.000 C 
BRANCH   3   4
ATOM      4  C   UNL     1     127.008 145.387 107.455  1.00  0.00     0.000 C 
BRANCH   4   5
ATOM      5  C   UNL     1     127.003 146.071 106.072  1.00  0.00     0.000 C 
BRANCH   5   6
ATOM      6  C   UNL     1     127.420 145.142 104.920  1.00  0.00     0.000 C 
BRANCH   6   7
ATOM      7  C   UNL     1     127.403 143.658 105.313  1.00  0.00     0.000 C 
BRANCH   7   8
ATOM      8  C   UNL     1     128.802 143.041 105.205  1.00  0.00     0.000 C 
BRANCH   8   9
ATOM      9  C   UNL     1     129.124 142.193 106.446  1.00  0.00     0.000 C 
BRANCH   9  10
ATOM     10  C   UNL     1     127.870 141.830 107.264  1.00  0.00     0.006 C 
BRANCH  10  11
ATOM     11  C   UNL     1     128.161 141.056 108.560  1.00  0.00     0.053 C 
BRANCH  11  12
ATOM     12  C   UNL     1     128.282 141.964 109.746  1.00  0.00     0.041 C 
ATOM     13  O   UNL     1     129.264 141.860 110.527  1.00  0.00    -0.550 OA
ATOM     14  O   UNL     1     127.300 142.915 109.997  1.00  0.00    -0.550 OA
ENDBRANCH  11  12
ENDBRANCH  10  11
ENDBRANCH   9  10
ENDBRANCH   8   9
ENDBRANCH   7   8
ENDBRANCH   6   7
ENDBRANCH   5   6
ENDBRANCH   4   5
ENDBRANCH   3   4
ENDBRANCH   2   3
ENDBRANCH   1   2
BRANCH   1  15
ATOM     15  C   UNL     1     131.692 145.792 109.162  1.00  0.00     0.000 C 
BRANCH  15  16
ATOM     16  C   UNL     1     132.976 145.363 108.442  1.00  0.00     0.000 C 
BRANCH  16  17
ATOM     17  C   UNL     1     133.436 146.442 107.449  1.00  0.00     0.000 C 
BRANCH  17  18
ATOM     18  C   UNL     1     133.078 146.101 105.994  1.00  0.00    -0.000 C 
BRANCH  18  19
ATOM     19  C   UNL     1     134.292 146.158 105.056  1.00  0.00    -0.000 C 
BRANCH  19  20
ATOM     20  C   UNL     1     135.600 145.961 105.837  1.00  0.00    -0.000 C 
BRANCH  20  21
ATOM     21  C   UNL     1     136.148 144.530 105.724  1.00  0.00    -0.000 C 
BRANCH  21  22
ATOM     22  C   UNL     1     136.325 143.856 107.096  1.00  0.00    -0.000 C 
BRANCH  22  23
ATOM     23  C   UNL     1     135.282 142.754 107.350  1.00  0.00    -0.000 C 
BRANCH  23  24
ATOM     24  C   UNL     1     134.593 142.286 106.056  1.00  0.00    -0.000 C 
BRANCH  24  25
ATOM     25  C   UNL     1     133.063 142.412 106.126  1.00  0.00    -0.003 C 
ATOM     26  C   UNL     1     132.443 142.824 104.790  1.00  0.00     0.004 C 
ENDBRANCH  24  25
ENDBRANCH  23  24
ENDBRANCH  22  23
ENDBRANCH  21  22
ENDBRANCH  20  21
ENDBRANCH  19  20
ENDBRANCH  18  19
ENDBRANCH  17  18
ENDBRANCH  16  17
ENDBRANCH  15  16
ENDBRANCH   1  15
TORSDOF 22
ENDMDL
MODEL 8
REMARK VINA RESULT:    -3.287      3.213      6.837
REMARK INTER + INTRA:         -12.424
REMARK INTER:                  -8.106
REMARK INTRA:                  -4.318
REMARK UNBOUND:                -4.911
REMARK SMILES CCCCCCCCCCCCCCCCCCCCCCCC(=O)[O-]
REMARK SMILES IDX 13 1 14 2 15 3 16 4 17 5 18 6 19 7 20 8 21 9 22 10 23 11
REMARK SMILES IDX 24 12 25 13 26 14 12 15 11 16 10 17 9 18 8 19 7 20 6 21 5 22
REMARK SMILES IDX 4 23 3 24 2 25 1 26
REMARK H PARENT
REMARK Flexibility Score: inf
ROOT
ATOM      1  C   UNL     1     128.000 143.872 109.586  1.00  0.00     0.000 C 
ENDROOT
BRANCH   1   2
ATOM      2  C   UNL     1     127.453 145.307 109.493  1.00  0.00     0.000 C 
BRANCH   2   3
ATOM      3  C   UNL     1     127.821 146.056 108.200  1.00  0.00     0.000 C 
BRANCH   3   4
ATOM      4  C   UNL     1     129.156 145.585 107.596  1.00  0.00     0.000 C 
BRANCH   4   5
ATOM      5  C   UNL     1     129.139 145.602 106.053  1.00  0.00     0.000 C 
BRANCH   5   6
ATOM      6  C   UNL     1     127.788 145.192 105.443  1.00  0.00     0.000 C 
BRANCH   6   7
ATOM      7  C   UNL     1     127.754 143.723 105.001  1.00  0.00     0.000 C 
BRANCH   7   8
ATOM      8  C   UNL     1     127.271 142.814 106.138  1.00  0.00     0.000 C 
BRANCH   8   9
ATOM      9  C   UNL     1     128.058 141.495 106.156  1.00  0.00     0.000 C 
BRANCH   9  10
ATOM     10  C   UNL     1     127.998 140.781 107.520  1.00  0.00     0.006 C 
BRANCH  10  11
ATOM     11  C   UNL     1     127.587 139.301 107.443  1.00  0.00     0.053 C 
BRANCH  11  12
ATOM     12  C   UNL     1     128.279 138.580 106.326  1.00  0.00     0.041 C 
ATOM     13  O   UNL     1     129.494 138.264 106.432  1.00  0.00    -0.550 OA
ATOM     14  O   UNL     1     127.586 138.272 105.162  1.00  0.00    -0.550 OA
ENDBRANCH  11  12
ENDBRANCH  10  11
ENDBRANCH   9  10
ENDBRANCH   8   9
ENDBRANCH   7   8
ENDBRANCH   6   7
ENDBRANCH   5   6
ENDBRANCH   4   5
ENDBRANCH   3   4
ENDBRANCH   2   3
ENDBRANCH   1   2
BRANCH   1  15
ATOM     15  C   UNL     1     127.888 143.281 111.000  1.00  0.00     0.000 C 
BRANCH  15  16
ATOM     16  C   UNL     1     127.225 144.276 111.961  1.00  0.00     0.000 C 
BRANCH  16  17
ATOM     17  C   UNL     1     128.109 144.523 113.192  1.00  0.00     0.000 C 
BRANCH  17  18
ATOM     18  C   UNL     1     129.604 144.309 112.902  1.00  0.00    -0.000 C 
BRANCH  18  19
ATOM     19  C   UNL     1     130.339 145.617 112.579  1.00  0.00    -0.000 C 
BRANCH  19  20
ATOM     20  C   UNL     1     131.067 145.520 111.229  1.00  0.00    -0.000 C 
BRANCH  20  21
ATOM     21  C   UNL     1     131.438 144.075 110.859  1.00  0.00    -0.000 C 
BRANCH  21  22
ATOM     22  C   UNL     1     131.877 143.937 109.391  1.00  0.00    -0.000 C 
BRANCH  22  23
ATOM     23  C   UNL     1     132.000 142.469 108.948  1.00  0.00    -0.000 C 
BRANCH  23  24
ATOM     24  C   UNL     1     131.365 142.214 107.570  1.00  0.00    -0.000 C 
BRANCH  24  25
ATOM     25  C   UNL     1     131.839 143.219 106.508  1.00  0.00    -0.003 C 
ATOM     26  C   UNL     1     131.414 142.825 105.093  1.00  0.00     0.004 C 
ENDBRANCH  24  25
ENDBRANCH  23  24
ENDBRANCH  22  23
ENDBRANCH  21  22
ENDBRANCH  20  21
ENDBRANCH  19  20
ENDBRANCH  18  19
ENDBRANCH  17  18
ENDBRANCH  16  17
ENDBRANCH  15  16
ENDBRANCH   1  15
TORSDOF 22
ENDMDL
