MODEL 1
REMARK VINA RESULT:    -2.896      0.000      0.000
REMARK INTER + INTRA:          -3.150
REMARK INTER:                  -3.150
REMARK INTRA:                   0.000
REMARK UNBOUND:                 0.000
REMARK SMILES [NH3+]CC(=O)[O-]
REMARK SMILES IDX 2 1 1 2 3 6 4 7 5 8
REMARK H PARENT 1 3 1 4 1 5
REMARK Flexibility Score: inf
ROOT
ATOM      1  C   UNL     1       2.244  28.581  14.252  1.00  0.00     0.312 C 
ENDROOT
BRANCH   1   2
ATOM      2  N   UNL     1       2.560  27.170  14.045  1.00  0.00    -0.353 N 
ATOM      3  H   UNL     1       2.984  26.766  14.913  1.00  0.00     0.344 HD
ATOM      4  H   UNL     1       1.680  26.649  13.825  1.00  0.00     0.344 HD
ATOM      5  H   UNL     1       3.225  27.064  13.244  1.00  0.00     0.344 HD
ENDBRANCH   1   2
BRANCH   1   6
ATOM      6  C   UNL     1       1.565  28.782  15.571  1.00  0.00     0.096 C 
ATOM      7  O   UNL     1       0.311  28.863  15.633  1.00  0.00    -0.544 OA
ATOM      8  O   UNL     1       2.323  28.932  16.726  1.00  0.00    -0.544 OA
ENDBRANCH   1   6
TORSDOF 2
ENDMDL
MODEL 2
REMARK VINA RESULT:    -2.879     18.248     18.625
REMARK INTER + INTRA:          -3.132
REMARK INTER:                  -3.132
REMARK INTRA:                   0.000
REMARK UNBOUND:                 0.000
REMARK SMILES [NH3+]CC(=O)[O-]
REMARK SMILES IDX 2 1 1 2 3 6 4 7 5 8
REMARK H PARENT 1 3 1 4 1 5
REMARK Flexibility Score: inf
ROOT
ATOM      1  C   UNL     1      -9.787  16.009  21.198  1.00  0.00     0.312 C 
ENDROOT
BRANCH   1   2
ATOM      2  N   UNL     1      -9.292  15.031  22.163  1.00  0.00    -0.353 N 
ATOM      3  H   UNL     1      -8.578  15.472  22.789  1.00  0.00     0.344 HD
ATOM      4  H   UNL     1     -10.090  14.691  22.748  1.00  0.00     0.344 HD
ATOM      5  H   UNL     1      -8.868  14.215  21.663  1.00  0.00     0.344 HD
ENDBRANCH   1   2
BRANCH   1   6
ATOM      6  C   UNL     1     -10.233  15.332  19.940  1.00  0.00     0.096 C 
ATOM      7  O   UNL     1     -10.193  15.945  18.842  1.00  0.00    -0.544 OA
ATOM      8  O   UNL     1     -10.740  14.039  19.989  1.00  0.00    -0.544 OA
ENDBRANCH   1   6
TORSDOF 2
ENDMDL
MODEL 3
REMARK VINA RESULT:    -2.873     11.989     12.280
REMARK INTER + INTRA:          -3.125
REMARK INTER:                  -3.125
REMARK INTRA:                   0.000
REMARK UNBOUND:                 0.000
REMARK SMILES [NH3+]CC(=O)[O-]
REMARK SMILES IDX 2 1 1 2 3 6 4 7 5 8
REMARK H PARENT 1 3 1 4 1 5
REMARK Flexibility Score: inf
ROOT
ATOM      1  C   UNL     1      -6.121  19.043  11.499  1.00  0.00     0.312 C 
ENDROOT
BRANCH   1   2
ATOM      2  N   UNL     1      -7.111  20.086  11.239  1.00  0.00    -0.353 N 
ATOM      3  H   UNL     1      -8.049  19.787  11.592  1.00  0.00     0.344 HD
ATOM      4  H   UNL     1      -6.825  20.961  11.738  1.00  0.00     0.344 HD
ATOM      5  H   UNL     1      -7.165  20.284  10.214  1.00  0.00     0.344 HD
ENDBRANCH   1   2
BRANCH   1   6
ATOM      6  C   UNL     1      -5.411  19.299  12.791  1.00  0.00     0.096 C 
ATOM      7  O   UNL     1      -4.362  19.995  12.811  1.00  0.00    -0.544 OA
ATOM      8  O   UNL     1      -5.879  18.725  13.967  1.00  0.00    -0.544 OA
ENDBRANCH   1   6
TORSDOF 2
ENDMDL
MODEL 4
REMARK VINA RESULT:    -2.845     18.052     18.362
REMARK INTER + INTRA:          -3.095
REMARK INTER:                  -3.095
REMARK INTRA:                   0.000
REMARK UNBOUND:                 0.000
REMARK SMILES [NH3+]CC(=O)[O-]
REMARK SMILES IDX 2 1 1 2 3 6 4 7 5 8
REMARK H PARENT 1 3 1 4 1 5
REMARK Flexibility Score: inf
ROOT
ATOM      1  C   UNL     1     -10.562  15.870  19.831  1.00  0.00     0.312 C 
ENDROOT
BRANCH   1   2
ATOM      2  N   UNL     1      -9.713  15.992  18.648  1.00  0.00    -0.353 N 
ATOM      3  H   UNL     1      -8.986  15.240  18.649  1.00  0.00     0.344 HD
ATOM      4  H   UNL     1     -10.304  15.889  17.791  1.00  0.00     0.344 HD
ATOM      5  H   UNL     1      -9.253  16.930  18.631  1.00  0.00     0.344 HD
ENDBRANCH   1   2
BRANCH   1   6
ATOM      6  C   UNL     1      -9.843  15.142  20.924  1.00  0.00     0.096 C 
ATOM      7  O   UNL     1      -9.782  13.885  20.914  1.00  0.00    -0.544 OA
ATOM      8  O   UNL     1      -9.284  15.850  21.980  1.00  0.00    -0.544 OA
ENDBRANCH   1   6
TORSDOF 2
ENDMDL
MODEL 5
REMARK VINA RESULT:    -2.820      8.373      8.654
REMARK INTER + INTRA:          -3.068
REMARK INTER:                  -3.068
REMARK INTRA:                   0.000
REMARK UNBOUND:                 0.000
REMARK SMILES [NH3+]CC(=O)[O-]
REMARK SMILES IDX 2 1 1 2 3 6 4 7 5 8
REMARK H PARENT 1 3 1 4 1 5
REMARK Flexibility Score: inf
ROOT
ATOM      1  C   UNL     1      -2.299  21.613  12.591  1.00  0.00     0.312 C 
ENDROOT
BRANCH   1   2
ATOM      2  N   UNL     1      -3.283  20.835  11.842  1.00  0.00    -0.353 N 
ATOM      3  H   UNL     1      -2.954  20.692  10.859  1.00  0.00     0.344 HD
ATOM      4  H   UNL     1      -3.400  19.901  12.298  1.00  0.00     0.344 HD
ATOM      5  H   UNL     1      -4.205  21.329  11.839  1.00  0.00     0.344 HD
ENDBRANCH   1   2
BRANCH   1   6
ATOM      6  C   UNL     1      -1.027  21.747  11.813  1.00  0.00     0.096 C 
ATOM      7  O   UNL     1      -0.567  20.763  11.178  1.00  0.00    -0.544 OA
ATOM      8  O   UNL     1      -0.325  22.946  11.832  1.00  0.00    -0.544 OA
ENDBRANCH   1   6
TORSDOF 2
ENDMDL
MODEL 6
REMARK VINA RESULT:    -2.785      5.088      5.344
REMARK INTER + INTRA:          -3.030
REMARK INTER:                  -3.030
REMARK INTRA:                   0.000
REMARK UNBOUND:                 0.000
REMARK SMILES [NH3+]CC(=O)[O-]
REMARK SMILES IDX 2 1 1 2 3 6 4 7 5 8
REMARK H PARENT 1 3 1 4 1 5
REMARK Flexibility Score: inf
ROOT
ATOM      1  C   UNL     1       1.197  24.788  10.858  1.00  0.00     0.312 C 
ENDROOT
BRANCH   1   2
ATOM      2  N   UNL     1       0.063  24.918  11.771  1.00  0.00    -0.353 N 
ATOM      3  H   UNL     1      -0.478  24.023  11.803  1.00  0.00     0.344 HD
ATOM      4  H   UNL     1       0.420  25.132  12.732  1.00  0.00     0.344 HD
ATOM      5  H   UNL     1      -0.560  25.699  11.461  1.00  0.00     0.344 HD
ENDBRANCH   1   2
BRANCH   1   6
ATOM      6  C   UNL     1       2.401  25.487  11.408  1.00  0.00     0.096 C 
ATOM      7  O   UNL     1       2.266  26.525  12.107  1.00  0.00    -0.544 OA
ATOM      8  O   UNL     1       3.674  25.021  11.104  1.00  0.00    -0.544 OA
ENDBRANCH   1   6
TORSDOF 2
ENDMDL
MODEL 7
REMARK VINA RESULT:    -2.776      2.541      3.040
REMARK INTER + INTRA:          -3.019
REMARK INTER:                  -3.019
REMARK INTRA:                   0.000
REMARK UNBOUND:                 0.000
REMARK SMILES [NH3+]CC(=O)[O-]
REMARK SMILES IDX 2 1 1 2 3 6 4 7 5 8
REMARK H PARENT 1 3 1 4 1 5
REMARK Flexibility Score: inf
ROOT
ATOM      1  C   UNL     1       2.656  27.762  12.785  1.00  0.00     0.312 C 
ENDROOT
BRANCH   1   2
ATOM      2  N   UNL     1       2.472  27.275  14.150  1.00  0.00    -0.353 N 
ATOM      3  H   UNL     1       3.056  27.835  14.813  1.00  0.00     0.344 HD
ATOM      4  H   UNL     1       1.465  27.377  14.417  1.00  0.00     0.344 HD
ATOM      5  H   UNL     1       2.737  26.265  14.210  1.00  0.00     0.344 HD
ENDBRANCH   1   2
BRANCH   1   6
ATOM      6  C   UNL     1       1.974  29.082  12.598  1.00  0.00     0.096 C 
ATOM      7  O   UNL     1       2.428  29.918  11.774  1.00  0.00    -0.544 OA
ATOM      8  O   UNL     1       0.867  29.407  13.371  1.00  0.00    -0.544 OA
ENDBRANCH   1   6
TORSDOF 2
ENDMDL
MODEL 8
REMARK VINA RESULT:    -2.577      6.183      6.456
REMARK INTER + INTRA:          -2.803
REMARK INTER:                  -2.803
REMARK INTRA:                   0.000
REMARK UNBOUND:                 0.000
REMARK SMILES [NH3+]CC(=O)[O-]
REMARK SMILES IDX 2 1 1 2 3 6 4 7 5 8
REMARK H PARENT 1 3 1 4 1 5
REMARK Flexibility Score: inf
ROOT
ATOM      1  C   UNL     1       5.163  24.273  10.340  1.00  0.00     0.312 C 
ENDROOT
BRANCH   1   2
ATOM      2  N   UNL     1       6.091  24.172  11.464  1.00  0.00    -0.353 N 
ATOM      3  H   UNL     1       5.904  24.937  12.154  1.00  0.00     0.344 HD
ATOM      4  H   UNL     1       5.958  23.249  11.937  1.00  0.00     0.344 HD
ATOM      5  H   UNL     1       7.078  24.237  11.122  1.00  0.00     0.344 HD
ENDBRANCH   1   2
BRANCH   1   6
ATOM      6  C   UNL     1       4.125  25.319  10.605  1.00  0.00     0.096 C 
ATOM      7  O   UNL     1       3.063  25.019  11.211  1.00  0.00    -0.544 OA
ATOM      8  O   UNL     1       4.308  26.614  10.136  1.00  0.00    -0.544 OA
ENDBRANCH   1   6
TORSDOF 2
ENDMDL
MODEL 9
REMARK VINA RESULT:    -2.575      3.760      4.147
REMARK INTER + INTRA:          -2.801
REMARK INTER:                  -2.801
REMARK INTRA:                   0.000
REMARK UNBOUND:                 0.000
REMARK SMILES [NH3+]CC(=O)[O-]
REMARK SMILES IDX 2 1 1 2 3 6 4 7 5 8
REMARK H PARENT 1 3 1 4 1 5
REMARK Flexibility Score: inf
ROOT
ATOM      1  C   UNL     1       2.711  28.100  13.125  1.00  0.00     0.312 C 
ENDROOT
BRANCH   1   2
ATOM      2  N   UNL     1       2.452  27.324  14.335  1.00  0.00    -0.353 N 
ATOM      3  H   UNL     1       2.394  26.306  14.104  1.00  0.00     0.344 HD
ATOM      4  H   UNL     1       3.235  27.473  15.013  1.00  0.00     0.344 HD
ATOM      5  H   UNL     1       1.557  27.637  14.778  1.00  0.00     0.344 HD
ENDBRANCH   1   2
BRANCH   1   6
ATOM      6  C   UNL     1       2.975  27.194  11.963  1.00  0.00     0.096 C 
ATOM      7  O   UNL     1       3.695  27.583  11.007  1.00  0.00    -0.544 OA
ATOM      8  O   UNL     1       2.382  25.939  11.913  1.00  0.00    -0.544 OA
ENDBRANCH   1   6
TORSDOF 2
ENDMDL
