MODEL 1
REMARK VINA RESULT:    -0.926      0.000      0.000
REMARK INTER + INTRA:          -2.714
REMARK INTER:                  -2.009
REMARK INTRA:                  -0.706
REMARK UNBOUND:                -0.706
REMARK SMILES CCCCCCCCCCCCCCCCCCCCCC(=O)[O-]
REMARK SMILES IDX 12 1 11 2 10 3 9 4 8 5 7 6 6 7 5 8 4 9 3 10 2 11 1 12 13 13
REMARK SMILES IDX 14 14 15 15 16 16 17 17 18 18 19 19 20 20 21 21 22 22 23 23
REMARK SMILES IDX 24 24
REMARK H PARENT
REMARK Flexibility Score: inf
ROOT
ATOM      1  C   UNL     1     -11.278 -16.333  12.201  1.00  0.00     0.000 C 
ENDROOT
BRANCH   1   2
ATOM      2  C   UNL     1     -11.373 -16.854  13.648  1.00  0.00     0.000 C 
BRANCH   2   3
ATOM      3  C   UNL     1     -10.588 -16.038  14.694  1.00  0.00     0.000 C 
BRANCH   3   4
ATOM      4  C   UNL     1      -9.169 -16.557  15.003  1.00  0.00    -0.000 C 
BRANCH   4   5
ATOM      5  C   UNL     1      -8.776 -17.852  14.272  1.00  0.00    -0.000 C 
BRANCH   5   6
ATOM      6  C   UNL     1      -9.649 -19.052  14.667  1.00  0.00    -0.000 C 
BRANCH   6   7
ATOM      7  C   UNL     1     -10.197 -18.883  16.089  1.00  0.00    -0.000 C 
BRANCH   7   8
ATOM      8  C   UNL     1     -11.716 -19.081  16.125  1.00  0.00    -0.000 C 
BRANCH   8   9
ATOM      9  C   UNL     1     -12.076 -20.572  16.111  1.00  0.00    -0.000 C 
BRANCH   9  10
ATOM     10  C   UNL     1     -13.043 -20.894  14.963  1.00  0.00    -0.000 C 
BRANCH  10  11
ATOM     11  C   UNL     1     -12.687 -22.203  14.241  1.00  0.00    -0.003 C 
ATOM     12  C   UNL     1     -13.832 -22.737  13.382  1.00  0.00     0.004 C 
ENDBRANCH  10  11
ENDBRANCH   9  10
ENDBRANCH   8   9
ENDBRANCH   7   8
ENDBRANCH   6   7
ENDBRANCH   5   6
ENDBRANCH   4   5
ENDBRANCH   3   4
ENDBRANCH   2   3
ENDBRANCH   1   2
BRANCH   1  13
ATOM     13  C   UNL     1      -9.932 -16.584  11.498  1.00  0.00     0.000 C 
BRANCH  13  14
ATOM     14  C   UNL     1     -10.082 -16.868   9.996  1.00  0.00     0.000 C 
BRANCH  14  15
ATOM     15  C   UNL     1      -8.728 -17.026   9.280  1.00  0.00     0.000 C 
BRANCH  15  16
ATOM     16  C   UNL     1      -7.892 -18.221   9.786  1.00  0.00     0.000 C 
BRANCH  16  17
ATOM     17  C   UNL     1      -8.767 -19.448  10.104  1.00  0.00     0.000 C 
BRANCH  17  18
ATOM     18  C   UNL     1      -8.196 -20.311  11.243  1.00  0.00     0.000 C 
BRANCH  18  19
ATOM     19  C   UNL     1      -7.875 -21.765  10.852  1.00  0.00     0.000 C 
BRANCH  19  20
ATOM     20  C   UNL     1      -8.032 -22.747  12.023  1.00  0.00     0.006 C 
BRANCH  20  21
ATOM     21  C   UNL     1      -9.267 -22.408  12.866  1.00  0.00     0.053 C 
BRANCH  21  22
ATOM     22  C   UNL     1      -8.907 -22.337  14.316  1.00  0.00     0.041 C 
ATOM     23  O   UNL     1      -7.905 -21.670  14.688  1.00  0.00    -0.550 OA
ATOM     24  O   UNL     1      -9.705 -22.966  15.263  1.00  0.00    -0.550 OA
ENDBRANCH  21  22
ENDBRANCH  20  21
ENDBRANCH  19  20
ENDBRANCH  18  19
ENDBRANCH  17  18
ENDBRANCH  16  17
ENDBRANCH  15  16
ENDBRANCH  14  15
ENDBRANCH  13  14
ENDBRANCH   1  13
TORSDOF 20
ENDMDL
MODEL 2
REMARK VINA RESULT:     0.093      1.807      2.930
REMARK INTER + INTRA:          -0.504
REMARK INTER:                  -1.953
REMARK INTRA:                   1.449
REMARK UNBOUND:                -0.706
REMARK SMILES CCCCCCCCCCCCCCCCCCCCCC(=O)[O-]
REMARK SMILES IDX 12 1 11 2 10 3 9 4 8 5 7 6 6 7 5 8 4 9 3 10 2 11 1 12 13 13
REMARK SMILES IDX 14 14 15 15 16 16 17 17 18 18 19 19 20 20 21 21 22 22 23 23
REMARK SMILES IDX 24 24
REMARK H PARENT
REMARK Flexibility Score: inf
ROOT
ATOM      1  C   UNL     1      -9.495 -17.191  11.974  1.00  0.00     0.000 C 
ENDROOT
BRANCH   1   2
ATOM      2  C   UNL     1      -9.582 -17.673  13.436  1.00  0.00     0.000 C 
BRANCH   2   3
ATOM      3  C   UNL     1      -9.017 -16.696  14.486  1.00  0.00     0.000 C 
BRANCH   3   4
ATOM      4  C   UNL     1      -7.980 -17.300  15.454  1.00  0.00    -0.000 C 
BRANCH   4   5
ATOM      5  C   UNL     1      -8.321 -18.705  15.978  1.00  0.00    -0.000 C 
BRANCH   5   6
ATOM      6  C   UNL     1      -7.875 -19.824  15.025  1.00  0.00    -0.000 C 
BRANCH   6   7
ATOM      7  C   UNL     1      -8.426 -21.180  15.481  1.00  0.00    -0.000 C 
BRANCH   7   8
ATOM      8  C   UNL     1      -9.953 -21.228  15.354  1.00  0.00    -0.000 C 
BRANCH   8   9
ATOM      9  C   UNL     1     -10.605 -20.061  16.106  1.00  0.00    -0.000 C 
BRANCH   9  10
ATOM     10  C   UNL     1     -11.492 -19.229  15.169  1.00  0.00    -0.000 C 
BRANCH  10  11
ATOM     11  C   UNL     1     -12.516 -18.374  15.932  1.00  0.00    -0.003 C 
ATOM     12  C   UNL     1     -12.245 -16.875  15.808  1.00  0.00     0.004 C 
ENDBRANCH  10  11
ENDBRANCH   9  10
ENDBRANCH   8   9
ENDBRANCH   7   8
ENDBRANCH   6   7
ENDBRANCH   5   6
ENDBRANCH   4   5
ENDBRANCH   3   4
ENDBRANCH   2   3
ENDBRANCH   1   2
BRANCH   1  13
ATOM     13  C   UNL     1      -8.264 -17.682  11.193  1.00  0.00     0.000 C 
BRANCH  13  14
ATOM     14  C   UNL     1      -8.205 -17.136   9.758  1.00  0.00     0.000 C 
BRANCH  14  15
ATOM     15  C   UNL     1      -7.943 -18.235   8.712  1.00  0.00     0.000 C 
BRANCH  15  16
ATOM     16  C   UNL     1      -8.353 -19.649   9.178  1.00  0.00     0.000 C 
BRANCH  16  17
ATOM     17  C   UNL     1      -8.062 -19.873  10.674  1.00  0.00     0.000 C 
BRANCH  17  18
ATOM     18  C   UNL     1      -8.679 -21.176  11.214  1.00  0.00     0.000 C 
BRANCH  18  19
ATOM     19  C   UNL     1     -10.021 -20.999  11.946  1.00  0.00     0.000 C 
BRANCH  19  20
ATOM     20  C   UNL     1     -10.528 -22.300  12.586  1.00  0.00     0.006 C 
BRANCH  20  21
ATOM     21  C   UNL     1     -11.928 -22.657  12.076  1.00  0.00     0.053 C 
BRANCH  21  22
ATOM     22  C   UNL     1     -12.851 -22.922  13.222  1.00  0.00     0.041 C 
ATOM     23  O   UNL     1     -12.399 -22.996  14.396  1.00  0.00    -0.550 OA
ATOM     24  O   UNL     1     -14.218 -23.038  13.003  1.00  0.00    -0.550 OA
ENDBRANCH  21  22
ENDBRANCH  20  21
ENDBRANCH  19  20
ENDBRANCH  18  19
ENDBRANCH  17  18
ENDBRANCH  16  17
ENDBRANCH  15  16
ENDBRANCH  14  15
ENDBRANCH  13  14
ENDBRANCH   1  13
TORSDOF 20
ENDMDL
MODEL 3
REMARK VINA RESULT:     0.259      2.144      5.360
REMARK INTER + INTRA:          -0.144
REMARK INTER:                   0.484
REMARK INTRA:                  -0.628
REMARK UNBOUND:                -0.706
REMARK SMILES CCCCCCCCCCCCCCCCCCCCCC(=O)[O-]
REMARK SMILES IDX 12 1 11 2 10 3 9 4 8 5 7 6 6 7 5 8 4 9 3 10 2 11 1 12 13 13
REMARK SMILES IDX 14 14 15 15 16 16 17 17 18 18 19 19 20 20 21 21 22 22 23 23
REMARK SMILES IDX 24 24
REMARK H PARENT
REMARK Flexibility Score: inf
ROOT
ATOM      1  C   UNL     1     -11.912 -17.146  14.454  1.00  0.00     0.000 C 
ENDROOT
BRANCH   1   2
ATOM      2  C   UNL     1     -10.700 -16.229  14.200  1.00  0.00     0.000 C 
BRANCH   2   3
ATOM      3  C   UNL     1      -9.497 -16.904  13.512  1.00  0.00     0.000 C 
BRANCH   3   4
ATOM      4  C   UNL     1      -8.415 -15.939  12.986  1.00  0.00    -0.000 C 
BRANCH   4   5
ATOM      5  C   UNL     1      -7.875 -16.270  11.584  1.00  0.00    -0.000 C 
BRANCH   5   6
ATOM      6  C   UNL     1      -8.749 -17.281  10.828  1.00  0.00    -0.000 C 
BRANCH   6   7
ATOM      7  C   UNL     1      -7.906 -18.104   9.847  1.00  0.00    -0.000 C 
BRANCH   7   8
ATOM      8  C   UNL     1      -8.659 -19.358   9.387  1.00  0.00    -0.000 C 
BRANCH   8   9
ATOM      9  C   UNL     1      -8.076 -20.618  10.038  1.00  0.00    -0.000 C 
BRANCH   9  10
ATOM     10  C   UNL     1      -7.972 -20.453  11.561  1.00  0.00    -0.000 C 
BRANCH  10  11
ATOM     11  C   UNL     1      -9.326 -20.620  12.267  1.00  0.00    -0.003 C 
ATOM     12  C   UNL     1     -10.168 -21.750  11.675  1.00  0.00     0.004 C 
ENDBRANCH  10  11
ENDBRANCH   9  10
ENDBRANCH   8   9
ENDBRANCH   7   8
ENDBRANCH   6   7
ENDBRANCH   5   6
ENDBRANCH   4   5
ENDBRANCH   3   4
ENDBRANCH   2   3
ENDBRANCH   1   2
BRANCH   1  13
ATOM     13  C   UNL     1     -12.054 -17.665  15.895  1.00  0.00     0.000 C 
BRANCH  13  14
ATOM     14  C   UNL     1     -11.404 -19.040  16.107  1.00  0.00     0.000 C 
BRANCH  14  15
ATOM     15  C   UNL     1     -10.105 -19.217  15.300  1.00  0.00     0.000 C 
BRANCH  15  16
ATOM     16  C   UNL     1      -9.133 -20.253  15.904  1.00  0.00     0.000 C 
BRANCH  16  17
ATOM     17  C   UNL     1      -9.791 -21.634  16.076  1.00  0.00     0.000 C 
BRANCH  17  18
ATOM     18  C   UNL     1     -10.319 -22.214  14.752  1.00  0.00     0.000 C 
BRANCH  18  19
ATOM     19  C   UNL     1     -11.647 -22.984  14.870  1.00  0.00     0.000 C 
BRANCH  19  20
ATOM     20  C   UNL     1     -12.448 -22.606  16.125  1.00  0.00     0.006 C 
BRANCH  20  21
ATOM     21  C   UNL     1     -13.955 -22.739  15.879  1.00  0.00     0.053 C 
BRANCH  21  22
ATOM     22  C   UNL     1     -14.313 -22.208  14.527  1.00  0.00     0.041 C 
ATOM     23  O   UNL     1     -14.308 -22.972  13.525  1.00  0.00    -0.550 OA
ATOM     24  O   UNL     1     -14.701 -20.883  14.380  1.00  0.00    -0.550 OA
ENDBRANCH  21  22
ENDBRANCH  20  21
ENDBRANCH  19  20
ENDBRANCH  18  19
ENDBRANCH  17  18
ENDBRANCH  16  17
ENDBRANCH  15  16
ENDBRANCH  14  15
ENDBRANCH  13  14
ENDBRANCH   1  13
TORSDOF 20
ENDMDL
