MODEL 1
REMARK VINA RESULT:    -4.810      0.000      0.000
REMARK INTER + INTRA:          -7.273
REMARK INTER:                  -6.778
REMARK INTRA:                  -0.496
REMARK UNBOUND:                -0.496
REMARK SMILES CCCCCCCCC(=O)[O-]
REMARK SMILES IDX 6 1 7 2 8 3 9 4 10 5 11 6 5 7 4 8 3 9 2 10 1 11
REMARK H PARENT
REMARK Flexibility Score: inf
ROOT
ATOM      1  C   UNL     1      86.908 326.540 194.288  1.00  0.00     0.000 C 
ENDROOT
BRANCH   1   2
ATOM      2  C   UNL     1      86.991 326.309 195.807  1.00  0.00     0.006 C 
BRANCH   2   3
ATOM      3  C   UNL     1      88.429 326.050 196.275  1.00  0.00     0.053 C 
BRANCH   3   4
ATOM      4  C   UNL     1      88.652 324.607 196.614  1.00  0.00     0.041 C 
ATOM      5  O   UNL     1      89.444 324.289 197.540  1.00  0.00    -0.550 OA
ATOM      6  O   UNL     1      88.005 323.616 195.889  1.00  0.00    -0.550 OA
ENDBRANCH   3   4
ENDBRANCH   2   3
ENDBRANCH   1   2
BRANCH   1   7
ATOM      7  C   UNL     1      85.875 325.629 193.599  1.00  0.00     0.000 C 
BRANCH   7   8
ATOM      8  C   UNL     1      86.472 324.506 192.730  1.00  0.00    -0.000 C 
BRANCH   8   9
ATOM      9  C   UNL     1      87.944 324.709 192.320  1.00  0.00    -0.000 C 
BRANCH   9  10
ATOM     10  C   UNL     1      88.322 324.011 190.998  1.00  0.00    -0.003 C 
ATOM     11  C   UNL     1      87.258 323.019 190.528  1.00  0.00     0.004 C 
ENDBRANCH   9  10
ENDBRANCH   8   9
ENDBRANCH   7   8
ENDBRANCH   1   7
TORSDOF 7
ENDMDL
MODEL 2
REMARK VINA RESULT:    -4.788      2.674      5.036
REMARK INTER + INTRA:          -7.243
REMARK INTER:                  -6.685
REMARK INTRA:                  -0.558
REMARK UNBOUND:                -0.496
REMARK SMILES CCCCCCCCC(=O)[O-]
REMARK SMILES IDX 6 1 7 2 8 3 9 4 10 5 11 6 5 7 4 8 3 9 2 10 1 11
REMARK H PARENT
REMARK Flexibility Score: inf
ROOT
ATOM      1  C   UNL     1      87.781 325.687 193.237  1.00  0.00     0.000 C 
ENDROOT
BRANCH   1   2
ATOM      2  C   UNL     1      88.124 324.236 192.859  1.00  0.00     0.006 C 
BRANCH   2   3
ATOM      3  C   UNL     1      88.181 324.030 191.340  1.00  0.00     0.053 C 
BRANCH   3   4
ATOM      4  C   UNL     1      87.047 323.180 190.851  1.00  0.00     0.041 C 
ATOM      5  O   UNL     1      87.143 322.562 189.759  1.00  0.00    -0.550 OA
ATOM      6  O   UNL     1      85.875 323.093 191.591  1.00  0.00    -0.550 OA
ENDBRANCH   3   4
ENDBRANCH   2   3
ENDBRANCH   1   2
BRANCH   1   7
ATOM      7  C   UNL     1      86.528 325.796 194.125  1.00  0.00     0.000 C 
BRANCH   7   8
ATOM      8  C   UNL     1      86.804 326.106 195.608  1.00  0.00    -0.000 C 
BRANCH   8   9
ATOM      9  C   UNL     1      88.294 326.218 195.987  1.00  0.00    -0.000 C 
BRANCH   9  10
ATOM     10  C   UNL     1      88.759 325.152 197.000  1.00  0.00    -0.003 C 
ATOM     11  C   UNL     1      88.334 323.737 196.606  1.00  0.00     0.004 C 
ENDBRANCH   9  10
ENDBRANCH   8   9
ENDBRANCH   7   8
ENDBRANCH   1   7
TORSDOF 7
ENDMDL
MODEL 3
REMARK VINA RESULT:    -4.763     19.103     20.365
REMARK INTER + INTRA:          -7.208
REMARK INTER:                  -6.809
REMARK INTRA:                  -0.398
REMARK UNBOUND:                -0.496
REMARK SMILES CCCCCCCCC(=O)[O-]
REMARK SMILES IDX 6 1 7 2 8 3 9 4 10 5 11 6 5 7 4 8 3 9 2 10 1 11
REMARK H PARENT
REMARK Flexibility Score: inf
ROOT
ATOM      1  C   UNL     1     105.744 313.319 191.726  1.00  0.00     0.000 C 
ENDROOT
BRANCH   1   2
ATOM      2  C   UNL     1     105.997 312.240 192.793  1.00  0.00     0.006 C 
BRANCH   2   3
ATOM      3  C   UNL     1     104.692 311.619 193.309  1.00  0.00     0.053 C 
BRANCH   3   4
ATOM      4  C   UNL     1     104.324 312.145 194.664  1.00  0.00     0.041 C 
ATOM      5  O   UNL     1     103.519 311.509 195.393  1.00  0.00    -0.550 OA
ATOM      6  O   UNL     1     104.853 313.349 195.108  1.00  0.00    -0.550 OA
ENDBRANCH   3   4
ENDBRANCH   2   3
ENDBRANCH   1   2
BRANCH   1   7
ATOM      7  C   UNL     1     104.283 313.353 191.243  1.00  0.00     0.000 C 
BRANCH   7   8
ATOM      8  C   UNL     1     103.524 314.658 191.549  1.00  0.00    -0.000 C 
BRANCH   8   9
ATOM      9  C   UNL     1     103.144 315.499 190.315  1.00  0.00    -0.000 C 
BRANCH   9  10
ATOM     10  C   UNL     1     103.316 314.751 188.976  1.00  0.00    -0.003 C 
ATOM     11  C   UNL     1     101.981 314.361 188.343  1.00  0.00     0.004 C 
ENDBRANCH   9  10
ENDBRANCH   8   9
ENDBRANCH   7   8
ENDBRANCH   1   7
TORSDOF 7
ENDMDL
MODEL 4
REMARK VINA RESULT:    -4.742      1.357      1.907
REMARK INTER + INTRA:          -7.178
REMARK INTER:                  -6.884
REMARK INTRA:                  -0.294
REMARK UNBOUND:                -0.496
REMARK SMILES CCCCCCCCC(=O)[O-]
REMARK SMILES IDX 6 1 7 2 8 3 9 4 10 5 11 6 5 7 4 8 3 9 2 10 1 11
REMARK H PARENT
REMARK Flexibility Score: inf
ROOT
ATOM      1  C   UNL     1      87.748 325.363 193.197  1.00  0.00     0.000 C 
ENDROOT
BRANCH   1   2
ATOM      2  C   UNL     1      87.282 326.577 194.019  1.00  0.00     0.006 C 
BRANCH   2   3
ATOM      3  C   UNL     1      86.806 326.178 195.422  1.00  0.00     0.053 C 
BRANCH   3   4
ATOM      4  C   UNL     1      87.933 325.667 196.267  1.00  0.00     0.041 C 
ATOM      5  O   UNL     1      88.818 326.457 196.689  1.00  0.00    -0.550 OA
ATOM      6  O   UNL     1      88.019 324.314 196.566  1.00  0.00    -0.550 OA
ENDBRANCH   3   4
ENDBRANCH   2   3
ENDBRANCH   1   2
BRANCH   1   7
ATOM      7  C   UNL     1      86.578 324.547 192.617  1.00  0.00     0.000 C 
BRANCH   7   8
ATOM      8  C   UNL     1      86.955 323.589 191.472  1.00  0.00    -0.000 C 
BRANCH   8   9
ATOM      9  C   UNL     1      88.362 323.796 190.881  1.00  0.00    -0.000 C 
BRANCH   9  10
ATOM     10  C   UNL     1      88.547 323.174 189.481  1.00  0.00    -0.003 C 
ATOM     11  C   UNL     1      89.845 323.618 188.806  1.00  0.00     0.004 C 
ENDBRANCH   9  10
ENDBRANCH   8   9
ENDBRANCH   7   8
ENDBRANCH   1   7
TORSDOF 7
ENDMDL
MODEL 5
REMARK VINA RESULT:    -4.740     19.813     21.072
REMARK INTER + INTRA:          -7.175
REMARK INTER:                  -6.599
REMARK INTRA:                  -0.576
REMARK UNBOUND:                -0.496
REMARK SMILES CCCCCCCCC(=O)[O-]
REMARK SMILES IDX 6 1 7 2 8 3 9 4 10 5 11 6 5 7 4 8 3 9 2 10 1 11
REMARK H PARENT
REMARK Flexibility Score: inf
ROOT
ATOM      1  C   UNL     1     104.250 312.404 192.188  1.00  0.00     0.000 C 
ENDROOT
BRANCH   1   2
ATOM      2  C   UNL     1     103.983 313.875 191.825  1.00  0.00     0.006 C 
BRANCH   2   3
ATOM      3  C   UNL     1     103.874 314.087 190.310  1.00  0.00     0.053 C 
BRANCH   3   4
ATOM      4  C   UNL     1     104.918 315.037 189.806  1.00  0.00     0.041 C 
ATOM      5  O   UNL     1     106.124 314.885 190.134  1.00  0.00    -0.550 OA
ATOM      6  O   UNL     1     104.554 316.104 188.995  1.00  0.00    -0.550 OA
ENDBRANCH   3   4
ENDBRANCH   2   3
ENDBRANCH   1   2
BRANCH   1   7
ATOM      7  C   UNL     1     105.626 312.190 192.846  1.00  0.00     0.000 C 
BRANCH   7   8
ATOM      8  C   UNL     1     105.624 312.217 194.386  1.00  0.00    -0.000 C 
BRANCH   8   9
ATOM      9  C   UNL     1     104.268 311.897 195.045  1.00  0.00    -0.000 C 
BRANCH   9  10
ATOM     10  C   UNL     1     103.749 313.013 195.975  1.00  0.00    -0.003 C 
ATOM     11  C   UNL     1     104.222 314.403 195.549  1.00  0.00     0.004 C 
ENDBRANCH   9  10
ENDBRANCH   8   9
ENDBRANCH   7   8
ENDBRANCH   1   7
TORSDOF 7
ENDMDL
MODEL 6
REMARK VINA RESULT:    -4.712     19.242     20.481
REMARK INTER + INTRA:          -7.137
REMARK INTER:                  -6.614
REMARK INTRA:                  -0.523
REMARK UNBOUND:                -0.496
REMARK SMILES CCCCCCCCC(=O)[O-]
REMARK SMILES IDX 6 1 7 2 8 3 9 4 10 5 11 6 5 7 4 8 3 9 2 10 1 11
REMARK H PARENT
REMARK Flexibility Score: inf
ROOT
ATOM      1  C   UNL     1     104.991 311.533 193.496  1.00  0.00     0.000 C 
ENDROOT
BRANCH   1   2
ATOM      2  C   UNL     1     105.042 311.906 194.987  1.00  0.00     0.006 C 
BRANCH   2   3
ATOM      3  C   UNL     1     103.756 312.601 195.455  1.00  0.00     0.053 C 
BRANCH   3   4
ATOM      4  C   UNL     1     103.898 314.093 195.450  1.00  0.00     0.041 C 
ATOM      5  O   UNL     1     103.672 314.747 194.398  1.00  0.00    -0.550 OA
ATOM      6  O   UNL     1     104.304 314.756 196.600  1.00  0.00    -0.550 OA
ENDBRANCH   3   4
ENDBRANCH   2   3
ENDBRANCH   1   2
BRANCH   1   7
ATOM      7  C   UNL     1     106.089 312.225 192.667  1.00  0.00     0.000 C 
BRANCH   7   8
ATOM      8  C   UNL     1     105.593 313.335 191.722  1.00  0.00    -0.000 C 
BRANCH   8   9
ATOM      9  C   UNL     1     104.113 313.226 191.306  1.00  0.00    -0.000 C 
BRANCH   9  10
ATOM     10  C   UNL     1     103.504 314.558 190.821  1.00  0.00    -0.003 C 
ATOM     11  C   UNL     1     103.077 314.512 189.354  1.00  0.00     0.004 C 
ENDBRANCH   9  10
ENDBRANCH   8   9
ENDBRANCH   7   8
ENDBRANCH   1   7
TORSDOF 7
ENDMDL
MODEL 7
REMARK VINA RESULT:    -4.712     19.466     20.959
REMARK INTER + INTRA:          -7.136
REMARK INTER:                  -6.889
REMARK INTRA:                  -0.247
REMARK UNBOUND:                -0.496
REMARK SMILES CCCCCCCCC(=O)[O-]
REMARK SMILES IDX 6 1 7 2 8 3 9 4 10 5 11 6 5 7 4 8 3 9 2 10 1 11
REMARK H PARENT
REMARK Flexibility Score: inf
ROOT
ATOM      1  C   UNL     1     105.368 313.324 191.586  1.00  0.00     0.000 C 
ENDROOT
BRANCH   1   2
ATOM      2  C   UNL     1     104.916 314.359 190.542  1.00  0.00     0.006 C 
BRANCH   2   3
ATOM      3  C   UNL     1     103.413 314.266 190.248  1.00  0.00     0.053 C 
BRANCH   3   4
ATOM      4  C   UNL     1     103.098 314.660 188.836  1.00  0.00     0.041 C 
ATOM      5  O   UNL     1     101.996 314.337 188.319  1.00  0.00    -0.550 OA
ATOM      6  O   UNL     1     104.032 315.361 188.086  1.00  0.00    -0.550 OA
ENDBRANCH   3   4
ENDBRANCH   2   3
ENDBRANCH   1   2
BRANCH   1   7
ATOM      7  C   UNL     1     104.196 312.520 192.179  1.00  0.00     0.000 C 
BRANCH   7   8
ATOM      8  C   UNL     1     104.599 311.418 193.176  1.00  0.00    -0.000 C 
BRANCH   8   9
ATOM      9  C   UNL     1     105.041 311.921 194.564  1.00  0.00    -0.000 C 
BRANCH   9  10
ATOM     10  C   UNL     1     103.867 312.239 195.513  1.00  0.00    -0.003 C 
ATOM     11  C   UNL     1     103.906 311.413 196.798  1.00  0.00     0.004 C 
ENDBRANCH   9  10
ENDBRANCH   8   9
ENDBRANCH   7   8
ENDBRANCH   1   7
TORSDOF 7
ENDMDL
MODEL 8
REMARK VINA RESULT:    -4.707     19.460     20.669
REMARK INTER + INTRA:          -7.129
REMARK INTER:                  -6.769
REMARK INTRA:                  -0.361
REMARK UNBOUND:                -0.496
REMARK SMILES CCCCCCCCC(=O)[O-]
REMARK SMILES IDX 6 1 7 2 8 3 9 4 10 5 11 6 5 7 4 8 3 9 2 10 1 11
REMARK H PARENT
REMARK Flexibility Score: inf
ROOT
ATOM      1  C   UNL     1     105.247 311.822 194.812  1.00  0.00     0.000 C 
ENDROOT
BRANCH   1   2
ATOM      2  C   UNL     1     103.877 311.911 195.506  1.00  0.00     0.006 C 
BRANCH   2   3
ATOM      3  C   UNL     1     103.622 313.300 196.107  1.00  0.00     0.053 C 
BRANCH   3   4
ATOM      4  C   UNL     1     103.500 313.245 197.599  1.00  0.00     0.041 C 
ATOM      5  O   UNL     1     103.500 312.136 198.195  1.00  0.00    -0.550 OA
ATOM      6  O   UNL     1     103.360 314.418 198.328  1.00  0.00    -0.550 OA
ENDBRANCH   3   4
ENDBRANCH   2   3
ENDBRANCH   1   2
BRANCH   1   7
ATOM      7  C   UNL     1     105.136 311.550 193.300  1.00  0.00     0.000 C 
BRANCH   7   8
ATOM      8  C   UNL     1     106.123 312.341 192.420  1.00  0.00    -0.000 C 
BRANCH   8   9
ATOM      9  C   UNL     1     105.505 313.515 191.637  1.00  0.00    -0.000 C 
BRANCH   9  10
ATOM     10  C   UNL     1     103.992 313.361 191.376  1.00  0.00    -0.003 C 
ATOM     11  C   UNL     1     103.496 314.254 190.239  1.00  0.00     0.004 C 
ENDBRANCH   9  10
ENDBRANCH   8   9
ENDBRANCH   7   8
ENDBRANCH   1   7
TORSDOF 7
ENDMDL
MODEL 9
REMARK VINA RESULT:    -4.615      1.815      4.173
REMARK INTER + INTRA:          -7.000
REMARK INTER:                  -6.172
REMARK INTRA:                  -0.828
REMARK UNBOUND:                -0.496
REMARK SMILES CCCCCCCCC(=O)[O-]
REMARK SMILES IDX 6 1 7 2 8 3 9 4 10 5 11 6 5 7 4 8 3 9 2 10 1 11
REMARK H PARENT
REMARK Flexibility Score: inf
ROOT
ATOM      1  C   UNL     1      87.558 324.619 192.162  1.00  0.00     0.000 C 
ENDROOT
BRANCH   1   2
ATOM      2  C   UNL     1      88.496 323.408 192.309  1.00  0.00     0.006 C 
BRANCH   2   3
ATOM      3  C   UNL     1      88.476 322.828 193.729  1.00  0.00     0.053 C 
BRANCH   3   4
ATOM      4  C   UNL     1      87.141 322.238 194.069  1.00  0.00     0.041 C 
ATOM      5  O   UNL     1      86.594 322.500 195.173  1.00  0.00    -0.550 OA
ATOM      6  O   UNL     1      86.513 321.379 193.176  1.00  0.00    -0.550 OA
ENDBRANCH   3   4
ENDBRANCH   2   3
ENDBRANCH   1   2
BRANCH   1   7
ATOM      7  C   UNL     1      87.827 325.715 193.209  1.00  0.00     0.000 C 
BRANCH   7   8
ATOM      8  C   UNL     1      86.606 326.126 194.053  1.00  0.00    -0.000 C 
BRANCH   8   9
ATOM      9  C   UNL     1      86.803 326.032 195.578  1.00  0.00    -0.000 C 
BRANCH   9  10
ATOM     10  C   UNL     1      88.282 326.050 196.016  1.00  0.00    -0.003 C 
ATOM     11  C   UNL     1      88.651 324.856 196.897  1.00  0.00     0.004 C 
ENDBRANCH   9  10
ENDBRANCH   8   9
ENDBRANCH   7   8
ENDBRANCH   1   7
TORSDOF 7
ENDMDL
