MODEL 1
REMARK VINA RESULT:    -3.871      0.000      0.000
REMARK INTER + INTRA:          -5.409
REMARK INTER:                  -5.116
REMARK INTRA:                  -0.293
REMARK UNBOUND:                -0.293
REMARK SMILES CCCCCCCO
REMARK SMILES IDX 5 1 4 2 3 3 2 4 1 5 6 6 7 7 8 8
REMARK H PARENT 8 9
REMARK Flexibility Score: inf
ROOT
ATOM      1  C   UNL     1      19.911  -1.152 -15.235  1.00  0.00     0.002 C 
ENDROOT
BRANCH   1   2
ATOM      2  C   UNL     1      20.714  -1.762 -16.393  1.00  0.00     0.000 C 
BRANCH   2   3
ATOM      3  C   UNL     1      19.781  -2.351 -17.457  1.00  0.00    -0.000 C 
BRANCH   3   4
ATOM      4  C   UNL     1      20.022  -1.698 -18.823  1.00  0.00    -0.003 C 
ATOM      5  C   UNL     1      21.065  -0.589 -18.728  1.00  0.00     0.004 C 
ENDBRANCH   3   4
ENDBRANCH   2   3
ENDBRANCH   1   2
BRANCH   1   6
ATOM      6  C   UNL     1      19.828   0.380 -15.314  1.00  0.00     0.028 C 
BRANCH   6   7
ATOM      7  C   UNL     1      18.496   0.874 -15.893  1.00  0.00     0.156 C 
BRANCH   7   8
ATOM      8  O   UNL     1      17.487   0.788 -14.923  1.00  0.00    -0.396 OA
ATOM      9  H   UNL     1      17.455  -0.159 -14.628  1.00  0.00     0.210 HD
ENDBRANCH   7   8
ENDBRANCH   6   7
ENDBRANCH   1   6
TORSDOF 6
ENDMDL
MODEL 2
REMARK VINA RESULT:    -3.757      7.962      9.328
REMARK INTER + INTRA:          -5.258
REMARK INTER:                  -4.939
REMARK INTRA:                  -0.319
REMARK UNBOUND:                -0.293
REMARK SMILES CCCCCCCO
REMARK SMILES IDX 5 1 4 2 3 3 2 4 1 5 6 6 7 7 8 8
REMARK H PARENT 8 9
REMARK Flexibility Score: inf
ROOT
ATOM      1  C   UNL     1      15.692   0.557 -25.585  1.00  0.00     0.002 C 
ENDROOT
BRANCH   1   2
ATOM      2  C   UNL     1      16.347  -0.439 -24.617  1.00  0.00     0.000 C 
BRANCH   2   3
ATOM      3  C   UNL     1      16.606   0.211 -23.253  1.00  0.00    -0.000 C 
BRANCH   3   4
ATOM      4  C   UNL     1      18.022  -0.098 -22.755  1.00  0.00    -0.003 C 
ATOM      5  C   UNL     1      19.011  -0.172 -23.915  1.00  0.00     0.004 C 
ENDBRANCH   3   4
ENDBRANCH   2   3
ENDBRANCH   1   2
BRANCH   1   6
ATOM      6  C   UNL     1      15.999   2.019 -25.229  1.00  0.00     0.028 C 
BRANCH   6   7
ATOM      7  C   UNL     1      17.224   2.566 -25.972  1.00  0.00     0.156 C 
BRANCH   7   8
ATOM      8  O   UNL     1      17.249   2.078 -27.286  1.00  0.00    -0.396 OA
ATOM      9  H   UNL     1      16.557   1.369 -27.340  1.00  0.00     0.210 HD
ENDBRANCH   7   8
ENDBRANCH   6   7
ENDBRANCH   1   6
TORSDOF 6
ENDMDL
MODEL 3
REMARK VINA RESULT:    -3.722      7.530      8.941
REMARK INTER + INTRA:          -5.213
REMARK INTER:                  -4.858
REMARK INTRA:                  -0.354
REMARK UNBOUND:                -0.293
REMARK SMILES CCCCCCCO
REMARK SMILES IDX 5 1 4 2 3 3 2 4 1 5 6 6 7 7 8 8
REMARK H PARENT 8 9
REMARK Flexibility Score: inf
ROOT
ATOM      1  C   UNL     1      16.695   0.336 -23.300  1.00  0.00     0.002 C 
ENDROOT
BRANCH   1   2
ATOM      2  C   UNL     1      16.908   1.728 -23.912  1.00  0.00     0.000 C 
BRANCH   2   3
ATOM      3  C   UNL     1      15.984   1.945 -25.117  1.00  0.00    -0.000 C 
BRANCH   3   4
ATOM      4  C   UNL     1      16.117   0.798 -26.125  1.00  0.00    -0.003 C 
ATOM      5  C   UNL     1      17.467   0.840 -26.835  1.00  0.00     0.004 C 
ENDBRANCH   3   4
ENDBRANCH   2   3
ENDBRANCH   1   2
BRANCH   1   6
ATOM      6  C   UNL     1      18.014  -0.413 -23.059  1.00  0.00     0.028 C 
BRANCH   6   7
ATOM      7  C   UNL     1      18.135  -1.689 -23.901  1.00  0.00     0.156 C 
BRANCH   7   8
ATOM      8  O   UNL     1      16.865  -2.121 -24.308  1.00  0.00    -0.396 OA
ATOM      9  H   UNL     1      16.204  -1.558 -23.826  1.00  0.00     0.210 HD
ENDBRANCH   7   8
ENDBRANCH   6   7
ENDBRANCH   1   6
TORSDOF 6
ENDMDL
MODEL 4
REMARK VINA RESULT:    -3.715      0.791      1.345
REMARK INTER + INTRA:          -5.202
REMARK INTER:                  -4.903
REMARK INTRA:                  -0.299
REMARK UNBOUND:                -0.293
REMARK SMILES CCCCCCCO
REMARK SMILES IDX 5 1 4 2 3 3 2 4 1 5 6 6 7 7 8 8
REMARK H PARENT 8 9
REMARK Flexibility Score: inf
ROOT
ATOM      1  C   UNL     1      20.317  -0.055 -14.896  1.00  0.00     0.002 C 
ENDROOT
BRANCH   1   2
ATOM      2  C   UNL     1      20.484  -1.275 -15.815  1.00  0.00     0.000 C 
BRANCH   2   3
ATOM      3  C   UNL     1      21.535  -1.006 -16.898  1.00  0.00    -0.000 C 
BRANCH   3   4
ATOM      4  C   UNL     1      21.034  -1.456 -18.276  1.00  0.00    -0.003 C 
ATOM      5  C   UNL     1      19.772  -2.304 -18.154  1.00  0.00     0.004 C 
ENDBRANCH   3   4
ENDBRANCH   2   3
ENDBRANCH   1   2
BRANCH   1   6
ATOM      6  C   UNL     1      19.785   1.179 -15.641  1.00  0.00     0.028 C 
BRANCH   6   7
ATOM      7  C   UNL     1      18.327   1.021 -16.086  1.00  0.00     0.156 C 
BRANCH   7   8
ATOM      8  O   UNL     1      17.501   0.820 -14.971  1.00  0.00    -0.396 OA
ATOM      9  H   UNL     1      17.650  -0.114 -14.670  1.00  0.00     0.210 HD
ENDBRANCH   7   8
ENDBRANCH   6   7
ENDBRANCH   1   6
TORSDOF 6
ENDMDL
MODEL 5
REMARK VINA RESULT:    -3.657      2.048      3.816
REMARK INTER + INTRA:          -5.126
REMARK INTER:                  -4.866
REMARK INTRA:                  -0.261
REMARK UNBOUND:                -0.293
REMARK SMILES CCCCCCCO
REMARK SMILES IDX 5 1 4 2 3 3 2 4 1 5 6 6 7 7 8 8
REMARK H PARENT 8 9
REMARK Flexibility Score: inf
ROOT
ATOM      1  C   UNL     1      21.568  -1.006 -17.187  1.00  0.00     0.002 C 
ENDROOT
BRANCH   1   2
ATOM      2  C   UNL     1      21.464  -1.051 -15.656  1.00  0.00     0.000 C 
BRANCH   2   3
ATOM      3  C   UNL     1      20.029  -0.771 -15.195  1.00  0.00    -0.000 C 
BRANCH   3   4
ATOM      4  C   UNL     1      19.851   0.703 -14.811  1.00  0.00    -0.003 C 
ATOM      5  C   UNL     1      18.483   1.224 -15.242  1.00  0.00     0.004 C 
ENDBRANCH   3   4
ENDBRANCH   2   3
ENDBRANCH   1   2
BRANCH   1   6
ATOM      6  C   UNL     1      20.204  -1.159 -17.878  1.00  0.00     0.028 C 
BRANCH   6   7
ATOM      7  C   UNL     1      19.994  -2.556 -18.474  1.00  0.00     0.156 C 
BRANCH   7   8
ATOM      8  O   UNL     1      19.110  -3.294 -17.673  1.00  0.00    -0.396 OA
ATOM      9  H   UNL     1      19.630  -3.607 -16.888  1.00  0.00     0.210 HD
ENDBRANCH   7   8
ENDBRANCH   6   7
ENDBRANCH   1   6
TORSDOF 6
ENDMDL
MODEL 6
REMARK VINA RESULT:    -3.611      7.822      9.360
REMARK INTER + INTRA:          -5.066
REMARK INTER:                  -4.696
REMARK INTRA:                  -0.370
REMARK UNBOUND:                -0.293
REMARK SMILES CCCCCCCO
REMARK SMILES IDX 5 1 4 2 3 3 2 4 1 5 6 6 7 7 8 8
REMARK H PARENT 8 9
REMARK Flexibility Score: inf
ROOT
ATOM      1  C   UNL     1      16.058   1.745 -25.088  1.00  0.00     0.002 C 
ENDROOT
BRANCH   1   2
ATOM      2  C   UNL     1      16.840   1.680 -23.768  1.00  0.00     0.000 C 
BRANCH   2   3
ATOM      3  C   UNL     1      16.695   0.302 -23.112  1.00  0.00    -0.000 C 
BRANCH   3   4
ATOM      4  C   UNL     1      18.048  -0.415 -23.033  1.00  0.00    -0.003 C 
ATOM      5  C   UNL     1      18.045  -1.692 -23.867  1.00  0.00     0.004 C 
ENDBRANCH   3   4
ENDBRANCH   2   3
ENDBRANCH   1   2
BRANCH   1   6
ATOM      6  C   UNL     1      16.967   1.629 -26.322  1.00  0.00     0.028 C 
BRANCH   6   7
ATOM      7  C   UNL     1      17.089   0.189 -26.835  1.00  0.00     0.156 C 
BRANCH   7   8
ATOM      8  O   UNL     1      15.952  -0.550 -26.476  1.00  0.00    -0.396 OA
ATOM      9  H   UNL     1      16.248  -1.222 -25.809  1.00  0.00     0.210 HD
ENDBRANCH   7   8
ENDBRANCH   6   7
ENDBRANCH   1   6
TORSDOF 6
ENDMDL
MODEL 7
REMARK VINA RESULT:    -3.531     14.234     15.475
REMARK INTER + INTRA:          -4.959
REMARK INTER:                  -4.734
REMARK INTRA:                  -0.225
REMARK UNBOUND:                -0.293
REMARK SMILES CCCCCCCO
REMARK SMILES IDX 5 1 4 2 3 3 2 4 1 5 6 6 7 7 8 8
REMARK H PARENT 8 9
REMARK Flexibility Score: inf
ROOT
ATOM      1  C   UNL     1      24.857 -12.792 -23.778  1.00  0.00     0.002 C 
ENDROOT
BRANCH   1   2
ATOM      2  C   UNL     1      26.167 -12.514 -24.529  1.00  0.00     0.000 C 
BRANCH   2   3
ATOM      3  C   UNL     1      26.495 -13.654 -25.501  1.00  0.00    -0.000 C 
BRANCH   3   4
ATOM      4  C   UNL     1      27.004 -13.106 -26.840  1.00  0.00    -0.003 C 
ATOM      5  C   UNL     1      26.694 -11.619 -26.981  1.00  0.00     0.004 C 
ENDBRANCH   3   4
ENDBRANCH   2   3
ENDBRANCH   1   2
BRANCH   1   6
ATOM      6  C   UNL     1      23.613 -12.451 -24.613  1.00  0.00     0.028 C 
BRANCH   6   7
ATOM      7  C   UNL     1      22.304 -12.670 -23.845  1.00  0.00     0.156 C 
BRANCH   7   8
ATOM      8  O   UNL     1      21.666 -11.442 -23.619  1.00  0.00    -0.396 OA
ATOM      9  H   UNL     1      20.806 -11.472 -24.114  1.00  0.00     0.210 HD
ENDBRANCH   7   8
ENDBRANCH   6   7
ENDBRANCH   1   6
TORSDOF 6
ENDMDL
MODEL 8
REMARK VINA RESULT:    -3.523      8.577     10.224
REMARK INTER + INTRA:          -4.949
REMARK INTER:                  -4.705
REMARK INTRA:                  -0.245
REMARK UNBOUND:                -0.293
REMARK SMILES CCCCCCCO
REMARK SMILES IDX 5 1 4 2 3 3 2 4 1 5 6 6 7 7 8 8
REMARK H PARENT 8 9
REMARK Flexibility Score: inf
ROOT
ATOM      1  C   UNL     1      16.895   1.449 -26.603  1.00  0.00     0.002 C 
ENDROOT
BRANCH   1   2
ATOM      2  C   UNL     1      16.219   1.546 -25.228  1.00  0.00     0.000 C 
BRANCH   2   3
ATOM      3  C   UNL     1      16.111   0.166 -24.571  1.00  0.00    -0.000 C 
BRANCH   3   4
ATOM      4  C   UNL     1      16.776   0.160 -23.189  1.00  0.00    -0.003 C 
ATOM      5  C   UNL     1      17.188   1.568 -22.770  1.00  0.00     0.004 C 
ENDBRANCH   3   4
ENDBRANCH   2   3
ENDBRANCH   1   2
BRANCH   1   6
ATOM      6  C   UNL     1      18.126   0.528 -26.594  1.00  0.00     0.028 C 
BRANCH   6   7
ATOM      7  C   UNL     1      18.259  -0.297 -27.879  1.00  0.00     0.156 C 
BRANCH   7   8
ATOM      8  O   UNL     1      18.664  -1.605 -27.574  1.00  0.00    -0.396 OA
ATOM      9  H   UNL     1      18.958  -2.019 -28.427  1.00  0.00     0.210 HD
ENDBRANCH   7   8
ENDBRANCH   6   7
ENDBRANCH   1   6
TORSDOF 6
ENDMDL
MODEL 9
REMARK VINA RESULT:    -3.398      2.825      3.267
REMARK INTER + INTRA:          -4.784
REMARK INTER:                  -4.549
REMARK INTRA:                  -0.236
REMARK UNBOUND:                -0.293
REMARK SMILES CCCCCCCO
REMARK SMILES IDX 5 1 4 2 3 3 2 4 1 5 6 6 7 7 8 8
REMARK H PARENT 8 9
REMARK Flexibility Score: inf
ROOT
ATOM      1  C   UNL     1      21.107  -1.154 -15.338  1.00  0.00     0.002 C 
ENDROOT
BRANCH   1   2
ATOM      2  C   UNL     1      19.933  -1.137 -16.328  1.00  0.00     0.000 C 
BRANCH   2   3
ATOM      3  C   UNL     1      19.826  -2.472 -17.074  1.00  0.00    -0.000 C 
BRANCH   3   4
ATOM      4  C   UNL     1      20.053  -2.282 -18.578  1.00  0.00    -0.003 C 
ATOM      5  C   UNL     1      20.125  -0.803 -18.943  1.00  0.00     0.004 C 
ENDBRANCH   3   4
ENDBRANCH   2   3
ENDBRANCH   1   2
BRANCH   1   6
ATOM      6  C   UNL     1      22.427  -0.695 -15.976  1.00  0.00     0.028 C 
BRANCH   6   7
ATOM      7  C   UNL     1      23.577  -0.606 -14.965  1.00  0.00     0.156 C 
BRANCH   7   8
ATOM      8  O   UNL     1      23.585  -1.743 -14.144  1.00  0.00    -0.396 OA
ATOM      9  H   UNL     1      24.359  -1.645 -13.529  1.00  0.00     0.210 HD
ENDBRANCH   7   8
ENDBRANCH   6   7
ENDBRANCH   1   6
TORSDOF 6
ENDMDL
