MODEL 1
REMARK VINA RESULT:    -3.418      0.000      0.000
REMARK INTER + INTRA:          -7.825
REMARK INTER:                  -6.016
REMARK INTRA:                  -1.809
REMARK UNBOUND:                -1.809
REMARK SMILES CCCCCCCCCCCCCCC(=O)[O-]
REMARK SMILES IDX 9 1 10 2 11 3 12 4 13 5 14 6 15 7 16 8 17 9 8 10 7 11 6 12
REMARK SMILES IDX 5 13 4 14 3 15 2 16 1 17
REMARK H PARENT
REMARK Flexibility Score: inf
ROOT
ATOM      1  C   UNL     1      62.102  32.928  59.637  1.00  0.00     0.000 C 
ENDROOT
BRANCH   1   2
ATOM      2  C   UNL     1      60.958  32.061  59.089  1.00  0.00     0.000 C 
BRANCH   2   3
ATOM      3  C   UNL     1      60.806  30.732  59.846  1.00  0.00     0.000 C 
BRANCH   3   4
ATOM      4  C   UNL     1      61.443  30.771  61.244  1.00  0.00     0.000 C 
BRANCH   4   5
ATOM      5  C   UNL     1      62.463  29.635  61.413  1.00  0.00     0.006 C 
BRANCH   5   6
ATOM      6  C   UNL     1      63.890  30.078  61.063  1.00  0.00     0.053 C 
BRANCH   6   7
ATOM      7  C   UNL     1      64.619  29.035  60.275  1.00  0.00     0.041 C 
ATOM      8  O   UNL     1      64.101  28.551  59.234  1.00  0.00    -0.550 OA
ATOM      9  O   UNL     1      65.855  28.570  60.708  1.00  0.00    -0.550 OA
ENDBRANCH   6   7
ENDBRANCH   5   6
ENDBRANCH   4   5
ENDBRANCH   3   4
ENDBRANCH   2   3
ENDBRANCH   1   2
BRANCH   1  10
ATOM     10  C   UNL     1      63.245  33.034  58.620  1.00  0.00     0.000 C 
BRANCH  10  11
ATOM     11  C   UNL     1      64.479  33.698  59.250  1.00  0.00    -0.000 C 
BRANCH  11  12
ATOM     12  C   UNL     1      64.415  33.733  60.785  1.00  0.00    -0.000 C 
BRANCH  12  13
ATOM     13  C   UNL     1      64.907  35.068  61.370  1.00  0.00    -0.000 C 
BRANCH  13  14
ATOM     14  C   UNL     1      64.310  36.279  60.629  1.00  0.00    -0.000 C 
BRANCH  14  15
ATOM     15  C   UNL     1      62.810  36.497  60.929  1.00  0.00    -0.000 C 
BRANCH  15  16
ATOM     16  C   UNL     1      61.965  36.757  59.671  1.00  0.00    -0.003 C 
ATOM     17  C   UNL     1      60.584  36.110  59.738  1.00  0.00     0.004 C 
ENDBRANCH  15  16
ENDBRANCH  14  15
ENDBRANCH  13  14
ENDBRANCH  12  13
ENDBRANCH  11  12
ENDBRANCH  10  11
ENDBRANCH   1  10
TORSDOF 13
ENDMDL
MODEL 2
REMARK VINA RESULT:    -3.370     10.867     13.117
REMARK INTER + INTRA:          -7.740
REMARK INTER:                  -5.620
REMARK INTRA:                  -2.120
REMARK UNBOUND:                -1.809
REMARK SMILES CCCCCCCCCCCCCCC(=O)[O-]
REMARK SMILES IDX 9 1 10 2 11 3 12 4 13 5 14 6 15 7 16 8 17 9 8 10 7 11 6 12
REMARK SMILES IDX 5 13 4 14 3 15 2 16 1 17
REMARK H PARENT
REMARK Flexibility Score: inf
ROOT
ATOM      1  C   UNL     1      58.838  27.994  53.207  1.00  0.00     0.000 C 
ENDROOT
BRANCH   1   2
ATOM      2  C   UNL     1      58.728  26.664  52.447  1.00  0.00     0.000 C 
BRANCH   2   3
ATOM      3  C   UNL     1      57.328  26.432  51.856  1.00  0.00     0.000 C 
BRANCH   3   4
ATOM      4  C   UNL     1      57.373  25.935  50.404  1.00  0.00     0.000 C 
BRANCH   4   5
ATOM      5  C   UNL     1      56.081  26.301  49.658  1.00  0.00     0.006 C 
BRANCH   5   6
ATOM      6  C   UNL     1      55.504  27.646  50.119  1.00  0.00     0.053 C 
BRANCH   6   7
ATOM      7  C   UNL     1      54.127  27.876  49.579  1.00  0.00     0.041 C 
ATOM      8  O   UNL     1      53.523  26.953  48.971  1.00  0.00    -0.550 OA
ATOM      9  O   UNL     1      53.524  29.120  49.715  1.00  0.00    -0.550 OA
ENDBRANCH   6   7
ENDBRANCH   5   6
ENDBRANCH   4   5
ENDBRANCH   3   4
ENDBRANCH   2   3
ENDBRANCH   1   2
BRANCH   1  10
ATOM     10  C   UNL     1      58.109  29.116  52.458  1.00  0.00     0.000 C 
BRANCH  10  11
ATOM     11  C   UNL     1      59.021  29.751  51.397  1.00  0.00    -0.000 C 
BRANCH  11  12
ATOM     12  C   UNL     1      58.571  29.433  49.962  1.00  0.00    -0.000 C 
BRANCH  12  13
ATOM     13  C   UNL     1      59.754  29.189  49.009  1.00  0.00    -0.000 C 
BRANCH  13  14
ATOM     14  C   UNL     1      60.249  27.732  49.064  1.00  0.00    -0.000 C 
BRANCH  14  15
ATOM     15  C   UNL     1      61.718  27.606  49.526  1.00  0.00    -0.000 C 
BRANCH  15  16
ATOM     16  C   UNL     1      61.988  26.356  50.379  1.00  0.00    -0.003 C 
ATOM     17  C   UNL     1      61.110  25.169  49.988  1.00  0.00     0.004 C 
ENDBRANCH  15  16
ENDBRANCH  14  15
ENDBRANCH  13  14
ENDBRANCH  12  13
ENDBRANCH  11  12
ENDBRANCH  10  11
ENDBRANCH   1  10
TORSDOF 13
ENDMDL
MODEL 3
REMARK VINA RESULT:    -3.286      0.969      2.072
REMARK INTER + INTRA:          -7.592
REMARK INTER:                  -5.993
REMARK INTRA:                  -1.599
REMARK UNBOUND:                -1.809
REMARK SMILES CCCCCCCCCCCCCCC(=O)[O-]
REMARK SMILES IDX 9 1 10 2 11 3 12 4 13 5 14 6 15 7 16 8 17 9 8 10 7 11 6 12
REMARK SMILES IDX 5 13 4 14 3 15 2 16 1 17
REMARK H PARENT
REMARK Flexibility Score: inf
ROOT
ATOM      1  C   UNL     1      61.240  31.514  59.672  1.00  0.00     0.000 C 
ENDROOT
BRANCH   1   2
ATOM      2  C   UNL     1      61.191  31.090  61.148  1.00  0.00     0.000 C 
BRANCH   2   3
ATOM      3  C   UNL     1      62.045  29.844  61.435  1.00  0.00     0.000 C 
BRANCH   3   4
ATOM      4  C   UNL     1      63.533  30.061  61.119  1.00  0.00     0.000 C 
BRANCH   4   5
ATOM      5  C   UNL     1      63.966  29.215  59.912  1.00  0.00     0.006 C 
BRANCH   5   6
ATOM      6  C   UNL     1      64.975  28.126  60.298  1.00  0.00     0.053 C 
BRANCH   6   7
ATOM      7  C   UNL     1      66.387  28.613  60.197  1.00  0.00     0.041 C 
ATOM      8  O   UNL     1      67.204  28.386  61.128  1.00  0.00    -0.550 OA
ATOM      9  O   UNL     1      66.794  29.350  59.092  1.00  0.00    -0.550 OA
ENDBRANCH   6   7
ENDBRANCH   5   6
ENDBRANCH   4   5
ENDBRANCH   3   4
ENDBRANCH   2   3
ENDBRANCH   1   2
BRANCH   1  10
ATOM     10  C   UNL     1      61.773  32.945  59.530  1.00  0.00     0.000 C 
BRANCH  10  11
ATOM     11  C   UNL     1      62.802  33.038  58.393  1.00  0.00    -0.000 C 
BRANCH  11  12
ATOM     12  C   UNL     1      64.083  33.774  58.813  1.00  0.00    -0.000 C 
BRANCH  12  13
ATOM     13  C   UNL     1      64.526  33.427  60.244  1.00  0.00    -0.000 C 
BRANCH  13  14
ATOM     14  C   UNL     1      64.590  34.671  61.149  1.00  0.00    -0.000 C 
BRANCH  14  15
ATOM     15  C   UNL     1      64.126  35.963  60.439  1.00  0.00    -0.000 C 
BRANCH  15  16
ATOM     16  C   UNL     1      62.784  36.501  60.962  1.00  0.00    -0.003 C 
ATOM     17  C   UNL     1      61.739  36.666  59.861  1.00  0.00     0.004 C 
ENDBRANCH  15  16
ENDBRANCH  14  15
ENDBRANCH  13  14
ENDBRANCH  12  13
ENDBRANCH  11  12
ENDBRANCH  10  11
ENDBRANCH   1  10
TORSDOF 13
ENDMDL
MODEL 4
REMARK VINA RESULT:    -3.246      2.928      5.312
REMARK INTER + INTRA:          -7.522
REMARK INTER:                  -5.575
REMARK INTRA:                  -1.947
REMARK UNBOUND:                -1.809
REMARK SMILES CCCCCCCCCCCCCCC(=O)[O-]
REMARK SMILES IDX 9 1 10 2 11 3 12 4 13 5 14 6 15 7 16 8 17 9 8 10 7 11 6 12
REMARK SMILES IDX 5 13 4 14 3 15 2 16 1 17
REMARK H PARENT
REMARK Flexibility Score: inf
ROOT
ATOM      1  C   UNL     1      61.633  31.841  60.615  1.00  0.00     0.000 C 
ENDROOT
BRANCH   1   2
ATOM      2  C   UNL     1      60.994  32.329  59.306  1.00  0.00     0.000 C 
BRANCH   2   3
ATOM      3  C   UNL     1      61.365  33.783  58.971  1.00  0.00     0.000 C 
BRANCH   3   4
ATOM      4  C   UNL     1      62.144  34.471  60.102  1.00  0.00     0.000 C 
BRANCH   4   5
ATOM      5  C   UNL     1      63.629  34.613  59.738  1.00  0.00     0.006 C 
BRANCH   5   6
ATOM      6  C   UNL     1      64.549  34.360  60.939  1.00  0.00     0.053 C 
BRANCH   6   7
ATOM      7  C   UNL     1      65.345  35.576  61.298  1.00  0.00     0.041 C 
ATOM      8  O   UNL     1      64.895  36.404  62.132  1.00  0.00    -0.550 OA
ATOM      9  O   UNL     1      66.569  35.814  60.684  1.00  0.00    -0.550 OA
ENDBRANCH   6   7
ENDBRANCH   5   6
ENDBRANCH   4   5
ENDBRANCH   3   4
ENDBRANCH   2   3
ENDBRANCH   1   2
BRANCH   1  10
ATOM     10  C   UNL     1      61.107  30.453  60.998  1.00  0.00     0.000 C 
BRANCH  10  11
ATOM     11  C   UNL     1      62.261  29.516  61.387  1.00  0.00    -0.000 C 
BRANCH  11  12
ATOM     12  C   UNL     1      63.642  30.146  61.144  1.00  0.00    -0.000 C 
BRANCH  12  13
ATOM     13  C   UNL     1      64.306  29.641  59.852  1.00  0.00    -0.000 C 
BRANCH  13  14
ATOM     14  C   UNL     1      65.585  30.428  59.512  1.00  0.00    -0.000 C 
BRANCH  14  15
ATOM     15  C   UNL     1      65.356  31.537  58.462  1.00  0.00    -0.000 C 
BRANCH  15  16
ATOM     16  C   UNL     1      64.053  31.366  57.663  1.00  0.00    -0.003 C 
ATOM     17  C   UNL     1      63.869  32.435  56.589  1.00  0.00     0.004 C 
ENDBRANCH  15  16
ENDBRANCH  14  15
ENDBRANCH  13  14
ENDBRANCH  12  13
ENDBRANCH  11  12
ENDBRANCH  10  11
ENDBRANCH   1  10
TORSDOF 13
ENDMDL
MODEL 5
REMARK VINA RESULT:    -3.246     10.477     12.766
REMARK INTER + INTRA:          -7.522
REMARK INTER:                  -5.665
REMARK INTRA:                  -1.857
REMARK UNBOUND:                -1.809
REMARK SMILES CCCCCCCCCCCCCCC(=O)[O-]
REMARK SMILES IDX 9 1 10 2 11 3 12 4 13 5 14 6 15 7 16 8 17 9 8 10 7 11 6 12
REMARK SMILES IDX 5 13 4 14 3 15 2 16 1 17
REMARK H PARENT
REMARK Flexibility Score: inf
ROOT
ATOM      1  C   UNL     1      59.141  29.721  51.215  1.00  0.00     0.000 C 
ENDROOT
BRANCH   1   2
ATOM      2  C   UNL     1      58.752  29.226  49.814  1.00  0.00     0.000 C 
BRANCH   2   3
ATOM      3  C   UNL     1      59.957  28.711  49.011  1.00  0.00     0.000 C 
BRANCH   3   4
ATOM      4  C   UNL     1      60.418  27.317  49.463  1.00  0.00     0.000 C 
BRANCH   4   5
ATOM      5  C   UNL     1      59.247  26.322  49.453  1.00  0.00     0.006 C 
BRANCH   5   6
ATOM      6  C   UNL     1      59.123  25.557  50.776  1.00  0.00     0.053 C 
BRANCH   6   7
ATOM      7  C   UNL     1      60.283  24.637  50.999  1.00  0.00     0.041 C 
ATOM      8  O   UNL     1      60.482  23.669  50.220  1.00  0.00    -0.550 OA
ATOM      9  O   UNL     1      61.124  24.828  52.088  1.00  0.00    -0.550 OA
ENDBRANCH   6   7
ENDBRANCH   5   6
ENDBRANCH   4   5
ENDBRANCH   3   4
ENDBRANCH   2   3
ENDBRANCH   1   2
BRANCH   1  10
ATOM     10  C   UNL     1      58.329  29.000  52.297  1.00  0.00     0.000 C 
BRANCH  10  11
ATOM     11  C   UNL     1      57.059  29.791  52.649  1.00  0.00    -0.000 C 
BRANCH  11  12
ATOM     12  C   UNL     1      55.771  29.013  52.340  1.00  0.00    -0.000 C 
BRANCH  12  13
ATOM     13  C   UNL     1      55.056  29.527  51.078  1.00  0.00    -0.000 C 
BRANCH  13  14
ATOM     14  C   UNL     1      55.078  28.492  49.938  1.00  0.00    -0.000 C 
BRANCH  14  15
ATOM     15  C   UNL     1      55.553  27.095  50.395  1.00  0.00    -0.000 C 
BRANCH  15  16
ATOM     16  C   UNL     1      55.576  26.055  49.262  1.00  0.00    -0.003 C 
ATOM     17  C   UNL     1      54.314  25.196  49.217  1.00  0.00     0.004 C 
ENDBRANCH  15  16
ENDBRANCH  14  15
ENDBRANCH  13  14
ENDBRANCH  12  13
ENDBRANCH  11  12
ENDBRANCH  10  11
ENDBRANCH   1  10
TORSDOF 13
ENDMDL
MODEL 6
REMARK VINA RESULT:    -3.198     10.835     13.330
REMARK INTER + INTRA:          -7.438
REMARK INTER:                  -5.736
REMARK INTRA:                  -1.703
REMARK UNBOUND:                -1.809
REMARK SMILES CCCCCCCCCCCCCCC(=O)[O-]
REMARK SMILES IDX 9 1 10 2 11 3 12 4 13 5 14 6 15 7 16 8 17 9 8 10 7 11 6 12
REMARK SMILES IDX 5 13 4 14 3 15 2 16 1 17
REMARK H PARENT
REMARK Flexibility Score: inf
ROOT
ATOM      1  C   UNL     1      58.306  26.591  52.492  1.00  0.00     0.000 C 
ENDROOT
BRANCH   1   2
ATOM      2  C   UNL     1      57.764  28.017  52.316  1.00  0.00     0.000 C 
BRANCH   2   3
ATOM      3  C   UNL     1      58.810  29.094  52.644  1.00  0.00     0.000 C 
BRANCH   3   4
ATOM      4  C   UNL     1      59.538  29.612  51.394  1.00  0.00     0.000 C 
BRANCH   4   5
ATOM      5  C   UNL     1      58.686  29.399  50.135  1.00  0.00     0.006 C 
BRANCH   5   6
ATOM      6  C   UNL     1      59.541  29.091  48.899  1.00  0.00     0.053 C 
BRANCH   6   7
ATOM      7  C   UNL     1      60.399  27.882  49.102  1.00  0.00     0.041 C 
ATOM      8  O   UNL     1      59.873  26.743  49.211  1.00  0.00    -0.550 OA
ATOM      9  O   UNL     1      61.778  28.015  49.207  1.00  0.00    -0.550 OA
ENDBRANCH   6   7
ENDBRANCH   5   6
ENDBRANCH   4   5
ENDBRANCH   3   4
ENDBRANCH   2   3
ENDBRANCH   1   2
BRANCH   1  10
ATOM     10  C   UNL     1      57.381  25.565  51.826  1.00  0.00     0.000 C 
BRANCH  10  11
ATOM     11  C   UNL     1      56.695  26.167  50.590  1.00  0.00    -0.000 C 
BRANCH  11  12
ATOM     12  C   UNL     1      55.278  25.613  50.370  1.00  0.00    -0.000 C 
BRANCH  12  13
ATOM     13  C   UNL     1      54.762  25.852  48.941  1.00  0.00    -0.000 C 
BRANCH  13  14
ATOM     14  C   UNL     1      53.404  26.576  48.929  1.00  0.00    -0.000 C 
BRANCH  14  15
ATOM     15  C   UNL     1      53.234  27.569  50.100  1.00  0.00    -0.000 C 
BRANCH  15  16
ATOM     16  C   UNL     1      53.626  29.012  49.741  1.00  0.00    -0.003 C 
ATOM     17  C   UNL     1      54.886  29.483  50.463  1.00  0.00     0.004 C 
ENDBRANCH  15  16
ENDBRANCH  14  15
ENDBRANCH  13  14
ENDBRANCH  12  13
ENDBRANCH  11  12
ENDBRANCH  10  11
ENDBRANCH   1  10
TORSDOF 13
ENDMDL
MODEL 7
REMARK VINA RESULT:    -3.197      3.030      6.498
REMARK INTER + INTRA:          -7.436
REMARK INTER:                  -5.661
REMARK INTRA:                  -1.775
REMARK UNBOUND:                -1.809
REMARK SMILES CCCCCCCCCCCCCCC(=O)[O-]
REMARK SMILES IDX 9 1 10 2 11 3 12 4 13 5 14 6 15 7 16 8 17 9 8 10 7 11 6 12
REMARK SMILES IDX 5 13 4 14 3 15 2 16 1 17
REMARK H PARENT
REMARK Flexibility Score: inf
ROOT
ATOM      1  C   UNL     1      64.298  33.520  60.578  1.00  0.00     0.000 C 
ENDROOT
BRANCH   1   2
ATOM      2  C   UNL     1      65.009  34.882  60.608  1.00  0.00     0.000 C 
BRANCH   2   3
ATOM      3  C   UNL     1      64.173  35.972  61.297  1.00  0.00     0.000 C 
BRANCH   3   4
ATOM      4  C   UNL     1      63.404  36.848  60.297  1.00  0.00     0.000 C 
BRANCH   4   5
ATOM      5  C   UNL     1      61.905  36.876  60.631  1.00  0.00     0.006 C 
BRANCH   5   6
ATOM      6  C   UNL     1      61.144  35.709  59.988  1.00  0.00     0.053 C 
BRANCH   6   7
ATOM      7  C   UNL     1      60.839  35.970  58.546  1.00  0.00     0.041 C 
ATOM      8  O   UNL     1      61.225  35.163  57.660  1.00  0.00    -0.550 OA
ATOM      9  O   UNL     1      60.159  37.124  58.175  1.00  0.00    -0.550 OA
ENDBRANCH   6   7
ENDBRANCH   5   6
ENDBRANCH   4   5
ENDBRANCH   3   4
ENDBRANCH   2   3
ENDBRANCH   1   2
BRANCH   1  10
ATOM     10  C   UNL     1      63.917  33.132  59.144  1.00  0.00     0.000 C 
BRANCH  10  11
ATOM     11  C   UNL     1      62.589  32.360  59.119  1.00  0.00    -0.000 C 
BRANCH  11  12
ATOM     12  C   UNL     1      61.908  32.308  60.495  1.00  0.00    -0.000 C 
BRANCH  12  13
ATOM     13  C   UNL     1      61.223  30.957  60.768  1.00  0.00    -0.000 C 
BRANCH  13  14
ATOM     14  C   UNL     1      62.179  29.946  61.426  1.00  0.00    -0.000 C 
BRANCH  14  15
ATOM     15  C   UNL     1      62.930  29.064  60.403  1.00  0.00    -0.000 C 
BRANCH  15  16
ATOM     16  C   UNL     1      64.412  28.851  60.750  1.00  0.00    -0.003 C 
ATOM     17  C   UNL     1      65.323  29.919  60.149  1.00  0.00     0.004 C 
ENDBRANCH  15  16
ENDBRANCH  14  15
ENDBRANCH  13  14
ENDBRANCH  12  13
ENDBRANCH  11  12
ENDBRANCH  10  11
ENDBRANCH   1  10
TORSDOF 13
ENDMDL
MODEL 8
REMARK VINA RESULT:    -3.172      1.623      2.576
REMARK INTER + INTRA:          -7.391
REMARK INTER:                  -5.748
REMARK INTRA:                  -1.643
REMARK UNBOUND:                -1.809
REMARK SMILES CCCCCCCCCCCCCCC(=O)[O-]
REMARK SMILES IDX 9 1 10 2 11 3 12 4 13 5 14 6 15 7 16 8 17 9 8 10 7 11 6 12
REMARK SMILES IDX 5 13 4 14 3 15 2 16 1 17
REMARK H PARENT
REMARK Flexibility Score: inf
ROOT
ATOM      1  C   UNL     1      61.618  34.705  59.846  1.00  0.00     0.000 C 
ENDROOT
BRANCH   1   2
ATOM      2  C   UNL     1      61.730  33.473  58.935  1.00  0.00     0.000 C 
BRANCH   2   3
ATOM      3  C   UNL     1      62.228  32.226  59.683  1.00  0.00     0.000 C 
BRANCH   3   4
ATOM      4  C   UNL     1      61.117  31.537  60.490  1.00  0.00     0.000 C 
BRANCH   4   5
ATOM      5  C   UNL     1      61.707  30.512  61.470  1.00  0.00     0.006 C 
BRANCH   5   6
ATOM      6  C   UNL     1      63.169  30.177  61.152  1.00  0.00     0.053 C 
BRANCH   6   7
ATOM      7  C   UNL     1      63.332  28.757  60.704  1.00  0.00     0.041 C 
ATOM      8  O   UNL     1      64.121  28.476  59.764  1.00  0.00    -0.550 OA
ATOM      9  O   UNL     1      62.585  27.749  61.300  1.00  0.00    -0.550 OA
ENDBRANCH   6   7
ENDBRANCH   5   6
ENDBRANCH   4   5
ENDBRANCH   3   4
ENDBRANCH   2   3
ENDBRANCH   1   2
BRANCH   1  10
ATOM     10  C   UNL     1      62.901  34.903  60.663  1.00  0.00     0.000 C 
BRANCH  10  11
ATOM     11  C   UNL     1      63.126  36.389  60.979  1.00  0.00    -0.000 C 
BRANCH  11  12
ATOM     12  C   UNL     1      64.590  36.708  61.317  1.00  0.00    -0.000 C 
BRANCH  12  13
ATOM     13  C   UNL     1      65.568  35.649  60.778  1.00  0.00    -0.000 C 
BRANCH  13  14
ATOM     14  C   UNL     1      66.032  35.967  59.345  1.00  0.00    -0.000 C 
BRANCH  14  15
ATOM     15  C   UNL     1      65.659  34.867  58.326  1.00  0.00    -0.000 C 
BRANCH  15  16
ATOM     16  C   UNL     1      64.607  35.316  57.299  1.00  0.00    -0.003 C 
ATOM     17  C   UNL     1      64.171  36.767  57.487  1.00  0.00     0.004 C 
ENDBRANCH  15  16
ENDBRANCH  14  15
ENDBRANCH  13  14
ENDBRANCH  12  13
ENDBRANCH  11  12
ENDBRANCH  10  11
ENDBRANCH   1  10
TORSDOF 13
ENDMDL
MODEL 9
REMARK VINA RESULT:    -3.160      2.796      4.128
REMARK INTER + INTRA:          -7.371
REMARK INTER:                  -5.309
REMARK INTRA:                  -2.063
REMARK UNBOUND:                -1.809
REMARK SMILES CCCCCCCCCCCCCCC(=O)[O-]
REMARK SMILES IDX 9 1 10 2 11 3 12 4 13 5 14 6 15 7 16 8 17 9 8 10 7 11 6 12
REMARK SMILES IDX 5 13 4 14 3 15 2 16 1 17
REMARK H PARENT
REMARK Flexibility Score: inf
ROOT
ATOM      1  C   UNL     1      63.278  28.290  59.756  1.00  0.00     0.000 C 
ENDROOT
BRANCH   1   2
ATOM      2  C   UNL     1      62.450  28.649  61.000  1.00  0.00     0.000 C 
BRANCH   2   3
ATOM      3  C   UNL     1      61.151  29.393  60.652  1.00  0.00     0.000 C 
BRANCH   3   4
ATOM      4  C   UNL     1      61.021  30.734  61.391  1.00  0.00     0.000 C 
BRANCH   4   5
ATOM      5  C   UNL     1      61.069  31.911  60.404  1.00  0.00     0.006 C 
BRANCH   5   6
ATOM      6  C   UNL     1      60.992  31.448  58.943  1.00  0.00     0.053 C 
BRANCH   6   7
ATOM      7  C   UNL     1      60.767  32.594  58.007  1.00  0.00     0.041 C 
ATOM      8  O   UNL     1      60.468  32.379  56.803  1.00  0.00    -0.550 OA
ATOM      9  O   UNL     1      60.924  33.900  58.453  1.00  0.00    -0.550 OA
ENDBRANCH   6   7
ENDBRANCH   5   6
ENDBRANCH   4   5
ENDBRANCH   3   4
ENDBRANCH   2   3
ENDBRANCH   1   2
BRANCH   1  10
ATOM     10  C   UNL     1      64.174  29.461  59.337  1.00  0.00     0.000 C 
BRANCH  10  11
ATOM     11  C   UNL     1      64.809  30.133  60.564  1.00  0.00    -0.000 C 
BRANCH  11  12
ATOM     12  C   UNL     1      64.565  31.650  60.601  1.00  0.00    -0.000 C 
BRANCH  12  13
ATOM     13  C   UNL     1      64.682  32.305  59.214  1.00  0.00    -0.000 C 
BRANCH  13  14
ATOM     14  C   UNL     1      64.446  33.825  59.270  1.00  0.00    -0.000 C 
BRANCH  14  15
ATOM     15  C   UNL     1      63.771  34.288  60.580  1.00  0.00    -0.000 C 
BRANCH  15  16
ATOM     16  C   UNL     1      64.500  35.454  61.267  1.00  0.00    -0.003 C 
ATOM     17  C   UNL     1      65.904  35.686  60.713  1.00  0.00     0.004 C 
ENDBRANCH  15  16
ENDBRANCH  14  15
ENDBRANCH  13  14
ENDBRANCH  12  13
ENDBRANCH  11  12
ENDBRANCH  10  11
ENDBRANCH   1  10
TORSDOF 13
ENDMDL
