MODEL 1
REMARK VINA RESULT:    -4.095      0.000      0.000
REMARK INTER + INTRA:          -4.095
REMARK INTER:                  -4.095
REMARK INTRA:                   0.000
REMARK UNBOUND:                 0.000
REMARK SMILES CC(C)=C1CC[C@@H](C)CC1=O
REMARK SMILES IDX 8 1 7 2 6 3 5 4 4 5 2 6 1 7 3 8 10 9 11 10 9 11
REMARK H PARENT
REMARK Flexibility Score: inf
ROOT
ATOM      1  C   UNL     1      17.013 -17.621 -16.125  1.00  0.00     0.008 C 
ATOM      2  C   UNL     1      15.974 -16.880 -15.276  1.00  0.00    -0.006 C 
ATOM      3  C   UNL     1      16.268 -17.064 -13.779  1.00  0.00     0.008 C 
ATOM      4  C   UNL     1      15.298 -16.246 -12.917  1.00  0.00     0.039 C 
ATOM      5  C   UNL     1      13.840 -16.513 -13.263  1.00  0.00    -0.006 C 
ATOM      6  C   UNL     1      12.860 -16.446 -12.313  1.00  0.00    -0.070 C 
ATOM      7  C   UNL     1      11.418 -16.766 -12.634  1.00  0.00     0.039 C 
ATOM      8  C   UNL     1      13.181 -16.087 -10.881  1.00  0.00     0.039 C 
ATOM      9  C   UNL     1      13.540 -16.733 -14.709  1.00  0.00     0.159 C 
ATOM     10  O   UNL     1      12.440 -16.377 -15.211  1.00  0.00    -0.295 OA
ATOM     11  C   UNL     1      14.559 -17.382 -15.599  1.00  0.00     0.084 C 
ENDROOT
TORSDOF 0
ENDMDL
MODEL 2
REMARK VINA RESULT:    -3.964      1.079      4.050
REMARK INTER + INTRA:          -3.964
REMARK INTER:                  -3.964
REMARK INTRA:                   0.000
REMARK UNBOUND:                 0.000
REMARK SMILES CC(C)=C1CC[C@@H](C)CC1=O
REMARK SMILES IDX 8 1 7 2 6 3 5 4 4 5 2 6 1 7 3 8 10 9 11 10 9 11
REMARK H PARENT
REMARK Flexibility Score: inf
ROOT
ATOM      1  C   UNL     1      10.602 -15.985 -12.223  1.00  0.00     0.008 C 
ATOM      2  C   UNL     1      11.851 -16.628 -12.835  1.00  0.00    -0.006 C 
ATOM      3  C   UNL     1      13.085 -16.354 -11.960  1.00  0.00     0.008 C 
ATOM      4  C   UNL     1      14.325 -17.076 -12.503  1.00  0.00     0.039 C 
ATOM      5  C   UNL     1      14.575 -16.779 -13.976  1.00  0.00    -0.006 C 
ATOM      6  C   UNL     1      15.841 -16.746 -14.488  1.00  0.00    -0.070 C 
ATOM      7  C   UNL     1      16.105 -16.396 -15.934  1.00  0.00     0.039 C 
ATOM      8  C   UNL     1      17.046 -17.019 -13.617  1.00  0.00     0.039 C 
ATOM      9  C   UNL     1      13.360 -16.647 -14.833  1.00  0.00     0.159 C 
ATOM     10  O   UNL     1      13.372 -16.996 -16.044  1.00  0.00    -0.295 OA
ATOM     11  C   UNL     1      12.088 -16.097 -14.257  1.00  0.00     0.084 C 
ENDROOT
TORSDOF 0
ENDMDL
MODEL 3
REMARK VINA RESULT:    -3.944      1.607      2.740
REMARK INTER + INTRA:          -3.944
REMARK INTER:                  -3.944
REMARK INTRA:                   0.000
REMARK UNBOUND:                 0.000
REMARK SMILES CC(C)=C1CC[C@@H](C)CC1=O
REMARK SMILES IDX 8 1 7 2 6 3 5 4 4 5 2 6 1 7 3 8 10 9 11 10 9 11
REMARK H PARENT
REMARK Flexibility Score: inf
ROOT
ATOM      1  C   UNL     1      17.320 -16.847 -13.865  1.00  0.00     0.008 C 
ATOM      2  C   UNL     1      15.831 -17.154 -14.064  1.00  0.00    -0.006 C 
ATOM      3  C   UNL     1      15.300 -16.462 -15.328  1.00  0.00     0.008 C 
ATOM      4  C   UNL     1      13.838 -16.840 -15.599  1.00  0.00     0.039 C 
ATOM      5  C   UNL     1      12.943 -16.615 -14.389  1.00  0.00    -0.006 C 
ATOM      6  C   UNL     1      11.630 -16.263 -14.532  1.00  0.00    -0.070 C 
ATOM      7  C   UNL     1      10.747 -15.981 -13.339  1.00  0.00     0.039 C 
ATOM      8  C   UNL     1      11.008 -16.101 -15.900  1.00  0.00     0.039 C 
ATOM      9  C   UNL     1      13.551 -16.913 -13.058  1.00  0.00     0.159 C 
ATOM     10  O   UNL     1      12.854 -17.349 -12.103  1.00  0.00    -0.295 OA
ATOM     11  C   UNL     1      15.020 -16.705 -12.839  1.00  0.00     0.084 C 
ENDROOT
TORSDOF 0
ENDMDL
MODEL 4
REMARK VINA RESULT:    -3.937      1.400      2.700
REMARK INTER + INTRA:          -3.937
REMARK INTER:                  -3.937
REMARK INTRA:                   0.000
REMARK UNBOUND:                 0.000
REMARK SMILES CC(C)=C1CC[C@@H](C)CC1=O
REMARK SMILES IDX 8 1 7 2 6 3 5 4 4 5 2 6 1 7 3 8 10 9 11 10 9 11
REMARK H PARENT
REMARK Flexibility Score: inf
ROOT
ATOM      1  C   UNL     1      15.741 -16.857 -13.582  1.00  0.00     0.008 C 
ATOM      2  C   UNL     1      14.292 -16.388 -13.412  1.00  0.00    -0.006 C 
ATOM      3  C   UNL     1      13.664 -17.011 -12.156  1.00  0.00     0.008 C 
ATOM      4  C   UNL     1      12.248 -16.473 -11.915  1.00  0.00     0.039 C 
ATOM      5  C   UNL     1      11.356 -16.606 -13.142  1.00  0.00    -0.006 C 
ATOM      6  C   UNL     1      10.011 -16.811 -13.023  1.00  0.00    -0.070 C 
ATOM      7  C   UNL     1       9.124 -17.001 -14.232  1.00  0.00     0.039 C 
ATOM      8  C   UNL     1       9.349 -16.898 -11.667  1.00  0.00     0.039 C 
ATOM      9  C   UNL     1      12.018 -16.383 -14.461  1.00  0.00     0.159 C 
ATOM     10  O   UNL     1      11.392 -15.879 -15.432  1.00  0.00    -0.295 OA
ATOM     11  C   UNL     1      13.460 -16.752 -14.651  1.00  0.00     0.084 C 
ENDROOT
TORSDOF 0
ENDMDL
MODEL 5
REMARK VINA RESULT:    -3.834      5.639      7.711
REMARK INTER + INTRA:          -3.834
REMARK INTER:                  -3.834
REMARK INTRA:                   0.000
REMARK UNBOUND:                 0.000
REMARK SMILES CC(C)=C1CC[C@@H](C)CC1=O
REMARK SMILES IDX 8 1 7 2 6 3 5 4 4 5 2 6 1 7 3 8 10 9 11 10 9 11
REMARK H PARENT
REMARK Flexibility Score: inf
ROOT
ATOM      1  C   UNL     1       9.723 -16.682 -12.786  1.00  0.00     0.008 C 
ATOM      2  C   UNL     1       8.747 -16.773 -11.608  1.00  0.00    -0.006 C 
ATOM      3  C   UNL     1       9.210 -15.875 -10.450  1.00  0.00     0.008 C 
ATOM      4  C   UNL     1       8.192 -15.876  -9.302  1.00  0.00     0.039 C 
ATOM      5  C   UNL     1       7.829 -17.282  -8.844  1.00  0.00    -0.006 C 
ATOM      6  C   UNL     1       7.504 -17.542  -7.542  1.00  0.00    -0.070 C 
ATOM      7  C   UNL     1       7.199 -18.943  -7.063  1.00  0.00     0.039 C 
ATOM      8  C   UNL     1       7.474 -16.441  -6.507  1.00  0.00     0.039 C 
ATOM      9  C   UNL     1       7.738 -18.318  -9.915  1.00  0.00     0.159 C 
ATOM     10  O   UNL     1       6.926 -19.277  -9.830  1.00  0.00    -0.295 OA
ATOM     11  C   UNL     1       8.618 -18.226 -11.127  1.00  0.00     0.084 C 
ENDROOT
TORSDOF 0
ENDMDL
MODEL 6
REMARK VINA RESULT:    -3.823     18.849     19.555
REMARK INTER + INTRA:          -3.823
REMARK INTER:                  -3.823
REMARK INTRA:                   0.000
REMARK UNBOUND:                 0.000
REMARK SMILES CC(C)=C1CC[C@@H](C)CC1=O
REMARK SMILES IDX 8 1 7 2 6 3 5 4 4 5 2 6 1 7 3 8 10 9 11 10 9 11
REMARK H PARENT
REMARK Flexibility Score: inf
ROOT
ATOM      1  C   UNL     1      22.570 -15.878   3.905  1.00  0.00     0.008 C 
ATOM      2  C   UNL     1      23.113 -16.894   2.894  1.00  0.00    -0.006 C 
ATOM      3  C   UNL     1      23.234 -18.285   3.536  1.00  0.00     0.008 C 
ATOM      4  C   UNL     1      23.679 -19.335   2.511  1.00  0.00     0.039 C 
ATOM      5  C   UNL     1      24.940 -18.925   1.764  1.00  0.00    -0.006 C 
ATOM      6  C   UNL     1      25.842 -19.855   1.329  1.00  0.00    -0.070 C 
ATOM      7  C   UNL     1      27.125 -19.456   0.636  1.00  0.00     0.039 C 
ATOM      8  C   UNL     1      25.616 -21.332   1.556  1.00  0.00     0.039 C 
ATOM      9  C   UNL     1      25.066 -17.473   1.439  1.00  0.00     0.159 C 
ATOM     10  O   UNL     1      25.655 -17.085   0.394  1.00  0.00    -0.295 OA
ATOM     11  C   UNL     1      24.480 -16.443   2.358  1.00  0.00     0.084 C 
ENDROOT
TORSDOF 0
ENDMDL
MODEL 7
REMARK VINA RESULT:    -3.620      1.710      4.759
REMARK INTER + INTRA:          -3.620
REMARK INTER:                  -3.620
REMARK INTRA:                   0.000
REMARK UNBOUND:                 0.000
REMARK SMILES CC(C)=C1CC[C@@H](C)CC1=O
REMARK SMILES IDX 8 1 7 2 6 3 5 4 4 5 2 6 1 7 3 8 10 9 11 10 9 11
REMARK H PARENT
REMARK Flexibility Score: inf
ROOT
ATOM      1  C   UNL     1       9.442 -16.846 -12.263  1.00  0.00     0.008 C 
ATOM      2  C   UNL     1      10.802 -16.359 -12.775  1.00  0.00    -0.006 C 
ATOM      3  C   UNL     1      10.938 -16.620 -14.282  1.00  0.00     0.008 C 
ATOM      4  C   UNL     1      12.251 -16.046 -14.831  1.00  0.00     0.039 C 
ATOM      5  C   UNL     1      13.467 -16.515 -14.044  1.00  0.00    -0.006 C 
ATOM      6  C   UNL     1      14.680 -16.689 -14.649  1.00  0.00    -0.070 C 
ATOM      7  C   UNL     1      15.880 -17.208 -13.890  1.00  0.00     0.039 C 
ATOM      8  C   UNL     1      14.869 -16.406 -16.122  1.00  0.00     0.039 C 
ATOM      9  C   UNL     1      13.280 -16.655 -12.570  1.00  0.00     0.159 C 
ATOM     10  O   UNL     1      14.226 -16.440 -11.766  1.00  0.00    -0.295 OA
ATOM     11  C   UNL     1      11.943 -17.053 -12.016  1.00  0.00     0.084 C 
ENDROOT
TORSDOF 0
ENDMDL
MODEL 8
REMARK VINA RESULT:    -3.532     17.143     18.461
REMARK INTER + INTRA:          -3.532
REMARK INTER:                  -3.532
REMARK INTRA:                   0.000
REMARK UNBOUND:                 0.000
REMARK SMILES CC(C)=C1CC[C@@H](C)CC1=O
REMARK SMILES IDX 8 1 7 2 6 3 5 4 4 5 2 6 1 7 3 8 10 9 11 10 9 11
REMARK H PARENT
REMARK Flexibility Score: inf
ROOT
ATOM      1  C   UNL     1      25.998 -21.487   1.502  1.00  0.00     0.008 C 
ATOM      2  C   UNL     1      25.562 -20.029   1.684  1.00  0.00    -0.006 C 
ATOM      3  C   UNL     1      24.337 -19.941   2.607  1.00  0.00     0.008 C 
ATOM      4  C   UNL     1      23.949 -18.483   2.882  1.00  0.00     0.039 C 
ATOM      5  C   UNL     1      23.776 -17.674   1.604  1.00  0.00    -0.006 C 
ATOM      6  C   UNL     1      22.876 -16.648   1.529  1.00  0.00    -0.070 C 
ATOM      7  C   UNL     1      22.656 -15.875   0.249  1.00  0.00     0.039 C 
ATOM      8  C   UNL     1      22.026 -16.263   2.718  1.00  0.00     0.039 C 
ATOM      9  C   UNL     1      24.723 -17.991   0.494  1.00  0.00     0.159 C 
ATOM     10  O   UNL     1      25.109 -17.103  -0.312  1.00  0.00    -0.295 OA
ATOM     11  C   UNL     1      25.241 -19.390   0.324  1.00  0.00     0.084 C 
ENDROOT
TORSDOF 0
ENDMDL
MODEL 9
REMARK VINA RESULT:    -3.479      2.168      5.377
REMARK INTER + INTRA:          -3.479
REMARK INTER:                  -3.479
REMARK INTRA:                   0.000
REMARK UNBOUND:                 0.000
REMARK SMILES CC(C)=C1CC[C@@H](C)CC1=O
REMARK SMILES IDX 8 1 7 2 6 3 5 4 4 5 2 6 1 7 3 8 10 9 11 10 9 11
REMARK H PARENT
REMARK Flexibility Score: inf
ROOT
ATOM      1  C   UNL     1       7.700 -16.813 -12.588  1.00  0.00     0.008 C 
ATOM      2  C   UNL     1       9.104 -16.309 -12.938  1.00  0.00    -0.006 C 
ATOM      3  C   UNL     1       9.520 -16.792 -14.336  1.00  0.00     0.008 C 
ATOM      4  C   UNL     1      10.880 -16.213 -14.745  1.00  0.00     0.039 C 
ATOM      5  C   UNL     1      11.958 -16.458 -13.698  1.00  0.00    -0.006 C 
ATOM      6  C   UNL     1      13.266 -16.630 -14.052  1.00  0.00    -0.070 C 
ATOM      7  C   UNL     1      14.335 -16.931 -13.027  1.00  0.00     0.039 C 
ATOM      8  C   UNL     1      13.701 -16.568 -15.498  1.00  0.00     0.039 C 
ATOM      9  C   UNL     1      11.517 -16.379 -12.273  1.00  0.00     0.159 C 
ATOM     10  O   UNL     1      12.294 -15.968 -11.369  1.00  0.00    -0.295 OA
ATOM     11  C   UNL     1      10.124 -16.786 -11.893  1.00  0.00     0.084 C 
ENDROOT
TORSDOF 0
ENDMDL
