MODEL 1
REMARK VINA RESULT:    -8.593      0.000      0.000
REMARK INTER + INTRA:         -11.207
REMARK INTER:                 -10.602
REMARK INTRA:                  -0.605
REMARK UNBOUND:                -0.605
REMARK SMILES COc1ccc(-c2cc3cc(O)c(OC)cc3o2)c(O)c1
REMARK SMILES IDX 7 1 8 2 9 3 10 4 11 5 13 6 16 7 17 8 18 9 6 10 3 11 21 12
REMARK SMILES IDX 4 13 19 14 5 15 2 16 1 17 20 18 12 20 14 22 15 23
REMARK H PARENT 20 19 12 21
REMARK Flexibility Score: inf
ROOT
ATOM      1  C   UNL     1       9.538 -45.937  35.139  1.00  0.00     0.139 A 
ATOM      2  C   UNL     1       9.066 -46.398  36.372  1.00  0.00     0.060 A 
ATOM      3  C   UNL     1      10.193 -46.516  37.151  1.00  0.00     0.025 A 
ATOM      4  C   UNL     1      10.349 -46.926  38.471  1.00  0.00     0.062 A 
ATOM      5  C   UNL     1      11.654 -46.942  39.008  1.00  0.00     0.158 A 
ATOM      6  C   UNL     1      12.763 -46.549  38.216  1.00  0.00     0.164 A 
ATOM      7  C   UNL     1      12.556 -46.137  36.875  1.00  0.00     0.098 A 
ATOM      8  C   UNL     1      11.255 -46.135  36.383  1.00  0.00     0.138 A 
ATOM      9  O   UNL     1      10.852 -45.792  35.185  1.00  0.00    -0.456 OA
ENDROOT
BRANCH   1  10
ATOM     10  C   UNL     1       8.719 -45.642  33.933  1.00  0.00     0.059 A 
ATOM     11  C   UNL     1       7.161 -45.096  31.637  1.00  0.00     0.122 A 
ATOM     12  C   UNL     1       8.081 -44.156  32.108  1.00  0.00     0.093 A 
ATOM     13  C   UNL     1       7.021 -46.317  32.318  1.00  0.00     0.047 A 
ATOM     14  C   UNL     1       8.858 -44.416  33.246  1.00  0.00     0.130 A 
ATOM     15  C   UNL     1       7.791 -46.586  33.451  1.00  0.00     0.020 A 
BRANCH  11  16
ATOM     16  O   UNL     1       6.410 -44.780  30.495  1.00  0.00    -0.497 OA
ATOM     17  C   UNL     1       5.094 -45.261  30.238  1.00  0.00     0.278 C 
ENDBRANCH  11  16
BRANCH  14  18
ATOM     18  O   UNL     1       9.762 -43.450  33.692  1.00  0.00    -0.507 OA
ATOM     19  H   UNL     1      10.522 -43.122  33.107  1.00  0.00     0.293 HD
ENDBRANCH  14  18
ENDBRANCH   1  10
BRANCH   5  20
ATOM     20  O   UNL     1      11.861 -47.346  40.325  1.00  0.00    -0.504 OA
ATOM     21  H   UNL     1      11.630 -46.744  41.107  1.00  0.00     0.293 HD
ENDBRANCH   5  20
BRANCH   6  22
ATOM     22  O   UNL     1      14.040 -46.582  38.795  1.00  0.00    -0.493 OA
ATOM     23  C   UNL     1      15.152 -47.283  38.247  1.00  0.00     0.278 C 
ENDBRANCH   6  22
TORSDOF 5
ENDMDL
MODEL 2
REMARK VINA RESULT:    -7.703      1.539      7.912
REMARK INTER + INTRA:         -10.109
REMARK INTER:                  -9.557
REMARK INTRA:                  -0.552
REMARK UNBOUND:                -0.605
REMARK SMILES COc1ccc(-c2cc3cc(O)c(OC)cc3o2)c(O)c1
REMARK SMILES IDX 7 1 8 2 9 3 10 4 11 5 13 6 16 7 17 8 18 9 6 10 3 11 21 12
REMARK SMILES IDX 4 13 19 14 5 15 2 16 1 17 20 18 12 20 14 22 15 23
REMARK H PARENT 20 19 12 21
REMARK Flexibility Score: inf
ROOT
ATOM      1  C   UNL     1      10.090 -46.367  35.562  1.00  0.00     0.139 A 
ATOM      2  C   UNL     1      10.353 -45.401  34.585  1.00  0.00     0.060 A 
ATOM      3  C   UNL     1       9.458 -45.675  33.578  1.00  0.00     0.025 A 
ATOM      4  C   UNL     1       9.246 -45.050  32.354  1.00  0.00     0.062 A 
ATOM      5  C   UNL     1       8.235 -45.566  31.516  1.00  0.00     0.158 A 
ATOM      6  C   UNL     1       7.466 -46.687  31.921  1.00  0.00     0.164 A 
ATOM      7  C   UNL     1       7.718 -47.292  33.179  1.00  0.00     0.098 A 
ATOM      8  C   UNL     1       8.722 -46.753  33.976  1.00  0.00     0.138 A 
ATOM      9  O   UNL     1       9.108 -47.158  35.160  1.00  0.00    -0.456 OA
ENDROOT
BRANCH   1  10
ATOM     10  C   UNL     1      10.786 -46.516  36.867  1.00  0.00     0.059 A 
ATOM     11  C   UNL     1      12.124 -46.803  39.343  1.00  0.00     0.122 A 
ATOM     12  C   UNL     1      10.776 -47.154  39.221  1.00  0.00     0.093 A 
ATOM     13  C   UNL     1      12.806 -46.308  38.219  1.00  0.00     0.047 A 
ATOM     14  C   UNL     1      10.103 -47.015  37.999  1.00  0.00     0.130 A 
ATOM     15  C   UNL     1      12.144 -46.167  36.997  1.00  0.00     0.020 A 
BRANCH  11  16
ATOM     16  O   UNL     1      12.744 -46.963  40.591  1.00  0.00    -0.497 OA
ATOM     17  C   UNL     1      12.153 -47.626  41.704  1.00  0.00     0.278 C 
ENDBRANCH  11  16
BRANCH  14  18
ATOM     18  O   UNL     1       8.755 -47.369  37.916  1.00  0.00    -0.507 OA
ATOM     19  H   UNL     1       8.365 -47.786  37.080  1.00  0.00     0.293 HD
ENDBRANCH  14  18
ENDBRANCH   1  10
BRANCH   5  20
ATOM     20  O   UNL     1       7.985 -44.975  30.279  1.00  0.00    -0.504 OA
ATOM     21  H   UNL     1       8.358 -44.063  30.042  1.00  0.00     0.293 HD
ENDBRANCH   5  20
BRANCH   6  22
ATOM     22  O   UNL     1       6.473 -47.165  31.052  1.00  0.00    -0.493 OA
ATOM     23  C   UNL     1       5.150 -46.642  30.980  1.00  0.00     0.278 C 
ENDBRANCH   6  22
TORSDOF 5
ENDMDL
MODEL 3
REMARK VINA RESULT:    -7.569      1.272      7.775
REMARK INTER + INTRA:          -9.943
REMARK INTER:                  -9.418
REMARK INTRA:                  -0.525
REMARK UNBOUND:                -0.605
REMARK SMILES COc1ccc(-c2cc3cc(O)c(OC)cc3o2)c(O)c1
REMARK SMILES IDX 7 1 8 2 9 3 10 4 11 5 13 6 16 7 17 8 18 9 6 10 3 11 21 12
REMARK SMILES IDX 4 13 19 14 5 15 2 16 1 17 20 18 12 20 14 22 15 23
REMARK H PARENT 20 19 12 21
REMARK Flexibility Score: inf
ROOT
ATOM      1  C   UNL     1       9.337 -46.587  35.452  1.00  0.00     0.139 A 
ATOM      2  C   UNL     1       8.834 -47.709  34.787  1.00  0.00     0.060 A 
ATOM      3  C   UNL     1       8.195 -47.199  33.681  1.00  0.00     0.025 A 
ATOM      4  C   UNL     1       7.511 -47.834  32.651  1.00  0.00     0.062 A 
ATOM      5  C   UNL     1       6.953 -47.030  31.634  1.00  0.00     0.158 A 
ATOM      6  C   UNL     1       7.094 -45.620  31.674  1.00  0.00     0.164 A 
ATOM      7  C   UNL     1       7.801 -45.015  32.744  1.00  0.00     0.098 A 
ATOM      8  C   UNL     1       8.336 -45.842  33.726  1.00  0.00     0.138 A 
ATOM      9  O   UNL     1       9.019 -45.489  34.786  1.00  0.00    -0.456 OA
ENDROOT
BRANCH   1  10
ATOM     10  C   UNL     1      10.118 -46.586  36.717  1.00  0.00     0.059 A 
ATOM     11  C   UNL     1      11.589 -46.580  39.133  1.00  0.00     0.122 A 
ATOM     12  C   UNL     1      12.180 -46.146  37.943  1.00  0.00     0.093 A 
ATOM     13  C   UNL     1      10.254 -47.017  39.114  1.00  0.00     0.047 A 
ATOM     14  C   UNL     1      11.460 -46.146  36.739  1.00  0.00     0.130 A 
ATOM     15  C   UNL     1       9.529 -47.019  37.921  1.00  0.00     0.020 A 
BRANCH  11  16
ATOM     16  O   UNL     1      12.359 -46.559  40.306  1.00  0.00    -0.497 OA
ATOM     17  C   UNL     1      12.365 -47.596  41.282  1.00  0.00     0.278 C 
ENDBRANCH  11  16
BRANCH  14  18
ATOM     18  O   UNL     1      12.085 -45.712  35.569  1.00  0.00    -0.507 OA
ATOM     19  H   UNL     1      13.094 -45.688  35.481  1.00  0.00     0.293 HD
ENDBRANCH  14  18
ENDBRANCH   1  10
BRANCH   5  20
ATOM     20  O   UNL     1       6.257 -47.621  30.581  1.00  0.00    -0.504 OA
ATOM     21  H   UNL     1       6.689 -48.314  29.982  1.00  0.00     0.293 HD
ENDBRANCH   5  20
BRANCH   6  22
ATOM     22  O   UNL     1       6.520 -44.863  30.640  1.00  0.00    -0.493 OA
ATOM     23  C   UNL     1       5.177 -44.390  30.641  1.00  0.00     0.278 C 
ENDBRANCH   6  22
TORSDOF 5
ENDMDL
MODEL 4
REMARK VINA RESULT:    -7.524      1.665      2.812
REMARK INTER + INTRA:          -9.888
REMARK INTER:                  -9.567
REMARK INTRA:                  -0.321
REMARK UNBOUND:                -0.605
REMARK SMILES COc1ccc(-c2cc3cc(O)c(OC)cc3o2)c(O)c1
REMARK SMILES IDX 7 1 8 2 9 3 10 4 11 5 13 6 16 7 17 8 18 9 6 10 3 11 21 12
REMARK SMILES IDX 4 13 19 14 5 15 2 16 1 17 20 18 12 20 14 22 15 23
REMARK H PARENT 20 19 12 21
REMARK Flexibility Score: inf
ROOT
ATOM      1  C   UNL     1       8.574 -45.917  34.128  1.00  0.00     0.139 A 
ATOM      2  C   UNL     1       9.958 -45.765  34.005  1.00  0.00     0.060 A 
ATOM      3  C   UNL     1      10.429 -45.831  35.295  1.00  0.00     0.025 A 
ATOM      4  C   UNL     1      11.723 -45.746  35.797  1.00  0.00     0.062 A 
ATOM      5  C   UNL     1      11.898 -45.852  37.194  1.00  0.00     0.158 A 
ATOM      6  C   UNL     1      10.781 -46.040  38.047  1.00  0.00     0.164 A 
ATOM      7  C   UNL     1       9.479 -46.121  37.490  1.00  0.00     0.098 A 
ATOM      8  C   UNL     1       9.349 -46.012  36.109  1.00  0.00     0.138 A 
ATOM      9  O   UNL     1       8.248 -46.062  35.402  1.00  0.00    -0.456 OA
ENDROOT
BRANCH   1  10
ATOM     10  C   UNL     1       7.583 -45.921  33.019  1.00  0.00     0.059 A 
ATOM     11  C   UNL     1       5.694 -45.913  30.914  1.00  0.00     0.122 A 
ATOM     12  C   UNL     1       6.020 -47.104  31.569  1.00  0.00     0.093 A 
ATOM     13  C   UNL     1       6.316 -44.720  31.316  1.00  0.00     0.047 A 
ATOM     14  C   UNL     1       6.956 -47.120  32.613  1.00  0.00     0.130 A 
ATOM     15  C   UNL     1       7.248 -44.725  32.356  1.00  0.00     0.020 A 
BRANCH  11  16
ATOM     16  O   UNL     1       4.752 -45.960  29.875  1.00  0.00    -0.497 OA
ATOM     17  C   UNL     1       3.353 -45.759  30.049  1.00  0.00     0.278 C 
ENDBRANCH  11  16
BRANCH  14  18
ATOM     18  O   UNL     1       7.261 -48.329  33.240  1.00  0.00    -0.507 OA
ATOM     19  H   UNL     1       6.867 -49.207  32.924  1.00  0.00     0.293 HD
ENDBRANCH  14  18
ENDBRANCH   1  10
BRANCH   5  20
ATOM     20  O   UNL     1      13.176 -45.773  37.745  1.00  0.00    -0.504 OA
ATOM     21  H   UNL     1      13.324 -45.798  38.746  1.00  0.00     0.293 HD
ENDBRANCH   5  20
BRANCH   6  22
ATOM     22  O   UNL     1      11.006 -46.139  39.428  1.00  0.00    -0.493 OA
ATOM     23  C   UNL     1      11.625 -47.253  40.064  1.00  0.00     0.278 C 
ENDBRANCH   6  22
TORSDOF 5
ENDMDL
MODEL 5
REMARK VINA RESULT:    -7.232      4.646      7.583
REMARK INTER + INTRA:          -9.528
REMARK INTER:                  -8.933
REMARK INTRA:                  -0.595
REMARK UNBOUND:                -0.605
REMARK SMILES COc1ccc(-c2cc3cc(O)c(OC)cc3o2)c(O)c1
REMARK SMILES IDX 7 1 8 2 9 3 10 4 11 5 13 6 16 7 17 8 18 9 6 10 3 11 21 12
REMARK SMILES IDX 4 13 19 14 5 15 2 16 1 17 20 18 12 20 14 22 15 23
REMARK H PARENT 20 19 12 21
REMARK Flexibility Score: inf
ROOT
ATOM      1  C   UNL     1       8.070 -48.005  37.602  1.00  0.00     0.139 A 
ATOM      2  C   UNL     1       7.119 -47.926  38.626  1.00  0.00     0.060 A 
ATOM      3  C   UNL     1       6.088 -48.731  38.204  1.00  0.00     0.025 A 
ATOM      4  C   UNL     1       4.874 -49.045  38.804  1.00  0.00     0.062 A 
ATOM      5  C   UNL     1       4.004 -49.919  38.118  1.00  0.00     0.158 A 
ATOM      6  C   UNL     1       4.369 -50.454  36.856  1.00  0.00     0.164 A 
ATOM      7  C   UNL     1       5.619 -50.106  36.282  1.00  0.00     0.098 A 
ATOM      8  C   UNL     1       6.447 -49.243  36.990  1.00  0.00     0.138 A 
ATOM      9  O   UNL     1       7.631 -48.803  36.642  1.00  0.00    -0.456 OA
ENDROOT
BRANCH   1  10
ATOM     10  C   UNL     1       9.385 -47.314  37.562  1.00  0.00     0.059 A 
ATOM     11  C   UNL     1      11.886 -45.995  37.501  1.00  0.00     0.122 A 
ATOM     12  C   UNL     1      11.107 -46.089  36.345  1.00  0.00     0.093 A 
ATOM     13  C   UNL     1      11.411 -46.563  38.695  1.00  0.00     0.047 A 
ATOM     14  C   UNL     1       9.866 -46.741  36.364  1.00  0.00     0.130 A 
ATOM     15  C   UNL     1      10.175 -47.214  38.724  1.00  0.00     0.020 A 
BRANCH  11  16
ATOM     16  O   UNL     1      13.120 -45.332  37.422  1.00  0.00    -0.497 OA
ATOM     17  C   UNL     1      14.350 -45.959  37.071  1.00  0.00     0.278 C 
ENDBRANCH  11  16
BRANCH  14  18
ATOM     18  O   UNL     1       9.117 -46.821  35.188  1.00  0.00    -0.507 OA
ATOM     19  H   UNL     1       8.827 -45.991  34.684  1.00  0.00     0.293 HD
ENDBRANCH  14  18
ENDBRANCH   1  10
BRANCH   5  20
ATOM     20  O   UNL     1       2.775 -50.263  38.678  1.00  0.00    -0.504 OA
ATOM     21  H   UNL     1       2.035 -49.581  38.792  1.00  0.00     0.293 HD
ENDBRANCH   5  20
BRANCH   6  22
ATOM     22  O   UNL     1       3.470 -51.317  36.212  1.00  0.00    -0.493 OA
ATOM     23  C   UNL     1       3.854 -52.478  35.482  1.00  0.00     0.278 C 
ENDBRANCH   6  22
TORSDOF 5
ENDMDL
MODEL 6
REMARK VINA RESULT:    -7.052      4.583      7.640
REMARK INTER + INTRA:          -9.306
REMARK INTER:                  -8.976
REMARK INTRA:                  -0.330
REMARK UNBOUND:                -0.605
REMARK SMILES COc1ccc(-c2cc3cc(O)c(OC)cc3o2)c(O)c1
REMARK SMILES IDX 7 1 8 2 9 3 10 4 11 5 13 6 16 7 17 8 18 9 6 10 3 11 21 12
REMARK SMILES IDX 4 13 19 14 5 15 2 16 1 17 20 18 12 20 14 22 15 23
REMARK H PARENT 20 19 12 21
REMARK Flexibility Score: inf
ROOT
ATOM      1  C   UNL     1       8.370 -47.517  38.429  1.00  0.00     0.139 A 
ATOM      2  C   UNL     1       7.750 -48.642  37.877  1.00  0.00     0.060 A 
ATOM      3  C   UNL     1       6.486 -48.640  38.416  1.00  0.00     0.025 A 
ATOM      4  C   UNL     1       5.417 -49.512  38.235  1.00  0.00     0.062 A 
ATOM      5  C   UNL     1       4.221 -49.245  38.935  1.00  0.00     0.158 A 
ATOM      6  C   UNL     1       4.125 -48.119  39.792  1.00  0.00     0.164 A 
ATOM      7  C   UNL     1       5.240 -47.257  39.945  1.00  0.00     0.098 A 
ATOM      8  C   UNL     1       6.400 -47.554  39.238  1.00  0.00     0.138 A 
ATOM      9  O   UNL     1       7.530 -46.892  39.238  1.00  0.00    -0.456 OA
ENDROOT
BRANCH   1  10
ATOM     10  C   UNL     1       9.760 -47.057  38.171  1.00  0.00     0.059 A 
ATOM     11  C   UNL     1      12.407 -46.180  37.694  1.00  0.00     0.122 A 
ATOM     12  C   UNL     1      11.424 -46.032  36.712  1.00  0.00     0.093 A 
ATOM     13  C   UNL     1      12.063 -46.768  38.923  1.00  0.00     0.047 A 
ATOM     14  C   UNL     1      10.109 -46.464  36.937  1.00  0.00     0.130 A 
ATOM     15  C   UNL     1      10.755 -47.201  39.157  1.00  0.00     0.020 A 
BRANCH  11  16
ATOM     16  O   UNL     1      13.705 -45.730  37.412  1.00  0.00    -0.497 OA
ATOM     17  C   UNL     1      14.678 -46.481  36.694  1.00  0.00     0.278 C 
ENDBRANCH  11  16
BRANCH  14  18
ATOM     18  O   UNL     1       9.155 -46.306  35.930  1.00  0.00    -0.507 OA
ATOM     19  H   UNL     1       9.421 -46.126  34.969  1.00  0.00     0.293 HD
ENDBRANCH  14  18
ENDBRANCH   1  10
BRANCH   5  20
ATOM     20  O   UNL     1       3.123 -50.090  38.787  1.00  0.00    -0.504 OA
ATOM     21  H   UNL     1       2.791 -50.667  39.550  1.00  0.00     0.293 HD
ENDBRANCH   5  20
BRANCH   6  22
ATOM     22  O   UNL     1       2.915 -47.896  40.467  1.00  0.00    -0.493 OA
ATOM     23  C   UNL     1       2.598 -46.702  41.174  1.00  0.00     0.278 C 
ENDBRANCH   6  22
TORSDOF 5
ENDMDL
MODEL 7
REMARK VINA RESULT:    -7.042      4.103      5.939
REMARK INTER + INTRA:          -9.293
REMARK INTER:                  -8.927
REMARK INTRA:                  -0.366
REMARK UNBOUND:                -0.605
REMARK SMILES COc1ccc(-c2cc3cc(O)c(OC)cc3o2)c(O)c1
REMARK SMILES IDX 7 1 8 2 9 3 10 4 11 5 13 6 16 7 17 8 18 9 6 10 3 11 21 12
REMARK SMILES IDX 4 13 19 14 5 15 2 16 1 17 20 18 12 20 14 22 15 23
REMARK H PARENT 20 19 12 21
REMARK Flexibility Score: inf
ROOT
ATOM      1  C   UNL     1       8.296 -47.385  38.450  1.00  0.00     0.139 A 
ATOM      2  C   UNL     1       8.670 -46.941  37.177  1.00  0.00     0.060 A 
ATOM      3  C   UNL     1      10.022 -46.711  37.275  1.00  0.00     0.025 A 
ATOM      4  C   UNL     1      10.940 -46.263  36.331  1.00  0.00     0.062 A 
ATOM      5  C   UNL     1      12.286 -46.124  36.732  1.00  0.00     0.158 A 
ATOM      6  C   UNL     1      12.677 -46.437  38.059  1.00  0.00     0.164 A 
ATOM      7  C   UNL     1      11.707 -46.892  38.988  1.00  0.00     0.098 A 
ATOM      8  C   UNL     1      10.391 -47.015  38.553  1.00  0.00     0.138 A 
ATOM      9  O   UNL     1       9.354 -47.416  39.245  1.00  0.00    -0.456 OA
ENDROOT
BRANCH   1  10
ATOM     10  C   UNL     1       6.928 -47.774  38.883  1.00  0.00     0.059 A 
ATOM     11  C   UNL     1       4.328 -48.505  39.721  1.00  0.00     0.122 A 
ATOM     12  C   UNL     1       5.105 -49.391  38.970  1.00  0.00     0.093 A 
ATOM     13  C   UNL     1       4.856 -47.248  40.057  1.00  0.00     0.047 A 
ATOM     14  C   UNL     1       6.395 -49.038  38.548  1.00  0.00     0.130 A 
ATOM     15  C   UNL     1       6.140 -46.888  39.643  1.00  0.00     0.020 A 
BRANCH  11  16
ATOM     16  O   UNL     1       3.044 -48.912  40.114  1.00  0.00    -0.497 OA
ATOM     17  C   UNL     1       1.943 -49.070  39.224  1.00  0.00     0.278 C 
ENDBRANCH  11  16
BRANCH  14  18
ATOM     18  O   UNL     1       7.139 -49.946  37.793  1.00  0.00    -0.507 OA
ATOM     19  H   UNL     1       6.891 -50.927  37.743  1.00  0.00     0.293 HD
ENDBRANCH  14  18
ENDBRANCH   1  10
BRANCH   5  20
ATOM     20  O   UNL     1      13.242 -45.677  35.823  1.00  0.00    -0.504 OA
ATOM     21  H   UNL     1      14.233 -45.729  36.027  1.00  0.00     0.293 HD
ENDBRANCH   5  20
BRANCH   6  22
ATOM     22  O   UNL     1      14.027 -46.282  38.410  1.00  0.00    -0.493 OA
ATOM     23  C   UNL     1      14.998 -47.322  38.346  1.00  0.00     0.278 C 
ENDBRANCH   6  22
TORSDOF 5
ENDMDL
MODEL 8
REMARK VINA RESULT:    -6.857      4.993      8.052
REMARK INTER + INTRA:          -9.065
REMARK INTER:                  -8.485
REMARK INTRA:                  -0.580
REMARK UNBOUND:                -0.605
REMARK SMILES COc1ccc(-c2cc3cc(O)c(OC)cc3o2)c(O)c1
REMARK SMILES IDX 7 1 8 2 9 3 10 4 11 5 13 6 16 7 17 8 18 9 6 10 3 11 21 12
REMARK SMILES IDX 4 13 19 14 5 15 2 16 1 17 20 18 12 20 14 22 15 23
REMARK H PARENT 20 19 12 21
REMARK Flexibility Score: inf
ROOT
ATOM      1  C   UNL     1       7.612 -48.633  36.531  1.00  0.00     0.139 A 
ATOM      2  C   UNL     1       7.502 -49.734  35.676  1.00  0.00     0.060 A 
ATOM      3  C   UNL     1       6.217 -50.187  35.859  1.00  0.00     0.025 A 
ATOM      4  C   UNL     1       5.536 -51.251  35.277  1.00  0.00     0.062 A 
ATOM      5  C   UNL     1       4.199 -51.472  35.670  1.00  0.00     0.158 A 
ATOM      6  C   UNL     1       3.581 -50.629  36.628  1.00  0.00     0.164 A 
ATOM      7  C   UNL     1       4.314 -49.556  37.194  1.00  0.00     0.098 A 
ATOM      8  C   UNL     1       5.630 -49.371  36.780  1.00  0.00     0.138 A 
ATOM      9  O   UNL     1       6.471 -48.447  37.175  1.00  0.00    -0.456 OA
ENDROOT
BRANCH   1  10
ATOM     10  C   UNL     1       8.811 -47.774  36.718  1.00  0.00     0.059 A 
ATOM     11  C   UNL     1      11.098 -46.144  37.057  1.00  0.00     0.122 A 
ATOM     12  C   UNL     1      10.526 -46.799  38.152  1.00  0.00     0.093 A 
ATOM     13  C   UNL     1      10.524 -46.308  35.786  1.00  0.00     0.047 A 
ATOM     14  C   UNL     1       9.391 -47.608  37.995  1.00  0.00     0.130 A 
ATOM     15  C   UNL     1       9.395 -47.114  35.619  1.00  0.00     0.020 A 
BRANCH  11  16
ATOM     16  O   UNL     1      12.231 -45.347  37.275  1.00  0.00    -0.497 OA
ATOM     17  C   UNL     1      13.572 -45.778  37.062  1.00  0.00     0.278 C 
ENDBRANCH  11  16
BRANCH  14  18
ATOM     18  O   UNL     1       8.843 -48.241  39.112  1.00  0.00    -0.507 OA
ATOM     19  H   UNL     1       7.891 -48.589  39.113  1.00  0.00     0.293 HD
ENDBRANCH  14  18
ENDBRANCH   1  10
BRANCH   5  20
ATOM     20  O   UNL     1       3.475 -52.526  35.116  1.00  0.00    -0.504 OA
ATOM     21  H   UNL     1       3.925 -53.388  34.831  1.00  0.00     0.293 HD
ENDBRANCH   5  20
BRANCH   6  22
ATOM     22  O   UNL     1       2.250 -50.890  36.987  1.00  0.00    -0.493 OA
ATOM     23  C   UNL     1       1.323 -49.897  37.415  1.00  0.00     0.278 C 
ENDBRANCH   6  22
TORSDOF 5
ENDMDL
MODEL 9
REMARK VINA RESULT:    -6.832      5.150      6.112
REMARK INTER + INTRA:          -9.034
REMARK INTER:                  -8.453
REMARK INTRA:                  -0.581
REMARK UNBOUND:                -0.605
REMARK SMILES COc1ccc(-c2cc3cc(O)c(OC)cc3o2)c(O)c1
REMARK SMILES IDX 7 1 8 2 9 3 10 4 11 5 13 6 16 7 17 8 18 9 6 10 3 11 21 12
REMARK SMILES IDX 4 13 19 14 5 15 2 16 1 17 20 18 12 20 14 22 15 23
REMARK H PARENT 20 19 12 21
REMARK Flexibility Score: inf
ROOT
ATOM      1  C   UNL     1       6.785 -49.335  36.519  1.00  0.00     0.139 A 
ATOM      2  C   UNL     1       7.488 -48.622  35.542  1.00  0.00     0.060 A 
ATOM      3  C   UNL     1       8.453 -47.937  36.241  1.00  0.00     0.025 A 
ATOM      4  C   UNL     1       9.448 -47.069  35.806  1.00  0.00     0.062 A 
ATOM      5  C   UNL     1      10.308 -46.510  36.776  1.00  0.00     0.158 A 
ATOM      6  C   UNL     1      10.151 -46.833  38.148  1.00  0.00     0.164 A 
ATOM      7  C   UNL     1       9.122 -47.724  38.546  1.00  0.00     0.098 A 
ATOM      8  C   UNL     1       8.296 -48.254  37.559  1.00  0.00     0.138 A 
ATOM      9  O   UNL     1       7.298 -49.088  37.713  1.00  0.00    -0.456 OA
ENDROOT
BRANCH   1  10
ATOM     10  C   UNL     1       5.629 -50.242  36.291  1.00  0.00     0.059 A 
ATOM     11  C   UNL     1       3.438 -51.973  35.843  1.00  0.00     0.122 A 
ATOM     12  C   UNL     1       3.291 -50.837  36.643  1.00  0.00     0.093 A 
ATOM     13  C   UNL     1       4.687 -52.243  35.262  1.00  0.00     0.047 A 
ATOM     14  C   UNL     1       4.371 -49.972  36.873  1.00  0.00     0.130 A 
ATOM     15  C   UNL     1       5.769 -51.388  35.484  1.00  0.00     0.020 A 
BRANCH  11  16
ATOM     16  O   UNL     1       2.322 -52.801  35.650  1.00  0.00    -0.497 OA
ATOM     17  C   UNL     1       2.019 -53.472  34.430  1.00  0.00     0.278 C 
ENDBRANCH  11  16
BRANCH  14  18
ATOM     18  O   UNL     1       4.189 -48.851  37.684  1.00  0.00    -0.507 OA
ATOM     19  H   UNL     1       4.002 -48.935  38.676  1.00  0.00     0.293 HD
ENDBRANCH  14  18
ENDBRANCH   1  10
BRANCH   5  20
ATOM     20  O   UNL     1      11.320 -45.634  36.390  1.00  0.00    -0.504 OA
ATOM     21  H   UNL     1      11.656 -45.600  35.435  1.00  0.00     0.293 HD
ENDBRANCH   5  20
BRANCH   6  22
ATOM     22  O   UNL     1      11.029 -46.251  39.075  1.00  0.00    -0.493 OA
ATOM     23  C   UNL     1      12.072 -46.953  39.743  1.00  0.00     0.278 C 
ENDBRANCH   6  22
TORSDOF 5
ENDMDL
