MODEL 1
REMARK VINA RESULT:    -6.424      0.000      0.000
REMARK INTER + INTRA:          -7.042
REMARK INTER:                  -6.987
REMARK INTRA:                  -0.055
REMARK UNBOUND:                -0.055
REMARK SMILES COc1cc2ccc(=O)oc2cc1O
REMARK SMILES IDX 3 1 13 2 12 3 11 4 5 5 4 6 6 7 7 8 8 9 9 10 10 11 2 12 1 13
REMARK SMILES IDX 14 14
REMARK H PARENT 14 15
REMARK Flexibility Score: inf
ROOT
ATOM      1  C   UNL     1     -31.256  -2.103 -19.924  1.00  0.00     0.161 A 
ATOM      2  C   UNL     1     -32.604  -2.172 -20.331  1.00  0.00     0.161 A 
ATOM      3  C   UNL     1     -33.537  -2.875 -19.560  1.00  0.00     0.098 A 
ATOM      4  C   UNL     1     -33.143  -3.516 -18.384  1.00  0.00     0.142 A 
ATOM      5  C   UNL     1     -31.797  -3.455 -17.969  1.00  0.00     0.022 A 
ATOM      6  C   UNL     1     -30.859  -2.750 -18.737  1.00  0.00     0.062 A 
ATOM      7  C   UNL     1     -31.434  -4.107 -16.786  1.00  0.00     0.019 A 
ATOM      8  C   UNL     1     -32.402  -4.794 -16.057  1.00  0.00     0.094 A 
ATOM      9  C   UNL     1     -33.719  -4.813 -16.531  1.00  0.00     0.336 A 
ATOM     10  O   UNL     1     -34.610  -5.428 -15.887  1.00  0.00    -0.246 OA
ATOM     11  O   UNL     1     -34.038  -4.184 -17.658  1.00  0.00    -0.423 OA
ENDROOT
BRANCH   1  12
ATOM     12  O   UNL     1     -30.346  -1.388 -20.720  1.00  0.00    -0.493 OA
ATOM     13  C   UNL     1     -29.147  -1.931 -21.263  1.00  0.00     0.278 C 
ENDBRANCH   1  12
BRANCH   2  14
ATOM     14  O   UNL     1     -33.036  -1.544 -21.498  1.00  0.00    -0.504 OA
ATOM     15  H   UNL     1     -32.399  -1.059 -22.119  1.00  0.00     0.293 HD
ENDBRANCH   2  14
TORSDOF 2
ENDMDL
MODEL 2
REMARK VINA RESULT:    -6.099      1.687      5.374
REMARK INTER + INTRA:          -6.689
REMARK INTER:                  -6.643
REMARK INTRA:                  -0.046
REMARK UNBOUND:                -0.055
REMARK SMILES COc1cc2ccc(=O)oc2cc1O
REMARK SMILES IDX 3 1 13 2 12 3 11 4 5 5 4 6 6 7 7 8 8 9 9 10 10 11 2 12 1 13
REMARK SMILES IDX 14 14
REMARK H PARENT 14 15
REMARK Flexibility Score: inf
ROOT
ATOM      1  C   UNL     1     -33.045  -3.334 -18.040  1.00  0.00     0.161 A 
ATOM      2  C   UNL     1     -31.872  -3.620 -17.313  1.00  0.00     0.161 A 
ATOM      3  C   UNL     1     -30.616  -3.345 -17.866  1.00  0.00     0.098 A 
ATOM      4  C   UNL     1     -30.511  -2.787 -19.142  1.00  0.00     0.142 A 
ATOM      5  C   UNL     1     -31.679  -2.498 -19.879  1.00  0.00     0.022 A 
ATOM      6  C   UNL     1     -32.939  -2.771 -19.328  1.00  0.00     0.062 A 
ATOM      7  C   UNL     1     -31.542  -1.940 -21.153  1.00  0.00     0.019 A 
ATOM      8  C   UNL     1     -30.267  -1.688 -21.657  1.00  0.00     0.094 A 
ATOM      9  C   UNL     1     -29.154  -2.001 -20.870  1.00  0.00     0.336 A 
ATOM     10  O   UNL     1     -27.993  -1.780 -21.306  1.00  0.00    -0.246 OA
ATOM     11  O   UNL     1     -29.312  -2.531 -19.660  1.00  0.00    -0.423 OA
ENDROOT
BRANCH   1  12
ATOM     12  O   UNL     1     -34.289  -3.621 -17.455  1.00  0.00    -0.493 OA
ATOM     13  C   UNL     1     -35.480  -2.874 -17.680  1.00  0.00     0.278 C 
ENDBRANCH   1  12
BRANCH   2  14
ATOM     14  O   UNL     1     -31.935  -4.176 -16.036  1.00  0.00    -0.504 OA
ATOM     15  H   UNL     1     -32.815  -4.366 -15.572  1.00  0.00     0.293 HD
ENDBRANCH   2  14
TORSDOF 2
ENDMDL
MODEL 3
REMARK VINA RESULT:    -5.962      1.710      2.804
REMARK INTER + INTRA:          -6.539
REMARK INTER:                  -6.475
REMARK INTRA:                  -0.065
REMARK UNBOUND:                -0.055
REMARK SMILES COc1cc2ccc(=O)oc2cc1O
REMARK SMILES IDX 3 1 13 2 12 3 11 4 5 5 4 6 6 7 7 8 8 9 9 10 10 11 2 12 1 13
REMARK SMILES IDX 14 14
REMARK H PARENT 14 15
REMARK Flexibility Score: inf
ROOT
ATOM      1  C   UNL     1     -31.908  -2.653 -18.964  1.00  0.00     0.161 A 
ATOM      2  C   UNL     1     -31.284  -3.328 -17.896  1.00  0.00     0.161 A 
ATOM      3  C   UNL     1     -31.992  -4.281 -17.155  1.00  0.00     0.098 A 
ATOM      4  C   UNL     1     -33.323  -4.572 -17.463  1.00  0.00     0.142 A 
ATOM      5  C   UNL     1     -33.958  -3.901 -18.529  1.00  0.00     0.022 A 
ATOM      6  C   UNL     1     -33.251  -2.947 -19.275  1.00  0.00     0.062 A 
ATOM      7  C   UNL     1     -35.290  -4.213 -18.813  1.00  0.00     0.019 A 
ATOM      8  C   UNL     1     -35.950  -5.169 -18.043  1.00  0.00     0.094 A 
ATOM      9  C   UNL     1     -35.256  -5.794 -17.000  1.00  0.00     0.336 A 
ATOM     10  O   UNL     1     -35.833  -6.661 -16.292  1.00  0.00    -0.246 OA
ATOM     11  O   UNL     1     -33.988  -5.479 -16.751  1.00  0.00    -0.423 OA
ENDROOT
BRANCH   1  12
ATOM     12  O   UNL     1     -31.168  -1.704 -19.687  1.00  0.00    -0.493 OA
ATOM     13  C   UNL     1     -30.499  -1.967 -20.917  1.00  0.00     0.278 C 
ENDBRANCH   1  12
BRANCH   2  14
ATOM     14  O   UNL     1     -29.957  -3.067 -17.557  1.00  0.00    -0.504 OA
ATOM     15  H   UNL     1     -29.656  -2.959 -16.597  1.00  0.00     0.293 HD
ENDBRANCH   2  14
TORSDOF 2
ENDMDL
MODEL 4
REMARK VINA RESULT:    -5.880      1.402      1.754
REMARK INTER + INTRA:          -6.451
REMARK INTER:                  -6.488
REMARK INTRA:                   0.037
REMARK UNBOUND:                -0.055
REMARK SMILES COc1cc2ccc(=O)oc2cc1O
REMARK SMILES IDX 3 1 13 2 12 3 11 4 5 5 4 6 6 7 7 8 8 9 9 10 10 11 2 12 1 13
REMARK SMILES IDX 14 14
REMARK H PARENT 14 15
REMARK Flexibility Score: inf
ROOT
ATOM      1  C   UNL     1     -32.077  -2.669 -18.980  1.00  0.00     0.161 A 
ATOM      2  C   UNL     1     -33.194  -2.490 -19.820  1.00  0.00     0.161 A 
ATOM      3  C   UNL     1     -34.413  -3.105 -19.512  1.00  0.00     0.098 A 
ATOM      4  C   UNL     1     -34.534  -3.904 -18.373  1.00  0.00     0.142 A 
ATOM      5  C   UNL     1     -33.422  -4.092 -17.526  1.00  0.00     0.022 A 
ATOM      6  C   UNL     1     -32.199  -3.476 -17.831  1.00  0.00     0.062 A 
ATOM      7  C   UNL     1     -33.575  -4.897 -16.394  1.00  0.00     0.019 A 
ATOM      8  C   UNL     1     -34.810  -5.487 -16.134  1.00  0.00     0.094 A 
ATOM      9  C   UNL     1     -35.869  -5.257 -17.019  1.00  0.00     0.336 A 
ATOM     10  O   UNL     1     -36.994  -5.781 -16.802  1.00  0.00    -0.246 OA
ATOM     11  O   UNL     1     -35.698  -4.486 -18.089  1.00  0.00    -0.423 OA
ENDROOT
BRANCH   1  12
ATOM     12  O   UNL     1     -30.869  -2.037 -19.318  1.00  0.00    -0.493 OA
ATOM     13  C   UNL     1     -29.994  -2.467 -20.357  1.00  0.00     0.278 C 
ENDBRANCH   1  12
BRANCH   2  14
ATOM     14  O   UNL     1     -33.113  -1.699 -20.965  1.00  0.00    -0.504 OA
ATOM     15  H   UNL     1     -33.321  -2.062 -21.888  1.00  0.00     0.293 HD
ENDBRANCH   2  14
TORSDOF 2
ENDMDL
MODEL 5
REMARK VINA RESULT:    -5.829      4.653      8.450
REMARK INTER + INTRA:          -6.396
REMARK INTER:                  -6.345
REMARK INTRA:                  -0.051
REMARK UNBOUND:                -0.055
REMARK SMILES COc1cc2ccc(=O)oc2cc1O
REMARK SMILES IDX 3 1 13 2 12 3 11 4 5 5 4 6 6 7 7 8 8 9 9 10 10 11 2 12 1 13
REMARK SMILES IDX 14 14
REMARK H PARENT 14 15
REMARK Flexibility Score: inf
ROOT
ATOM      1  C   UNL     1     -38.713  -6.957 -13.897  1.00  0.00     0.161 A 
ATOM      2  C   UNL     1     -38.684  -7.760 -15.055  1.00  0.00     0.161 A 
ATOM      3  C   UNL     1     -37.656  -7.607 -15.992  1.00  0.00     0.098 A 
ATOM      4  C   UNL     1     -36.652  -6.658 -15.793  1.00  0.00     0.142 A 
ATOM      5  C   UNL     1     -36.672  -5.848 -14.638  1.00  0.00     0.022 A 
ATOM      6  C   UNL     1     -37.699  -5.999 -13.695  1.00  0.00     0.062 A 
ATOM      7  C   UNL     1     -35.652  -4.907 -14.466  1.00  0.00     0.019 A 
ATOM      8  C   UNL     1     -34.653  -4.795 -15.431  1.00  0.00     0.094 A 
ATOM      9  C   UNL     1     -34.698  -5.632 -16.552  1.00  0.00     0.336 A 
ATOM     10  O   UNL     1     -33.805  -5.547 -17.436  1.00  0.00    -0.246 OA
ATOM     11  O   UNL     1     -35.679  -6.519 -16.691  1.00  0.00    -0.423 OA
ENDROOT
BRANCH   1  12
ATOM     12  O   UNL     1     -39.758  -7.137 -12.976  1.00  0.00    -0.493 OA
ATOM     13  C   UNL     1     -40.524  -6.081 -12.406  1.00  0.00     0.278 C 
ENDBRANCH   1  12
BRANCH   2  14
ATOM     14  O   UNL     1     -39.668  -8.719 -15.290  1.00  0.00    -0.504 OA
ATOM     15  H   UNL     1     -40.090  -9.255 -14.541  1.00  0.00     0.293 HD
ENDBRANCH   2  14
TORSDOF 2
ENDMDL
MODEL 6
REMARK VINA RESULT:    -5.812      5.309      7.965
REMARK INTER + INTRA:          -6.377
REMARK INTER:                  -6.313
REMARK INTRA:                  -0.064
REMARK UNBOUND:                -0.055
REMARK SMILES COc1cc2ccc(=O)oc2cc1O
REMARK SMILES IDX 3 1 13 2 12 3 11 4 5 5 4 6 6 7 7 8 8 9 9 10 10 11 2 12 1 13
REMARK SMILES IDX 14 14
REMARK H PARENT 14 15
REMARK Flexibility Score: inf
ROOT
ATOM      1  C   UNL     1     -36.109  -5.016 -14.115  1.00  0.00     0.161 A 
ATOM      2  C   UNL     1     -37.320  -4.302 -14.027  1.00  0.00     0.161 A 
ATOM      3  C   UNL     1     -38.528  -4.984 -13.843  1.00  0.00     0.098 A 
ATOM      4  C   UNL     1     -38.547  -6.377 -13.746  1.00  0.00     0.142 A 
ATOM      5  C   UNL     1     -37.340  -7.101 -13.834  1.00  0.00     0.022 A 
ATOM      6  C   UNL     1     -36.128  -6.422 -14.017  1.00  0.00     0.062 A 
ATOM      7  C   UNL     1     -37.392  -8.495 -13.733  1.00  0.00     0.019 A 
ATOM      8  C   UNL     1     -38.622  -9.124 -13.551  1.00  0.00     0.094 A 
ATOM      9  C   UNL     1     -39.778  -8.340 -13.474  1.00  0.00     0.336 A 
ATOM     10  O   UNL     1     -40.900  -8.889 -13.309  1.00  0.00    -0.246 OA
ATOM     11  O   UNL     1     -39.702  -7.016 -13.572  1.00  0.00    -0.423 OA
ENDROOT
BRANCH   1  12
ATOM     12  O   UNL     1     -34.914  -4.301 -14.299  1.00  0.00    -0.493 OA
ATOM     13  C   UNL     1     -34.193  -4.234 -15.526  1.00  0.00     0.278 C 
ENDBRANCH   1  12
BRANCH   2  14
ATOM     14  O   UNL     1     -37.342  -2.910 -14.119  1.00  0.00    -0.504 OA
ATOM     15  H   UNL     1     -36.582  -2.334 -13.779  1.00  0.00     0.293 HD
ENDBRANCH   2  14
TORSDOF 2
ENDMDL
MODEL 7
REMARK VINA RESULT:    -5.659      8.032     10.002
REMARK INTER + INTRA:          -6.210
REMARK INTER:                  -6.145
REMARK INTRA:                  -0.064
REMARK UNBOUND:                -0.055
REMARK SMILES COc1cc2ccc(=O)oc2cc1O
REMARK SMILES IDX 3 1 13 2 12 3 11 4 5 5 4 6 6 7 7 8 8 9 9 10 10 11 2 12 1 13
REMARK SMILES IDX 14 14
REMARK H PARENT 14 15
REMARK Flexibility Score: inf
ROOT
ATOM      1  C   UNL     1     -38.729  -7.150 -14.656  1.00  0.00     0.161 A 
ATOM      2  C   UNL     1     -39.820  -7.835 -14.085  1.00  0.00     0.161 A 
ATOM      3  C   UNL     1     -40.518  -7.276 -13.008  1.00  0.00     0.098 A 
ATOM      4  C   UNL     1     -40.140  -6.037 -12.487  1.00  0.00     0.142 A 
ATOM      5  C   UNL     1     -39.049  -5.343 -13.050  1.00  0.00     0.022 A 
ATOM      6  C   UNL     1     -38.348  -5.899 -14.129  1.00  0.00     0.062 A 
ATOM      7  C   UNL     1     -38.695  -4.105 -12.506  1.00  0.00     0.019 A 
ATOM      8  C   UNL     1     -39.422  -3.594 -11.433  1.00  0.00     0.094 A 
ATOM      9  C   UNL     1     -40.493  -4.339 -10.925  1.00  0.00     0.336 A 
ATOM     10  O   UNL     1     -41.164  -3.896  -9.956  1.00  0.00    -0.246 OA
ATOM     11  O   UNL     1     -40.810  -5.514 -11.462  1.00  0.00    -0.423 OA
ENDROOT
BRANCH   1  12
ATOM     12  O   UNL     1     -38.052  -7.739 -15.736  1.00  0.00    -0.493 OA
ATOM     13  C   UNL     1     -36.782  -8.377 -15.642  1.00  0.00     0.278 C 
ENDBRANCH   1  12
BRANCH   2  14
ATOM     14  O   UNL     1     -40.229  -9.074 -14.578  1.00  0.00    -0.504 OA
ATOM     15  H   UNL     1     -39.849  -9.946 -14.229  1.00  0.00     0.293 HD
ENDBRANCH   2  14
TORSDOF 2
ENDMDL
MODEL 8
REMARK VINA RESULT:    -5.590      1.474      5.043
REMARK INTER + INTRA:          -6.135
REMARK INTER:                  -6.072
REMARK INTRA:                  -0.063
REMARK UNBOUND:                -0.055
REMARK SMILES COc1cc2ccc(=O)oc2cc1O
REMARK SMILES IDX 3 1 13 2 12 3 11 4 5 5 4 6 6 7 7 8 8 9 9 10 10 11 2 12 1 13
REMARK SMILES IDX 14 14
REMARK H PARENT 14 15
REMARK Flexibility Score: inf
ROOT
ATOM      1  C   UNL     1     -34.522  -5.043 -16.841  1.00  0.00     0.161 A 
ATOM      2  C   UNL     1     -35.188  -4.636 -18.013  1.00  0.00     0.161 A 
ATOM      3  C   UNL     1     -34.517  -3.873 -18.976  1.00  0.00     0.098 A 
ATOM      4  C   UNL     1     -33.184  -3.506 -18.785  1.00  0.00     0.142 A 
ATOM      5  C   UNL     1     -32.508  -3.907 -17.614  1.00  0.00     0.022 A 
ATOM      6  C   UNL     1     -33.176  -4.673 -16.647  1.00  0.00     0.062 A 
ATOM      7  C   UNL     1     -31.173  -3.524 -17.451  1.00  0.00     0.019 A 
ATOM      8  C   UNL     1     -30.552  -2.764 -18.440  1.00  0.00     0.094 A 
ATOM      9  C   UNL     1     -31.286  -2.402 -19.575  1.00  0.00     0.336 A 
ATOM     10  O   UNL     1     -30.744  -1.715 -20.481  1.00  0.00    -0.246 OA
ATOM     11  O   UNL     1     -32.555  -2.780 -19.706  1.00  0.00    -0.423 OA
ENDROOT
BRANCH   1  12
ATOM     12  O   UNL     1     -35.224  -5.808 -15.895  1.00  0.00    -0.493 OA
ATOM     13  C   UNL     1     -35.638  -5.334 -14.618  1.00  0.00     0.278 C 
ENDBRANCH   1  12
BRANCH   2  14
ATOM     14  O   UNL     1     -36.519  -4.983 -18.242  1.00  0.00    -0.504 OA
ATOM     15  H   UNL     1     -37.204  -4.312 -18.567  1.00  0.00     0.293 HD
ENDBRANCH   2  14
TORSDOF 2
ENDMDL
MODEL 9
REMARK VINA RESULT:    -5.478      4.176      6.554
REMARK INTER + INTRA:          -6.013
REMARK INTER:                  -5.952
REMARK INTRA:                  -0.061
REMARK UNBOUND:                -0.055
REMARK SMILES COc1cc2ccc(=O)oc2cc1O
REMARK SMILES IDX 3 1 13 2 12 3 11 4 5 5 4 6 6 7 7 8 8 9 9 10 10 11 2 12 1 13
REMARK SMILES IDX 14 14
REMARK H PARENT 14 15
REMARK Flexibility Score: inf
ROOT
ATOM      1  C   UNL     1     -35.306  -5.408 -16.459  1.00  0.00     0.161 A 
ATOM      2  C   UNL     1     -35.788  -4.383 -15.621  1.00  0.00     0.161 A 
ATOM      3  C   UNL     1     -36.844  -4.634 -14.737  1.00  0.00     0.098 A 
ATOM      4  C   UNL     1     -37.432  -5.899 -14.678  1.00  0.00     0.142 A 
ATOM      5  C   UNL     1     -36.959  -6.931 -15.514  1.00  0.00     0.022 A 
ATOM      6  C   UNL     1     -35.900  -6.685 -16.400  1.00  0.00     0.062 A 
ATOM      7  C   UNL     1     -37.569  -8.187 -15.432  1.00  0.00     0.019 A 
ATOM      8  C   UNL     1     -38.617  -8.382 -14.536  1.00  0.00     0.094 A 
ATOM      9  C   UNL     1     -39.035  -7.311 -13.738  1.00  0.00     0.336 A 
ATOM     10  O   UNL     1     -39.980  -7.467 -12.921  1.00  0.00    -0.246 OA
ATOM     11  O   UNL     1     -38.437  -6.126 -13.835  1.00  0.00    -0.423 OA
ENDROOT
BRANCH   1  12
ATOM     12  O   UNL     1     -34.245  -5.123 -17.333  1.00  0.00    -0.493 OA
ATOM     13  C   UNL     1     -32.936  -5.674 -17.222  1.00  0.00     0.278 C 
ENDBRANCH   1  12
BRANCH   2  14
ATOM     14  O   UNL     1     -35.226  -3.107 -15.649  1.00  0.00    -0.504 OA
ATOM     15  H   UNL     1     -34.259  -2.937 -15.401  1.00  0.00     0.293 HD
ENDBRANCH   2  14
TORSDOF 2
ENDMDL
