MODEL 1
REMARK VINA RESULT:    -4.738      0.000      0.000
REMARK INTER + INTRA:          -7.856
REMARK INTER:                  -7.369
REMARK INTRA:                  -0.487
REMARK UNBOUND:                -0.487
REMARK SMILES COc1cc(CNC(=O)CCCCC=CC(C)C)ccc1O
REMARK SMILES IDX 11 1 12 2 13 3 14 4 15 5 16 6 17 7 18 8 10 9 8 10 9 11 7 12
REMARK SMILES IDX 6 14 5 15 4 16 19 17 3 18 20 19 21 20 2 21 1 22 22 23
REMARK H PARENT 7 13 22 24
REMARK Flexibility Score: inf
ROOT
ATOM      1  C   UNL     1     115.162 258.565 336.896  1.00  0.00     0.010 C 
ENDROOT
BRANCH   1   2
ATOM      2  C   UNL     1     114.354 259.826 336.522  1.00  0.00     0.005 C 
BRANCH   2   3
ATOM      3  C   UNL     1     113.048 259.534 335.765  1.00  0.00     0.027 C 
BRANCH   3   4
ATOM      4  C   UNL     1     113.104 259.979 334.328  1.00  0.00    -0.031 C 
ATOM      5  C   UNL     1     113.033 259.082 333.331  1.00  0.00    -0.028 C 
BRANCH   5   6
ATOM      6  C   UNL     1     113.080 259.475 331.871  1.00  0.00     0.005 C 
ATOM      7  C   UNL     1     114.315 258.890 331.176  1.00  0.00     0.012 C 
ATOM      8  C   UNL     1     111.791 259.076 331.144  1.00  0.00     0.012 C 
ENDBRANCH   5   6
ENDBRANCH   3   4
ENDBRANCH   2   3
ENDBRANCH   1   2
BRANCH   1   9
ATOM      9  C   UNL     1     116.481 258.850 337.632  1.00  0.00     0.100 C 
BRANCH   9  10
ATOM     10  C   UNL     1     116.763 257.831 338.697  1.00  0.00     0.220 C 
ATOM     11  O   UNL     1     117.775 257.086 338.588  1.00  0.00    -0.275 OA
ATOM     12  N   UNL     1     115.870 257.682 339.809  1.00  0.00    -0.352 N 
ATOM     13  H   UNL     1     115.016 258.281 339.861  1.00  0.00     0.163 HD
BRANCH  12  14
ATOM     14  C   UNL     1     116.093 256.700 340.868  1.00  0.00     0.151 C 
BRANCH  14  15
ATOM     15  C   UNL     1     114.929 256.690 341.822  1.00  0.00    -0.025 A 
ATOM     16  C   UNL     1     114.976 257.463 342.993  1.00  0.00     0.056 A 
ATOM     17  C   UNL     1     113.804 255.892 341.566  1.00  0.00     0.009 A 
ATOM     18  C   UNL     1     113.902 257.447 343.906  1.00  0.00     0.160 A 
ATOM     19  C   UNL     1     112.737 255.874 342.465  1.00  0.00     0.050 A 
ATOM     20  C   UNL     1     112.778 256.645 343.630  1.00  0.00     0.157 A 
BRANCH  18  21
ATOM     21  O   UNL     1     113.919 258.209 345.085  1.00  0.00    -0.493 OA
ATOM     22  C   UNL     1     114.980 259.075 345.473  1.00  0.00     0.278 C 
ENDBRANCH  18  21
BRANCH  20  23
ATOM     23  O   UNL     1     111.693 256.602 344.506  1.00  0.00    -0.504 OA
ATOM     24  H   UNL     1     111.810 256.605 345.512  1.00  0.00     0.293 HD
ENDBRANCH  20  23
ENDBRANCH  14  15
ENDBRANCH  12  14
ENDBRANCH   9  10
ENDBRANCH   1   9
TORSDOF 10
ENDMDL
MODEL 2
REMARK VINA RESULT:    -4.597      2.798     10.582
REMARK INTER + INTRA:          -7.637
REMARK INTER:                  -7.114
REMARK INTRA:                  -0.523
REMARK UNBOUND:                -0.487
REMARK SMILES COc1cc(CNC(=O)CCCCC=CC(C)C)ccc1O
REMARK SMILES IDX 11 1 12 2 13 3 14 4 15 5 16 6 17 7 18 8 10 9 8 10 9 11 7 12
REMARK SMILES IDX 6 14 5 15 4 16 19 17 3 18 20 19 21 20 2 21 1 22 22 23
REMARK H PARENT 7 13 22 24
REMARK Flexibility Score: inf
ROOT
ATOM      1  C   UNL     1     115.151 258.803 345.454  1.00  0.00     0.010 C 
ENDROOT
BRANCH   1   2
ATOM      2  C   UNL     1     115.358 260.305 345.748  1.00  0.00     0.005 C 
BRANCH   2   3
ATOM      3  C   UNL     1     116.700 260.635 346.422  1.00  0.00     0.027 C 
BRANCH   3   4
ATOM      4  C   UNL     1     116.538 261.010 347.872  1.00  0.00    -0.031 C 
ATOM      5  C   UNL     1     116.338 260.065 348.804  1.00  0.00    -0.028 C 
BRANCH   5   6
ATOM      6  C   UNL     1     116.174 260.386 350.273  1.00  0.00     0.005 C 
ATOM      7  C   UNL     1     115.494 259.236 351.023  1.00  0.00     0.012 C 
ATOM      8  C   UNL     1     117.516 260.754 350.918  1.00  0.00     0.012 C 
ENDBRANCH   5   6
ENDBRANCH   3   4
ENDBRANCH   2   3
ENDBRANCH   1   2
BRANCH   1   9
ATOM      9  C   UNL     1     113.931 258.490 344.575  1.00  0.00     0.100 C 
BRANCH   9  10
ATOM     10  C   UNL     1     114.192 257.351 343.634  1.00  0.00     0.220 C 
ATOM     11  O   UNL     1     113.861 256.181 343.971  1.00  0.00    -0.275 OA
ATOM     12  N   UNL     1     114.846 257.585 342.379  1.00  0.00    -0.352 N 
ATOM     13  H   UNL     1     115.149 258.555 342.135  1.00  0.00     0.163 HD
BRANCH  12  14
ATOM     14  C   UNL     1     115.132 256.510 341.431  1.00  0.00     0.151 C 
BRANCH  14  15
ATOM     15  C   UNL     1     116.158 256.962 340.427  1.00  0.00    -0.025 A 
ATOM     16  C   UNL     1     115.758 257.686 339.292  1.00  0.00     0.056 A 
ATOM     17  C   UNL     1     117.513 256.644 340.600  1.00  0.00     0.009 A 
ATOM     18  C   UNL     1     116.705 258.097 338.334  1.00  0.00     0.160 A 
ATOM     19  C   UNL     1     118.456 257.050 339.655  1.00  0.00     0.050 A 
ATOM     20  C   UNL     1     118.061 257.774 338.526  1.00  0.00     0.157 A 
BRANCH  18  21
ATOM     21  O   UNL     1     116.336 258.822 337.189  1.00  0.00    -0.493 OA
ATOM     22  C   UNL     1     114.996 259.151 336.838  1.00  0.00     0.278 C 
ENDBRANCH  18  21
BRANCH  20  23
ATOM     23  O   UNL     1     119.032 258.163 337.602  1.00  0.00    -0.504 OA
ATOM     24  H   UNL     1     119.928 257.697 337.531  1.00  0.00     0.293 HD
ENDBRANCH  20  23
ENDBRANCH  14  15
ENDBRANCH  12  14
ENDBRANCH   9  10
ENDBRANCH   1   9
TORSDOF 10
ENDMDL
MODEL 3
REMARK VINA RESULT:    -4.550      4.082      7.506
REMARK INTER + INTRA:          -7.565
REMARK INTER:                  -7.044
REMARK INTRA:                  -0.520
REMARK UNBOUND:                -0.487
REMARK SMILES COc1cc(CNC(=O)CCCCC=CC(C)C)ccc1O
REMARK SMILES IDX 11 1 12 2 13 3 14 4 15 5 16 6 17 7 18 8 10 9 8 10 9 11 7 12
REMARK SMILES IDX 6 14 5 15 4 16 19 17 3 18 20 19 21 20 2 21 1 22 22 23
REMARK H PARENT 7 13 22 24
REMARK Flexibility Score: inf
ROOT
ATOM      1  C   UNL     1     113.357 256.369 343.236  1.00  0.00     0.010 C 
ENDROOT
BRANCH   1   2
ATOM      2  C   UNL     1     113.988 256.402 341.827  1.00  0.00     0.005 C 
BRANCH   2   3
ATOM      3  C   UNL     1     115.490 256.728 341.817  1.00  0.00     0.027 C 
BRANCH   3   4
ATOM      4  C   UNL     1     115.937 257.341 340.516  1.00  0.00    -0.031 C 
ATOM      5  C   UNL     1     117.185 257.147 340.062  1.00  0.00    -0.028 C 
BRANCH   5   6
ATOM      6  C   UNL     1     117.684 257.735 338.761  1.00  0.00     0.005 C 
ATOM      7  C   UNL     1     116.521 258.181 337.868  1.00  0.00     0.012 C 
ATOM      8  C   UNL     1     118.668 258.885 339.009  1.00  0.00     0.012 C 
ENDBRANCH   5   6
ENDBRANCH   3   4
ENDBRANCH   2   3
ENDBRANCH   1   2
BRANCH   1   9
ATOM      9  C   UNL     1     114.335 256.690 344.377  1.00  0.00     0.100 C 
BRANCH   9  10
ATOM     10  C   UNL     1     114.337 258.150 344.723  1.00  0.00     0.220 C 
ATOM     11  O   UNL     1     113.392 258.883 344.322  1.00  0.00    -0.275 OA
ATOM     12  N   UNL     1     115.423 258.713 345.472  1.00  0.00    -0.352 N 
ATOM     13  H   UNL     1     116.217 258.098 345.760  1.00  0.00     0.163 HD
BRANCH  12  14
ATOM     14  C   UNL     1     115.480 260.130 345.828  1.00  0.00     0.151 C 
BRANCH  14  15
ATOM     15  C   UNL     1     116.139 260.303 347.169  1.00  0.00    -0.025 A 
ATOM     16  C   UNL     1     115.363 260.620 348.296  1.00  0.00     0.056 A 
ATOM     17  C   UNL     1     117.529 260.178 347.302  1.00  0.00     0.009 A 
ATOM     18  C   UNL     1     115.969 260.805 349.555  1.00  0.00     0.160 A 
ATOM     19  C   UNL     1     118.135 260.359 348.546  1.00  0.00     0.050 A 
ATOM     20  C   UNL     1     117.365 260.670 349.671  1.00  0.00     0.157 A 
BRANCH  18  21
ATOM     21  O   UNL     1     115.220 261.122 350.700  1.00  0.00    -0.493 OA
ATOM     22  C   UNL     1     113.801 261.046 350.784  1.00  0.00     0.278 C 
ENDBRANCH  18  21
BRANCH  20  23
ATOM     23  O   UNL     1     118.005 260.844 350.899  1.00  0.00    -0.504 OA
ATOM     24  H   UNL     1     117.600 260.522 351.769  1.00  0.00     0.293 HD
ENDBRANCH  20  23
ENDBRANCH  14  15
ENDBRANCH  12  14
ENDBRANCH   9  10
ENDBRANCH   1   9
TORSDOF 10
ENDMDL
MODEL 4
REMARK VINA RESULT:    -3.403      1.286      1.999
REMARK INTER + INTRA:          -5.780
REMARK INTER:                  -5.237
REMARK INTRA:                  -0.543
REMARK UNBOUND:                -0.487
REMARK SMILES COc1cc(CNC(=O)CCCCC=CC(C)C)ccc1O
REMARK SMILES IDX 11 1 12 2 13 3 14 4 15 5 16 6 17 7 18 8 10 9 8 10 9 11 7 12
REMARK SMILES IDX 6 14 5 15 4 16 19 17 3 18 20 19 21 20 2 21 1 22 22 23
REMARK H PARENT 7 13 22 24
REMARK Flexibility Score: inf
ROOT
ATOM      1  C   UNL     1     117.918 258.768 337.993  1.00  0.00     0.010 C 
ENDROOT
BRANCH   1   2
ATOM      2  C   UNL     1     116.572 258.232 337.458  1.00  0.00     0.005 C 
BRANCH   2   3
ATOM      3  C   UNL     1     115.431 259.262 337.481  1.00  0.00     0.027 C 
BRANCH   3   4
ATOM      4  C   UNL     1     114.486 259.098 336.320  1.00  0.00    -0.031 C 
ATOM      5  C   UNL     1     113.611 260.068 336.009  1.00  0.00    -0.028 C 
BRANCH   5   6
ATOM      6  C   UNL     1     112.643 259.957 334.852  1.00  0.00     0.005 C 
ATOM      7  C   UNL     1     113.268 260.475 333.551  1.00  0.00     0.012 C 
ATOM      8  C   UNL     1     112.128 258.522 334.689  1.00  0.00     0.012 C 
ENDBRANCH   5   6
ENDBRANCH   3   4
ENDBRANCH   2   3
ENDBRANCH   1   2
BRANCH   1   9
ATOM      9  C   UNL     1     118.117 258.587 339.506  1.00  0.00     0.100 C 
BRANCH   9  10
ATOM     10  C   UNL     1     117.528 257.299 340.001  1.00  0.00     0.220 C 
ATOM     11  O   UNL     1     118.173 256.225 339.852  1.00  0.00    -0.275 OA
ATOM     12  N   UNL     1     116.227 257.284 340.605  1.00  0.00    -0.352 N 
ATOM     13  H   UNL     1     115.691 258.178 340.683  1.00  0.00     0.163 HD
BRANCH  12  14
ATOM     14  C   UNL     1     115.603 256.057 341.096  1.00  0.00     0.151 C 
BRANCH  14  15
ATOM     15  C   UNL     1     114.492 256.387 342.056  1.00  0.00    -0.025 A 
ATOM     16  C   UNL     1     114.750 257.195 343.175  1.00  0.00     0.056 A 
ATOM     17  C   UNL     1     113.203 255.871 341.860  1.00  0.00     0.009 A 
ATOM     18  C   UNL     1     113.724 257.495 344.094  1.00  0.00     0.160 A 
ATOM     19  C   UNL     1     112.183 256.166 342.765  1.00  0.00     0.050 A 
ATOM     20  C   UNL     1     112.435 256.973 343.878  1.00  0.00     0.157 A 
BRANCH  18  21
ATOM     21  O   UNL     1     113.950 258.299 345.222  1.00  0.00    -0.493 OA
ATOM     22  C   UNL     1     115.130 259.065 345.446  1.00  0.00     0.278 C 
ENDBRANCH  18  21
BRANCH  20  23
ATOM     23  O   UNL     1     111.391 257.246 344.763  1.00  0.00    -0.504 OA
ATOM     24  H   UNL     1     110.841 256.512 345.193  1.00  0.00     0.293 HD
ENDBRANCH  20  23
ENDBRANCH  14  15
ENDBRANCH  12  14
ENDBRANCH   9  10
ENDBRANCH   1   9
TORSDOF 10
ENDMDL
MODEL 5
REMARK VINA RESULT:    -2.787      2.834      9.391
REMARK INTER + INTRA:          -4.822
REMARK INTER:                  -4.346
REMARK INTRA:                  -0.475
REMARK UNBOUND:                -0.487
REMARK SMILES COc1cc(CNC(=O)CCCCC=CC(C)C)ccc1O
REMARK SMILES IDX 11 1 12 2 13 3 14 4 15 5 16 6 17 7 18 8 10 9 8 10 9 11 7 12
REMARK SMILES IDX 6 14 5 15 4 16 19 17 3 18 20 19 21 20 2 21 1 22 22 23
REMARK H PARENT 7 13 22 24
REMARK Flexibility Score: inf
ROOT
ATOM      1  C   UNL     1     112.552 257.458 344.207  1.00  0.00     0.010 C 
ENDROOT
BRANCH   1   2
ATOM      2  C   UNL     1     113.978 257.707 344.744  1.00  0.00     0.005 C 
BRANCH   2   3
ATOM      3  C   UNL     1     114.386 259.188 344.785  1.00  0.00     0.027 C 
BRANCH   3   4
ATOM      4  C   UNL     1     115.241 259.517 345.980  1.00  0.00    -0.031 C 
ATOM      5  C   UNL     1     116.052 260.587 345.967  1.00  0.00    -0.028 C 
BRANCH   5   6
ATOM      6  C   UNL     1     116.928 260.965 347.141  1.00  0.00     0.005 C 
ATOM      7  C   UNL     1     116.163 260.857 348.465  1.00  0.00     0.012 C 
ATOM      8  C   UNL     1     118.213 260.130 347.171  1.00  0.00     0.012 C 
ENDBRANCH   5   6
ENDBRANCH   3   4
ENDBRANCH   2   3
ENDBRANCH   1   2
BRANCH   1   9
ATOM      9  C   UNL     1     112.478 257.217 342.691  1.00  0.00     0.100 C 
BRANCH   9  10
ATOM     10  C   UNL     1     113.615 256.370 342.200  1.00  0.00     0.220 C 
ATOM     11  O   UNL     1     113.482 255.116 342.163  1.00  0.00    -0.275 OA
ATOM     12  N   UNL     1     114.854 256.978 341.810  1.00  0.00    -0.352 N 
ATOM     13  H   UNL     1     114.959 258.015 341.886  1.00  0.00     0.163 HD
BRANCH  12  14
ATOM     14  C   UNL     1     115.995 256.199 341.333  1.00  0.00     0.151 C 
BRANCH  14  15
ATOM     15  C   UNL     1     116.723 256.951 340.252  1.00  0.00    -0.025 A 
ATOM     16  C   UNL     1     116.001 257.731 339.334  1.00  0.00     0.056 A 
ATOM     17  C   UNL     1     118.117 256.858 340.133  1.00  0.00     0.009 A 
ATOM     18  C   UNL     1     116.668 258.424 338.303  1.00  0.00     0.160 A 
ATOM     19  C   UNL     1     118.782 257.543 339.116  1.00  0.00     0.050 A 
ATOM     20  C   UNL     1     118.068 258.324 338.202  1.00  0.00     0.157 A 
BRANCH  18  21
ATOM     21  O   UNL     1     115.974 259.212 337.370  1.00  0.00    -0.493 OA
ATOM     22  C   UNL     1     114.901 258.747 336.558  1.00  0.00     0.278 C 
ENDBRANCH  18  21
BRANCH  20  23
ATOM     23  O   UNL     1     118.766 258.995 337.198  1.00  0.00    -0.504 OA
ATOM     24  H   UNL     1     118.296 259.479 336.443  1.00  0.00     0.293 HD
ENDBRANCH  20  23
ENDBRANCH  14  15
ENDBRANCH  12  14
ENDBRANCH   9  10
ENDBRANCH   1   9
TORSDOF 10
ENDMDL
MODEL 6
REMARK VINA RESULT:    -2.332      1.106      2.057
REMARK INTER + INTRA:          -4.114
REMARK INTER:                  -3.778
REMARK INTRA:                  -0.336
REMARK UNBOUND:                -0.487
REMARK SMILES COc1cc(CNC(=O)CCCCC=CC(C)C)ccc1O
REMARK SMILES IDX 11 1 12 2 13 3 14 4 15 5 16 6 17 7 18 8 10 9 8 10 9 11 7 12
REMARK SMILES IDX 6 14 5 15 4 16 19 17 3 18 20 19 21 20 2 21 1 22 22 23
REMARK H PARENT 7 13 22 24
REMARK Flexibility Score: inf
ROOT
ATOM      1  C   UNL     1     114.987 259.488 336.918  1.00  0.00     0.010 C 
ENDROOT
BRANCH   1   2
ATOM      2  C   UNL     1     113.599 259.470 336.242  1.00  0.00     0.005 C 
BRANCH   2   3
ATOM      3  C   UNL     1     113.338 260.664 335.309  1.00  0.00     0.027 C 
BRANCH   3   4
ATOM      4  C   UNL     1     113.572 260.325 333.861  1.00  0.00    -0.031 C 
ATOM      5  C   UNL     1     112.665 259.618 333.169  1.00  0.00    -0.028 C 
BRANCH   5   6
ATOM      6  C   UNL     1     112.847 259.254 331.712  1.00  0.00     0.005 C 
ATOM      7  C   UNL     1     111.568 259.514 330.908  1.00  0.00     0.012 C 
ATOM      8  C   UNL     1     114.048 259.984 331.100  1.00  0.00     0.012 C 
ENDBRANCH   5   6
ENDBRANCH   3   4
ENDBRANCH   2   3
ENDBRANCH   1   2
BRANCH   1   9
ATOM      9  C   UNL     1     115.585 258.097 337.177  1.00  0.00     0.100 C 
BRANCH   9  10
ATOM     10  C   UNL     1     116.229 258.004 338.529  1.00  0.00     0.220 C 
ATOM     11  O   UNL     1     117.376 258.500 338.704  1.00  0.00    -0.275 OA
ATOM     12  N   UNL     1     115.563 257.326 339.603  1.00  0.00    -0.352 N 
ATOM     13  H   UNL     1     114.631 256.886 339.428  1.00  0.00     0.163 HD
BRANCH  12  14
ATOM     14  C   UNL     1     116.149 257.199 340.936  1.00  0.00     0.151 C 
BRANCH  14  15
ATOM     15  C   UNL     1     115.065 257.029 341.966  1.00  0.00    -0.025 A 
ATOM     16  C   UNL     1     113.719 256.994 341.569  1.00  0.00     0.056 A 
ATOM     17  C   UNL     1     115.385 256.932 343.328  1.00  0.00     0.009 A 
ATOM     18  C   UNL     1     112.693 256.857 342.525  1.00  0.00     0.160 A 
ATOM     19  C   UNL     1     114.373 256.794 344.279  1.00  0.00     0.050 A 
ATOM     20  C   UNL     1     113.032 256.756 343.887  1.00  0.00     0.157 A 
BRANCH  18  21
ATOM     21  O   UNL     1     111.337 256.819 342.159  1.00  0.00    -0.493 OA
ATOM     22  C   UNL     1     110.362 257.771 342.571  1.00  0.00     0.278 C 
ENDBRANCH  18  21
BRANCH  20  23
ATOM     23  O   UNL     1     112.048 256.617 344.866  1.00  0.00    -0.504 OA
ATOM     24  H   UNL     1     112.135 255.959 345.631  1.00  0.00     0.293 HD
ENDBRANCH  20  23
ENDBRANCH  14  15
ENDBRANCH  12  14
ENDBRANCH   9  10
ENDBRANCH   1   9
TORSDOF 10
ENDMDL
MODEL 7
REMARK VINA RESULT:    -1.907      1.902      3.148
REMARK INTER + INTRA:          -3.453
REMARK INTER:                  -3.020
REMARK INTRA:                  -0.433
REMARK UNBOUND:                -0.487
REMARK SMILES COc1cc(CNC(=O)CCCCC=CC(C)C)ccc1O
REMARK SMILES IDX 11 1 12 2 13 3 14 4 15 5 16 6 17 7 18 8 10 9 8 10 9 11 7 12
REMARK SMILES IDX 6 14 5 15 4 16 19 17 3 18 20 19 21 20 2 21 1 22 22 23
REMARK H PARENT 7 13 22 24
REMARK Flexibility Score: inf
ROOT
ATOM      1  C   UNL     1     118.684 258.445 338.384  1.00  0.00     0.010 C 
ENDROOT
BRANCH   1   2
ATOM      2  C   UNL     1     117.534 259.209 337.694  1.00  0.00     0.005 C 
BRANCH   2   3
ATOM      3  C   UNL     1     116.318 258.334 337.345  1.00  0.00     0.027 C 
BRANCH   3   4
ATOM      4  C   UNL     1     115.119 259.150 336.943  1.00  0.00    -0.031 C 
ATOM      5  C   UNL     1     114.403 258.824 335.855  1.00  0.00    -0.028 C 
BRANCH   5   6
ATOM      6  C   UNL     1     113.188 259.606 335.409  1.00  0.00     0.005 C 
ATOM      7  C   UNL     1     111.988 258.683 335.170  1.00  0.00     0.012 C 
ATOM      8  C   UNL     1     112.844 260.720 336.405  1.00  0.00     0.012 C 
ENDBRANCH   5   6
ENDBRANCH   3   4
ENDBRANCH   2   3
ENDBRANCH   1   2
BRANCH   1   9
ATOM      9  C   UNL     1     118.476 258.206 339.888  1.00  0.00     0.100 C 
BRANCH   9  10
ATOM     10  C   UNL     1     117.565 257.043 340.151  1.00  0.00     0.220 C 
ATOM     11  O   UNL     1     118.028 255.871 340.108  1.00  0.00    -0.275 OA
ATOM     12  N   UNL     1     116.171 257.262 340.413  1.00  0.00    -0.352 N 
ATOM     13  H   UNL     1     115.798 258.238 340.405  1.00  0.00     0.163 HD
BRANCH  12  14
ATOM     14  C   UNL     1     115.239 256.166 340.667  1.00  0.00     0.151 C 
BRANCH  14  15
ATOM     15  C   UNL     1     114.466 256.423 341.933  1.00  0.00    -0.025 A 
ATOM     16  C   UNL     1     113.062 256.398 341.915  1.00  0.00     0.056 A 
ATOM     17  C   UNL     1     115.135 256.715 343.130  1.00  0.00     0.009 A 
ATOM     18  C   UNL     1     112.326 256.657 343.088  1.00  0.00     0.160 A 
ATOM     19  C   UNL     1     114.411 256.971 344.295  1.00  0.00     0.050 A 
ATOM     20  C   UNL     1     113.014 256.943 344.281  1.00  0.00     0.157 A 
BRANCH  18  21
ATOM     21  O   UNL     1     110.921 256.639 343.101  1.00  0.00    -0.493 OA
ATOM     22  C   UNL     1     110.096 257.730 342.709  1.00  0.00     0.278 C 
ENDBRANCH  18  21
BRANCH  20  23
ATOM     23  O   UNL     1     112.323 257.204 345.465  1.00  0.00    -0.504 OA
ATOM     24  H   UNL     1     112.454 258.060 345.990  1.00  0.00     0.293 HD
ENDBRANCH  20  23
ENDBRANCH  14  15
ENDBRANCH  12  14
ENDBRANCH   9  10
ENDBRANCH   1   9
TORSDOF 10
ENDMDL
