MODEL 1
REMARK VINA RESULT:    -4.081      0.000      0.000
REMARK INTER + INTRA:          -5.738
REMARK INTER:                  -5.513
REMARK INTRA:                  -0.225
REMARK UNBOUND:                -0.225
REMARK SMILES CCCCCCCC(=O)[O-]
REMARK SMILES IDX 5 1 6 2 7 3 8 4 9 5 10 6 4 7 3 8 2 9 1 10
REMARK H PARENT
REMARK Flexibility Score: inf
ROOT
ATOM      1  C   UNL     1      52.981  -3.423  13.109  1.00  0.00     0.000 C 
ENDROOT
BRANCH   1   2
ATOM      2  C   UNL     1      52.783  -4.251  11.832  1.00  0.00     0.006 C 
BRANCH   2   3
ATOM      3  C   UNL     1      53.312  -3.531  10.584  1.00  0.00     0.053 C 
BRANCH   3   4
ATOM      4  C   UNL     1      53.094  -4.339   9.342  1.00  0.00     0.041 C 
ATOM      5  O   UNL     1      51.964  -4.839   9.101  1.00  0.00    -0.550 OA
ATOM      6  O   UNL     1      54.131  -4.511   8.434  1.00  0.00    -0.550 OA
ENDBRANCH   3   4
ENDBRANCH   2   3
ENDBRANCH   1   2
BRANCH   1   7
ATOM      7  C   UNL     1      54.427  -2.916  13.216  1.00  0.00     0.000 C 
BRANCH   7   8
ATOM      8  C   UNL     1      55.364  -3.936  13.883  1.00  0.00    -0.000 C 
BRANCH   8   9
ATOM      9  C   UNL     1      56.847  -3.560  13.738  1.00  0.00    -0.003 C 
ATOM     10  C   UNL     1      57.184  -2.326  14.571  1.00  0.00     0.004 C 
ENDBRANCH   8   9
ENDBRANCH   7   8
ENDBRANCH   1   7
TORSDOF 6
ENDMDL
MODEL 2
REMARK VINA RESULT:    -3.986      3.506      4.669
REMARK INTER + INTRA:          -5.610
REMARK INTER:                  -5.363
REMARK INTRA:                  -0.247
REMARK UNBOUND:                -0.225
REMARK SMILES CCCCCCCC(=O)[O-]
REMARK SMILES IDX 5 1 6 2 7 3 8 4 9 5 10 6 4 7 3 8 2 9 1 10
REMARK H PARENT
REMARK Flexibility Score: inf
ROOT
ATOM      1  C   UNL     1      53.792  -3.436   9.172  1.00  0.00     0.000 C 
ENDROOT
BRANCH   1   2
ATOM      2  C   UNL     1      52.368  -3.583   9.727  1.00  0.00     0.006 C 
BRANCH   2   3
ATOM      3  C   UNL     1      52.289  -4.616  10.859  1.00  0.00     0.053 C 
BRANCH   3   4
ATOM      4  C   UNL     1      52.100  -3.963  12.194  1.00  0.00     0.041 C 
ATOM      5  O   UNL     1      50.948  -3.643  12.586  1.00  0.00    -0.550 OA
ATOM      6  O   UNL     1      53.195  -3.740  13.019  1.00  0.00    -0.550 OA
ENDBRANCH   3   4
ENDBRANCH   2   3
ENDBRANCH   1   2
BRANCH   1   7
ATOM      7  C   UNL     1      53.895  -4.037   7.762  1.00  0.00     0.000 C 
BRANCH   7   8
ATOM      8  C   UNL     1      55.324  -4.483   7.412  1.00  0.00    -0.000 C 
BRANCH   8   9
ATOM      9  C   UNL     1      56.325  -4.205   8.543  1.00  0.00    -0.003 C 
ATOM     10  C   UNL     1      57.748  -4.551   8.114  1.00  0.00     0.004 C 
ENDBRANCH   8   9
ENDBRANCH   7   8
ENDBRANCH   1   7
TORSDOF 6
ENDMDL
MODEL 3
REMARK VINA RESULT:    -3.909      1.720      2.772
REMARK INTER + INTRA:          -5.505
REMARK INTER:                  -5.200
REMARK INTRA:                  -0.305
REMARK UNBOUND:                -0.225
REMARK SMILES CCCCCCCC(=O)[O-]
REMARK SMILES IDX 5 1 6 2 7 3 8 4 9 5 10 6 4 7 3 8 2 9 1 10
REMARK H PARENT
REMARK Flexibility Score: inf
ROOT
ATOM      1  C   UNL     1      55.389  -3.767  13.898  1.00  0.00     0.000 C 
ENDROOT
BRANCH   1   2
ATOM      2  C   UNL     1      54.615  -3.330  12.646  1.00  0.00     0.006 C 
BRANCH   2   3
ATOM      3  C   UNL     1      53.147  -3.005  12.953  1.00  0.00     0.053 C 
BRANCH   3   4
ATOM      4  C   UNL     1      52.213  -3.926  12.231  1.00  0.00     0.041 C 
ATOM      5  O   UNL     1      50.989  -3.947  12.523  1.00  0.00    -0.550 OA
ATOM      6  O   UNL     1      52.690  -4.739  11.209  1.00  0.00    -0.550 OA
ENDBRANCH   3   4
ENDBRANCH   2   3
ENDBRANCH   1   2
BRANCH   1   7
ATOM      7  C   UNL     1      56.891  -3.485  13.741  1.00  0.00     0.000 C 
BRANCH   7   8
ATOM      8  C   UNL     1      57.351  -2.263  14.551  1.00  0.00    -0.000 C 
BRANCH   8   9
ATOM      9  C   UNL     1      56.180  -1.488  15.172  1.00  0.00    -0.003 C 
ATOM     10  C   UNL     1      56.209  -0.020  14.754  1.00  0.00     0.004 C 
ENDBRANCH   8   9
ENDBRANCH   7   8
ENDBRANCH   1   7
TORSDOF 6
ENDMDL
MODEL 4
REMARK VINA RESULT:    -3.891      3.163      5.240
REMARK INTER + INTRA:          -5.482
REMARK INTER:                  -5.208
REMARK INTRA:                  -0.273
REMARK UNBOUND:                -0.225
REMARK SMILES CCCCCCCC(=O)[O-]
REMARK SMILES IDX 5 1 6 2 7 3 8 4 9 5 10 6 4 7 3 8 2 9 1 10
REMARK H PARENT
REMARK Flexibility Score: inf
ROOT
ATOM      1  C   UNL     1      53.091  -3.588  13.018  1.00  0.00     0.000 C 
ENDROOT
BRANCH   1   2
ATOM      2  C   UNL     1      54.549  -3.153  12.806  1.00  0.00     0.006 C 
BRANCH   2   3
ATOM      3  C   UNL     1      55.173  -2.573  14.083  1.00  0.00     0.053 C 
BRANCH   3   4
ATOM      4  C   UNL     1      56.654  -2.797  14.126  1.00  0.00     0.041 C 
ATOM      5  O   UNL     1      57.156  -3.826  13.603  1.00  0.00    -0.550 OA
ATOM      6  O   UNL     1      57.483  -1.851  14.716  1.00  0.00    -0.550 OA
ENDBRANCH   3   4
ENDBRANCH   2   3
ENDBRANCH   1   2
BRANCH   1   7
ATOM      7  C   UNL     1      52.298  -3.503  11.705  1.00  0.00     0.000 C 
BRANCH   7   8
ATOM      8  C   UNL     1      52.467  -4.755  10.829  1.00  0.00    -0.000 C 
BRANCH   8   9
ATOM      9  C   UNL     1      52.558  -4.422   9.333  1.00  0.00    -0.003 C 
ATOM     10  C   UNL     1      53.969  -3.978   8.954  1.00  0.00     0.004 C 
ENDBRANCH   8   9
ENDBRANCH   7   8
ENDBRANCH   1   7
TORSDOF 6
ENDMDL
MODEL 5
REMARK VINA RESULT:    -3.831      0.939      1.231
REMARK INTER + INTRA:          -5.400
REMARK INTER:                  -5.090
REMARK INTRA:                  -0.310
REMARK UNBOUND:                -0.225
REMARK SMILES CCCCCCCC(=O)[O-]
REMARK SMILES IDX 5 1 6 2 7 3 8 4 9 5 10 6 4 7 3 8 2 9 1 10
REMARK H PARENT
REMARK Flexibility Score: inf
ROOT
ATOM      1  C   UNL     1      53.828  -2.371  13.129  1.00  0.00     0.000 C 
ENDROOT
BRANCH   1   2
ATOM      2  C   UNL     1      52.738  -2.629  12.079  1.00  0.00     0.006 C 
BRANCH   2   3
ATOM      3  C   UNL     1      52.741  -4.081  11.583  1.00  0.00     0.053 C 
BRANCH   3   4
ATOM      4  C   UNL     1      52.967  -4.162  10.105  1.00  0.00     0.041 C 
ATOM      5  O   UNL     1      52.124  -4.732   9.364  1.00  0.00    -0.550 OA
ATOM      6  O   UNL     1      54.095  -3.577   9.542  1.00  0.00    -0.550 OA
ENDBRANCH   3   4
ENDBRANCH   2   3
ENDBRANCH   1   2
BRANCH   1   7
ATOM      7  C   UNL     1      54.647  -3.643  13.394  1.00  0.00     0.000 C 
BRANCH   7   8
ATOM      8  C   UNL     1      56.040  -3.341  13.970  1.00  0.00    -0.000 C 
BRANCH   8   9
ATOM      9  C   UNL     1      56.118  -1.960  14.638  1.00  0.00    -0.003 C 
ATOM     10  C   UNL     1      57.566  -1.563  14.910  1.00  0.00     0.004 C 
ENDBRANCH   8   9
ENDBRANCH   7   8
ENDBRANCH   1   7
TORSDOF 6
ENDMDL
MODEL 6
REMARK VINA RESULT:    -3.801     10.139     12.486
REMARK INTER + INTRA:          -5.359
REMARK INTER:                  -5.031
REMARK INTRA:                  -0.328
REMARK UNBOUND:                -0.225
REMARK SMILES CCCCCCCC(=O)[O-]
REMARK SMILES IDX 5 1 6 2 7 3 8 4 9 5 10 6 4 7 3 8 2 9 1 10
REMARK H PARENT
REMARK Flexibility Score: inf
ROOT
ATOM      1  C   UNL     1      60.312  -3.540  22.425  1.00  0.00     0.000 C 
ENDROOT
BRANCH   1   2
ATOM      2  C   UNL     1      61.623  -4.273  22.738  1.00  0.00     0.006 C 
BRANCH   2   3
ATOM      3  C   UNL     1      62.858  -3.440  22.370  1.00  0.00     0.053 C 
BRANCH   3   4
ATOM      4  C   UNL     1      63.495  -3.924  21.103  1.00  0.00     0.041 C 
ATOM      5  O   UNL     1      64.703  -3.665  20.862  1.00  0.00    -0.550 OA
ATOM      6  O   UNL     1      62.762  -4.689  20.204  1.00  0.00    -0.550 OA
ENDBRANCH   3   4
ENDBRANCH   2   3
ENDBRANCH   1   2
BRANCH   1   7
ATOM      7  C   UNL     1      59.180  -4.537  22.138  1.00  0.00     0.000 C 
BRANCH   7   8
ATOM      8  C   UNL     1      58.337  -4.141  20.915  1.00  0.00    -0.000 C 
BRANCH   8   9
ATOM      9  C   UNL     1      59.194  -3.648  19.740  1.00  0.00    -0.003 C 
ATOM     10  C   UNL     1      58.780  -2.244  19.309  1.00  0.00     0.004 C 
ENDBRANCH   8   9
ENDBRANCH   7   8
ENDBRANCH   1   7
TORSDOF 6
ENDMDL
MODEL 7
REMARK VINA RESULT:    -3.778      2.515      3.633
REMARK INTER + INTRA:          -5.328
REMARK INTER:                  -4.825
REMARK INTRA:                  -0.504
REMARK UNBOUND:                -0.225
REMARK SMILES CCCCCCCC(=O)[O-]
REMARK SMILES IDX 5 1 6 2 7 3 8 4 9 5 10 6 4 7 3 8 2 9 1 10
REMARK H PARENT
REMARK Flexibility Score: inf
ROOT
ATOM      1  C   UNL     1      51.527  -2.607   9.304  1.00  0.00     0.000 C 
ENDROOT
BRANCH   1   2
ATOM      2  C   UNL     1      51.919  -4.012   8.823  1.00  0.00     0.006 C 
BRANCH   2   3
ATOM      3  C   UNL     1      53.398  -4.325   9.085  1.00  0.00     0.053 C 
BRANCH   3   4
ATOM      4  C   UNL     1      54.214  -4.234   7.833  1.00  0.00     0.041 C 
ATOM      5  O   UNL     1      53.710  -3.766   6.779  1.00  0.00    -0.550 OA
ATOM      6  O   UNL     1      55.545  -4.636   7.839  1.00  0.00    -0.550 OA
ENDBRANCH   3   4
ENDBRANCH   2   3
ENDBRANCH   1   2
BRANCH   1   7
ATOM      7  C   UNL     1      52.160  -2.299  10.669  1.00  0.00     0.000 C 
BRANCH   7   8
ATOM      8  C   UNL     1      51.221  -2.618  11.843  1.00  0.00    -0.000 C 
BRANCH   8   9
ATOM      9  C   UNL     1      51.603  -3.915  12.571  1.00  0.00    -0.003 C 
ATOM     10  C   UNL     1      53.107  -3.985  12.815  1.00  0.00     0.004 C 
ENDBRANCH   8   9
ENDBRANCH   7   8
ENDBRANCH   1   7
TORSDOF 6
ENDMDL
MODEL 8
REMARK VINA RESULT:    -3.763     10.971     12.364
REMARK INTER + INTRA:          -5.309
REMARK INTER:                  -5.200
REMARK INTRA:                  -0.109
REMARK UNBOUND:                -0.225
REMARK SMILES CCCCCCCC(=O)[O-]
REMARK SMILES IDX 5 1 6 2 7 3 8 4 9 5 10 6 4 7 3 8 2 9 1 10
REMARK H PARENT
REMARK Flexibility Score: inf
ROOT
ATOM      1  C   UNL     1      59.889  -4.018  20.164  1.00  0.00     0.000 C 
ENDROOT
BRANCH   1   2
ATOM      2  C   UNL     1      61.032  -3.963  21.187  1.00  0.00     0.006 C 
BRANCH   2   3
ATOM      3  C   UNL     1      62.383  -4.350  20.571  1.00  0.00     0.053 C 
BRANCH   3   4
ATOM      4  C   UNL     1      63.530  -3.931  21.440  1.00  0.00     0.041 C 
ATOM      5  O   UNL     1      64.623  -3.583  20.923  1.00  0.00    -0.550 OA
ATOM      6  O   UNL     1      63.377  -3.891  22.821  1.00  0.00    -0.550 OA
ENDBRANCH   3   4
ENDBRANCH   2   3
ENDBRANCH   1   2
BRANCH   1   7
ATOM      7  C   UNL     1      58.534  -4.198  20.865  1.00  0.00     0.000 C 
BRANCH   7   8
ATOM      8  C   UNL     1      57.900  -2.862  21.281  1.00  0.00    -0.000 C 
BRANCH   8   9
ATOM      9  C   UNL     1      56.431  -2.743  20.848  1.00  0.00    -0.003 C 
ATOM     10  C   UNL     1      55.731  -1.607  21.588  1.00  0.00     0.004 C 
ENDBRANCH   8   9
ENDBRANCH   7   8
ENDBRANCH   1   7
TORSDOF 6
ENDMDL
MODEL 9
REMARK VINA RESULT:    -3.667     10.503     12.211
REMARK INTER + INTRA:          -5.178
REMARK INTER:                  -4.771
REMARK INTRA:                  -0.407
REMARK UNBOUND:                -0.225
REMARK SMILES CCCCCCCC(=O)[O-]
REMARK SMILES IDX 5 1 6 2 7 3 8 4 9 5 10 6 4 7 3 8 2 9 1 10
REMARK H PARENT
REMARK Flexibility Score: inf
ROOT
ATOM      1  C   UNL     1      59.634  -4.228  22.044  1.00  0.00     0.000 C 
ENDROOT
BRANCH   1   2
ATOM      2  C   UNL     1      60.954  -3.485  21.792  1.00  0.00     0.006 C 
BRANCH   2   3
ATOM      3  C   UNL     1      61.860  -4.227  20.800  1.00  0.00     0.053 C 
BRANCH   3   4
ATOM      4  C   UNL     1      63.251  -4.387  21.332  1.00  0.00     0.041 C 
ATOM      5  O   UNL     1      64.202  -3.735  20.828  1.00  0.00    -0.550 OA
ATOM      6  O   UNL     1      63.491  -5.233  22.408  1.00  0.00    -0.550 OA
ENDBRANCH   3   4
ENDBRANCH   2   3
ENDBRANCH   1   2
BRANCH   1   7
ATOM      7  C   UNL     1      58.759  -4.234  20.781  1.00  0.00     0.000 C 
BRANCH   7   8
ATOM      8  C   UNL     1      57.536  -3.313  20.904  1.00  0.00    -0.000 C 
BRANCH   8   9
ATOM      9  C   UNL     1      57.802  -1.900  20.362  1.00  0.00    -0.003 C 
ATOM     10  C   UNL     1      58.711  -1.944  19.137  1.00  0.00     0.004 C 
ENDBRANCH   8   9
ENDBRANCH   7   8
ENDBRANCH   1   7
TORSDOF 6
ENDMDL
