MODEL 1
REMARK VINA RESULT:    -9.374      0.000      0.000
REMARK INTER + INTRA:         -11.623
REMARK INTER:                 -11.292
REMARK INTRA:                  -0.332
REMARK UNBOUND:                -0.332
REMARK SMILES Oc1cc(O)c2c(c1)O[C@H](c1ccc(O)c(O)c1)[C@@H](O)C2
REMARK SMILES IDX 21 1 19 2 10 3 9 4 7 5 8 6 2 7 3 8 4 9 6 10 20 11 11 13
REMARK SMILES IDX 18 14 12 15 16 16 13 17 14 18 17 19 15 21 5 23 1 25
REMARK H PARENT 20 12 17 20 15 22 5 24 1 26
REMARK Flexibility Score: inf
ROOT
ATOM      1  C   UNL     1       4.456 -72.411 206.709  1.00  0.00     0.079 C 
ATOM      2  C   UNL     1       3.922 -72.620 208.140  1.00  0.00     0.164 C 
ATOM      3  C   UNL     1       3.010 -71.446 208.545  1.00  0.00     0.232 C 
ATOM      4  O   UNL     1       3.722 -70.217 208.419  1.00  0.00    -0.482 OA
ATOM      5  C   UNL     1       4.616 -69.974 207.370  1.00  0.00     0.131 A 
ATOM      6  C   UNL     1       5.132 -68.686 207.204  1.00  0.00     0.093 A 
ATOM      7  C   UNL     1       6.015 -68.409 206.156  1.00  0.00     0.122 A 
ATOM      8  C   UNL     1       6.374 -69.422 205.264  1.00  0.00     0.092 A 
ATOM      9  C   UNL     1       5.868 -70.718 205.414  1.00  0.00     0.126 A 
ATOM     10  C   UNL     1       5.007 -71.016 206.498  1.00  0.00     0.039 A 
ENDROOT
BRANCH   2  11
ATOM     11  O   UNL     1       3.251 -73.852 208.241  1.00  0.00    -0.389 OA
ATOM     12  H   UNL     1       3.600 -74.445 207.525  1.00  0.00     0.211 HD
ENDBRANCH   2  11
BRANCH   3  13
ATOM     13  C   UNL     1       2.515 -71.605 209.965  1.00  0.00    -0.001 A 
ATOM     14  C   UNL     1       1.153 -71.450 210.268  1.00  0.00     0.057 A 
ATOM     15  C   UNL     1       3.421 -71.860 211.003  1.00  0.00     0.012 A 
ATOM     16  C   UNL     1       0.690 -71.567 211.584  1.00  0.00     0.157 A 
ATOM     17  C   UNL     1       2.970 -71.979 212.319  1.00  0.00     0.050 A 
ATOM     18  C   UNL     1       1.611 -71.838 212.624  1.00  0.00     0.157 A 
BRANCH  16  19
ATOM     19  O   UNL     1      -0.677 -71.406 211.812  1.00  0.00    -0.504 OA
ATOM     20  H   UNL     1      -1.320 -72.170 211.956  1.00  0.00     0.293 HD
ENDBRANCH  16  19
BRANCH  18  21
ATOM     21  O   UNL     1       1.225 -71.972 213.959  1.00  0.00    -0.504 OA
ATOM     22  H   UNL     1       0.725 -71.262 214.476  1.00  0.00     0.293 HD
ENDBRANCH  18  21
ENDBRANCH   3  13
BRANCH   9  23
ATOM     23  O   UNL     1       6.228 -71.678 204.465  1.00  0.00    -0.507 OA
ATOM     24  H   UNL     1       7.028 -72.288 204.568  1.00  0.00     0.293 HD
ENDBRANCH   9  23
BRANCH   7  25
ATOM     25  O   UNL     1       6.535 -67.128 205.985  1.00  0.00    -0.508 OA
ATOM     26  H   UNL     1       6.924 -66.606 206.763  1.00  0.00     0.293 HD
ENDBRANCH   7  25
TORSDOF 6
ENDMDL
MODEL 2
REMARK VINA RESULT:    -8.256      1.251      2.748
REMARK INTER + INTRA:         -10.277
REMARK INTER:                  -9.978
REMARK INTRA:                  -0.300
REMARK UNBOUND:                -0.332
REMARK SMILES Oc1cc(O)c2c(c1)O[C@H](c1ccc(O)c(O)c1)[C@@H](O)C2
REMARK SMILES IDX 21 1 19 2 10 3 9 4 7 5 8 6 2 7 3 8 4 9 6 10 20 11 11 13
REMARK SMILES IDX 18 14 12 15 16 16 13 17 14 18 17 19 15 21 5 23 1 25
REMARK H PARENT 20 12 17 20 15 22 5 24 1 26
REMARK Flexibility Score: inf
ROOT
ATOM      1  C   UNL     1       5.230 -68.997 207.728  1.00  0.00     0.079 C 
ATOM      2  C   UNL     1       4.166 -69.327 208.792  1.00  0.00     0.164 C 
ATOM      3  C   UNL     1       4.329 -70.782 209.276  1.00  0.00     0.232 C 
ATOM      4  O   UNL     1       4.260 -71.670 208.162  1.00  0.00    -0.482 OA
ATOM      5  C   UNL     1       4.830 -71.361 206.922  1.00  0.00     0.131 A 
ATOM      6  C   UNL     1       4.888 -72.352 205.938  1.00  0.00     0.093 A 
ATOM      7  C   UNL     1       5.465 -72.078 204.694  1.00  0.00     0.122 A 
ATOM      8  C   UNL     1       5.995 -70.811 204.439  1.00  0.00     0.092 A 
ATOM      9  C   UNL     1       5.946 -69.806 205.411  1.00  0.00     0.126 A 
ATOM     10  C   UNL     1       5.324 -70.064 206.657  1.00  0.00     0.039 A 
ENDROOT
BRANCH   2  11
ATOM     11  O   UNL     1       4.239 -68.418 209.862  1.00  0.00    -0.389 OA
ATOM     12  H   UNL     1       3.428 -68.544 210.421  1.00  0.00     0.211 HD
ENDBRANCH   2  11
BRANCH   3  13
ATOM     13  C   UNL     1       3.263 -71.145 210.284  1.00  0.00    -0.001 A 
ATOM     14  C   UNL     1       1.918 -70.817 210.050  1.00  0.00     0.057 A 
ATOM     15  C   UNL     1       3.614 -71.769 211.489  1.00  0.00     0.012 A 
ATOM     16  C   UNL     1       0.928 -71.125 210.991  1.00  0.00     0.157 A 
ATOM     17  C   UNL     1       2.634 -72.081 212.433  1.00  0.00     0.050 A 
ATOM     18  C   UNL     1       1.290 -71.768 212.198  1.00  0.00     0.157 A 
BRANCH  16  19
ATOM     19  O   UNL     1      -0.390 -70.774 210.690  1.00  0.00    -0.504 OA
ATOM     20  H   UNL     1      -0.950 -70.150 211.251  1.00  0.00     0.293 HD
ENDBRANCH  16  19
BRANCH  18  21
ATOM     21  O   UNL     1       0.360 -72.108 213.182  1.00  0.00    -0.504 OA
ATOM     22  H   UNL     1      -0.563 -72.471 212.985  1.00  0.00     0.293 HD
ENDBRANCH  18  21
ENDBRANCH   3  13
BRANCH   9  23
ATOM     23  O   UNL     1       6.532 -68.574 205.113  1.00  0.00    -0.507 OA
ATOM     24  H   UNL     1       6.085 -67.687 205.298  1.00  0.00     0.293 HD
ENDBRANCH   9  23
BRANCH   7  25
ATOM     25  O   UNL     1       5.526 -73.060 203.707  1.00  0.00    -0.508 OA
ATOM     26  H   UNL     1       4.690 -73.527 203.374  1.00  0.00     0.293 HD
ENDBRANCH   7  25
TORSDOF 6
ENDMDL
MODEL 3
REMARK VINA RESULT:    -7.996      1.243      3.068
REMARK INTER + INTRA:          -9.964
REMARK INTER:                  -9.604
REMARK INTRA:                  -0.360
REMARK UNBOUND:                -0.332
REMARK SMILES Oc1cc(O)c2c(c1)O[C@H](c1ccc(O)c(O)c1)[C@@H](O)C2
REMARK SMILES IDX 21 1 19 2 10 3 9 4 7 5 8 6 2 7 3 8 4 9 6 10 20 11 11 13
REMARK SMILES IDX 18 14 12 15 16 16 13 17 14 18 17 19 15 21 5 23 1 25
REMARK H PARENT 20 12 17 20 15 22 5 24 1 26
REMARK Flexibility Score: inf
ROOT
ATOM      1  C   UNL     1       5.140 -69.296 207.886  1.00  0.00     0.079 C 
ATOM      2  C   UNL     1       3.927 -69.454 208.823  1.00  0.00     0.164 C 
ATOM      3  C   UNL     1       3.846 -70.901 209.350  1.00  0.00     0.232 C 
ATOM      4  O   UNL     1       3.791 -71.809 208.252  1.00  0.00    -0.482 OA
ATOM      5  C   UNL     1       4.533 -71.617 207.082  1.00  0.00     0.131 A 
ATOM      6  C   UNL     1       4.576 -72.639 206.131  1.00  0.00     0.093 A 
ATOM      7  C   UNL     1       5.322 -72.482 204.958  1.00  0.00     0.122 A 
ATOM      8  C   UNL     1       6.037 -71.301 204.744  1.00  0.00     0.092 A 
ATOM      9  C   UNL     1       6.007 -70.266 205.685  1.00  0.00     0.126 A 
ATOM     10  C   UNL     1       5.218 -70.402 206.853  1.00  0.00     0.039 A 
ENDROOT
BRANCH   2  11
ATOM     11  O   UNL     1       3.994 -68.526 209.878  1.00  0.00    -0.389 OA
ATOM     12  H   UNL     1       4.135 -69.034 210.718  1.00  0.00     0.211 HD
ENDBRANCH   2  11
BRANCH   3  13
ATOM     13  C   UNL     1       2.633 -71.093 210.232  1.00  0.00    -0.001 A 
ATOM     14  C   UNL     1       2.779 -71.281 211.616  1.00  0.00     0.057 A 
ATOM     15  C   UNL     1       1.350 -71.134 209.669  1.00  0.00     0.012 A 
ATOM     16  C   UNL     1       1.663 -71.487 212.436  1.00  0.00     0.157 A 
ATOM     17  C   UNL     1       0.231 -71.339 210.478  1.00  0.00     0.050 A 
ATOM     18  C   UNL     1       0.371 -71.514 211.859  1.00  0.00     0.157 A 
BRANCH  16  19
ATOM     19  O   UNL     1       1.882 -71.663 213.803  1.00  0.00    -0.504 OA
ATOM     20  H   UNL     1       2.488 -71.077 214.358  1.00  0.00     0.293 HD
ENDBRANCH  16  19
BRANCH  18  21
ATOM     21  O   UNL     1      -0.788 -71.712 212.612  1.00  0.00    -0.504 OA
ATOM     22  H   UNL     1      -0.913 -72.471 213.267  1.00  0.00     0.293 HD
ENDBRANCH  18  21
ENDBRANCH   3  13
BRANCH   9  23
ATOM     23  O   UNL     1       6.777 -69.127 205.435  1.00  0.00    -0.507 OA
ATOM     24  H   UNL     1       6.561 -68.216 205.816  1.00  0.00     0.293 HD
ENDBRANCH   9  23
BRANCH   7  25
ATOM     25  O   UNL     1       5.369 -73.496 204.004  1.00  0.00    -0.508 OA
ATOM     26  H   UNL     1       4.653 -73.585 203.291  1.00  0.00     0.293 HD
ENDBRANCH   7  25
TORSDOF 6
ENDMDL
MODEL 4
REMARK VINA RESULT:    -7.085      2.925      5.354
REMARK INTER + INTRA:          -8.866
REMARK INTER:                  -8.731
REMARK INTRA:                  -0.135
REMARK UNBOUND:                -0.332
REMARK SMILES Oc1cc(O)c2c(c1)O[C@H](c1ccc(O)c(O)c1)[C@@H](O)C2
REMARK SMILES IDX 21 1 19 2 10 3 9 4 7 5 8 6 2 7 3 8 4 9 6 10 20 11 11 13
REMARK SMILES IDX 18 14 12 15 16 16 13 17 14 18 17 19 15 21 5 23 1 25
REMARK H PARENT 20 12 17 20 15 22 5 24 1 26
REMARK Flexibility Score: inf
ROOT
ATOM      1  C   UNL     1       3.581 -71.214 208.348  1.00  0.00     0.079 C 
ATOM      2  C   UNL     1       2.928 -72.480 207.759  1.00  0.00     0.164 C 
ATOM      3  C   UNL     1       4.009 -73.424 207.197  1.00  0.00     0.232 C 
ATOM      4  O   UNL     1       4.795 -72.733 206.229  1.00  0.00    -0.482 OA
ATOM      5  C   UNL     1       5.164 -71.392 206.382  1.00  0.00     0.131 A 
ATOM      6  C   UNL     1       6.088 -70.837 205.493  1.00  0.00     0.093 A 
ATOM      7  C   UNL     1       6.487 -69.503 205.630  1.00  0.00     0.122 A 
ATOM      8  C   UNL     1       5.966 -68.727 206.668  1.00  0.00     0.092 A 
ATOM      9  C   UNL     1       5.040 -69.265 207.569  1.00  0.00     0.126 A 
ATOM     10  C   UNL     1       4.600 -70.601 207.409  1.00  0.00     0.039 A 
ENDROOT
BRANCH   2  11
ATOM     11  O   UNL     1       2.136 -73.123 208.727  1.00  0.00    -0.389 OA
ATOM     12  H   UNL     1       1.454 -72.472 209.039  1.00  0.00     0.211 HD
ENDBRANCH   2  11
BRANCH   3  13
ATOM     13  C   UNL     1       3.388 -74.650 206.567  1.00  0.00    -0.001 A 
ATOM     14  C   UNL     1       3.129 -74.692 205.188  1.00  0.00     0.057 A 
ATOM     15  C   UNL     1       3.017 -75.742 207.365  1.00  0.00     0.012 A 
ATOM     16  C   UNL     1       2.528 -75.813 204.602  1.00  0.00     0.157 A 
ATOM     17  C   UNL     1       2.418 -76.864 206.790  1.00  0.00     0.050 A 
ATOM     18  C   UNL     1       2.171 -76.915 205.413  1.00  0.00     0.157 A 
BRANCH  16  19
ATOM     19  O   UNL     1       2.305 -75.787 203.224  1.00  0.00    -0.504 OA
ATOM     20  H   UNL     1       1.515 -75.336 202.788  1.00  0.00     0.293 HD
ENDBRANCH  16  19
BRANCH  18  21
ATOM     21  O   UNL     1       1.571 -78.067 204.900  1.00  0.00    -0.504 OA
ATOM     22  H   UNL     1       0.623 -78.348 205.104  1.00  0.00     0.293 HD
ENDBRANCH  18  21
ENDBRANCH   3  13
BRANCH   9  23
ATOM     23  O   UNL     1       4.590 -68.452 208.612  1.00  0.00    -0.507 OA
ATOM     24  H   UNL     1       5.153 -68.220 209.419  1.00  0.00     0.293 HD
ENDBRANCH   9  23
BRANCH   7  25
ATOM     25  O   UNL     1       7.406 -68.943 204.747  1.00  0.00    -0.508 OA
ATOM     26  H   UNL     1       8.259 -69.429 204.491  1.00  0.00     0.293 HD
ENDBRANCH   7  25
TORSDOF 6
ENDMDL
MODEL 5
REMARK VINA RESULT:    -6.504      1.779      7.227
REMARK INTER + INTRA:          -8.166
REMARK INTER:                  -7.987
REMARK INTRA:                  -0.179
REMARK UNBOUND:                -0.332
REMARK SMILES Oc1cc(O)c2c(c1)O[C@H](c1ccc(O)c(O)c1)[C@@H](O)C2
REMARK SMILES IDX 21 1 19 2 10 3 9 4 7 5 8 6 2 7 3 8 4 9 6 10 20 11 11 13
REMARK SMILES IDX 18 14 12 15 16 16 13 17 14 18 17 19 15 21 5 23 1 25
REMARK H PARENT 20 12 17 20 15 22 5 24 1 26
REMARK Flexibility Score: inf
ROOT
ATOM      1  C   UNL     1       3.214 -69.225 210.768  1.00  0.00     0.079 C 
ATOM      2  C   UNL     1       4.360 -69.157 209.740  1.00  0.00     0.164 C 
ATOM      3  C   UNL     1       3.792 -69.141 208.307  1.00  0.00     0.232 C 
ATOM      4  O   UNL     1       2.964 -70.285 208.105  1.00  0.00    -0.482 OA
ATOM      5  C   UNL     1       2.118 -70.783 209.102  1.00  0.00     0.131 A 
ATOM      6  C   UNL     1       1.202 -71.786 208.775  1.00  0.00     0.093 A 
ATOM      7  C   UNL     1       0.333 -72.293 209.746  1.00  0.00     0.122 A 
ATOM      8  C   UNL     1       0.375 -71.786 211.047  1.00  0.00     0.092 A 
ATOM      9  C   UNL     1       1.285 -70.782 211.394  1.00  0.00     0.126 A 
ATOM     10  C   UNL     1       2.197 -70.295 210.426  1.00  0.00     0.039 A 
ENDROOT
BRANCH   2  11
ATOM     11  O   UNL     1       5.175 -68.037 209.983  1.00  0.00    -0.389 OA
ATOM     12  H   UNL     1       4.805 -67.277 209.463  1.00  0.00     0.211 HD
ENDBRANCH   2  11
BRANCH   3  13
ATOM     13  C   UNL     1       4.901 -69.126 207.281  1.00  0.00    -0.001 A 
ATOM     14  C   UNL     1       5.413 -70.328 206.766  1.00  0.00     0.057 A 
ATOM     15  C   UNL     1       5.464 -67.911 206.868  1.00  0.00     0.012 A 
ATOM     16  C   UNL     1       6.460 -70.323 205.835  1.00  0.00     0.157 A 
ATOM     17  C   UNL     1       6.507 -67.896 205.941  1.00  0.00     0.050 A 
ATOM     18  C   UNL     1       7.013 -69.090 205.414  1.00  0.00     0.157 A 
BRANCH  16  19
ATOM     19  O   UNL     1       6.916 -71.555 205.362  1.00  0.00    -0.504 OA
ATOM     20  H   UNL     1       6.874 -71.839 204.394  1.00  0.00     0.293 HD
ENDBRANCH  16  19
BRANCH  18  21
ATOM     21  O   UNL     1       8.054 -69.007 204.489  1.00  0.00    -0.504 OA
ATOM     22  H   UNL     1       8.762 -68.286 204.499  1.00  0.00     0.293 HD
ENDBRANCH  18  21
ENDBRANCH   3  13
BRANCH   9  23
ATOM     23  O   UNL     1       1.248 -70.285 212.699  1.00  0.00    -0.507 OA
ATOM     24  H   UNL     1       1.753 -70.705 213.468  1.00  0.00     0.293 HD
ENDBRANCH   9  23
BRANCH   7  25
ATOM     25  O   UNL     1      -0.582 -73.294 209.427  1.00  0.00    -0.508 OA
ATOM     26  H   UNL     1      -1.434 -73.089 208.915  1.00  0.00     0.293 HD
ENDBRANCH   7  25
TORSDOF 6
ENDMDL
MODEL 6
REMARK VINA RESULT:    -6.412      1.393      7.078
REMARK INTER + INTRA:          -8.055
REMARK INTER:                  -7.688
REMARK INTRA:                  -0.367
REMARK UNBOUND:                -0.332
REMARK SMILES Oc1cc(O)c2c(c1)O[C@H](c1ccc(O)c(O)c1)[C@@H](O)C2
REMARK SMILES IDX 21 1 19 2 10 3 9 4 7 5 8 6 2 7 3 8 4 9 6 10 20 11 11 13
REMARK SMILES IDX 18 14 12 15 16 16 13 17 14 18 17 19 15 21 5 23 1 25
REMARK H PARENT 20 12 17 20 15 22 5 24 1 26
REMARK Flexibility Score: inf
ROOT
ATOM      1  C   UNL     1       4.022 -71.438 211.340  1.00  0.00     0.079 C 
ATOM      2  C   UNL     1       4.646 -71.779 209.973  1.00  0.00     0.164 C 
ATOM      3  C   UNL     1       3.976 -70.950 208.859  1.00  0.00     0.232 C 
ATOM      4  O   UNL     1       2.568 -71.177 208.872  1.00  0.00    -0.482 OA
ATOM      5  C   UNL     1       1.843 -71.321 210.059  1.00  0.00     0.131 A 
ATOM      6  C   UNL     1       0.447 -71.352 210.001  1.00  0.00     0.093 A 
ATOM      7  C   UNL     1      -0.306 -71.480 211.173  1.00  0.00     0.122 A 
ATOM      8  C   UNL     1       0.342 -71.565 212.408  1.00  0.00     0.092 A 
ATOM      9  C   UNL     1       1.738 -71.535 212.486  1.00  0.00     0.126 A 
ATOM     10  C   UNL     1       2.507 -71.450 211.300  1.00  0.00     0.039 A 
ENDROOT
BRANCH   2  11
ATOM     11  O   UNL     1       6.037 -71.573 210.001  1.00  0.00    -0.389 OA
ATOM     12  H   UNL     1       6.470 -72.381 209.622  1.00  0.00     0.211 HD
ENDBRANCH   2  11
BRANCH   3  13
ATOM     13  C   UNL     1       4.538 -71.304 207.502  1.00  0.00    -0.001 A 
ATOM     14  C   UNL     1       5.122 -70.317 206.691  1.00  0.00     0.057 A 
ATOM     15  C   UNL     1       4.438 -72.615 207.017  1.00  0.00     0.012 A 
ATOM     16  C   UNL     1       5.619 -70.632 205.420  1.00  0.00     0.157 A 
ATOM     17  C   UNL     1       4.932 -72.939 205.753  1.00  0.00     0.050 A 
ATOM     18  C   UNL     1       5.526 -71.962 204.946  1.00  0.00     0.157 A 
BRANCH  16  19
ATOM     19  O   UNL     1       6.190 -69.602 204.670  1.00  0.00    -0.504 OA
ATOM     20  H   UNL     1       5.885 -69.341 203.745  1.00  0.00     0.293 HD
ENDBRANCH  16  19
BRANCH  18  21
ATOM     21  O   UNL     1       6.002 -72.351 203.692  1.00  0.00    -0.504 OA
ATOM     22  H   UNL     1       6.444 -73.241 203.507  1.00  0.00     0.293 HD
ENDBRANCH  18  21
ENDBRANCH   3  13
BRANCH   9  23
ATOM     23  O   UNL     1       2.326 -71.580 213.753  1.00  0.00    -0.507 OA
ATOM     24  H   UNL     1       1.877 -71.226 214.587  1.00  0.00     0.293 HD
ENDBRANCH   9  23
BRANCH   7  25
ATOM     25  O   UNL     1      -1.697 -71.513 211.123  1.00  0.00    -0.508 OA
ATOM     26  H   UNL     1      -2.241 -72.001 211.827  1.00  0.00     0.293 HD
ENDBRANCH   7  25
TORSDOF 6
ENDMDL
