MODEL 1
REMARK VINA RESULT:    13.395      0.000      0.000
REMARK INTER + INTRA:          18.370
REMARK INTER:                  18.876
REMARK INTRA:                  -0.506
REMARK UNBOUND:                -0.506
REMARK SMILES O=C(C=Cc1ccc(O)cc1)CC(=O)C=Cc1ccc(O)cc1
REMARK SMILES IDX 12 1 2 2 1 3 3 4 4 5 5 6 6 7 7 8 8 9 11 10 10 11 9 12 13 14
REMARK SMILES IDX 14 15 15 16 16 17 17 18 18 19 23 20 19 21 22 22 20 23 21 24
REMARK H PARENT 9 13 21 25
REMARK Flexibility Score: inf
ROOT
ATOM      1  C   UNL     1     -11.740   4.702  20.804  1.00  0.00     0.160 C 
ENDROOT
BRANCH   1   2
ATOM      2  C   UNL     1     -12.571   3.932  21.791  1.00  0.00     0.163 C 
ATOM      3  O   UNL     1     -13.042   4.528  22.798  1.00  0.00    -0.294 OA
BRANCH   2   4
ATOM      4  C   UNL     1     -12.863   2.503  21.555  1.00  0.00     0.048 C 
ATOM      5  C   UNL     1     -12.881   1.605  22.550  1.00  0.00     0.012 C 
BRANCH   5   6
ATOM      6  C   UNL     1     -13.185   0.165  22.355  1.00  0.00    -0.025 A 
ATOM      7  C   UNL     1     -13.872  -0.319  21.223  1.00  0.00     0.012 A 
ATOM      8  C   UNL     1     -14.125  -1.687  21.080  1.00  0.00     0.047 A 
ATOM      9  C   UNL     1     -13.691  -2.590  22.054  1.00  0.00     0.115 A 
ATOM     10  C   UNL     1     -12.740  -0.753  23.321  1.00  0.00     0.012 A 
ATOM     11  C   UNL     1     -12.995  -2.119  23.175  1.00  0.00     0.047 A 
BRANCH   9  12
ATOM     12  O   UNL     1     -13.951  -3.949  21.898  1.00  0.00    -0.508 OA
ATOM     13  H   UNL     1     -13.697  -4.442  21.050  1.00  0.00     0.293 HD
ENDBRANCH   9  12
ENDBRANCH   5   6
ENDBRANCH   2   4
ENDBRANCH   1   2
BRANCH   1  14
ATOM     14  C   UNL     1     -12.571   5.623  19.941  1.00  0.00     0.163 C 
ATOM     15  O   UNL     1     -13.778   5.346  19.706  1.00  0.00    -0.294 OA
BRANCH  14  16
ATOM     16  C   UNL     1     -12.013   6.858  19.348  1.00  0.00     0.048 C 
ATOM     17  C   UNL     1     -11.154   7.663  19.992  1.00  0.00     0.012 C 
BRANCH  17  18
ATOM     18  C   UNL     1     -10.583   8.896  19.398  1.00  0.00    -0.025 A 
ATOM     19  C   UNL     1     -11.328   9.747  18.556  1.00  0.00     0.012 A 
ATOM     20  C   UNL     1      -9.261   9.248  19.718  1.00  0.00     0.012 A 
ATOM     21  C   UNL     1     -10.749  10.906  18.030  1.00  0.00     0.047 A 
ATOM     22  C   UNL     1      -8.684  10.408  19.189  1.00  0.00     0.047 A 
ATOM     23  C   UNL     1      -9.424  11.238  18.343  1.00  0.00     0.115 A 
BRANCH  23  24
ATOM     24  O   UNL     1      -8.838  12.389  17.824  1.00  0.00    -0.508 OA
ATOM     25  H   UNL     1      -8.233  12.975  18.386  1.00  0.00     0.293 HD
ENDBRANCH  23  24
ENDBRANCH  17  18
ENDBRANCH  14  16
ENDBRANCH   1  14
TORSDOF 8
ENDMDL
MODEL 2
REMARK VINA RESULT:    14.080      0.374     10.739
REMARK INTER + INTRA:          19.336
REMARK INTER:                  19.759
REMARK INTRA:                  -0.423
REMARK UNBOUND:                -0.506
REMARK SMILES O=C(C=Cc1ccc(O)cc1)CC(=O)C=Cc1ccc(O)cc1
REMARK SMILES IDX 12 1 2 2 1 3 3 4 4 5 5 6 6 7 7 8 8 9 11 10 10 11 9 12 13 14
REMARK SMILES IDX 14 15 15 16 16 17 17 18 18 19 23 20 19 21 22 22 20 23 21 24
REMARK H PARENT 9 13 21 25
REMARK Flexibility Score: inf
ROOT
ATOM      1  C   UNL     1     -11.859   4.772  20.999  1.00  0.00     0.160 C 
ENDROOT
BRANCH   1   2
ATOM      2  C   UNL     1     -12.725   5.636  20.126  1.00  0.00     0.163 C 
ATOM      3  O   UNL     1     -13.926   5.306  19.930  1.00  0.00    -0.294 OA
BRANCH   2   4
ATOM      4  C   UNL     1     -12.179   6.879  19.543  1.00  0.00     0.048 C 
ATOM      5  C   UNL     1     -11.176   7.557  20.119  1.00  0.00     0.012 C 
BRANCH   5   6
ATOM      6  C   UNL     1     -10.592   8.799  19.556  1.00  0.00    -0.025 A 
ATOM      7  C   UNL     1      -9.252   9.178  19.781  1.00  0.00     0.012 A 
ATOM      8  C   UNL     1      -8.745  10.353  19.220  1.00  0.00     0.047 A 
ATOM      9  C   UNL     1      -9.558  11.162  18.421  1.00  0.00     0.115 A 
ATOM     10  C   UNL     1     -11.396   9.611  18.739  1.00  0.00     0.012 A 
ATOM     11  C   UNL     1     -10.886  10.786  18.181  1.00  0.00     0.047 A 
BRANCH   9  12
ATOM     12  O   UNL     1      -9.039  12.331  17.869  1.00  0.00    -0.508 OA
ATOM     13  H   UNL     1      -9.467  13.233  18.040  1.00  0.00     0.293 HD
ENDBRANCH   9  12
ENDBRANCH   5   6
ENDBRANCH   2   4
ENDBRANCH   1   2
BRANCH   1  14
ATOM     14  C   UNL     1     -12.667   3.887  21.920  1.00  0.00     0.163 C 
ATOM     15  O   UNL     1     -13.407   4.403  22.800  1.00  0.00    -0.294 OA
BRANCH  14  16
ATOM     16  C   UNL     1     -12.619   2.411  21.830  1.00  0.00     0.048 C 
ATOM     17  C   UNL     1     -13.386   1.602  22.578  1.00  0.00     0.012 C 
BRANCH  17  18
ATOM     18  C   UNL     1     -13.349   0.122  22.485  1.00  0.00    -0.025 A 
ATOM     19  C   UNL     1     -14.055  -0.594  21.496  1.00  0.00     0.012 A 
ATOM     20  C   UNL     1     -12.549  -0.591  23.395  1.00  0.00     0.012 A 
ATOM     21  C   UNL     1     -13.979  -1.989  21.443  1.00  0.00     0.047 A 
ATOM     22  C   UNL     1     -12.476  -1.986  23.339  1.00  0.00     0.047 A 
ATOM     23  C   UNL     1     -13.191  -2.689  22.366  1.00  0.00     0.115 A 
BRANCH  23  24
ATOM     24  O   UNL     1     -13.109  -4.078  22.322  1.00  0.00    -0.508 OA
ATOM     25  H   UNL     1     -13.007  -4.630  23.165  1.00  0.00     0.293 HD
ENDBRANCH  23  24
ENDBRANCH  17  18
ENDBRANCH  14  16
ENDBRANCH   1  14
TORSDOF 8
ENDMDL
MODEL 3
REMARK VINA RESULT:    15.767      4.480      8.331
REMARK INTER + INTRA:          21.714
REMARK INTER:                  22.292
REMARK INTRA:                  -0.578
REMARK UNBOUND:                -0.506
REMARK SMILES O=C(C=Cc1ccc(O)cc1)CC(=O)C=Cc1ccc(O)cc1
REMARK SMILES IDX 12 1 2 2 1 3 3 4 4 5 5 6 6 7 7 8 8 9 11 10 10 11 9 12 13 14
REMARK SMILES IDX 14 15 15 16 16 17 17 18 18 19 23 20 19 21 22 22 20 23 21 24
REMARK H PARENT 9 13 21 25
REMARK Flexibility Score: inf
ROOT
ATOM      1  C   UNL     1      -7.776  10.900  17.040  1.00  0.00     0.160 C 
ENDROOT
BRANCH   1   2
ATOM      2  C   UNL     1      -8.501  10.888  18.356  1.00  0.00     0.163 C 
ATOM      3  O   UNL     1      -8.695  11.976  18.963  1.00  0.00    -0.294 OA
BRANCH   2   4
ATOM      4  C   UNL     1      -9.014   9.616  18.906  1.00  0.00     0.048 C 
ATOM      5  C   UNL     1     -10.321   9.407  19.120  1.00  0.00     0.012 C 
BRANCH   5   6
ATOM      6  C   UNL     1     -10.875   8.139  19.656  1.00  0.00    -0.025 A 
ATOM      7  C   UNL     1     -12.061   7.560  19.162  1.00  0.00     0.012 A 
ATOM      8  C   UNL     1     -12.537   6.358  19.693  1.00  0.00     0.047 A 
ATOM      9  C   UNL     1     -11.836   5.712  20.716  1.00  0.00     0.115 A 
ATOM     10  C   UNL     1     -10.170   7.474  20.674  1.00  0.00     0.012 A 
ATOM     11  C   UNL     1     -10.650   6.273  21.203  1.00  0.00     0.047 A 
BRANCH   9  12
ATOM     12  O   UNL     1     -12.324   4.515  21.236  1.00  0.00    -0.508 OA
ATOM     13  H   UNL     1     -13.282   4.427  21.553  1.00  0.00     0.293 HD
ENDBRANCH   9  12
ENDBRANCH   5   6
ENDBRANCH   2   4
ENDBRANCH   1   2
BRANCH   1  14
ATOM     14  C   UNL     1      -6.542  10.029  17.052  1.00  0.00     0.163 C 
ATOM     15  O   UNL     1      -5.398  10.557  17.009  1.00  0.00    -0.294 OA
BRANCH  14  16
ATOM     16  C   UNL     1      -6.623   8.553  17.110  1.00  0.00     0.048 C 
ATOM     17  C   UNL     1      -6.248   7.753  16.099  1.00  0.00     0.012 C 
BRANCH  17  18
ATOM     18  C   UNL     1      -6.318   6.273  16.156  1.00  0.00    -0.025 A 
ATOM     19  C   UNL     1      -5.840   5.532  17.256  1.00  0.00     0.012 A 
ATOM     20  C   UNL     1      -6.919   5.586  15.087  1.00  0.00     0.012 A 
ATOM     21  C   UNL     1      -5.940   4.137  17.268  1.00  0.00     0.047 A 
ATOM     22  C   UNL     1      -7.016   4.191  15.101  1.00  0.00     0.047 A 
ATOM     23  C   UNL     1      -6.526   3.463  16.189  1.00  0.00     0.115 A 
BRANCH  23  24
ATOM     24  O   UNL     1      -6.630   2.074  16.190  1.00  0.00    -0.508 OA
ATOM     25  H   UNL     1      -6.948   1.566  15.374  1.00  0.00     0.293 HD
ENDBRANCH  23  24
ENDBRANCH  17  18
ENDBRANCH  14  16
ENDBRANCH   1  14
TORSDOF 8
ENDMDL
MODEL 4
REMARK VINA RESULT:    15.956      4.409      8.657
REMARK INTER + INTRA:          21.979
REMARK INTER:                  22.545
REMARK INTRA:                  -0.566
REMARK UNBOUND:                -0.506
REMARK SMILES O=C(C=Cc1ccc(O)cc1)CC(=O)C=Cc1ccc(O)cc1
REMARK SMILES IDX 12 1 2 2 1 3 3 4 4 5 5 6 6 7 7 8 8 9 11 10 10 11 9 12 13 14
REMARK SMILES IDX 14 15 15 16 16 17 17 18 18 19 23 20 19 21 22 22 20 23 21 24
REMARK H PARENT 9 13 21 25
REMARK Flexibility Score: inf
ROOT
ATOM      1  C   UNL     1      -7.766  10.874  17.153  1.00  0.00     0.160 C 
ENDROOT
BRANCH   1   2
ATOM      2  C   UNL     1      -6.526  10.027  17.087  1.00  0.00     0.163 C 
ATOM      3  O   UNL     1      -5.400  10.589  17.011  1.00  0.00    -0.294 OA
BRANCH   2   4
ATOM      4  C   UNL     1      -6.632   8.555  17.151  1.00  0.00     0.048 C 
ATOM      5  C   UNL     1      -6.252   7.767  16.136  1.00  0.00     0.012 C 
BRANCH   5   6
ATOM      6  C   UNL     1      -6.329   6.286  16.169  1.00  0.00    -0.025 A 
ATOM      7  C   UNL     1      -5.878   5.526  17.268  1.00  0.00     0.012 A 
ATOM      8  C   UNL     1      -5.982   4.132  17.256  1.00  0.00     0.047 A 
ATOM      9  C   UNL     1      -6.543   3.477  16.156  1.00  0.00     0.115 A 
ATOM     10  C   UNL     1      -6.905   5.618  15.075  1.00  0.00     0.012 A 
ATOM     11  C   UNL     1      -7.006   4.224  15.066  1.00  0.00     0.047 A 
BRANCH   9  12
ATOM     12  O   UNL     1      -6.640   2.087  16.158  1.00  0.00    -0.508 OA
ATOM     13  H   UNL     1      -7.379   1.607  15.659  1.00  0.00     0.293 HD
ENDBRANCH   9  12
ENDBRANCH   5   6
ENDBRANCH   2   4
ENDBRANCH   1   2
BRANCH   1  14
ATOM     14  C   UNL     1      -8.459  10.780  18.493  1.00  0.00     0.163 C 
ATOM     15  O   UNL     1      -8.568  11.804  19.219  1.00  0.00    -0.294 OA
BRANCH  14  16
ATOM     16  C   UNL     1      -9.023   9.508  18.997  1.00  0.00     0.048 C 
ATOM     17  C   UNL     1     -10.334   9.315  19.210  1.00  0.00     0.012 C 
BRANCH  17  18
ATOM     18  C   UNL     1     -10.905   8.039  19.706  1.00  0.00    -0.025 A 
ATOM     19  C   UNL     1     -12.090   7.484  19.181  1.00  0.00     0.012 A 
ATOM     20  C   UNL     1     -10.217   7.339  20.712  1.00  0.00     0.012 A 
ATOM     21  C   UNL     1     -12.582   6.271  19.673  1.00  0.00     0.047 A 
ATOM     22  C   UNL     1     -10.712   6.127  21.202  1.00  0.00     0.047 A 
ATOM     23  C   UNL     1     -11.896   5.591  20.687  1.00  0.00     0.115 A 
BRANCH  23  24
ATOM     24  O   UNL     1     -12.378   4.383  21.184  1.00  0.00    -0.508 OA
ATOM     25  H   UNL     1     -11.771   3.725  21.657  1.00  0.00     0.293 HD
ENDBRANCH  23  24
ENDBRANCH  17  18
ENDBRANCH  14  16
ENDBRANCH   1  14
TORSDOF 8
ENDMDL
