MODEL 1
REMARK VINA RESULT:    -5.389      0.000      0.000
REMARK INTER + INTRA:         -10.168
REMARK INTER:                  -8.225
REMARK INTRA:                  -1.943
REMARK UNBOUND:                -1.943
REMARK SMILES COc1cc(C=CC(=O)CC(=O)C=Cc2ccc(O)c(OC)c2)ccc1O
REMARK SMILES IDX 10 1 8 2 9 3 7 4 6 5 5 6 3 7 26 8 4 9 25 10 24 11 2 12 1 13
REMARK SMILES IDX 27 14 11 16 12 17 13 18 14 19 15 20 23 21 16 22 20 23 17 24
REMARK SMILES IDX 18 25 21 26 22 27 19 28
REMARK H PARENT 27 15 19 29
REMARK Flexibility Score: inf
ROOT
ATOM      1  C   UNL     1     128.976 142.394 122.829  1.00  0.00     0.160 C 
ENDROOT
BRANCH   1   2
ATOM      2  C   UNL     1     130.332 142.361 122.191  1.00  0.00     0.163 C 
ATOM      3  O   UNL     1     131.219 141.604 122.671  1.00  0.00    -0.294 OA
BRANCH   2   4
ATOM      4  C   UNL     1     130.633 143.242 121.044  1.00  0.00     0.048 C 
ATOM      5  C   UNL     1     131.718 144.028 121.013  1.00  0.00     0.012 C 
BRANCH   5   6
ATOM      6  C   UNL     1     132.042 144.937 119.885  1.00  0.00    -0.022 A 
ATOM      7  C   UNL     1     133.130 145.434 117.748  1.00  0.00     0.161 A 
ATOM      8  C   UNL     1     132.626 146.741 117.803  1.00  0.00     0.157 A 
ATOM      9  C   UNL     1     132.840 144.536 118.795  1.00  0.00     0.058 A 
ATOM     10  C   UNL     1     131.848 147.147 118.894  1.00  0.00     0.051 A 
ATOM     11  C   UNL     1     131.564 146.255 119.928  1.00  0.00     0.012 A 
BRANCH   7  12
ATOM     12  O   UNL     1     133.917 145.069 116.643  1.00  0.00    -0.493 OA
ATOM     13  C   UNL     1     135.331 145.212 116.578  1.00  0.00     0.278 C 
ENDBRANCH   7  12
BRANCH   8  14
ATOM     14  O   UNL     1     132.907 147.632 116.769  1.00  0.00    -0.504 OA
ATOM     15  H   UNL     1     133.584 147.412 116.048  1.00  0.00     0.293 HD
ENDBRANCH   8  14
ENDBRANCH   5   6
ENDBRANCH   2   4
ENDBRANCH   1   2
BRANCH   1  16
ATOM     16  C   UNL     1     128.581 143.808 123.130  1.00  0.00     0.163 C 
ATOM     17  O   UNL     1     128.200 144.551 122.186  1.00  0.00    -0.294 OA
BRANCH  16  18
ATOM     18  C   UNL     1     128.536 144.279 124.533  1.00  0.00     0.048 C 
ATOM     19  C   UNL     1     129.445 145.075 125.118  1.00  0.00     0.012 C 
BRANCH  19  20
ATOM     20  C   UNL     1     130.740 145.474 124.526  1.00  0.00    -0.022 A 
ATOM     21  C   UNL     1     130.846 146.711 123.874  1.00  0.00     0.058 A 
ATOM     22  C   UNL     1     131.887 144.681 124.691  1.00  0.00     0.012 A 
ATOM     23  C   UNL     1     132.078 147.139 123.342  1.00  0.00     0.161 A 
ATOM     24  C   UNL     1     133.110 145.099 124.166  1.00  0.00     0.051 A 
ATOM     25  C   UNL     1     133.212 146.318 123.490  1.00  0.00     0.157 A 
BRANCH  23  26
ATOM     26  O   UNL     1     132.212 148.363 122.667  1.00  0.00    -0.493 OA
ATOM     27  C   UNL     1     131.988 149.639 123.259  1.00  0.00     0.278 C 
ENDBRANCH  23  26
BRANCH  25  28
ATOM     28  O   UNL     1     134.451 146.702 122.976  1.00  0.00    -0.504 OA
ATOM     29  H   UNL     1     134.553 147.088 122.046  1.00  0.00     0.293 HD
ENDBRANCH  25  28
ENDBRANCH  19  20
ENDBRANCH  16  18
ENDBRANCH   1  16
TORSDOF 10
ENDMDL
MODEL 2
REMARK VINA RESULT:    -5.324     11.787     13.910
REMARK INTER + INTRA:         -10.067
REMARK INTER:                  -7.930
REMARK INTRA:                  -2.137
REMARK UNBOUND:                -1.943
REMARK SMILES COc1cc(C=CC(=O)CC(=O)C=Cc2ccc(O)c(OC)c2)ccc1O
REMARK SMILES IDX 10 1 8 2 9 3 7 4 6 5 5 6 3 7 26 8 4 9 25 10 24 11 2 12 1 13
REMARK SMILES IDX 27 14 11 16 12 17 13 18 14 19 15 20 23 21 16 22 20 23 17 24
REMARK SMILES IDX 18 25 21 26 22 27 19 28
REMARK H PARENT 27 15 19 29
REMARK Flexibility Score: inf
ROOT
ATOM      1  C   UNL     1     140.534 137.901 124.225  1.00  0.00     0.160 C 
ENDROOT
BRANCH   1   2
ATOM      2  C   UNL     1     141.316 137.985 122.950  1.00  0.00     0.163 C 
ATOM      3  O   UNL     1     142.221 138.858 122.840  1.00  0.00    -0.294 OA
BRANCH   2   4
ATOM      4  C   UNL     1     140.997 137.084 121.824  1.00  0.00     0.048 C 
ATOM      5  C   UNL     1     141.936 136.637 120.979  1.00  0.00     0.012 C 
BRANCH   5   6
ATOM      6  C   UNL     1     141.648 135.745 119.828  1.00  0.00    -0.022 A 
ATOM      7  C   UNL     1     142.083 133.755 118.468  1.00  0.00     0.161 A 
ATOM      8  C   UNL     1     141.047 134.129 117.602  1.00  0.00     0.157 A 
ATOM      9  C   UNL     1     142.384 134.570 119.579  1.00  0.00     0.058 A 
ATOM     10  C   UNL     1     140.327 135.307 117.837  1.00  0.00     0.051 A 
ATOM     11  C   UNL     1     140.629 136.111 118.936  1.00  0.00     0.012 A 
BRANCH   7  12
ATOM     12  O   UNL     1     142.790 132.573 118.192  1.00  0.00    -0.493 OA
ATOM     13  C   UNL     1     142.815 131.431 119.040  1.00  0.00     0.278 C 
ENDBRANCH   7  12
BRANCH   8  14
ATOM     14  O   UNL     1     140.742 133.326 116.505  1.00  0.00    -0.504 OA
ATOM     15  H   UNL     1     140.148 133.656 115.754  1.00  0.00     0.293 HD
ENDBRANCH   8  14
ENDBRANCH   5   6
ENDBRANCH   2   4
ENDBRANCH   1   2
BRANCH   1  16
ATOM     16  C   UNL     1     139.125 138.362 123.998  1.00  0.00     0.163 C 
ATOM     17  O   UNL     1     138.899 139.222 123.106  1.00  0.00    -0.294 OA
BRANCH  16  18
ATOM     18  C   UNL     1     138.013 137.726 124.741  1.00  0.00     0.048 C 
ATOM     19  C   UNL     1     137.568 136.473 124.557  1.00  0.00     0.012 C 
BRANCH  19  20
ATOM     20  C   UNL     1     137.983 135.571 123.462  1.00  0.00    -0.022 A 
ATOM     21  C   UNL     1     138.705 134.408 123.767  1.00  0.00     0.058 A 
ATOM     22  C   UNL     1     137.581 135.805 122.138  1.00  0.00     0.012 A 
ATOM     23  C   UNL     1     139.073 133.504 122.750  1.00  0.00     0.161 A 
ATOM     24  C   UNL     1     137.943 134.915 121.126  1.00  0.00     0.051 A 
ATOM     25  C   UNL     1     138.688 133.771 121.423  1.00  0.00     0.157 A 
BRANCH  23  26
ATOM     26  O   UNL     1     139.813 132.342 123.020  1.00  0.00    -0.493 OA
ATOM     27  C   UNL     1     139.610 131.500 124.151  1.00  0.00     0.278 C 
ENDBRANCH  23  26
BRANCH  25  28
ATOM     28  O   UNL     1     139.033 132.904 120.385  1.00  0.00    -0.504 OA
ATOM     29  H   UNL     1     138.517 132.054 120.197  1.00  0.00     0.293 HD
ENDBRANCH  25  28
ENDBRANCH  19  20
ENDBRANCH  16  18
ENDBRANCH   1  16
TORSDOF 10
ENDMDL
MODEL 3
REMARK VINA RESULT:    -5.242      2.515      5.498
REMARK INTER + INTRA:          -9.942
REMARK INTER:                  -8.449
REMARK INTRA:                  -1.493
REMARK UNBOUND:                -1.943
REMARK SMILES COc1cc(C=CC(=O)CC(=O)C=Cc2ccc(O)c(OC)c2)ccc1O
REMARK SMILES IDX 10 1 8 2 9 3 7 4 6 5 5 6 3 7 26 8 4 9 25 10 24 11 2 12 1 13
REMARK SMILES IDX 27 14 11 16 12 17 13 18 14 19 15 20 23 21 16 22 20 23 17 24
REMARK SMILES IDX 18 25 21 26 22 27 19 28
REMARK H PARENT 27 15 19 29
REMARK Flexibility Score: inf
ROOT
ATOM      1  C   UNL     1     128.434 145.182 123.637  1.00  0.00     0.160 C 
ENDROOT
BRANCH   1   2
ATOM      2  C   UNL     1     128.017 143.820 124.103  1.00  0.00     0.163 C 
ATOM      3  O   UNL     1     127.072 143.715 124.931  1.00  0.00    -0.294 OA
BRANCH   2   4
ATOM      4  C   UNL     1     128.740 142.621 123.629  1.00  0.00     0.048 C 
ATOM      5  C   UNL     1     129.506 142.639 122.529  1.00  0.00     0.012 C 
BRANCH   5   6
ATOM      6  C   UNL     1     130.232 141.451 122.015  1.00  0.00    -0.022 A 
ATOM      7  C   UNL     1     130.406 139.053 121.551  1.00  0.00     0.161 A 
ATOM      8  C   UNL     1     131.696 139.251 121.042  1.00  0.00     0.157 A 
ATOM      9  C   UNL     1     129.678 140.155 122.041  1.00  0.00     0.058 A 
ATOM     10  C   UNL     1     132.256 140.535 121.031  1.00  0.00     0.051 A 
ATOM     11  C   UNL     1     131.533 141.623 121.520  1.00  0.00     0.012 A 
BRANCH   7  12
ATOM     12  O   UNL     1     129.884 137.748 121.555  1.00  0.00    -0.493 OA
ATOM     13  C   UNL     1     129.885 136.883 122.685  1.00  0.00     0.278 C 
ENDBRANCH   7  12
BRANCH   8  14
ATOM     14  O   UNL     1     132.419 138.165 120.551  1.00  0.00    -0.504 OA
ATOM     15  H   UNL     1     133.353 138.276 120.174  1.00  0.00     0.293 HD
ENDBRANCH   8  14
ENDBRANCH   5   6
ENDBRANCH   2   4
ENDBRANCH   1   2
BRANCH   1  16
ATOM     16  C   UNL     1     129.491 145.737 124.544  1.00  0.00     0.163 C 
ATOM     17  O   UNL     1     129.283 146.836 125.125  1.00  0.00    -0.294 OA
BRANCH  16  18
ATOM     18  C   UNL     1     130.708 144.944 124.829  1.00  0.00     0.048 C 
ATOM     19  C   UNL     1     131.907 145.121 124.253  1.00  0.00     0.012 C 
BRANCH  19  20
ATOM     20  C   UNL     1     132.181 146.012 123.105  1.00  0.00    -0.022 A 
ATOM     21  C   UNL     1     131.936 145.550 121.804  1.00  0.00     0.058 A 
ATOM     22  C   UNL     1     132.586 147.342 123.299  1.00  0.00     0.012 A 
ATOM     23  C   UNL     1     132.143 146.392 120.692  1.00  0.00     0.161 A 
ATOM     24  C   UNL     1     132.793 148.181 122.203  1.00  0.00     0.051 A 
ATOM     25  C   UNL     1     132.578 147.713 120.904  1.00  0.00     0.157 A 
BRANCH  23  26
ATOM     26  O   UNL     1     131.925 145.953 119.376  1.00  0.00    -0.493 OA
ATOM     27  C   UNL     1     130.661 145.964 118.720  1.00  0.00     0.278 C 
ENDBRANCH  23  26
BRANCH  25  28
ATOM     28  O   UNL     1     132.798 148.580 119.832  1.00  0.00    -0.504 OA
ATOM     29  H   UNL     1     132.056 148.854 119.199  1.00  0.00     0.293 HD
ENDBRANCH  25  28
ENDBRANCH  19  20
ENDBRANCH  16  18
ENDBRANCH   1  16
TORSDOF 10
ENDMDL
MODEL 4
REMARK VINA RESULT:    -5.151      2.304      4.932
REMARK INTER + INTRA:          -9.803
REMARK INTER:                  -8.416
REMARK INTRA:                  -1.387
REMARK UNBOUND:                -1.943
REMARK SMILES COc1cc(C=CC(=O)CC(=O)C=Cc2ccc(O)c(OC)c2)ccc1O
REMARK SMILES IDX 10 1 8 2 9 3 7 4 6 5 5 6 3 7 26 8 4 9 25 10 24 11 2 12 1 13
REMARK SMILES IDX 27 14 11 16 12 17 13 18 14 19 15 20 23 21 16 22 20 23 17 24
REMARK SMILES IDX 18 25 21 26 22 27 19 28
REMARK H PARENT 27 15 19 29
REMARK Flexibility Score: inf
ROOT
ATOM      1  C   UNL     1     133.029 146.003 123.622  1.00  0.00     0.160 C 
ENDROOT
BRANCH   1   2
ATOM      2  C   UNL     1     132.675 146.817 122.415  1.00  0.00     0.163 C 
ATOM      3  O   UNL     1     132.852 148.065 122.441  1.00  0.00    -0.294 OA
BRANCH   2   4
ATOM      4  C   UNL     1     132.085 146.164 121.228  1.00  0.00     0.048 C 
ATOM      5  C   UNL     1     132.085 146.745 120.020  1.00  0.00     0.012 C 
BRANCH   5   6
ATOM      6  C   UNL     1     131.487 146.126 118.811  1.00  0.00    -0.022 A 
ATOM      7  C   UNL     1     129.624 145.090 117.605  1.00  0.00     0.161 A 
ATOM      8  C   UNL     1     130.446 144.937 116.480  1.00  0.00     0.157 A 
ATOM      9  C   UNL     1     130.150 145.681 118.771  1.00  0.00     0.058 A 
ATOM     10  C   UNL     1     131.780 145.361 116.523  1.00  0.00     0.051 A 
ATOM     11  C   UNL     1     132.297 145.944 117.681  1.00  0.00     0.012 A 
BRANCH   7  12
ATOM     12  O   UNL     1     128.296 144.641 117.525  1.00  0.00    -0.493 OA
ATOM     13  C   UNL     1     127.163 145.492 117.397  1.00  0.00     0.278 C 
ENDBRANCH   7  12
BRANCH   8  14
ATOM     14  O   UNL     1     129.930 144.358 115.322  1.00  0.00    -0.504 OA
ATOM     15  H   UNL     1     130.095 144.762 114.408  1.00  0.00     0.293 HD
ENDBRANCH   8  14
ENDBRANCH   5   6
ENDBRANCH   2   4
ENDBRANCH   1   2
BRANCH   1  16
ATOM     16  C   UNL     1     131.785 145.609 124.362  1.00  0.00     0.163 C 
ATOM     17  O   UNL     1     131.755 144.499 124.959  1.00  0.00    -0.294 OA
BRANCH  16  18
ATOM     18  C   UNL     1     130.661 146.565 124.476  1.00  0.00     0.048 C 
ATOM     19  C   UNL     1     129.365 146.271 124.288  1.00  0.00     0.012 C 
BRANCH  19  20
ATOM     20  C   UNL     1     128.847 144.992 123.758  1.00  0.00    -0.022 A 
ATOM     21  C   UNL     1     129.139 144.627 122.436  1.00  0.00     0.058 A 
ATOM     22  C   UNL     1     128.154 144.093 124.583  1.00  0.00     0.012 A 
ATOM     23  C   UNL     1     128.699 143.393 121.917  1.00  0.00     0.161 A 
ATOM     24  C   UNL     1     127.714 142.869 124.076  1.00  0.00     0.051 A 
ATOM     25  C   UNL     1     127.979 142.517 122.750  1.00  0.00     0.157 A 
BRANCH  23  26
ATOM     26  O   UNL     1     128.960 143.008 120.592  1.00  0.00    -0.493 OA
ATOM     27  C   UNL     1     130.108 142.277 120.175  1.00  0.00     0.278 C 
ENDBRANCH  23  26
BRANCH  25  28
ATOM     28  O   UNL     1     127.522 141.286 122.277  1.00  0.00    -0.504 OA
ATOM     29  H   UNL     1     128.114 140.465 122.249  1.00  0.00     0.293 HD
ENDBRANCH  25  28
ENDBRANCH  19  20
ENDBRANCH  16  18
ENDBRANCH   1  16
TORSDOF 10
ENDMDL
MODEL 5
REMARK VINA RESULT:    -5.093     10.272     12.293
REMARK INTER + INTRA:          -9.715
REMARK INTER:                  -7.381
REMARK INTRA:                  -2.334
REMARK UNBOUND:                -1.943
REMARK SMILES COc1cc(C=CC(=O)CC(=O)C=Cc2ccc(O)c(OC)c2)ccc1O
REMARK SMILES IDX 10 1 8 2 9 3 7 4 6 5 5 6 3 7 26 8 4 9 25 10 24 11 2 12 1 13
REMARK SMILES IDX 27 14 11 16 12 17 13 18 14 19 15 20 23 21 16 22 20 23 17 24
REMARK SMILES IDX 18 25 21 26 22 27 19 28
REMARK H PARENT 27 15 19 29
REMARK Flexibility Score: inf
ROOT
ATOM      1  C   UNL     1     137.414 138.708 122.459  1.00  0.00     0.160 C 
ENDROOT
BRANCH   1   2
ATOM      2  C   UNL     1     136.128 138.410 121.749  1.00  0.00     0.163 C 
ATOM      3  O   UNL     1     135.203 139.266 121.767  1.00  0.00    -0.294 OA
BRANCH   2   4
ATOM      4  C   UNL     1     135.937 137.108 121.077  1.00  0.00     0.048 C 
ATOM      5  C   UNL     1     136.580 136.788 119.946  1.00  0.00     0.012 C 
BRANCH   5   6
ATOM      6  C   UNL     1     136.400 135.497 119.236  1.00  0.00    -0.022 A 
ATOM      7  C   UNL     1     136.791 133.994 117.342  1.00  0.00     0.161 A 
ATOM      8  C   UNL     1     135.977 133.028 117.950  1.00  0.00     0.157 A 
ATOM      9  C   UNL     1     136.996 135.231 117.987  1.00  0.00     0.058 A 
ATOM     10  C   UNL     1     135.369 133.297 119.182  1.00  0.00     0.051 A 
ATOM     11  C   UNL     1     135.573 134.524 119.815  1.00  0.00     0.012 A 
BRANCH   7  12
ATOM     12  O   UNL     1     137.373 133.690 116.100  1.00  0.00    -0.493 OA
ATOM     13  C   UNL     1     137.198 134.462 114.917  1.00  0.00     0.278 C 
ENDBRANCH   7  12
BRANCH   8  14
ATOM     14  O   UNL     1     135.774 131.802 117.319  1.00  0.00    -0.504 OA
ATOM     15  H   UNL     1     136.435 131.040 117.415  1.00  0.00     0.293 HD
ENDBRANCH   8  14
ENDBRANCH   5   6
ENDBRANCH   2   4
ENDBRANCH   1   2
BRANCH   1  16
ATOM     16  C   UNL     1     137.404 138.093 123.827  1.00  0.00     0.163 C 
ATOM     17  O   UNL     1     136.304 137.739 124.329  1.00  0.00    -0.294 OA
BRANCH  16  18
ATOM     18  C   UNL     1     138.682 137.810 124.518  1.00  0.00     0.048 C 
ATOM     19  C   UNL     1     139.606 136.925 124.115  1.00  0.00     0.012 C 
BRANCH  19  20
ATOM     20  C   UNL     1     139.435 135.947 123.019  1.00  0.00    -0.022 A 
ATOM     21  C   UNL     1     140.034 136.195 121.777  1.00  0.00     0.058 A 
ATOM     22  C   UNL     1     138.767 134.730 123.232  1.00  0.00     0.012 A 
ATOM     23  C   UNL     1     139.928 135.259 120.728  1.00  0.00     0.161 A 
ATOM     24  C   UNL     1     138.656 133.800 122.198  1.00  0.00     0.051 A 
ATOM     25  C   UNL     1     139.229 134.058 120.949  1.00  0.00     0.157 A 
BRANCH  23  26
ATOM     26  O   UNL     1     140.501 135.488 119.467  1.00  0.00    -0.493 OA
ATOM     27  C   UNL     1     140.294 136.661 118.686  1.00  0.00     0.278 C 
ENDBRANCH  23  26
BRANCH  25  28
ATOM     28  O   UNL     1     139.096 133.105 119.938  1.00  0.00    -0.504 OA
ATOM     29  H   UNL     1     138.833 133.354 118.993  1.00  0.00     0.293 HD
ENDBRANCH  25  28
ENDBRANCH  19  20
ENDBRANCH  16  18
ENDBRANCH   1  16
TORSDOF 10
ENDMDL
MODEL 6
REMARK VINA RESULT:    -5.036     11.782     13.918
REMARK INTER + INTRA:          -9.629
REMARK INTER:                  -7.975
REMARK INTRA:                  -1.654
REMARK UNBOUND:                -1.943
REMARK SMILES COc1cc(C=CC(=O)CC(=O)C=Cc2ccc(O)c(OC)c2)ccc1O
REMARK SMILES IDX 10 1 8 2 9 3 7 4 6 5 5 6 3 7 26 8 4 9 25 10 24 11 2 12 1 13
REMARK SMILES IDX 27 14 11 16 12 17 13 18 14 19 15 20 23 21 16 22 20 23 17 24
REMARK SMILES IDX 18 25 21 26 22 27 19 28
REMARK H PARENT 27 15 19 29
REMARK Flexibility Score: inf
ROOT
ATOM      1  C   UNL     1     135.111 133.600 118.490  1.00  0.00     0.160 C 
ENDROOT
BRANCH   1   2
ATOM      2  C   UNL     1     135.212 133.629 116.995  1.00  0.00     0.163 C 
ATOM      3  O   UNL     1     134.235 134.056 116.321  1.00  0.00    -0.294 OA
BRANCH   2   4
ATOM      4  C   UNL     1     136.426 133.121 116.324  1.00  0.00     0.048 C 
ATOM      5  C   UNL     1     137.313 133.938 115.740  1.00  0.00     0.012 C 
BRANCH   5   6
ATOM      6  C   UNL     1     138.534 133.462 115.043  1.00  0.00    -0.022 A 
ATOM      7  C   UNL     1     140.962 133.392 114.730  1.00  0.00     0.161 A 
ATOM      8  C   UNL     1     140.790 132.526 113.641  1.00  0.00     0.157 A 
ATOM      9  C   UNL     1     139.830 133.862 115.426  1.00  0.00     0.058 A 
ATOM     10  C   UNL     1     139.503 132.142 113.247  1.00  0.00     0.051 A 
ATOM     11  C   UNL     1     138.385 132.611 113.937  1.00  0.00     0.012 A 
BRANCH   7  12
ATOM     12  O   UNL     1     142.269 133.764 115.087  1.00  0.00    -0.493 OA
ATOM     13  C   UNL     1     142.915 134.955 114.651  1.00  0.00     0.278 C 
ENDBRANCH   7  12
BRANCH   8  14
ATOM     14  O   UNL     1     141.907 132.055 112.953  1.00  0.00    -0.504 OA
ATOM     15  H   UNL     1     142.848 132.300 113.237  1.00  0.00     0.293 HD
ENDBRANCH   8  14
ENDBRANCH   5   6
ENDBRANCH   2   4
ENDBRANCH   1   2
BRANCH   1  16
ATOM     16  C   UNL     1     135.013 134.995 119.029  1.00  0.00     0.163 C 
ATOM     17  O   UNL     1     134.145 135.252 119.905  1.00  0.00    -0.294 OA
BRANCH  16  18
ATOM     18  C   UNL     1     136.000 136.018 118.613  1.00  0.00     0.048 C 
ATOM     19  C   UNL     1     137.290 136.051 118.980  1.00  0.00     0.012 C 
BRANCH  19  20
ATOM     20  C   UNL     1     137.910 135.186 120.006  1.00  0.00    -0.022 A 
ATOM     21  C   UNL     1     137.768 135.518 121.361  1.00  0.00     0.058 A 
ATOM     22  C   UNL     1     138.551 133.988 119.653  1.00  0.00     0.012 A 
ATOM     23  C   UNL     1     138.308 134.688 122.364  1.00  0.00     0.161 A 
ATOM     24  C   UNL     1     139.089 133.162 120.641  1.00  0.00     0.051 A 
ATOM     25  C   UNL     1     138.974 133.505 121.990  1.00  0.00     0.157 A 
BRANCH  23  26
ATOM     26  O   UNL     1     138.199 135.002 123.728  1.00  0.00    -0.493 OA
ATOM     27  C   UNL     1     137.999 136.316 124.240  1.00  0.00     0.278 C 
ENDBRANCH  23  26
BRANCH  25  28
ATOM     28  O   UNL     1     139.526 132.656 122.950  1.00  0.00    -0.504 OA
ATOM     29  H   UNL     1     139.101 132.521 123.860  1.00  0.00     0.293 HD
ENDBRANCH  25  28
ENDBRANCH  19  20
ENDBRANCH  16  18
ENDBRANCH   1  16
TORSDOF 10
ENDMDL
MODEL 7
REMARK VINA RESULT:    -5.034     11.515     13.619
REMARK INTER + INTRA:          -9.625
REMARK INTER:                  -7.158
REMARK INTRA:                  -2.467
REMARK UNBOUND:                -1.943
REMARK SMILES COc1cc(C=CC(=O)CC(=O)C=Cc2ccc(O)c(OC)c2)ccc1O
REMARK SMILES IDX 10 1 8 2 9 3 7 4 6 5 5 6 3 7 26 8 4 9 25 10 24 11 2 12 1 13
REMARK SMILES IDX 27 14 11 16 12 17 13 18 14 19 15 20 23 21 16 22 20 23 17 24
REMARK SMILES IDX 18 25 21 26 22 27 19 28
REMARK H PARENT 27 15 19 29
REMARK Flexibility Score: inf
ROOT
ATOM      1  C   UNL     1     139.331 138.874 122.851  1.00  0.00     0.160 C 
ENDROOT
BRANCH   1   2
ATOM      2  C   UNL     1     140.542 138.868 121.969  1.00  0.00     0.163 C 
ATOM      3  O   UNL     1     141.455 139.714 122.172  1.00  0.00    -0.294 OA
BRANCH   2   4
ATOM      4  C   UNL     1     140.638 137.910 120.848  1.00  0.00     0.048 C 
ATOM      5  C   UNL     1     141.196 136.699 120.990  1.00  0.00     0.012 C 
BRANCH   5   6
ATOM      6  C   UNL     1     141.324 135.720 119.883  1.00  0.00    -0.022 A 
ATOM      7  C   UNL     1     142.293 133.712 118.868  1.00  0.00     0.161 A 
ATOM      8  C   UNL     1     141.520 133.927 117.719  1.00  0.00     0.157 A 
ATOM      9  C   UNL     1     142.196 134.615 119.947  1.00  0.00     0.058 A 
ATOM     10  C   UNL     1     140.666 135.035 117.646  1.00  0.00     0.051 A 
ATOM     11  C   UNL     1     140.574 135.926 118.715  1.00  0.00     0.012 A 
BRANCH   7  12
ATOM     12  O   UNL     1     143.146 132.597 118.899  1.00  0.00    -0.493 OA
ATOM     13  C   UNL     1     144.434 132.583 119.504  1.00  0.00     0.278 C 
ENDBRANCH   7  12
BRANCH   8  14
ATOM     14  O   UNL     1     141.609 133.036 116.652  1.00  0.00    -0.504 OA
ATOM     15  H   UNL     1     142.498 132.653 116.353  1.00  0.00     0.293 HD
ENDBRANCH   8  14
ENDBRANCH   5   6
ENDBRANCH   2   4
ENDBRANCH   1   2
BRANCH   1  16
ATOM     16  C   UNL     1     139.493 137.877 123.958  1.00  0.00     0.163 C 
ATOM     17  O   UNL     1     140.654 137.571 124.341  1.00  0.00    -0.294 OA
BRANCH  16  18
ATOM     18  C   UNL     1     138.299 137.350 124.657  1.00  0.00     0.048 C 
ATOM     19  C   UNL     1     137.704 136.174 124.406  1.00  0.00     0.012 C 
BRANCH  19  20
ATOM     20  C   UNL     1     138.020 135.281 123.271  1.00  0.00    -0.022 A 
ATOM     21  C   UNL     1     137.472 135.553 122.009  1.00  0.00     0.058 A 
ATOM     22  C   UNL     1     138.935 134.226 123.411  1.00  0.00     0.012 A 
ATOM     23  C   UNL     1     137.792 134.748 120.898  1.00  0.00     0.161 A 
ATOM     24  C   UNL     1     139.256 133.424 122.315  1.00  0.00     0.051 A 
ATOM     25  C   UNL     1     138.688 133.676 121.064  1.00  0.00     0.157 A 
BRANCH  23  26
ATOM     26  O   UNL     1     137.245 134.984 119.626  1.00  0.00    -0.493 OA
ATOM     27  C   UNL     1     136.865 136.266 119.136  1.00  0.00     0.278 C 
ENDBRANCH  23  26
BRANCH  25  28
ATOM     28  O   UNL     1     139.031 132.851 119.991  1.00  0.00    -0.504 OA
ATOM     29  H   UNL     1     138.596 132.941 119.081  1.00  0.00     0.293 HD
ENDBRANCH  25  28
ENDBRANCH  19  20
ENDBRANCH  16  18
ENDBRANCH   1  16
TORSDOF 10
ENDMDL
MODEL 8
REMARK VINA RESULT:    -5.024      3.467      7.544
REMARK INTER + INTRA:          -9.610
REMARK INTER:                  -7.751
REMARK INTRA:                  -1.859
REMARK UNBOUND:                -1.943
REMARK SMILES COc1cc(C=CC(=O)CC(=O)C=Cc2ccc(O)c(OC)c2)ccc1O
REMARK SMILES IDX 10 1 8 2 9 3 7 4 6 5 5 6 3 7 26 8 4 9 25 10 24 11 2 12 1 13
REMARK SMILES IDX 27 14 11 16 12 17 13 18 14 19 15 20 23 21 16 22 20 23 17 24
REMARK SMILES IDX 18 25 21 26 22 27 19 28
REMARK H PARENT 27 15 19 29
REMARK Flexibility Score: inf
ROOT
ATOM      1  C   UNL     1     133.349 144.950 117.211  1.00  0.00     0.160 C 
ENDROOT
BRANCH   1   2
ATOM      2  C   UNL     1     132.741 146.293 117.484  1.00  0.00     0.163 C 
ATOM      3  O   UNL     1     132.689 147.145 116.555  1.00  0.00    -0.294 OA
BRANCH   2   4
ATOM      4  C   UNL     1     132.252 146.623 118.838  1.00  0.00     0.048 C 
ATOM      5  C   UNL     1     132.363 145.769 119.865  1.00  0.00     0.012 C 
BRANCH   5   6
ATOM      6  C   UNL     1     131.868 146.062 121.233  1.00  0.00    -0.022 A 
ATOM      7  C   UNL     1     130.493 145.551 123.194  1.00  0.00     0.161 A 
ATOM      8  C   UNL     1     130.964 146.713 123.820  1.00  0.00     0.157 A 
ATOM      9  C   UNL     1     130.944 145.231 121.898  1.00  0.00     0.058 A 
ATOM     10  C   UNL     1     131.868 147.550 123.155  1.00  0.00     0.051 A 
ATOM     11  C   UNL     1     132.311 147.230 121.871  1.00  0.00     0.012 A 
BRANCH   7  12
ATOM     12  O   UNL     1     129.577 144.744 123.890  1.00  0.00    -0.493 OA
ATOM     13  C   UNL     1     128.178 144.705 123.631  1.00  0.00     0.278 C 
ENDBRANCH   7  12
BRANCH   8  14
ATOM     14  O   UNL     1     130.525 147.032 125.103  1.00  0.00    -0.504 OA
ATOM     15  H   UNL     1     130.558 146.357 125.859  1.00  0.00     0.293 HD
ENDBRANCH   8  14
ENDBRANCH   5   6
ENDBRANCH   2   4
ENDBRANCH   1   2
BRANCH   1  16
ATOM     16  C   UNL     1     132.296 143.993 116.739  1.00  0.00     0.163 C 
ATOM     17  O   UNL     1     131.896 144.064 115.546  1.00  0.00    -0.294 OA
BRANCH  16  18
ATOM     18  C   UNL     1     131.824 142.914 117.637  1.00  0.00     0.048 C 
ATOM     19  C   UNL     1     130.548 142.698 117.991  1.00  0.00     0.012 C 
BRANCH  19  20
ATOM     20  C   UNL     1     129.415 143.601 117.699  1.00  0.00    -0.022 A 
ATOM     21  C   UNL     1     128.630 143.372 116.561  1.00  0.00     0.058 A 
ATOM     22  C   UNL     1     129.051 144.620 118.594  1.00  0.00     0.012 A 
ATOM     23  C   UNL     1     127.514 144.187 116.282  1.00  0.00     0.161 A 
ATOM     24  C   UNL     1     127.948 145.431 118.324  1.00  0.00     0.051 A 
ATOM     25  C   UNL     1     127.182 145.224 117.174  1.00  0.00     0.157 A 
BRANCH  23  26
ATOM     26  O   UNL     1     126.720 143.996 115.140  1.00  0.00    -0.493 OA
ATOM     27  C   UNL     1     125.591 143.130 115.077  1.00  0.00     0.278 C 
ENDBRANCH  23  26
BRANCH  25  28
ATOM     28  O   UNL     1     126.087 146.056 116.935  1.00  0.00    -0.504 OA
ATOM     29  H   UNL     1     125.619 146.088 116.038  1.00  0.00     0.293 HD
ENDBRANCH  25  28
ENDBRANCH  19  20
ENDBRANCH  16  18
ENDBRANCH   1  16
TORSDOF 10
ENDMDL
MODEL 9
REMARK VINA RESULT:    -5.010     12.712     16.093
REMARK INTER + INTRA:          -9.588
REMARK INTER:                  -7.528
REMARK INTRA:                  -2.061
REMARK UNBOUND:                -1.943
REMARK SMILES COc1cc(C=CC(=O)CC(=O)C=Cc2ccc(O)c(OC)c2)ccc1O
REMARK SMILES IDX 10 1 8 2 9 3 7 4 6 5 5 6 3 7 26 8 4 9 25 10 24 11 2 12 1 13
REMARK SMILES IDX 27 14 11 16 12 17 13 18 14 19 15 20 23 21 16 22 20 23 17 24
REMARK SMILES IDX 18 25 21 26 22 27 19 28
REMARK H PARENT 27 15 19 29
REMARK Flexibility Score: inf
ROOT
ATOM      1  C   UNL     1     141.323 133.239 112.776  1.00  0.00     0.160 C 
ENDROOT
BRANCH   1   2
ATOM      2  C   UNL     1     140.211 132.249 112.955  1.00  0.00     0.163 C 
ATOM      3  O   UNL     1     140.229 131.177 112.291  1.00  0.00    -0.294 OA
BRANCH   2   4
ATOM      4  C   UNL     1     139.089 132.553 113.866  1.00  0.00     0.048 C 
ATOM      5  C   UNL     1     138.481 133.747 113.876  1.00  0.00     0.012 C 
BRANCH   5   6
ATOM      6  C   UNL     1     137.362 134.092 114.788  1.00  0.00    -0.022 A 
ATOM      7  C   UNL     1     135.759 133.537 116.555  1.00  0.00     0.161 A 
ATOM      8  C   UNL     1     135.219 134.827 116.461  1.00  0.00     0.157 A 
ATOM      9  C   UNL     1     136.828 133.171 115.712  1.00  0.00     0.058 A 
ATOM     10  C   UNL     1     135.736 135.737 115.531  1.00  0.00     0.051 A 
ATOM     11  C   UNL     1     136.793 135.370 114.698  1.00  0.00     0.012 A 
BRANCH   7  12
ATOM     12  O   UNL     1     135.205 132.649 117.492  1.00  0.00    -0.493 OA
ATOM     13  C   UNL     1     135.683 132.478 118.821  1.00  0.00     0.278 C 
ENDBRANCH   7  12
BRANCH   8  14
ATOM     14  O   UNL     1     134.165 135.196 117.294  1.00  0.00    -0.504 OA
ATOM     15  H   UNL     1     133.706 134.524 117.898  1.00  0.00     0.293 HD
ENDBRANCH   8  14
ENDBRANCH   5   6
ENDBRANCH   2   4
ENDBRANCH   1   2
BRANCH   1  16
ATOM     16  C   UNL     1     142.233 133.216 113.967  1.00  0.00     0.163 C 
ATOM     17  O   UNL     1     142.530 132.107 114.487  1.00  0.00    -0.294 OA
BRANCH  16  18
ATOM     18  C   UNL     1     142.853 134.472 114.445  1.00  0.00     0.048 C 
ATOM     19  C   UNL     1     142.712 134.992 115.674  1.00  0.00     0.012 C 
BRANCH  19  20
ATOM     20  C   UNL     1     141.772 134.506 116.706  1.00  0.00    -0.022 A 
ATOM     21  C   UNL     1     142.246 133.673 117.730  1.00  0.00     0.058 A 
ATOM     22  C   UNL     1     140.438 134.943 116.735  1.00  0.00     0.012 A 
ATOM     23  C   UNL     1     141.383 133.232 118.754  1.00  0.00     0.161 A 
ATOM     24  C   UNL     1     139.578 134.509 117.746  1.00  0.00     0.051 A 
ATOM     25  C   UNL     1     140.041 133.656 118.751  1.00  0.00     0.157 A 
BRANCH  23  26
ATOM     26  O   UNL     1     141.823 132.383 119.782  1.00  0.00    -0.493 OA
ATOM     27  C   UNL     1     143.080 131.713 119.794  1.00  0.00     0.278 C 
ENDBRANCH  23  26
BRANCH  25  28
ATOM     28  O   UNL     1     139.153 133.241 119.744  1.00  0.00    -0.504 OA
ATOM     29  H   UNL     1     138.351 133.796 120.016  1.00  0.00     0.293 HD
ENDBRANCH  25  28
ENDBRANCH  19  20
ENDBRANCH  16  18
ENDBRANCH   1  16
TORSDOF 10
ENDMDL
