MODEL 1
REMARK VINA RESULT:    -6.105      0.000      0.000
REMARK INTER + INTRA:          -7.619
REMARK INTER:                  -7.354
REMARK INTRA:                  -0.265
REMARK UNBOUND:                -0.265
REMARK SMILES O=c1c(O)c(-c2ccc(O)c(O)c2)oc2cc(O)cc(O)c12
REMARK SMILES IDX 5 1 3 2 2 3 1 4 22 5 20 6 19 7 17 8 16 9 15 10 14 11 6 12
REMARK SMILES IDX 7 13 8 14 9 15 13 16 11 17 10 18 12 20 4 22 21 24 18 26
REMARK H PARENT 10 19 12 21 4 23 21 25 18 27
REMARK Flexibility Score: inf
ROOT
ATOM      1  C   UNL     1       0.725  54.379 -10.905  1.00  0.00     0.180 A 
ATOM      2  C   UNL     1       0.680  54.309 -12.307  1.00  0.00     0.208 A 
ATOM      3  C   UNL     1       1.224  53.187 -12.951  1.00  0.00     0.238 A 
ATOM      4  O   UNL     1       1.229  53.156 -14.210  1.00  0.00    -0.285 OA
ATOM      5  C   UNL     1       1.792  52.141 -12.185  1.00  0.00     0.111 A 
ATOM      6  C   UNL     1       2.336  50.939 -12.730  1.00  0.00     0.134 A 
ATOM      7  C   UNL     1       2.990  50.032 -11.887  1.00  0.00     0.093 A 
ATOM      8  C   UNL     1       3.061  50.252 -10.509  1.00  0.00     0.123 A 
ATOM      9  C   UNL     1       2.481  51.393  -9.960  1.00  0.00     0.094 A 
ATOM     10  C   UNL     1       1.854  52.334 -10.780  1.00  0.00     0.146 A 
ATOM     11  O   UNL     1       1.323  53.413 -10.218  1.00  0.00    -0.452 OA
ENDROOT
BRANCH   1  12
ATOM     12  C   UNL     1       0.150  55.518 -10.154  1.00  0.00     0.025 A 
ATOM     13  C   UNL     1      -1.056  55.394  -9.448  1.00  0.00     0.016 A 
ATOM     14  C   UNL     1      -1.567  56.475  -8.727  1.00  0.00     0.051 A 
ATOM     15  C   UNL     1      -0.880  57.694  -8.684  1.00  0.00     0.157 A 
ATOM     16  C   UNL     1       0.852  56.733 -10.093  1.00  0.00     0.062 A 
ATOM     17  C   UNL     1       0.348  57.823  -9.374  1.00  0.00     0.158 A 
BRANCH  15  18
ATOM     18  O   UNL     1      -1.447  58.737  -7.948  1.00  0.00    -0.504 OA
ATOM     19  H   UNL     1      -2.251  59.268  -8.249  1.00  0.00     0.293 HD
ENDBRANCH  15  18
BRANCH  17  20
ATOM     20  O   UNL     1       1.094  59.003  -9.370  1.00  0.00    -0.504 OA
ATOM     21  H   UNL     1       1.155  59.636 -10.154  1.00  0.00     0.293 HD
ENDBRANCH  17  20
ENDBRANCH   1  12
BRANCH   2  22
ATOM     22  O   UNL     1       0.134  55.363 -13.047  1.00  0.00    -0.502 OA
ATOM     23  H   UNL     1       0.541  56.291 -13.052  1.00  0.00     0.293 HD
ENDBRANCH   2  22
BRANCH   6  24
ATOM     24  O   UNL     1       2.238  50.580 -14.078  1.00  0.00    -0.507 OA
ATOM     25  H   UNL     1       2.062  49.644 -14.412  1.00  0.00     0.293 HD
ENDBRANCH   6  24
BRANCH   8  26
ATOM     26  O   UNL     1       3.699  49.337  -9.675  1.00  0.00    -0.508 OA
ATOM     27  H   UNL     1       3.606  48.338  -9.815  1.00  0.00     0.293 HD
ENDBRANCH   8  26
TORSDOF 6
ENDMDL
MODEL 2
REMARK VINA RESULT:    -5.658      9.553     12.185
REMARK INTER + INTRA:          -7.081
REMARK INTER:                  -6.813
REMARK INTRA:                  -0.269
REMARK UNBOUND:                -0.265
REMARK SMILES O=c1c(O)c(-c2ccc(O)c(O)c2)oc2cc(O)cc(O)c12
REMARK SMILES IDX 5 1 3 2 2 3 1 4 22 5 20 6 19 7 17 8 16 9 15 10 14 11 6 12
REMARK SMILES IDX 7 13 8 14 9 15 13 16 11 17 10 18 12 20 4 22 21 24 18 26
REMARK H PARENT 10 19 12 21 4 23 21 25 18 27
REMARK Flexibility Score: inf
ROOT
ATOM      1  C   UNL     1      -3.717  63.491  -6.579  1.00  0.00     0.180 A 
ATOM      2  C   UNL     1      -3.040  62.283  -6.814  1.00  0.00     0.208 A 
ATOM      3  C   UNL     1      -3.609  61.342  -7.687  1.00  0.00     0.238 A 
ATOM      4  O   UNL     1      -3.025  60.239  -7.852  1.00  0.00    -0.285 OA
ATOM      5  C   UNL     1      -4.840  61.628  -8.326  1.00  0.00     0.111 A 
ATOM      6  C   UNL     1      -5.488  60.765  -9.260  1.00  0.00     0.134 A 
ATOM      7  C   UNL     1      -6.766  61.091  -9.730  1.00  0.00     0.093 A 
ATOM      8  C   UNL     1      -7.391  62.282  -9.350  1.00  0.00     0.123 A 
ATOM      9  C   UNL     1      -6.741  63.158  -8.485  1.00  0.00     0.094 A 
ATOM     10  C   UNL     1      -5.481  62.843  -7.971  1.00  0.00     0.146 A 
ATOM     11  O   UNL     1      -4.901  63.702  -7.142  1.00  0.00    -0.452 OA
ENDROOT
BRANCH   1  12
ATOM     12  C   UNL     1      -3.168  64.543  -5.692  1.00  0.00     0.025 A 
ATOM     13  C   UNL     1      -2.083  65.340  -6.088  1.00  0.00     0.016 A 
ATOM     14  C   UNL     1      -1.598  66.341  -5.244  1.00  0.00     0.051 A 
ATOM     15  C   UNL     1      -2.191  66.575  -3.998  1.00  0.00     0.157 A 
ATOM     16  C   UNL     1      -3.778  64.790  -4.452  1.00  0.00     0.062 A 
ATOM     17  C   UNL     1      -3.299  65.791  -3.598  1.00  0.00     0.158 A 
BRANCH  15  18
ATOM     18  O   UNL     1      -1.655  67.588  -3.200  1.00  0.00    -0.504 OA
ATOM     19  H   UNL     1      -0.685  67.865  -3.214  1.00  0.00     0.293 HD
ENDBRANCH  15  18
BRANCH  17  20
ATOM     20  O   UNL     1      -3.948  65.972  -2.376  1.00  0.00    -0.504 OA
ATOM     21  H   UNL     1      -4.769  65.459  -2.091  1.00  0.00     0.293 HD
ENDBRANCH  17  20
ENDBRANCH   1  12
BRANCH   2  22
ATOM     22  O   UNL     1      -1.836  62.012  -6.156  1.00  0.00    -0.502 OA
ATOM     23  H   UNL     1      -1.210  61.273  -6.452  1.00  0.00     0.293 HD
ENDBRANCH   2  22
BRANCH   6  24
ATOM     24  O   UNL     1      -4.913  59.599  -9.774  1.00  0.00    -0.507 OA
ATOM     25  H   UNL     1      -5.406  58.730  -9.919  1.00  0.00     0.293 HD
ENDBRANCH   6  24
BRANCH   8  26
ATOM     26  O   UNL     1      -8.657  62.606  -9.834  1.00  0.00    -0.508 OA
ATOM     27  H   UNL     1      -9.406  62.888  -9.211  1.00  0.00     0.293 HD
ENDBRANCH   8  26
TORSDOF 6
ENDMDL
MODEL 3
REMARK VINA RESULT:    -5.632     15.163     16.682
REMARK INTER + INTRA:          -7.050
REMARK INTER:                  -6.760
REMARK INTRA:                  -0.290
REMARK UNBOUND:                -0.265
REMARK SMILES O=c1c(O)c(-c2ccc(O)c(O)c2)oc2cc(O)cc(O)c12
REMARK SMILES IDX 5 1 3 2 2 3 1 4 22 5 20 6 19 7 17 8 16 9 15 10 14 11 6 12
REMARK SMILES IDX 7 13 8 14 9 15 13 16 11 17 10 18 12 20 4 22 21 24 18 26
REMARK H PARENT 10 19 12 21 4 23 21 25 18 27
REMARK Flexibility Score: inf
ROOT
ATOM      1  C   UNL     1      -2.698  63.730   0.764  1.00  0.00     0.180 A 
ATOM      2  C   UNL     1      -1.580  63.752   1.615  1.00  0.00     0.208 A 
ATOM      3  C   UNL     1      -0.497  64.584   1.294  1.00  0.00     0.238 A 
ATOM      4  O   UNL     1       0.524  64.559   2.030  1.00  0.00    -0.285 OA
ATOM      5  C   UNL     1      -0.551  65.397   0.135  1.00  0.00     0.111 A 
ATOM      6  C   UNL     1       0.473  66.309  -0.265  1.00  0.00     0.134 A 
ATOM      7  C   UNL     1       0.370  66.964  -1.497  1.00  0.00     0.093 A 
ATOM      8  C   UNL     1      -0.751  66.791  -2.314  1.00  0.00     0.123 A 
ATOM      9  C   UNL     1      -1.781  65.950  -1.905  1.00  0.00     0.094 A 
ATOM     10  C   UNL     1      -1.691  65.254  -0.697  1.00  0.00     0.146 A 
ATOM     11  O   UNL     1      -2.692  64.453  -0.349  1.00  0.00    -0.452 OA
ENDROOT
BRANCH   1  12
ATOM     12  C   UNL     1      -3.889  62.897   1.049  1.00  0.00     0.025 A 
ATOM     13  C   UNL     1      -4.085  61.661   0.414  1.00  0.00     0.016 A 
ATOM     14  C   UNL     1      -5.203  60.882   0.717  1.00  0.00     0.051 A 
ATOM     15  C   UNL     1      -6.138  61.310   1.666  1.00  0.00     0.157 A 
ATOM     16  C   UNL     1      -4.813  63.318   2.018  1.00  0.00     0.062 A 
ATOM     17  C   UNL     1      -5.938  62.544   2.329  1.00  0.00     0.158 A 
BRANCH  15  18
ATOM     18  O   UNL     1      -7.236  60.486   1.920  1.00  0.00    -0.504 OA
ATOM     19  H   UNL     1      -7.776  60.027   1.201  1.00  0.00     0.293 HD
ENDBRANCH  15  18
BRANCH  17  20
ATOM     20  O   UNL     1      -6.820  63.033   3.293  1.00  0.00    -0.504 OA
ATOM     21  H   UNL     1      -7.236  63.953   3.264  1.00  0.00     0.293 HD
ENDBRANCH  17  20
ENDBRANCH   1  12
BRANCH   2  22
ATOM     22  O   UNL     1      -1.537  62.925   2.741  1.00  0.00    -0.502 OA
ATOM     23  H   UNL     1      -2.235  62.213   2.920  1.00  0.00     0.293 HD
ENDBRANCH   2  22
BRANCH   6  24
ATOM     24  O   UNL     1       1.588  66.622   0.519  1.00  0.00    -0.507 OA
ATOM     25  H   UNL     1       2.002  66.006   1.202  1.00  0.00     0.293 HD
ENDBRANCH   6  24
BRANCH   8  26
ATOM     26  O   UNL     1      -0.852  67.459  -3.532  1.00  0.00    -0.508 OA
ATOM     27  H   UNL     1      -1.749  67.751  -3.904  1.00  0.00     0.293 HD
ENDBRANCH   8  26
TORSDOF 6
ENDMDL
MODEL 4
REMARK VINA RESULT:    -5.622     13.252     17.291
REMARK INTER + INTRA:          -7.038
REMARK INTER:                  -6.754
REMARK INTRA:                  -0.284
REMARK UNBOUND:                -0.265
REMARK SMILES O=c1c(O)c(-c2ccc(O)c(O)c2)oc2cc(O)cc(O)c12
REMARK SMILES IDX 5 1 3 2 2 3 1 4 22 5 20 6 19 7 17 8 16 9 15 10 14 11 6 12
REMARK SMILES IDX 7 13 8 14 9 15 13 16 11 17 10 18 12 20 4 22 21 24 18 26
REMARK H PARENT 10 19 12 21 4 23 21 25 18 27
REMARK Flexibility Score: inf
ROOT
ATOM      1  C   UNL     1      -0.702  65.636   0.157  1.00  0.00     0.180 A 
ATOM      2  C   UNL     1      -1.608  66.549   0.723  1.00  0.00     0.208 A 
ATOM      3  C   UNL     1      -1.692  66.647   2.120  1.00  0.00     0.238 A 
ATOM      4  O   UNL     1      -2.544  67.427   2.621  1.00  0.00    -0.285 OA
ATOM      5  C   UNL     1      -0.858  65.844   2.935  1.00  0.00     0.111 A 
ATOM      6  C   UNL     1      -0.830  65.891   4.362  1.00  0.00     0.134 A 
ATOM      7  C   UNL     1      -0.060  64.959   5.068  1.00  0.00     0.093 A 
ATOM      8  C   UNL     1       0.735  64.025   4.398  1.00  0.00     0.123 A 
ATOM      9  C   UNL     1       0.760  64.011   3.006  1.00  0.00     0.094 A 
ATOM     10  C   UNL     1      -0.026  64.904   2.273  1.00  0.00     0.146 A 
ATOM     11  O   UNL     1       0.020  64.850   0.948  1.00  0.00    -0.452 OA
ENDROOT
BRANCH   1  12
ATOM     12  C   UNL     1      -0.539  65.493  -1.308  1.00  0.00     0.025 A 
ATOM     13  C   UNL     1      -1.145  64.442  -2.012  1.00  0.00     0.016 A 
ATOM     14  C   UNL     1      -0.997  64.341  -3.396  1.00  0.00     0.051 A 
ATOM     15  C   UNL     1      -0.255  65.291  -4.107  1.00  0.00     0.157 A 
ATOM     16  C   UNL     1       0.187  66.461  -2.021  1.00  0.00     0.062 A 
ATOM     17  C   UNL     1       0.342  66.368  -3.410  1.00  0.00     0.158 A 
BRANCH  15  18
ATOM     18  O   UNL     1      -0.142  65.131  -5.489  1.00  0.00    -0.504 OA
ATOM     19  H   UNL     1      -0.251  65.882  -6.156  1.00  0.00     0.293 HD
ENDBRANCH  15  18
BRANCH  17  20
ATOM     20  O   UNL     1       1.087  67.359  -4.051  1.00  0.00    -0.504 OA
ATOM     21  H   UNL     1       0.953  67.635  -5.013  1.00  0.00     0.293 HD
ENDBRANCH  17  20
ENDBRANCH   1  12
BRANCH   2  22
ATOM     22  O   UNL     1      -2.439  67.316  -0.100  1.00  0.00    -0.502 OA
ATOM     23  H   UNL     1      -3.389  67.553   0.158  1.00  0.00     0.293 HD
ENDBRANCH   2  22
BRANCH   6  24
ATOM     24  O   UNL     1      -1.514  66.842   5.125  1.00  0.00    -0.507 OA
ATOM     25  H   UNL     1      -1.732  66.744   6.105  1.00  0.00     0.293 HD
ENDBRANCH   6  24
BRANCH   8  26
ATOM     26  O   UNL     1       1.510  63.112   5.108  1.00  0.00    -0.508 OA
ATOM     27  H   UNL     1       1.087  62.395   5.687  1.00  0.00     0.293 HD
ENDBRANCH   8  26
TORSDOF 6
ENDMDL
MODEL 5
REMARK VINA RESULT:    -5.476      9.847     12.444
REMARK INTER + INTRA:          -6.861
REMARK INTER:                  -6.540
REMARK INTRA:                  -0.321
REMARK UNBOUND:                -0.265
REMARK SMILES O=c1c(O)c(-c2ccc(O)c(O)c2)oc2cc(O)cc(O)c12
REMARK SMILES IDX 5 1 3 2 2 3 1 4 22 5 20 6 19 7 17 8 16 9 15 10 14 11 6 12
REMARK SMILES IDX 7 13 8 14 9 15 13 16 11 17 10 18 12 20 4 22 21 24 18 26
REMARK H PARENT 10 19 12 21 4 23 21 25 18 27
REMARK Flexibility Score: inf
ROOT
ATOM      1  C   UNL     1      -2.966  63.202  -5.334  1.00  0.00     0.180 A 
ATOM      2  C   UNL     1      -2.444  62.175  -6.138  1.00  0.00     0.208 A 
ATOM      3  C   UNL     1      -3.225  61.668  -7.188  1.00  0.00     0.238 A 
ATOM      4  O   UNL     1      -2.774  60.711  -7.870  1.00  0.00    -0.285 OA
ATOM      5  C   UNL     1      -4.513  62.205  -7.431  1.00  0.00     0.111 A 
ATOM      6  C   UNL     1      -5.375  61.795  -8.493  1.00  0.00     0.134 A 
ATOM      7  C   UNL     1      -6.678  62.303  -8.559  1.00  0.00     0.093 A 
ATOM      8  C   UNL     1      -7.127  63.255  -7.640  1.00  0.00     0.123 A 
ATOM      9  C   UNL     1      -6.274  63.705  -6.637  1.00  0.00     0.094 A 
ATOM     10  C   UNL     1      -4.980  63.190  -6.523  1.00  0.00     0.146 A 
ATOM     11  O   UNL     1      -4.202  63.639  -5.545  1.00  0.00    -0.452 OA
ENDROOT
BRANCH   1  12
ATOM     12  C   UNL     1      -2.192  63.804  -4.223  1.00  0.00     0.025 A 
ATOM     13  C   UNL     1      -1.446  64.978  -4.406  1.00  0.00     0.016 A 
ATOM     14  C   UNL     1      -0.743  65.541  -3.339  1.00  0.00     0.051 A 
ATOM     15  C   UNL     1      -0.783  64.954  -2.068  1.00  0.00     0.157 A 
ATOM     16  C   UNL     1      -2.252  63.227  -2.945  1.00  0.00     0.062 A 
ATOM     17  C   UNL     1      -1.551  63.783  -1.868  1.00  0.00     0.158 A 
BRANCH  15  18
ATOM     18  O   UNL     1      -0.055  65.565  -1.044  1.00  0.00    -0.504 OA
ATOM     19  H   UNL     1      -0.445  65.817  -0.148  1.00  0.00     0.293 HD
ENDBRANCH  15  18
BRANCH  17  20
ATOM     20  O   UNL     1      -1.646  63.147  -0.629  1.00  0.00    -0.504 OA
ATOM     21  H   UNL     1      -1.940  62.189  -0.507  1.00  0.00     0.293 HD
ENDBRANCH  17  20
ENDBRANCH   1  12
BRANCH   2  22
ATOM     22  O   UNL     1      -1.179  61.644  -5.866  1.00  0.00    -0.502 OA
ATOM     23  H   UNL     1      -0.331  62.034  -6.258  1.00  0.00     0.293 HD
ENDBRANCH   2  22
BRANCH   6  24
ATOM     24  O   UNL     1      -4.993  60.920  -9.514  1.00  0.00    -0.507 OA
ATOM     25  H   UNL     1      -4.875  61.181 -10.481  1.00  0.00     0.293 HD
ENDBRANCH   6  24
BRANCH   8  26
ATOM     26  O   UNL     1      -8.420  63.767  -7.723  1.00  0.00    -0.508 OA
ATOM     27  H   UNL     1      -9.229  63.204  -7.484  1.00  0.00     0.293 HD
ENDBRANCH   8  26
TORSDOF 6
ENDMDL
MODEL 6
REMARK VINA RESULT:    -5.399     13.624     16.230
REMARK INTER + INTRA:          -6.768
REMARK INTER:                  -6.468
REMARK INTRA:                  -0.301
REMARK UNBOUND:                -0.265
REMARK SMILES O=c1c(O)c(-c2ccc(O)c(O)c2)oc2cc(O)cc(O)c12
REMARK SMILES IDX 5 1 3 2 2 3 1 4 22 5 20 6 19 7 17 8 16 9 15 10 14 11 6 12
REMARK SMILES IDX 7 13 8 14 9 15 13 16 11 17 10 18 12 20 4 22 21 24 18 26
REMARK H PARENT 10 19 12 21 4 23 21 25 18 27
REMARK Flexibility Score: inf
ROOT
ATOM      1  C   UNL     1      -3.153  63.168   1.268  1.00  0.00     0.180 A 
ATOM      2  C   UNL     1      -4.172  63.516   2.170  1.00  0.00     0.208 A 
ATOM      3  C   UNL     1      -5.288  62.673   2.294  1.00  0.00     0.238 A 
ATOM      4  O   UNL     1      -6.223  63.018   3.063  1.00  0.00    -0.285 OA
ATOM      5  C   UNL     1      -5.363  61.485   1.527  1.00  0.00     0.111 A 
ATOM      6  C   UNL     1      -6.428  60.538   1.602  1.00  0.00     0.134 A 
ATOM      7  C   UNL     1      -6.463  59.465   0.703  1.00  0.00     0.093 A 
ATOM      8  C   UNL     1      -5.436  59.270  -0.225  1.00  0.00     0.123 A 
ATOM      9  C   UNL     1      -4.363  60.156  -0.266  1.00  0.00     0.094 A 
ATOM     10  C   UNL     1      -4.319  61.256   0.594  1.00  0.00     0.146 A 
ATOM     11  O   UNL     1      -3.283  62.082   0.515  1.00  0.00    -0.452 OA
ENDROOT
BRANCH   1  12
ATOM     12  C   UNL     1      -1.934  63.993   1.101  1.00  0.00     0.025 A 
ATOM     13  C   UNL     1      -1.933  65.139   0.290  1.00  0.00     0.016 A 
ATOM     14  C   UNL     1      -0.779  65.915   0.166  1.00  0.00     0.051 A 
ATOM     15  C   UNL     1       0.390  65.573   0.856  1.00  0.00     0.157 A 
ATOM     16  C   UNL     1      -0.770  63.661   1.812  1.00  0.00     0.062 A 
ATOM     17  C   UNL     1       0.393  64.433   1.694  1.00  0.00     0.158 A 
BRANCH  15  18
ATOM     18  O   UNL     1       1.510  66.388   0.686  1.00  0.00    -0.504 OA
ATOM     19  H   UNL     1       1.532  67.372   0.910  1.00  0.00     0.293 HD
ENDBRANCH  15  18
BRANCH  17  20
ATOM     20  O   UNL     1       1.516  64.035   2.421  1.00  0.00    -0.504 OA
ATOM     21  H   UNL     1       1.832  64.488   3.266  1.00  0.00     0.293 HD
ENDBRANCH  17  20
ENDBRANCH   1  12
BRANCH   2  22
ATOM     22  O   UNL     1      -4.089  64.704   2.902  1.00  0.00    -0.502 OA
ATOM     23  H   UNL     1      -4.187  65.616   2.471  1.00  0.00     0.293 HD
ENDBRANCH   2  22
BRANCH   6  24
ATOM     24  O   UNL     1      -7.453  60.589   2.551  1.00  0.00    -0.507 OA
ATOM     25  H   UNL     1      -8.387  60.927   2.371  1.00  0.00     0.293 HD
ENDBRANCH   6  24
BRANCH   8  26
ATOM     26  O   UNL     1      -5.470  58.192  -1.106  1.00  0.00    -0.508 OA
ATOM     27  H   UNL     1      -6.219  58.082  -1.780  1.00  0.00     0.293 HD
ENDBRANCH   8  26
TORSDOF 6
ENDMDL
MODEL 7
REMARK VINA RESULT:    -5.340      2.025      7.442
REMARK INTER + INTRA:          -6.697
REMARK INTER:                  -6.433
REMARK INTRA:                  -0.264
REMARK UNBOUND:                -0.265
REMARK SMILES O=c1c(O)c(-c2ccc(O)c(O)c2)oc2cc(O)cc(O)c12
REMARK SMILES IDX 5 1 3 2 2 3 1 4 22 5 20 6 19 7 17 8 16 9 15 10 14 11 6 12
REMARK SMILES IDX 7 13 8 14 9 15 13 16 11 17 10 18 12 20 4 22 21 24 18 26
REMARK H PARENT 10 19 12 21 4 23 21 25 18 27
REMARK Flexibility Score: inf
ROOT
ATOM      1  C   UNL     1       1.000  56.162 -10.748  1.00  0.00     0.180 A 
ATOM      2  C   UNL     1       0.004  56.205  -9.758  1.00  0.00     0.208 A 
ATOM      3  C   UNL     1      -0.163  57.381  -9.010  1.00  0.00     0.238 A 
ATOM      4  O   UNL     1      -1.020  57.395  -8.088  1.00  0.00    -0.285 OA
ATOM      5  C   UNL     1       0.657  58.506  -9.272  1.00  0.00     0.111 A 
ATOM      6  C   UNL     1       0.548  59.762  -8.604  1.00  0.00     0.134 A 
ATOM      7  C   UNL     1       1.497  60.761  -8.853  1.00  0.00     0.093 A 
ATOM      8  C   UNL     1       2.511  60.572  -9.795  1.00  0.00     0.123 A 
ATOM      9  C   UNL     1       2.590  59.371 -10.496  1.00  0.00     0.094 A 
ATOM     10  C   UNL     1       1.680  58.342 -10.243  1.00  0.00     0.146 A 
ATOM     11  O   UNL     1       1.796  57.210 -10.925  1.00  0.00    -0.452 OA
ENDROOT
BRANCH   1  12
ATOM     12  C   UNL     1       1.220  54.966 -11.593  1.00  0.00     0.025 A 
ATOM     13  C   UNL     1       1.857  53.822 -11.089  1.00  0.00     0.016 A 
ATOM     14  C   UNL     1       2.031  52.697 -11.898  1.00  0.00     0.051 A 
ATOM     15  C   UNL     1       1.563  52.686 -13.217  1.00  0.00     0.157 A 
ATOM     16  C   UNL     1       0.730  54.949 -12.909  1.00  0.00     0.062 A 
ATOM     17  C   UNL     1       0.900  53.826 -13.728  1.00  0.00     0.158 A 
BRANCH  15  18
ATOM     18  O   UNL     1       1.773  51.531 -13.974  1.00  0.00    -0.504 OA
ATOM     19  H   UNL     1       1.276  50.665 -13.832  1.00  0.00     0.293 HD
ENDBRANCH  15  18
BRANCH  17  20
ATOM     20  O   UNL     1       0.398  53.886 -15.029  1.00  0.00    -0.504 OA
ATOM     21  H   UNL     1       0.960  54.092 -15.843  1.00  0.00     0.293 HD
ENDBRANCH  17  20
ENDBRANCH   1  12
BRANCH   2  22
ATOM     22  O   UNL     1      -0.780  55.076  -9.500  1.00  0.00    -0.502 OA
ATOM     23  H   UNL     1      -0.391  54.142  -9.464  1.00  0.00     0.293 HD
ENDBRANCH   2  22
BRANCH   6  24
ATOM     24  O   UNL     1      -0.480  60.086  -7.714  1.00  0.00    -0.507 OA
ATOM     25  H   UNL     1      -0.765  59.515  -6.932  1.00  0.00     0.293 HD
ENDBRANCH   6  24
BRANCH   8  26
ATOM     26  O   UNL     1       3.442  61.577 -10.048  1.00  0.00    -0.508 OA
ATOM     27  H   UNL     1       3.410  62.127 -10.899  1.00  0.00     0.293 HD
ENDBRANCH   8  26
TORSDOF 6
ENDMDL
MODEL 8
REMARK VINA RESULT:    -5.336     15.321     17.584
REMARK INTER + INTRA:          -6.693
REMARK INTER:                  -6.364
REMARK INTRA:                  -0.329
REMARK UNBOUND:                -0.265
REMARK SMILES O=c1c(O)c(-c2ccc(O)c(O)c2)oc2cc(O)cc(O)c12
REMARK SMILES IDX 5 1 3 2 2 3 1 4 22 5 20 6 19 7 17 8 16 9 15 10 14 11 6 12
REMARK SMILES IDX 7 13 8 14 9 15 13 16 11 17 10 18 12 20 4 22 21 24 18 26
REMARK H PARENT 10 19 12 21 4 23 21 25 18 27
REMARK Flexibility Score: inf
ROOT
ATOM      1  C   UNL     1      -0.266  64.478   1.609  1.00  0.00     0.180 A 
ATOM      2  C   UNL     1      -1.322  65.000   2.374  1.00  0.00     0.208 A 
ATOM      3  C   UNL     1      -2.092  66.049   1.847  1.00  0.00     0.238 A 
ATOM      4  O   UNL     1      -3.002  66.548   2.560  1.00  0.00    -0.285 OA
ATOM      5  C   UNL     1      -1.806  66.553   0.555  1.00  0.00     0.111 A 
ATOM      6  C   UNL     1      -2.546  67.587  -0.094  1.00  0.00     0.134 A 
ATOM      7  C   UNL     1      -2.094  68.096  -1.317  1.00  0.00     0.093 A 
ATOM      8  C   UNL     1      -0.965  67.563  -1.946  1.00  0.00     0.123 A 
ATOM      9  C   UNL     1      -0.271  66.514  -1.348  1.00  0.00     0.094 A 
ATOM     10  C   UNL     1      -0.677  66.010  -0.111  1.00  0.00     0.146 A 
ATOM     11  O   UNL     1       0.019  65.016   0.429  1.00  0.00    -0.452 OA
ENDROOT
BRANCH   1  12
ATOM     12  C   UNL     1       0.574  63.356   2.087  1.00  0.00     0.025 A 
ATOM     13  C   UNL     1       0.257  62.024   1.781  1.00  0.00     0.016 A 
ATOM     14  C   UNL     1       1.076  60.983   2.222  1.00  0.00     0.051 A 
ATOM     15  C   UNL     1       2.233  61.250   2.963  1.00  0.00     0.157 A 
ATOM     16  C   UNL     1       1.746  63.627   2.810  1.00  0.00     0.062 A 
ATOM     17  C   UNL     1       2.575  62.591   3.258  1.00  0.00     0.158 A 
BRANCH  15  18
ATOM     18  O   UNL     1       3.008  60.165   3.377  1.00  0.00    -0.504 OA
ATOM     19  H   UNL     1       2.989  59.257   2.937  1.00  0.00     0.293 HD
ENDBRANCH  15  18
BRANCH  17  20
ATOM     20  O   UNL     1       3.716  62.936   3.983  1.00  0.00    -0.504 OA
ATOM     21  H   UNL     1       4.437  62.280   4.248  1.00  0.00     0.293 HD
ENDBRANCH  17  20
ENDBRANCH   1  12
BRANCH   2  22
ATOM     22  O   UNL     1      -1.574  64.503   3.657  1.00  0.00    -0.502 OA
ATOM     23  H   UNL     1      -1.785  65.106   4.442  1.00  0.00     0.293 HD
ENDBRANCH   2  22
BRANCH   6  24
ATOM     24  O   UNL     1      -3.737  68.124   0.404  1.00  0.00    -0.507 OA
ATOM     25  H   UNL     1      -4.328  67.676   1.088  1.00  0.00     0.293 HD
ENDBRANCH   6  24
BRANCH   8  26
ATOM     26  O   UNL     1      -0.531  68.065  -3.171  1.00  0.00    -0.508 OA
ATOM     27  H   UNL     1       0.300  67.704  -3.626  1.00  0.00     0.293 HD
ENDBRANCH   8  26
TORSDOF 6
ENDMDL
MODEL 9
REMARK VINA RESULT:    -5.322      2.059      7.599
REMARK INTER + INTRA:          -6.676
REMARK INTER:                  -6.427
REMARK INTRA:                  -0.249
REMARK UNBOUND:                -0.265
REMARK SMILES O=c1c(O)c(-c2ccc(O)c(O)c2)oc2cc(O)cc(O)c12
REMARK SMILES IDX 5 1 3 2 2 3 1 4 22 5 20 6 19 7 17 8 16 9 15 10 14 11 6 12
REMARK SMILES IDX 7 13 8 14 9 15 13 16 11 17 10 18 12 20 4 22 21 24 18 26
REMARK H PARENT 10 19 12 21 4 23 21 25 18 27
REMARK Flexibility Score: inf
ROOT
ATOM      1  C   UNL     1       0.965  56.454 -10.294  1.00  0.00     0.180 A 
ATOM      2  C   UNL     1       2.067  57.221  -9.880  1.00  0.00     0.208 A 
ATOM      3  C   UNL     1       1.841  58.405  -9.161  1.00  0.00     0.238 A 
ATOM      4  O   UNL     1       2.829  59.115  -8.839  1.00  0.00    -0.285 OA
ATOM      5  C   UNL     1       0.516  58.800  -8.853  1.00  0.00     0.111 A 
ATOM      6  C   UNL     1       0.172  59.960  -8.095  1.00  0.00     0.134 A 
ATOM      7  C   UNL     1      -1.174  60.324  -7.962  1.00  0.00     0.093 A 
ATOM      8  C   UNL     1      -2.190  59.533  -8.504  1.00  0.00     0.123 A 
ATOM      9  C   UNL     1      -1.867  58.368  -9.195  1.00  0.00     0.094 A 
ATOM     10  C   UNL     1      -0.532  57.998  -9.374  1.00  0.00     0.146 A 
ATOM     11  O   UNL     1      -0.266  56.885 -10.047  1.00  0.00    -0.452 OA
ENDROOT
BRANCH   1  12
ATOM     12  C   UNL     1       1.125  55.181 -11.034  1.00  0.00     0.025 A 
ATOM     13  C   UNL     1       1.613  54.026 -10.405  1.00  0.00     0.016 A 
ATOM     14  C   UNL     1       1.733  52.831 -11.116  1.00  0.00     0.051 A 
ATOM     15  C   UNL     1       1.356  52.759 -12.462  1.00  0.00     0.157 A 
ATOM     16  C   UNL     1       0.725  55.106 -12.378  1.00  0.00     0.062 A 
ATOM     17  C   UNL     1       0.841  53.912 -13.101  1.00  0.00     0.158 A 
BRANCH  15  18
ATOM     18  O   UNL     1       1.503  51.535 -13.118  1.00  0.00    -0.504 OA
ATOM     19  H   UNL     1       0.733  50.989 -13.474  1.00  0.00     0.293 HD
ENDBRANCH  15  18
BRANCH  17  20
ATOM     20  O   UNL     1       0.435  53.916 -14.436  1.00  0.00    -0.504 OA
ATOM     21  H   UNL     1       0.296  54.754 -14.982  1.00  0.00     0.293 HD
ENDBRANCH  17  20
ENDBRANCH   1  12
BRANCH   2  22
ATOM     22  O   UNL     1       3.365  56.824 -10.214  1.00  0.00    -0.502 OA
ATOM     23  H   UNL     1       4.181  57.163  -9.719  1.00  0.00     0.293 HD
ENDBRANCH   2  22
BRANCH   6  24
ATOM     24  O   UNL     1       1.105  60.767  -7.436  1.00  0.00    -0.507 OA
ATOM     25  H   UNL     1       0.927  61.708  -7.118  1.00  0.00     0.293 HD
ENDBRANCH   6  24
BRANCH   8  26
ATOM     26  O   UNL     1      -3.527  59.894  -8.355  1.00  0.00    -0.508 OA
ATOM     27  H   UNL     1      -4.212  59.700  -9.077  1.00  0.00     0.293 HD
ENDBRANCH   8  26
TORSDOF 6
ENDMDL
