MODEL 1
REMARK VINA RESULT:    -4.850      0.000      0.000
REMARK INTER + INTRA:          -4.850
REMARK INTER:                  -4.850
REMARK INTRA:                   0.000
REMARK UNBOUND:                 0.000
REMARK SMILES c1ccc2ccccc2c1
REMARK SMILES IDX 2 1 1 2 10 3 9 4 8 5 7 6 6 7 5 8 4 9 3 10
REMARK H PARENT
REMARK Flexibility Score: inf
ROOT
ATOM      1  C   UNL     1      -0.244  -7.999   6.926  1.00  0.00     0.001 A 
ATOM      2  C   UNL     1       0.097  -8.746   5.796  1.00  0.00     0.001 A 
ATOM      3  C   UNL     1       1.425  -9.124   5.577  1.00  0.00     0.009 A 
ATOM      4  C   UNL     1       2.423  -8.753   6.491  1.00  0.00    -0.018 A 
ATOM      5  C   UNL     1       3.760  -9.125   6.282  1.00  0.00     0.009 A 
ATOM      6  C   UNL     1       4.744  -8.749   7.202  1.00  0.00     0.001 A 
ATOM      7  C   UNL     1       4.403  -8.001   8.331  1.00  0.00     0.001 A 
ATOM      8  C   UNL     1       3.075  -7.624   8.551  1.00  0.00     0.009 A 
ATOM      9  C   UNL     1       2.076  -7.994   7.637  1.00  0.00    -0.018 A 
ATOM     10  C   UNL     1       0.740  -7.623   7.845  1.00  0.00     0.009 A 
ENDROOT
TORSDOF 0
ENDMDL
MODEL 2
REMARK VINA RESULT:    -4.848      0.227      4.011
REMARK INTER + INTRA:          -4.848
REMARK INTER:                  -4.848
REMARK INTRA:                   0.000
REMARK UNBOUND:                 0.000
REMARK SMILES c1ccc2ccccc2c1
REMARK SMILES IDX 2 1 1 2 10 3 9 4 8 5 7 6 6 7 5 8 4 9 3 10
REMARK H PARENT
REMARK Flexibility Score: inf
ROOT
ATOM      1  C   UNL     1       4.696  -8.755   7.506  1.00  0.00     0.001 A 
ATOM      2  C   UNL     1       4.223  -8.020   8.595  1.00  0.00     0.001 A 
ATOM      3  C   UNL     1       2.877  -7.648   8.662  1.00  0.00     0.009 A 
ATOM      4  C   UNL     1       1.993  -8.012   7.634  1.00  0.00    -0.018 A 
ATOM      5  C   UNL     1       0.640  -7.645   7.689  1.00  0.00     0.009 A 
ATOM      6  C   UNL     1      -0.229  -8.014   6.658  1.00  0.00     0.001 A 
ATOM      7  C   UNL     1       0.243  -8.750   5.568  1.00  0.00     0.001 A 
ATOM      8  C   UNL     1       1.590  -9.121   5.501  1.00  0.00     0.009 A 
ATOM      9  C   UNL     1       2.474  -8.758   6.529  1.00  0.00    -0.018 A 
ATOM     10  C   UNL     1       3.826  -9.125   6.474  1.00  0.00     0.009 A 
ENDROOT
TORSDOF 0
ENDMDL
MODEL 3
REMARK VINA RESULT:    -4.813      0.158      2.086
REMARK INTER + INTRA:          -4.813
REMARK INTER:                  -4.813
REMARK INTRA:                   0.000
REMARK UNBOUND:                 0.000
REMARK SMILES c1ccc2ccccc2c1
REMARK SMILES IDX 2 1 1 2 10 3 9 4 8 5 7 6 6 7 5 8 4 9 3 10
REMARK H PARENT
REMARK Flexibility Score: inf
ROOT
ATOM      1  C   UNL     1       0.051  -8.702   6.005  1.00  0.00     0.001 A 
ATOM      2  C   UNL     1      -0.247  -7.925   7.126  1.00  0.00     0.001 A 
ATOM      3  C   UNL     1       0.768  -7.543   8.008  1.00  0.00     0.009 A 
ATOM      4  C   UNL     1       2.093  -7.939   7.772  1.00  0.00    -0.018 A 
ATOM      5  C   UNL     1       3.121  -7.564   8.649  1.00  0.00     0.009 A 
ATOM      6  C   UNL     1       4.438  -7.966   8.401  1.00  0.00     0.001 A 
ATOM      7  C   UNL     1       4.736  -8.743   7.279  1.00  0.00     0.001 A 
ATOM      8  C   UNL     1       3.721  -9.125   6.397  1.00  0.00     0.009 A 
ATOM      9  C   UNL     1       2.396  -8.729   6.634  1.00  0.00    -0.018 A 
ATOM     10  C   UNL     1       1.368  -9.105   5.756  1.00  0.00     0.009 A 
ENDROOT
TORSDOF 0
ENDMDL
MODEL 4
REMARK VINA RESULT:    -4.363      1.420      3.467
REMARK INTER + INTRA:          -4.363
REMARK INTER:                  -4.363
REMARK INTRA:                   0.000
REMARK UNBOUND:                 0.000
REMARK SMILES c1ccc2ccccc2c1
REMARK SMILES IDX 2 1 1 2 10 3 9 4 8 5 7 6 6 7 5 8 4 9 3 10
REMARK H PARENT
REMARK Flexibility Score: inf
ROOT
ATOM      1  C   UNL     1       1.840  -8.798  10.196  1.00  0.00     0.001 A 
ATOM      2  C   UNL     1       0.478  -8.493  10.148  1.00  0.00     0.001 A 
ATOM      3  C   UNL     1      -0.178  -8.396   8.917  1.00  0.00     0.009 A 
ATOM      4  C   UNL     1       0.529  -8.606   7.723  1.00  0.00    -0.018 A 
ATOM      5  C   UNL     1      -0.117  -8.511   6.481  1.00  0.00     0.009 A 
ATOM      6  C   UNL     1       0.600  -8.723   5.299  1.00  0.00     0.001 A 
ATOM      7  C   UNL     1       1.962  -9.029   5.348  1.00  0.00     0.001 A 
ATOM      8  C   UNL     1       2.618  -9.125   6.578  1.00  0.00     0.009 A 
ATOM      9  C   UNL     1       1.911  -8.915   7.773  1.00  0.00    -0.018 A 
ATOM     10  C   UNL     1       2.558  -9.010   9.014  1.00  0.00     0.009 A 
ENDROOT
TORSDOF 0
ENDMDL
MODEL 5
REMARK VINA RESULT:    -4.287     14.609     16.214
REMARK INTER + INTRA:          -4.287
REMARK INTER:                  -4.287
REMARK INTRA:                   0.000
REMARK UNBOUND:                 0.000
REMARK SMILES c1ccc2ccccc2c1
REMARK SMILES IDX 2 1 1 2 10 3 9 4 8 5 7 6 6 7 5 8 4 9 3 10
REMARK H PARENT
REMARK Flexibility Score: inf
ROOT
ATOM      1  C   UNL     1      -5.873   1.936  -5.009  1.00  0.00     0.001 A 
ATOM      2  C   UNL     1      -6.620   1.162  -4.118  1.00  0.00     0.001 A 
ATOM      3  C   UNL     1      -6.245  -0.157  -3.846  1.00  0.00     0.009 A 
ATOM      4  C   UNL     1      -5.116  -0.712  -4.468  1.00  0.00    -0.018 A 
ATOM      5  C   UNL     1      -4.729  -2.034  -4.205  1.00  0.00     0.009 A 
ATOM      6  C   UNL     1      -3.601  -2.573  -4.832  1.00  0.00     0.001 A 
ATOM      7  C   UNL     1      -2.854  -1.800  -5.723  1.00  0.00     0.001 A 
ATOM      8  C   UNL     1      -3.229  -0.480  -5.995  1.00  0.00     0.009 A 
ATOM      9  C   UNL     1      -4.358   0.074  -5.373  1.00  0.00    -0.018 A 
ATOM     10  C   UNL     1      -4.745   1.397  -5.636  1.00  0.00     0.009 A 
ENDROOT
TORSDOF 0
ENDMDL
MODEL 6
REMARK VINA RESULT:    -4.286     14.600     16.401
REMARK INTER + INTRA:          -4.286
REMARK INTER:                  -4.286
REMARK INTRA:                   0.000
REMARK UNBOUND:                 0.000
REMARK SMILES c1ccc2ccccc2c1
REMARK SMILES IDX 2 1 1 2 10 3 9 4 8 5 7 6 6 7 5 8 4 9 3 10
REMARK H PARENT
REMARK Flexibility Score: inf
ROOT
ATOM      1  C   UNL     1      -2.838  -1.831  -5.708  1.00  0.00     0.001 A 
ATOM      2  C   UNL     1      -3.607  -2.599  -4.831  1.00  0.00     0.001 A 
ATOM      3  C   UNL     1      -4.737  -2.048  -4.218  1.00  0.00     0.009 A 
ATOM      4  C   UNL     1      -5.103  -0.719  -4.481  1.00  0.00    -0.018 A 
ATOM      5  C   UNL     1      -6.233  -0.153  -3.872  1.00  0.00     0.009 A 
ATOM      6  C   UNL     1      -6.586   1.173  -4.143  1.00  0.00     0.001 A 
ATOM      7  C   UNL     1      -5.817   1.941  -5.021  1.00  0.00     0.001 A 
ATOM      8  C   UNL     1      -4.688   1.390  -5.634  1.00  0.00     0.009 A 
ATOM      9  C   UNL     1      -4.321   0.060  -5.371  1.00  0.00    -0.018 A 
ATOM     10  C   UNL     1      -3.191  -0.505  -5.980  1.00  0.00     0.009 A 
ENDROOT
TORSDOF 0
ENDMDL
MODEL 7
REMARK VINA RESULT:    -4.284     14.661     16.201
REMARK INTER + INTRA:          -4.284
REMARK INTER:                  -4.284
REMARK INTRA:                   0.000
REMARK UNBOUND:                 0.000
REMARK SMILES c1ccc2ccccc2c1
REMARK SMILES IDX 2 1 1 2 10 3 9 4 8 5 7 6 6 7 5 8 4 9 3 10
REMARK H PARENT
REMARK Flexibility Score: inf
ROOT
ATOM      1  C   UNL     1      -6.593   1.185  -4.122  1.00  0.00     0.001 A 
ATOM      2  C   UNL     1      -5.862   1.969  -5.017  1.00  0.00     0.001 A 
ATOM      3  C   UNL     1      -4.738   1.441  -5.660  1.00  0.00     0.009 A 
ATOM      4  C   UNL     1      -4.339   0.119  -5.410  1.00  0.00    -0.018 A 
ATOM      5  C   UNL     1      -3.214  -0.423  -6.048  1.00  0.00     0.009 A 
ATOM      6  C   UNL     1      -2.828  -1.742  -5.788  1.00  0.00     0.001 A 
ATOM      7  C   UNL     1      -3.559  -2.527  -4.893  1.00  0.00     0.001 A 
ATOM      8  C   UNL     1      -4.682  -1.998  -4.250  1.00  0.00     0.009 A 
ATOM      9  C   UNL     1      -5.082  -0.676  -4.500  1.00  0.00    -0.018 A 
ATOM     10  C   UNL     1      -6.207  -0.134  -3.862  1.00  0.00     0.009 A 
ENDROOT
TORSDOF 0
ENDMDL
MODEL 8
REMARK VINA RESULT:    -3.840      1.453      3.279
REMARK INTER + INTRA:          -3.840
REMARK INTER:                  -3.840
REMARK INTRA:                   0.000
REMARK UNBOUND:                 0.000
REMARK SMILES c1ccc2ccccc2c1
REMARK SMILES IDX 2 1 1 2 10 3 9 4 8 5 7 6 6 7 5 8 4 9 3 10
REMARK H PARENT
REMARK Flexibility Score: inf
ROOT
ATOM      1  C   UNL     1       0.245  -8.422  10.117  1.00  0.00     0.001 A 
ATOM      2  C   UNL     1       1.574  -8.846  10.192  1.00  0.00     0.001 A 
ATOM      3  C   UNL     1       2.304  -9.081   9.023  1.00  0.00     0.009 A 
ATOM      4  C   UNL     1       1.706  -8.892   7.768  1.00  0.00    -0.018 A 
ATOM      5  C   UNL     1       2.427  -9.125   6.588  1.00  0.00     0.009 A 
ATOM      6  C   UNL     1       1.818  -8.932   5.344  1.00  0.00     0.001 A 
ATOM      7  C   UNL     1       0.489  -8.507   5.269  1.00  0.00     0.001 A 
ATOM      8  C   UNL     1      -0.241  -8.272   6.438  1.00  0.00     0.009 A 
ATOM      9  C   UNL     1       0.357  -8.462   7.693  1.00  0.00    -0.018 A 
ATOM     10  C   UNL     1      -0.364  -8.229   8.873  1.00  0.00     0.009 A 
ENDROOT
TORSDOF 0
ENDMDL
