MODEL 1
REMARK VINA RESULT:    -5.696      0.000      0.000
REMARK INTER + INTRA:          -6.447
REMARK INTER:                  -6.195
REMARK INTRA:                  -0.251
REMARK UNBOUND:                -0.251
REMARK SMILES O=C([O-])c1ccccc1O
REMARK SMILES IDX 4 1 9 2 5 3 8 4 6 5 7 6 2 7 1 8 3 9 10 10
REMARK H PARENT 10 11
REMARK Flexibility Score: inf
ROOT
ATOM      1  C   UNL     1       8.994 -55.048 -29.418  1.00  0.00     0.039 A 
ATOM      2  C   UNL     1       7.808 -55.825 -29.383  1.00  0.00     0.124 A 
ATOM      3  C   UNL     1       9.224 -54.205 -30.522  1.00  0.00     0.014 A 
ATOM      4  C   UNL     1       6.864 -55.694 -30.410  1.00  0.00     0.047 A 
ATOM      5  C   UNL     1       8.282 -54.103 -31.549  1.00  0.00     0.001 A 
ATOM      6  C   UNL     1       7.100 -54.839 -31.487  1.00  0.00     0.004 A 
ENDROOT
BRANCH   1   7
ATOM      7  C   UNL     1       9.982 -55.059 -28.317  1.00  0.00     0.075 C 
ATOM      8  O   UNL     1      10.378 -53.974 -27.813  1.00  0.00    -0.545 OA
ATOM      9  O   UNL     1      10.435 -56.257 -27.778  1.00  0.00    -0.545 OA
ENDBRANCH   1   7
BRANCH   2  10
ATOM     10  O   UNL     1       7.548 -56.755 -28.375  1.00  0.00    -0.507 OA
ATOM     11  H   UNL     1       8.117 -57.574 -28.213  1.00  0.00     0.293 HD
ENDBRANCH   2  10
TORSDOF 2
ENDMDL
MODEL 2
REMARK VINA RESULT:    -5.527      2.662      4.322
REMARK INTER + INTRA:          -6.263
REMARK INTER:                  -6.019
REMARK INTRA:                  -0.244
REMARK UNBOUND:                -0.251
REMARK SMILES O=C([O-])c1ccccc1O
REMARK SMILES IDX 4 1 9 2 5 3 8 4 6 5 7 6 2 7 1 8 3 9 10 10
REMARK H PARENT 10 11
REMARK Flexibility Score: inf
ROOT
ATOM      1  C   UNL     1       7.599 -55.071 -30.858  1.00  0.00     0.039 A 
ATOM      2  C   UNL     1       8.802 -54.341 -31.037  1.00  0.00     0.124 A 
ATOM      3  C   UNL     1       7.458 -55.882 -29.716  1.00  0.00     0.014 A 
ATOM      4  C   UNL     1       9.796 -54.392 -30.051  1.00  0.00     0.047 A 
ATOM      5  C   UNL     1       8.469 -55.938 -28.753  1.00  0.00     0.001 A 
ATOM      6  C   UNL     1       9.631 -55.186 -28.915  1.00  0.00     0.004 A 
ENDROOT
BRANCH   1   7
ATOM      7  C   UNL     1       6.468 -54.981 -31.808  1.00  0.00     0.075 C 
ATOM      8  O   UNL     1       6.688 -54.921 -33.048  1.00  0.00    -0.545 OA
ATOM      9  O   UNL     1       5.155 -55.029 -31.358  1.00  0.00    -0.545 OA
ENDBRANCH   1   7
BRANCH   2  10
ATOM     10  O   UNL     1       9.062 -53.590 -32.185  1.00  0.00    -0.507 OA
ATOM     11  H   UNL     1       8.719 -52.651 -32.325  1.00  0.00     0.293 HD
ENDBRANCH   2  10
TORSDOF 2
ENDMDL
MODEL 3
REMARK VINA RESULT:    -5.515      1.420      2.276
REMARK INTER + INTRA:          -6.250
REMARK INTER:                  -6.017
REMARK INTRA:                  -0.233
REMARK UNBOUND:                -0.251
REMARK SMILES O=C([O-])c1ccccc1O
REMARK SMILES IDX 4 1 9 2 5 3 8 4 6 5 7 6 2 7 1 8 3 9 10 10
REMARK H PARENT 10 11
REMARK Flexibility Score: inf
ROOT
ATOM      1  C   UNL     1       8.523 -55.253 -29.527  1.00  0.00     0.039 A 
ATOM      2  C   UNL     1       8.220 -54.622 -30.761  1.00  0.00     0.124 A 
ATOM      3  C   UNL     1       7.542 -56.056 -28.915  1.00  0.00     0.014 A 
ATOM      4  C   UNL     1       6.982 -54.858 -31.374  1.00  0.00     0.047 A 
ATOM      5  C   UNL     1       6.304 -56.263 -29.530  1.00  0.00     0.001 A 
ATOM      6  C   UNL     1       6.030 -55.673 -30.762  1.00  0.00     0.004 A 
ENDROOT
BRANCH   1   7
ATOM      7  C   UNL     1       9.846 -55.131 -28.878  1.00  0.00     0.075 C 
ATOM      8  O   UNL     1      10.525 -54.078 -29.020  1.00  0.00    -0.545 OA
ATOM      9  O   UNL     1      10.330 -56.138 -28.053  1.00  0.00    -0.545 OA
ENDBRANCH   1   7
BRANCH   2  10
ATOM     10  O   UNL     1       9.098 -53.734 -31.386  1.00  0.00    -0.507 OA
ATOM     11  H   UNL     1       9.865 -54.031 -31.973  1.00  0.00     0.293 HD
ENDBRANCH   2  10
TORSDOF 2
ENDMDL
MODEL 4
REMARK VINA RESULT:    -5.465      2.366      3.691
REMARK INTER + INTRA:          -6.196
REMARK INTER:                  -5.957
REMARK INTRA:                  -0.238
REMARK UNBOUND:                -0.251
REMARK SMILES O=C([O-])c1ccccc1O
REMARK SMILES IDX 4 1 9 2 5 3 8 4 6 5 7 6 2 7 1 8 3 9 10 10
REMARK H PARENT 10 11
REMARK Flexibility Score: inf
ROOT
ATOM      1  C   UNL     1       8.039 -54.967 -30.958  1.00  0.00     0.039 A 
ATOM      2  C   UNL     1       7.802 -55.905 -29.920  1.00  0.00     0.124 A 
ATOM      3  C   UNL     1       9.076 -54.028 -30.803  1.00  0.00     0.014 A 
ATOM      4  C   UNL     1       8.639 -55.920 -28.796  1.00  0.00     0.047 A 
ATOM      5  C   UNL     1       9.888 -54.043 -29.666  1.00  0.00     0.001 A 
ATOM      6  C   UNL     1       9.675 -54.994 -28.669  1.00  0.00     0.004 A 
ENDROOT
BRANCH   1   7
ATOM      7  C   UNL     1       7.261 -54.964 -32.216  1.00  0.00     0.075 C 
ATOM      8  O   UNL     1       7.850 -55.098 -33.323  1.00  0.00    -0.545 OA
ATOM      9  O   UNL     1       5.875 -54.881 -32.196  1.00  0.00    -0.545 OA
ENDBRANCH   1   7
BRANCH   2  10
ATOM     10  O   UNL     1       6.735 -56.805 -29.949  1.00  0.00    -0.507 OA
ATOM     11  H   UNL     1       5.803 -56.554 -30.246  1.00  0.00     0.293 HD
ENDBRANCH   2  10
TORSDOF 2
ENDMDL
MODEL 5
REMARK VINA RESULT:    -5.422      1.704      2.399
REMARK INTER + INTRA:          -6.148
REMARK INTER:                  -5.905
REMARK INTRA:                  -0.244
REMARK UNBOUND:                -0.251
REMARK SMILES O=C([O-])c1ccccc1O
REMARK SMILES IDX 4 1 9 2 5 3 8 4 6 5 7 6 2 7 1 8 3 9 10 10
REMARK H PARENT 10 11
REMARK Flexibility Score: inf
ROOT
ATOM      1  C   UNL     1       8.000 -54.902 -30.802  1.00  0.00     0.039 A 
ATOM      2  C   UNL     1       7.495 -55.667 -29.720  1.00  0.00     0.124 A 
ATOM      3  C   UNL     1       7.151 -54.616 -31.888  1.00  0.00     0.014 A 
ATOM      4  C   UNL     1       6.153 -56.069 -29.722  1.00  0.00     0.047 A 
ATOM      5  C   UNL     1       5.820 -55.044 -31.885  1.00  0.00     0.001 A 
ATOM      6  C   UNL     1       5.320 -55.761 -30.799  1.00  0.00     0.004 A 
ENDROOT
BRANCH   1   7
ATOM      7  C   UNL     1       9.375 -54.357 -30.815  1.00  0.00     0.075 C 
ATOM      8  O   UNL     1      10.071 -54.425 -31.863  1.00  0.00    -0.545 OA
ATOM      9  O   UNL     1       9.893 -53.707 -29.702  1.00  0.00    -0.545 OA
ENDBRANCH   1   7
BRANCH   2  10
ATOM     10  O   UNL     1       8.294 -56.076 -28.650  1.00  0.00    -0.507 OA
ATOM     11  H   UNL     1       8.790 -55.433 -28.049  1.00  0.00     0.293 HD
ENDBRANCH   2  10
TORSDOF 2
ENDMDL
MODEL 6
REMARK VINA RESULT:    -5.416      1.970      3.630
REMARK INTER + INTRA:          -6.143
REMARK INTER:                  -5.937
REMARK INTRA:                  -0.205
REMARK UNBOUND:                -0.251
REMARK SMILES O=C([O-])c1ccccc1O
REMARK SMILES IDX 4 1 9 2 5 3 8 4 6 5 7 6 2 7 1 8 3 9 10 10
REMARK H PARENT 10 11
REMARK Flexibility Score: inf
ROOT
ATOM      1  C   UNL     1       7.319 -55.159 -30.597  1.00  0.00     0.039 A 
ATOM      2  C   UNL     1       7.718 -55.835 -29.416  1.00  0.00     0.124 A 
ATOM      3  C   UNL     1       8.235 -54.299 -31.232  1.00  0.00     0.014 A 
ATOM      4  C   UNL     1       9.028 -55.685 -28.941  1.00  0.00     0.047 A 
ATOM      5  C   UNL     1       9.531 -54.144 -30.733  1.00  0.00     0.001 A 
ATOM      6  C   UNL     1       9.929 -54.844 -29.595  1.00  0.00     0.004 A 
ENDROOT
BRANCH   1   7
ATOM      7  C   UNL     1       5.987 -55.353 -31.211  1.00  0.00     0.075 C 
ATOM      8  O   UNL     1       5.761 -54.932 -32.377  1.00  0.00    -0.545 OA
ATOM      9  O   UNL     1       4.992 -56.058 -30.545  1.00  0.00    -0.545 OA
ENDBRANCH   1   7
BRANCH   2  10
ATOM     10  O   UNL     1       6.843 -56.629 -28.672  1.00  0.00    -0.507 OA
ATOM     11  H   UNL     1       5.968 -56.291 -28.296  1.00  0.00     0.293 HD
ENDBRANCH   2  10
TORSDOF 2
ENDMDL
MODEL 7
REMARK VINA RESULT:    -5.319      2.852      3.773
REMARK INTER + INTRA:          -6.037
REMARK INTER:                  -5.789
REMARK INTRA:                  -0.248
REMARK UNBOUND:                -0.251
REMARK SMILES O=C([O-])c1ccccc1O
REMARK SMILES IDX 4 1 9 2 5 3 8 4 6 5 7 6 2 7 1 8 3 9 10 10
REMARK H PARENT 10 11
REMARK Flexibility Score: inf
ROOT
ATOM      1  C   UNL     1       7.653 -55.283 -31.150  1.00  0.00     0.039 A 
ATOM      2  C   UNL     1       6.234 -55.281 -31.155  1.00  0.00     0.124 A 
ATOM      3  C   UNL     1       8.328 -55.698 -29.987  1.00  0.00     0.014 A 
ATOM      4  C   UNL     1       5.537 -55.747 -30.033  1.00  0.00     0.047 A 
ATOM      5  C   UNL     1       7.617 -56.140 -28.869  1.00  0.00     0.001 A 
ATOM      6  C   UNL     1       6.223 -56.174 -28.896  1.00  0.00     0.004 A 
ENDROOT
BRANCH   1   7
ATOM      7  C   UNL     1       8.451 -54.902 -32.336  1.00  0.00     0.075 C 
ATOM      8  O   UNL     1       8.045 -55.201 -33.492  1.00  0.00    -0.545 OA
ATOM      9  O   UNL     1       9.615 -54.157 -32.202  1.00  0.00    -0.545 OA
ENDBRANCH   1   7
BRANCH   2  10
ATOM     10  O   UNL     1       5.487 -54.795 -32.230  1.00  0.00    -0.507 OA
ATOM     11  H   UNL     1       5.292 -55.335 -33.061  1.00  0.00     0.293 HD
ENDBRANCH   2  10
TORSDOF 2
ENDMDL
MODEL 8
REMARK VINA RESULT:    -5.290      2.194      3.494
REMARK INTER + INTRA:          -6.005
REMARK INTER:                  -5.760
REMARK INTRA:                  -0.246
REMARK UNBOUND:                -0.251
REMARK SMILES O=C([O-])c1ccccc1O
REMARK SMILES IDX 4 1 9 2 5 3 8 4 6 5 7 6 2 7 1 8 3 9 10 10
REMARK H PARENT 10 11
REMARK Flexibility Score: inf
ROOT
ATOM      1  C   UNL     1       7.460 -55.504 -30.082  1.00  0.00     0.039 A 
ATOM      2  C   UNL     1       7.381 -54.792 -31.307  1.00  0.00     0.124 A 
ATOM      3  C   UNL     1       8.722 -55.698 -29.488  1.00  0.00     0.014 A 
ATOM      4  C   UNL     1       8.544 -54.246 -31.867  1.00  0.00     0.047 A 
ATOM      5  C   UNL     1       9.874 -55.166 -30.072  1.00  0.00     0.001 A 
ATOM      6  C   UNL     1       9.783 -54.433 -31.254  1.00  0.00     0.004 A 
ENDROOT
BRANCH   1   7
ATOM      7  C   UNL     1       6.261 -56.015 -29.383  1.00  0.00     0.075 C 
ATOM      8  O   UNL     1       6.205 -55.989 -28.124  1.00  0.00    -0.545 OA
ATOM      9  O   UNL     1       5.159 -56.466 -30.098  1.00  0.00    -0.545 OA
ENDBRANCH   1   7
BRANCH   2  10
ATOM     10  O   UNL     1       6.185 -54.637 -32.010  1.00  0.00    -0.507 OA
ATOM     11  H   UNL     1       5.284 -54.910 -31.643  1.00  0.00     0.293 HD
ENDBRANCH   2  10
TORSDOF 2
ENDMDL
MODEL 9
REMARK VINA RESULT:    -5.211      2.243      4.273
REMARK INTER + INTRA:          -5.919
REMARK INTER:                  -5.670
REMARK INTRA:                  -0.250
REMARK UNBOUND:                -0.251
REMARK SMILES O=C([O-])c1ccccc1O
REMARK SMILES IDX 4 1 9 2 5 3 8 4 6 5 7 6 2 7 1 8 3 9 10 10
REMARK H PARENT 10 11
REMARK Flexibility Score: inf
ROOT
ATOM      1  C   UNL     1       5.388 -56.079 -29.967  1.00  0.00     0.039 A 
ATOM      2  C   UNL     1       6.752 -56.152 -29.584  1.00  0.00     0.124 A 
ATOM      3  C   UNL     1       5.055 -55.449 -31.180  1.00  0.00     0.014 A 
ATOM      4  C   UNL     1       7.740 -55.654 -30.443  1.00  0.00     0.047 A 
ATOM      5  C   UNL     1       6.052 -54.938 -32.015  1.00  0.00     0.001 A 
ATOM      6  C   UNL     1       7.393 -55.050 -31.651  1.00  0.00     0.004 A 
ENDROOT
BRANCH   1   7
ATOM      7  C   UNL     1       4.304 -56.677 -29.158  1.00  0.00     0.075 C 
ATOM      8  O   UNL     1       4.482 -57.787 -28.585  1.00  0.00    -0.545 OA
ATOM      9  O   UNL     1       3.106 -56.002 -28.960  1.00  0.00    -0.545 OA
ENDBRANCH   1   7
BRANCH   2  10
ATOM     10  O   UNL     1       7.160 -56.674 -28.355  1.00  0.00    -0.507 OA
ATOM     11  H   UNL     1       7.668 -57.542 -28.260  1.00  0.00     0.293 HD
ENDBRANCH   2  10
TORSDOF 2
ENDMDL
